MODEL 1
REMARK VINA RESULT:     -12.1      0.000      0.000
REMARK SMILES O=C(NCCCNC(=O)[C@@H](Cc1c[nH]c2ccccc12)Nc1ncnc2ccccc12)c1ccc(-c2c3nc(c(-c4ccc(S(=O)(=O)[O-])cc4)c4ccc([nH]4)c(-c4ccc(S(=O)(=O)[O-])cc4)c4nc(c(-c5ccc(S(=O)(=O)[O-])cc5)c5ccc2[nH]5)C=C4)C=C3)cc1
REMARK SMILES IDX 4 1 3 2 1 3 2 4 32 6 33 7 91 8 34 9 90 10 35 11 36 12 37 13
REMARK SMILES IDX 84 14 38 15 89 16 83 17 85 18 39 19 88 20 82 21 81 22 40 24
REMARK SMILES IDX 70 25 51 26 69 27 52 28 55 29 68 30 86 31 53 32 54 33 67 35
REMARK SMILES IDX 87 36 56 37 41 38 42 39 50 40 43 41 49 42 44 43 45 44 46 45
REMARK SMILES IDX 47 46 48 47 71 48 72 49 80 50 73 51 79 52 74 53 75 54 76 55
REMARK SMILES IDX 77 56 78 57 57 58 58 59 66 60 59 61 65 62 60 63 61 64 62 65
REMARK SMILES IDX 63 66 64 67 5 68 6 69 7 70 8 71 9 73 10 74 11 75 12 76 13 77
REMARK SMILES IDX 20 78 14 79 15 80 19 81 16 83 18 84 17 85 21 86 22 88 23 89
REMARK SMILES IDX 31 90 24 91 26 92 30 93 25 94 27 95 29 96 28 97
REMARK H PARENT 3 5 85 23 55 34 7 72 14 82 21 87
REMARK Flexibility Score: inf
ROOT
ATOM      1  C   UNL A   1      33.493  28.648  26.704  1.00  0.00     0.118 C 
ENDROOT
BRANCH   1   2
ATOM      2  N   UNL A   1      33.524  29.946  27.355  1.00  0.00    -0.352 N 
ATOM      3  O   UNL A   1      34.114  31.601  28.719  1.00  0.00    -0.269 OA
ATOM      4  C   UNL A   1      34.469  30.579  28.128  1.00  0.00     0.251 C 
ATOM      5  H   UNL A   1      32.709  30.478  27.213  1.00  0.00     0.163 HD
BRANCH   4   6
ATOM      6  C   UNL A   1      35.872  30.099  28.306  1.00  0.00     0.039 A 
ATOM      7  C   UNL A   1      36.866  30.223  27.337  1.00  0.00     0.014 A 
ATOM      8  C   UNL A   1      36.242  29.617  29.573  1.00  0.00     0.014 A 
ATOM      9  C   UNL A   1      38.171  29.776  27.588  1.00  0.00     0.010 A 
ATOM     10  C   UNL A   1      37.569  29.253  29.853  1.00  0.00     0.010 A 
ATOM     11  C   UNL A   1      38.551  29.305  28.856  1.00  0.00    -0.014 A 
BRANCH  11  12
ATOM     12  C   UNL A   1      39.975  28.940  29.132  1.00  0.00     0.031 A 
ATOM     13  C   UNL A   1      40.907  29.889  29.848  1.00  0.00     0.074 A 
ATOM     14  C   UNL A   1      40.445  27.738  28.737  1.00  0.00     0.049 A 
ATOM     15  N   UNL A   1      42.159  29.709  30.196  1.00  0.00    -0.248 NA
ATOM     16  C   UNL A   1      40.372  31.209  30.211  1.00  0.00     0.031 C 
ATOM     17  C   UNL A   1      39.675  26.726  28.011  1.00  0.00     0.029 A 
ATOM     18  N   UNL A   1      41.677  27.151  28.907  1.00  0.00    -0.354 N 
ATOM     19  C   UNL A   1      42.568  30.899  30.789  1.00  0.00     0.074 A 
ATOM     20  C   UNL A   1      41.437  31.801  30.735  1.00  0.00     0.031 C 
ATOM     21  C   UNL A   1      40.426  25.625  27.855  1.00  0.00     0.029 A 
ATOM     22  C   UNL A   1      41.752  25.869  28.414  1.00  0.00     0.049 A 
ATOM     23  H   UNL A   1      42.435  27.606  29.341  1.00  0.00     0.167 HD
ATOM     24  C   UNL A   1      43.770  31.217  31.333  1.00  0.00     0.031 A 
ATOM     25  C   UNL A   1      42.765  24.981  28.403  1.00  0.00     0.031 A 
ATOM     26  C   UNL A   1      44.901  30.326  31.397  1.00  0.00     0.049 A 
ATOM     27  C   UNL A   1      44.088  25.355  29.011  1.00  0.00     0.074 A 
ATOM     28  C   UNL A   1      46.141  30.550  31.974  1.00  0.00     0.029 A 
ATOM     29  N   UNL A   1      44.937  29.046  30.866  1.00  0.00    -0.354 N 
ATOM     30  N   UNL A   1      44.434  26.470  29.607  1.00  0.00    -0.248 NA
ATOM     31  C   UNL A   1      45.155  24.346  28.948  1.00  0.00     0.031 C 
ATOM     32  C   UNL A   1      46.941  29.425  31.750  1.00  0.00     0.029 A 
ATOM     33  C   UNL A   1      46.182  28.477  31.083  1.00  0.00     0.049 A 
ATOM     34  H   UNL A   1      44.188  28.606  30.402  1.00  0.00     0.167 HD
ATOM     35  C   UNL A   1      45.751  26.286  30.015  1.00  0.00     0.074 A 
ATOM     36  C   UNL A   1      46.135  24.951  29.606  1.00  0.00     0.031 C 
ATOM     37  C   UNL A   1      46.564  27.149  30.672  1.00  0.00     0.031 A 
BRANCH  24  38
ATOM     38  C   UNL A   1      43.938  32.614  31.878  1.00  0.00    -0.014 A 
ATOM     39  C   UNL A   1      43.648  32.916  33.220  1.00  0.00     0.010 A 
ATOM     40  C   UNL A   1      44.426  33.633  31.038  1.00  0.00     0.010 A 
ATOM     41  C   UNL A   1      43.788  34.222  33.698  1.00  0.00     0.020 A 
ATOM     42  C   UNL A   1      44.594  34.935  31.519  1.00  0.00     0.020 A 
ATOM     43  C   UNL A   1      44.250  35.227  32.841  1.00  0.00     0.054 A 
BRANCH  43  44
ATOM     44  S   UNL A   1      44.414  36.915  33.482  1.00  0.00     0.124 S 
ATOM     45  O   UNL A   1      43.762  36.804  34.785  1.00  0.00    -0.237 OA
ATOM     46  O   UNL A   1      45.861  37.108  33.520  1.00  0.00    -0.237 OA
ATOM     47  O   UNL A   1      43.705  37.730  32.499  1.00  0.00    -0.744 OA
ENDBRANCH  43  44
ENDBRANCH  24  38
BRANCH  25  48
ATOM     48  C   UNL A   1      42.558  23.631  27.810  1.00  0.00    -0.014 A 
ATOM     49  C   UNL A   1      42.944  23.371  26.483  1.00  0.00     0.010 A 
ATOM     50  C   UNL A   1      42.001  22.592  28.577  1.00  0.00     0.010 A 
ATOM     51  C   UNL A   1      42.773  22.098  25.932  1.00  0.00     0.020 A 
ATOM     52  C   UNL A   1      41.854  21.311  28.038  1.00  0.00     0.020 A 
ATOM     53  C   UNL A   1      42.234  21.074  26.715  1.00  0.00     0.054 A 
BRANCH  53  54
ATOM     54  S   UNL A   1      42.090  19.411  26.004  1.00  0.00     0.124 S 
ATOM     55  O   UNL A   1      42.912  19.522  24.804  1.00  0.00    -0.237 OA
ATOM     56  O   UNL A   1      42.629  18.565  27.067  1.00  0.00    -0.237 OA
ATOM     57  O   UNL A   1      40.655  19.264  25.771  1.00  0.00    -0.744 OA
ENDBRANCH  53  54
ENDBRANCH  25  48
BRANCH  37  58
ATOM     58  C   UNL A   1      47.941  26.661  31.037  1.00  0.00    -0.014 A 
ATOM     59  C   UNL A   1      49.068  27.005  30.268  1.00  0.00     0.010 A 
ATOM     60  C   UNL A   1      48.113  25.868  32.186  1.00  0.00     0.010 A 
ATOM     61  C   UNL A   1      50.336  26.532  30.622  1.00  0.00     0.020 A 
ATOM     62  C   UNL A   1      49.381  25.415  32.557  1.00  0.00     0.020 A 
ATOM     63  C   UNL A   1      50.483  25.735  31.763  1.00  0.00     0.054 A 
BRANCH  63  64
ATOM     64  S   UNL A   1      52.141  25.154  32.219  1.00  0.00     0.124 S 
ATOM     65  O   UNL A   1      51.921  23.722  32.400  1.00  0.00    -0.237 OA
ATOM     66  O   UNL A   1      52.944  25.525  31.057  1.00  0.00    -0.237 OA
ATOM     67  O   UNL A   1      52.443  25.897  33.441  1.00  0.00    -0.744 OA
ENDBRANCH  63  64
ENDBRANCH  37  58
ENDBRANCH  11  12
ENDBRANCH   4   6
ENDBRANCH   1   2
BRANCH   1  68
ATOM     68  C   UNL A   1      32.288  27.819  27.118  1.00  0.00     0.042 C 
BRANCH  68  69
ATOM     69  C   UNL A   1      31.830  26.759  26.118  1.00  0.00     0.117 C 
BRANCH  69  70
ATOM     70  N   UNL A   1      31.272  25.594  26.791  1.00  0.00    -0.354 N 
ATOM     71  C   UNL A   1      31.180  24.277  26.460  1.00  0.00     0.242 C 
ATOM     72  H   UNL A   1      30.881  25.803  27.669  1.00  0.00     0.163 HD
ATOM     73  O   UNL A   1      30.440  23.602  27.191  1.00  0.00    -0.273 OA
BRANCH  71  74
ATOM     74  C   UNL A   1      31.904  23.585  25.277  1.00  0.00     0.174 C 
BRANCH  74  75
ATOM     75  C   UNL A   1      31.227  23.796  23.913  1.00  0.00     0.072 C 
BRANCH  75  76
ATOM     76  C   UNL A   1      31.354  25.111  23.214  1.00  0.00    -0.020 A 
ATOM     77  C   UNL A   1      32.386  25.535  22.399  1.00  0.00     0.087 A 
ATOM     78  C   UNL A   1      30.363  26.149  23.192  1.00  0.00     0.003 A 
ATOM     79  N   UNL A   1      32.089  26.791  21.939  1.00  0.00    -0.361 N 
ATOM     80  C   UNL A   1      30.877  27.205  22.441  1.00  0.00     0.046 A 
ATOM     81  C   UNL A   1      29.096  26.307  23.796  1.00  0.00     0.010 A 
ATOM     82  H   UNL A   1      32.659  27.320  21.336  1.00  0.00     0.166 HD
ATOM     83  C   UNL A   1      30.211  28.428  22.301  1.00  0.00     0.026 A 
ATOM     84  C   UNL A   1      28.416  27.522  23.664  1.00  0.00     0.001 A 
ATOM     85  C   UNL A   1      28.972  28.568  22.934  1.00  0.00     0.002 A 
ENDBRANCH  75  76
ENDBRANCH  74  75
BRANCH  74  86
ATOM     86  N   UNL A   1      33.365  23.782  25.276  1.00  0.00    -0.358 N 
ATOM     87  H   UNL A   1      33.726  24.698  25.317  1.00  0.00     0.162 HD
BRANCH  86  88
ATOM     88  C   UNL A   1      34.245  22.712  25.219  1.00  0.00     0.137 A 
ATOM     89  N   UNL A   1      33.624  21.557  24.926  1.00  0.00    -0.219 NA
ATOM     90  C   UNL A   1      35.634  22.771  25.468  1.00  0.00     0.043 A 
ATOM     91  C   UNL A   1      34.394  20.468  24.828  1.00  0.00     0.224 A 
ATOM     92  C   UNL A   1      36.322  21.556  25.328  1.00  0.00     0.076 A 
ATOM     93  C   UNL A   1      36.374  23.911  25.880  1.00  0.00     0.014 A 
ATOM     94  N   UNL A   1      35.717  20.411  25.002  1.00  0.00    -0.236 NA
ATOM     95  C   UNL A   1      37.695  21.522  25.554  1.00  0.00     0.029 A 
ATOM     96  C   UNL A   1      37.749  23.860  26.096  1.00  0.00     0.001 A 
ATOM     97  C   UNL A   1      38.416  22.658  25.928  1.00  0.00     0.002 A 
ENDBRANCH  86  88
ENDBRANCH  74  86
ENDBRANCH  71  74
ENDBRANCH  69  70
ENDBRANCH  68  69
ENDBRANCH   1  68
TORSDOF 17
ENDMDL
MODEL 2
REMARK VINA RESULT:     -12.0      1.001      3.683
REMARK SMILES O=C(NCCCNC(=O)[C@@H](Cc1c[nH]c2ccccc12)Nc1ncnc2ccccc12)c1ccc(-c2c3nc(c(-c4ccc(S(=O)(=O)[O-])cc4)c4ccc([nH]4)c(-c4ccc(S(=O)(=O)[O-])cc4)c4nc(c(-c5ccc(S(=O)(=O)[O-])cc5)c5ccc2[nH]5)C=C4)C=C3)cc1
REMARK SMILES IDX 4 1 3 2 1 3 2 4 32 6 33 7 91 8 34 9 90 10 35 11 36 12 37 13
REMARK SMILES IDX 84 14 38 15 89 16 83 17 85 18 39 19 88 20 82 21 81 22 40 24
REMARK SMILES IDX 70 25 51 26 69 27 52 28 55 29 68 30 86 31 53 32 54 33 67 35
REMARK SMILES IDX 87 36 56 37 41 38 42 39 50 40 43 41 49 42 44 43 45 44 46 45
REMARK SMILES IDX 47 46 48 47 71 48 72 49 80 50 73 51 79 52 74 53 75 54 76 55
REMARK SMILES IDX 77 56 78 57 57 58 58 59 66 60 59 61 65 62 60 63 61 64 62 65
REMARK SMILES IDX 63 66 64 67 5 68 6 69 7 70 8 71 9 73 10 74 11 75 12 76 13 77
REMARK SMILES IDX 20 78 14 79 15 80 19 81 16 83 18 84 17 85 21 86 22 88 23 89
REMARK SMILES IDX 31 90 24 91 26 92 30 93 25 94 27 95 29 96 28 97
REMARK H PARENT 3 5 85 23 55 34 7 72 14 82 21 87
REMARK Flexibility Score: inf
ROOT
ATOM      1  C   UNL A   1      33.989  28.092  26.093  1.00  0.00     0.118 C 
ENDROOT
BRANCH   1   2
ATOM      2  N   UNL A   1      33.711  29.385  26.693  1.00  0.00    -0.352 N 
ATOM      3  O   UNL A   1      33.798  31.122  28.081  1.00  0.00    -0.269 OA
ATOM      4  C   UNL A   1      34.400  30.162  27.596  1.00  0.00     0.251 C 
ATOM      5  H   UNL A   1      32.862  29.785  26.395  1.00  0.00     0.163 HD
BRANCH   4   6
ATOM      6  C   UNL A   1      35.805  29.904  28.029  1.00  0.00     0.039 A 
ATOM      7  C   UNL A   1      36.152  29.359  29.264  1.00  0.00     0.014 A 
ATOM      8  C   UNL A   1      36.827  30.099  27.084  1.00  0.00     0.014 A 
ATOM      9  C   UNL A   1      37.495  29.117  29.589  1.00  0.00     0.010 A 
ATOM     10  C   UNL A   1      38.161  29.773  27.377  1.00  0.00     0.010 A 
ATOM     11  C   UNL A   1      38.519  29.297  28.645  1.00  0.00    -0.014 A 
BRANCH  11  12
ATOM     12  C   UNL A   1      39.929  28.925  28.978  1.00  0.00     0.031 A 
ATOM     13  C   UNL A   1      40.839  29.871  29.724  1.00  0.00     0.074 A 
ATOM     14  C   UNL A   1      40.406  27.717  28.606  1.00  0.00     0.049 A 
ATOM     15  N   UNL A   1      42.075  29.684  30.121  1.00  0.00    -0.248 NA
ATOM     16  C   UNL A   1      40.299  31.196  30.060  1.00  0.00     0.031 C 
ATOM     17  C   UNL A   1      39.658  26.707  27.855  1.00  0.00     0.029 A 
ATOM     18  N   UNL A   1      41.627  27.124  28.825  1.00  0.00    -0.354 N 
ATOM     19  C   UNL A   1      42.469  30.875  30.724  1.00  0.00     0.074 A 
ATOM     20  C   UNL A   1      41.346  31.783  30.623  1.00  0.00     0.031 C 
ATOM     21  C   UNL A   1      40.407  25.601  27.732  1.00  0.00     0.029 A 
ATOM     22  C   UNL A   1      41.713  25.839  28.341  1.00  0.00     0.049 A 
ATOM     23  H   UNL A   1      42.370  27.577  29.286  1.00  0.00     0.167 HD
ATOM     24  C   UNL A   1      43.651  31.188  31.312  1.00  0.00     0.031 A 
ATOM     25  C   UNL A   1      42.720  24.945  28.373  1.00  0.00     0.031 A 
ATOM     26  C   UNL A   1      44.773  30.290  31.424  1.00  0.00     0.049 A 
ATOM     27  C   UNL A   1      44.020  25.314  29.030  1.00  0.00     0.074 A 
ATOM     28  C   UNL A   1      45.991  30.510  32.046  1.00  0.00     0.029 A 
ATOM     29  N   UNL A   1      44.821  29.008  30.900  1.00  0.00    -0.354 N 
ATOM     30  N   UNL A   1      44.351  26.429  29.633  1.00  0.00    -0.248 NA
ATOM     31  C   UNL A   1      45.083  24.298  29.012  1.00  0.00     0.031 C 
ATOM     32  C   UNL A   1      46.793  29.378  31.858  1.00  0.00     0.029 A 
ATOM     33  C   UNL A   1      46.054  28.432  31.166  1.00  0.00     0.049 A 
ATOM     34  H   UNL A   1      44.088  28.571  30.409  1.00  0.00     0.167 HD
ATOM     35  C   UNL A   1      45.650  26.239  30.092  1.00  0.00     0.074 A 
ATOM     36  C   UNL A   1      46.041  24.900  29.705  1.00  0.00     0.031 C 
ATOM     37  C   UNL A   1      46.442  27.099  30.777  1.00  0.00     0.031 A 
BRANCH  24  38
ATOM     38  C   UNL A   1      43.807  32.586  31.857  1.00  0.00    -0.014 A 
ATOM     39  C   UNL A   1      43.432  32.905  33.174  1.00  0.00     0.010 A 
ATOM     40  C   UNL A   1      44.369  33.590  31.045  1.00  0.00     0.010 A 
ATOM     41  C   UNL A   1      43.563  34.212  33.651  1.00  0.00     0.020 A 
ATOM     42  C   UNL A   1      44.527  34.893  31.527  1.00  0.00     0.020 A 
ATOM     43  C   UNL A   1      44.100  35.201  32.820  1.00  0.00     0.054 A 
BRANCH  43  44
ATOM     44  S   UNL A   1      44.251  36.891  33.459  1.00  0.00     0.124 S 
ATOM     45  O   UNL A   1      44.540  37.646  32.242  1.00  0.00    -0.237 OA
ATOM     46  O   UNL A   1      42.937  37.133  34.049  1.00  0.00    -0.237 OA
ATOM     47  O   UNL A   1      45.353  36.804  34.414  1.00  0.00    -0.744 OA
ENDBRANCH  43  44
ENDBRANCH  24  38
BRANCH  25  48
ATOM     48  C   UNL A   1      42.527  23.594  27.778  1.00  0.00    -0.014 A 
ATOM     49  C   UNL A   1      43.005  23.311  26.485  1.00  0.00     0.010 A 
ATOM     50  C   UNL A   1      41.892  22.575  28.510  1.00  0.00     0.010 A 
ATOM     51  C   UNL A   1      42.846  22.037  25.935  1.00  0.00     0.020 A 
ATOM     52  C   UNL A   1      41.756  21.292  27.974  1.00  0.00     0.020 A 
ATOM     53  C   UNL A   1      42.227  21.033  26.685  1.00  0.00     0.054 A 
BRANCH  53  54
ATOM     54  S   UNL A   1      42.099  19.366  25.980  1.00  0.00     0.124 S 
ATOM     55  O   UNL A   1      42.638  18.540  27.055  1.00  0.00    -0.237 OA
ATOM     56  O   UNL A   1      40.665  19.235  25.737  1.00  0.00    -0.237 OA
ATOM     57  O   UNL A   1      42.921  19.442  24.775  1.00  0.00    -0.744 OA
ENDBRANCH  53  54
ENDBRANCH  25  48
BRANCH  37  58
ATOM     58  C   UNL A   1      47.802  26.605  31.196  1.00  0.00    -0.014 A 
ATOM     59  C   UNL A   1      48.940  26.827  30.400  1.00  0.00     0.010 A 
ATOM     60  C   UNL A   1      47.945  25.931  32.423  1.00  0.00     0.010 A 
ATOM     61  C   UNL A   1      50.191  26.351  30.807  1.00  0.00     0.020 A 
ATOM     62  C   UNL A   1      49.196  25.475  32.844  1.00  0.00     0.020 A 
ATOM     63  C   UNL A   1      50.309  25.672  32.025  1.00  0.00     0.054 A 
BRANCH  63  64
ATOM     64  S   UNL A   1      51.945  25.085  32.547  1.00  0.00     0.124 S 
ATOM     65  O   UNL A   1      51.728  23.646  32.662  1.00  0.00    -0.237 OA
ATOM     66  O   UNL A   1      52.805  25.505  31.443  1.00  0.00    -0.237 OA
ATOM     67  O   UNL A   1      52.176  25.783  33.809  1.00  0.00    -0.744 OA
ENDBRANCH  63  64
ENDBRANCH  37  58
ENDBRANCH  11  12
ENDBRANCH   4   6
ENDBRANCH   1   2
BRANCH   1  68
ATOM     68  C   UNL A   1      32.917  27.062  26.408  1.00  0.00     0.042 C 
BRANCH  68  69
ATOM     69  C   UNL A   1      33.300  25.603  26.170  1.00  0.00     0.117 C 
BRANCH  69  70
ATOM     70  N   UNL A   1      32.224  24.698  26.549  1.00  0.00    -0.354 N 
ATOM     71  C   UNL A   1      31.371  23.909  25.840  1.00  0.00     0.242 C 
ATOM     72  H   UNL A   1      32.084  24.647  27.522  1.00  0.00     0.163 HD
ATOM     73  O   UNL A   1      30.430  23.432  26.492  1.00  0.00    -0.273 OA
BRANCH  71  74
ATOM     74  C   UNL A   1      31.485  23.576  24.331  1.00  0.00     0.174 C 
BRANCH  74  75
ATOM     75  C   UNL A   1      31.692  22.082  24.029  1.00  0.00     0.072 C 
BRANCH  75  76
ATOM     76  C   UNL A   1      32.926  21.389  24.513  1.00  0.00    -0.020 A 
ATOM     77  C   UNL A   1      33.005  20.197  25.206  1.00  0.00     0.087 A 
ATOM     78  C   UNL A   1      34.276  21.804  24.256  1.00  0.00     0.003 A 
ATOM     79  N   UNL A   1      34.326  19.908  25.425  1.00  0.00    -0.361 N 
ATOM     80  C   UNL A   1      35.122  20.895  24.890  1.00  0.00     0.046 A 
ATOM     81  C   UNL A   1      34.852  22.908  23.591  1.00  0.00     0.010 A 
ATOM     82  H   UNL A   1      34.659  19.110  25.896  1.00  0.00     0.166 HD
ATOM     83  C   UNL A   1      36.511  21.056  24.932  1.00  0.00     0.026 A 
ATOM     84  C   UNL A   1      36.239  23.084  23.622  1.00  0.00     0.001 A 
ATOM     85  C   UNL A   1      37.053  22.174  24.290  1.00  0.00     0.002 A 
ENDBRANCH  75  76
ENDBRANCH  74  75
BRANCH  74  86
ATOM     86  N   UNL A   1      30.467  24.237  23.495  1.00  0.00    -0.358 N 
ATOM     87  H   UNL A   1      29.830  23.684  22.987  1.00  0.00     0.162 HD
BRANCH  86  88
ATOM     88  C   UNL A   1      30.381  25.618  23.407  1.00  0.00     0.137 A 
ATOM     89  N   UNL A   1      29.139  26.068  23.653  1.00  0.00    -0.219 NA
ATOM     90  C   UNL A   1      31.438  26.491  23.065  1.00  0.00     0.043 A 
ATOM     91  C   UNL A   1      28.960  27.393  23.612  1.00  0.00     0.224 A 
ATOM     92  C   UNL A   1      31.113  27.856  23.063  1.00  0.00     0.076 A 
ATOM     93  C   UNL A   1      32.757  26.120  22.691  1.00  0.00     0.014 A 
ATOM     94  N   UNL A   1      29.890  28.312  23.341  1.00  0.00    -0.236 NA
ATOM     95  C   UNL A   1      32.094  28.788  22.738  1.00  0.00     0.029 A 
ATOM     96  C   UNL A   1      33.728  27.067  22.375  1.00  0.00     0.001 A 
ATOM     97  C   UNL A   1      33.397  28.411  22.402  1.00  0.00     0.002 A 
ENDBRANCH  86  88
ENDBRANCH  74  86
ENDBRANCH  71  74
ENDBRANCH  69  70
ENDBRANCH  68  69
ENDBRANCH   1  68
TORSDOF 17
ENDMDL
MODEL 3
REMARK VINA RESULT:     -11.8      2.981      3.813
REMARK SMILES O=C(NCCCNC(=O)[C@@H](Cc1c[nH]c2ccccc12)Nc1ncnc2ccccc12)c1ccc(-c2c3nc(c(-c4ccc(S(=O)(=O)[O-])cc4)c4ccc([nH]4)c(-c4ccc(S(=O)(=O)[O-])cc4)c4nc(c(-c5ccc(S(=O)(=O)[O-])cc5)c5ccc2[nH]5)C=C4)C=C3)cc1
REMARK SMILES IDX 4 1 3 2 1 3 2 4 32 6 33 7 91 8 34 9 90 10 35 11 36 12 37 13
REMARK SMILES IDX 84 14 38 15 89 16 83 17 85 18 39 19 88 20 82 21 81 22 40 24
REMARK SMILES IDX 70 25 51 26 69 27 52 28 55 29 68 30 86 31 53 32 54 33 67 35
REMARK SMILES IDX 87 36 56 37 41 38 42 39 50 40 43 41 49 42 44 43 45 44 46 45
REMARK SMILES IDX 47 46 48 47 71 48 72 49 80 50 73 51 79 52 74 53 75 54 76 55
REMARK SMILES IDX 77 56 78 57 57 58 58 59 66 60 59 61 65 62 60 63 61 64 62 65
REMARK SMILES IDX 63 66 64 67 5 68 6 69 7 70 8 71 9 73 10 74 11 75 12 76 13 77
REMARK SMILES IDX 20 78 14 79 15 80 19 81 16 83 18 84 17 85 21 86 22 88 23 89
REMARK SMILES IDX 31 90 24 91 26 92 30 93 25 94 27 95 29 96 28 97
REMARK H PARENT 3 5 85 23 55 34 7 72 14 82 21 87
REMARK Flexibility Score: inf
ROOT
ATOM      1  C   UNL A   1      35.218  31.016  28.056  1.00  0.00     0.118 C 
ENDROOT
BRANCH   1   2
ATOM      2  N   UNL A   1      35.422  31.026  29.494  1.00  0.00    -0.352 N 
ATOM      3  O   UNL A   1      36.217  30.518  31.509  1.00  0.00    -0.269 OA
ATOM      4  C   UNL A   1      36.433  30.548  30.295  1.00  0.00     0.251 C 
ATOM      5  H   UNL A   1      34.694  31.461  29.993  1.00  0.00     0.163 HD
BRANCH   4   6
ATOM      6  C   UNL A   1      37.748  30.056  29.789  1.00  0.00     0.039 A 
ATOM      7  C   UNL A   1      38.160  30.157  28.462  1.00  0.00     0.014 A 
ATOM      8  C   UNL A   1      38.677  29.584  30.733  1.00  0.00     0.014 A 
ATOM      9  C   UNL A   1      39.425  29.699  28.066  1.00  0.00     0.010 A 
ATOM     10  C   UNL A   1      39.975  29.209  30.352  1.00  0.00     0.010 A 
ATOM     11  C   UNL A   1      40.362  29.239  29.006  1.00  0.00    -0.014 A 
BRANCH  11  12
ATOM     12  C   UNL A   1      41.744  28.862  28.575  1.00  0.00     0.031 A 
ATOM     13  C   UNL A   1      42.875  29.862  28.592  1.00  0.00     0.074 A 
ATOM     14  C   UNL A   1      41.994  27.601  28.161  1.00  0.00     0.049 A 
ATOM     15  N   UNL A   1      44.138  29.684  28.284  1.00  0.00    -0.248 NA
ATOM     16  C   UNL A   1      42.549  31.237  28.996  1.00  0.00     0.031 C 
ATOM     17  C   UNL A   1      40.998  26.531  28.061  1.00  0.00     0.029 A 
ATOM     18  N   UNL A   1      43.163  26.998  27.765  1.00  0.00    -0.354 N 
ATOM     19  C   UNL A   1      44.748  30.926  28.427  1.00  0.00     0.074 A 
ATOM     20  C   UNL A   1      43.711  31.854  28.830  1.00  0.00     0.031 C 
ATOM     21  C   UNL A   1      41.607  25.393  27.697  1.00  0.00     0.029 A 
ATOM     22  C   UNL A   1      43.025  25.659  27.475  1.00  0.00     0.049 A 
ATOM     23  H   UNL A   1      44.020  27.478  27.694  1.00  0.00     0.167 HD
ATOM     24  C   UNL A   1      46.048  31.269  28.245  1.00  0.00     0.031 A 
ATOM     25  C   UNL A   1      43.927  24.742  27.075  1.00  0.00     0.031 A 
ATOM     26  C   UNL A   1      47.089  30.354  27.850  1.00  0.00     0.049 A 
ATOM     27  C   UNL A   1      45.361  25.144  26.880  1.00  0.00     0.074 A 
ATOM     28  C   UNL A   1      48.441  30.607  27.690  1.00  0.00     0.029 A 
ATOM     29  N   UNL A   1      46.897  29.015  27.548  1.00  0.00    -0.354 N 
ATOM     30  N   UNL A   1      45.921  26.315  27.067  1.00  0.00    -0.248 NA
ATOM     31  C   UNL A   1      46.287  24.097  26.423  1.00  0.00     0.031 C 
ATOM     32  C   UNL A   1      49.060  29.433  27.246  1.00  0.00     0.029 A 
ATOM     33  C   UNL A   1      48.102  28.434  27.183  1.00  0.00     0.049 A 
ATOM     34  H   UNL A   1      46.033  28.545  27.587  1.00  0.00     0.167 HD
ATOM     35  C   UNL A   1      47.269  26.138  26.778  1.00  0.00     0.074 A 
ATOM     36  C   UNL A   1      47.443  24.748  26.413  1.00  0.00     0.031 C 
ATOM     37  C   UNL A   1      48.272  27.050  26.817  1.00  0.00     0.031 A 
BRANCH  24  38
ATOM     38  C   UNL A   1      46.418  32.719  28.441  1.00  0.00    -0.014 A 
ATOM     39  C   UNL A   1      46.769  33.220  29.707  1.00  0.00     0.010 A 
ATOM     40  C   UNL A   1      46.444  33.585  27.332  1.00  0.00     0.010 A 
ATOM     41  C   UNL A   1      47.086  34.572  29.870  1.00  0.00     0.020 A 
ATOM     42  C   UNL A   1      46.787  34.932  27.486  1.00  0.00     0.020 A 
ATOM     43  C   UNL A   1      47.082  35.422  28.759  1.00  0.00     0.054 A 
BRANCH  43  44
ATOM     44  S   UNL A   1      47.487  37.174  28.998  1.00  0.00     0.124 S 
ATOM     45  O   UNL A   1      46.736  37.804  27.915  1.00  0.00    -0.237 OA
ATOM     46  O   UNL A   1      46.988  37.440  30.345  1.00  0.00    -0.237 OA
ATOM     47  O   UNL A   1      48.940  37.217  28.856  1.00  0.00    -0.744 OA
ENDBRANCH  43  44
ENDBRANCH  24  38
BRANCH  25  48
ATOM     48  C   UNL A   1      43.497  23.334  26.852  1.00  0.00    -0.014 A 
ATOM     49  C   UNL A   1      43.479  22.794  25.553  1.00  0.00     0.010 A 
ATOM     50  C   UNL A   1      43.132  22.517  27.937  1.00  0.00     0.010 A 
ATOM     51  C   UNL A   1      43.099  21.465  25.343  1.00  0.00     0.020 A 
ATOM     52  C   UNL A   1      42.779  21.180  27.734  1.00  0.00     0.020 A 
ATOM     53  C   UNL A   1      42.757  20.665  26.437  1.00  0.00     0.054 A 
BRANCH  53  54
ATOM     54  S   UNL A   1      42.340  18.922  26.150  1.00  0.00     0.124 S 
ATOM     55  O   UNL A   1      43.312  18.542  25.131  1.00  0.00    -0.237 OA
ATOM     56  O   UNL A   1      42.539  18.328  27.470  1.00  0.00    -0.237 OA
ATOM     57  O   UNL A   1      40.949  18.974  25.704  1.00  0.00    -0.744 OA
ENDBRANCH  53  54
ENDBRANCH  25  48
BRANCH  37  58
ATOM     58  C   UNL A   1      49.662  26.564  26.500  1.00  0.00    -0.014 A 
ATOM     59  C   UNL A   1      50.170  26.598  25.189  1.00  0.00     0.010 A 
ATOM     60  C   UNL A   1      50.484  26.093  27.541  1.00  0.00     0.010 A 
ATOM     61  C   UNL A   1      51.462  26.134  24.919  1.00  0.00     0.020 A 
ATOM     62  C   UNL A   1      51.783  25.652  27.279  1.00  0.00     0.020 A 
ATOM     63  C   UNL A   1      52.258  25.658  25.967  1.00  0.00     0.054 A 
BRANCH  63  64
ATOM     64  S   UNL A   1      53.940  25.084  25.599  1.00  0.00     0.124 S 
ATOM     65  O   UNL A   1      54.462  26.177  24.784  1.00  0.00    -0.237 OA
ATOM     66  O   UNL A   1      54.533  24.951  26.927  1.00  0.00    -0.237 OA
ATOM     67  O   UNL A   1      53.727  23.825  24.889  1.00  0.00    -0.744 OA
ENDBRANCH  63  64
ENDBRANCH  37  58
ENDBRANCH  11  12
ENDBRANCH   4   6
ENDBRANCH   1   2
BRANCH   1  68
ATOM     68  C   UNL A   1      34.759  29.660  27.543  1.00  0.00     0.042 C 
BRANCH  68  69
ATOM     69  C   UNL A   1      33.502  29.664  26.676  1.00  0.00     0.117 C 
BRANCH  69  70
ATOM     70  N   UNL A   1      33.770  29.135  25.345  1.00  0.00    -0.354 N 
ATOM     71  C   UNL A   1      33.318  28.048  24.661  1.00  0.00     0.242 C 
ATOM     72  H   UNL A   1      34.411  29.677  24.833  1.00  0.00     0.163 HD
ATOM     73  O   UNL A   1      33.933  27.791  23.616  1.00  0.00    -0.273 OA
BRANCH  71  74
ATOM     74  C   UNL A   1      32.133  27.141  25.080  1.00  0.00     0.174 C 
BRANCH  74  75
ATOM     75  C   UNL A   1      31.336  26.560  23.900  1.00  0.00     0.072 C 
BRANCH  75  76
ATOM     76  C   UNL A   1      29.918  26.981  23.680  1.00  0.00    -0.020 A 
ATOM     77  C   UNL A   1      28.772  26.298  24.038  1.00  0.00     0.087 A 
ATOM     78  C   UNL A   1      29.492  28.236  23.127  1.00  0.00     0.003 A 
ATOM     79  N   UNL A   1      27.686  27.053  23.679  1.00  0.00    -0.361 N 
ATOM     80  C   UNL A   1      28.099  28.223  23.084  1.00  0.00     0.046 A 
ATOM     81  C   UNL A   1      30.171  29.357  22.604  1.00  0.00     0.010 A 
ATOM     82  H   UNL A   1      26.747  26.797  23.826  1.00  0.00     0.166 HD
ATOM     83  C   UNL A   1      27.350  29.254  22.504  1.00  0.00     0.026 A 
ATOM     84  C   UNL A   1      29.439  30.397  22.022  1.00  0.00     0.001 A 
ATOM     85  C   UNL A   1      28.050  30.339  21.967  1.00  0.00     0.002 A 
ENDBRANCH  75  76
ENDBRANCH  74  75
BRANCH  74  86
ATOM     86  N   UNL A   1      32.470  26.167  26.133  1.00  0.00    -0.358 N 
ATOM     87  H   UNL A   1      32.715  26.494  27.029  1.00  0.00     0.162 HD
BRANCH  86  88
ATOM     88  C   UNL A   1      32.451  24.801  25.895  1.00  0.00     0.137 A 
ATOM     89  N   UNL A   1      31.317  24.224  26.327  1.00  0.00    -0.219 NA
ATOM     90  C   UNL A   1      33.493  24.051  25.305  1.00  0.00     0.043 A 
ATOM     91  C   UNL A   1      31.196  22.908  26.123  1.00  0.00     0.224 A 
ATOM     92  C   UNL A   1      33.233  22.680  25.148  1.00  0.00     0.076 A 
ATOM     93  C   UNL A   1      34.767  24.537  24.905  1.00  0.00     0.014 A 
ATOM     94  N   UNL A   1      32.094  22.108  25.542  1.00  0.00    -0.236 NA
ATOM     95  C   UNL A   1      34.205  21.865  24.575  1.00  0.00     0.029 A 
ATOM     96  C   UNL A   1      35.725  23.707  24.327  1.00  0.00     0.001 A 
ATOM     97  C   UNL A   1      35.441  22.363  24.157  1.00  0.00     0.002 A 
ENDBRANCH  86  88
ENDBRANCH  74  86
ENDBRANCH  71  74
ENDBRANCH  69  70
ENDBRANCH  68  69
ENDBRANCH   1  68
TORSDOF 17
ENDMDL
