MODEL 1
REMARK VINA RESULT:     -11.7      0.000      0.000
REMARK SMILES O=C(NCCCNC(=O)[C@@H]1[C@@H](C(=O)NCCn2cc(Cl)cn2)[C@H]2CC[C@@H]1O2)c1ccc(-c2c3nc(c(-c4ccc(S(=O)(=O)[O-])cc4)c4ccc([nH]4)c(-c4ccc(S(=O)(=O)[O-])cc4)c4nc(c(-c5ccc(S(=O)(=O)[O-])cc5)c5ccc2[nH]5)C=C4)C=C3)cc1
REMARK SMILES IDX 5 1 4 2 3 3 1 4 2 5 28 7 29 8 87 9 30 10 86 11 31 12 32 13
REMARK SMILES IDX 33 14 80 15 34 16 85 17 79 18 81 19 35 20 84 21 78 22 77 23
REMARK SMILES IDX 36 25 66 26 47 27 65 28 48 29 51 30 64 31 82 32 49 33 50 34
REMARK SMILES IDX 63 36 83 37 52 38 37 39 38 40 46 41 39 42 45 43 40 44 41 45
REMARK SMILES IDX 42 46 43 47 44 48 67 49 68 50 76 51 69 52 75 53 70 54 71 55
REMARK SMILES IDX 72 56 73 57 74 58 53 59 54 60 62 61 55 62 61 63 56 64 57 65
REMARK SMILES IDX 58 66 59 67 60 68 6 69 7 70 8 71 9 73 10 74 11 75 26 76
REMARK SMILES IDX 23 77 25 78 27 79 24 80 12 81 13 82 14 83 15 85 16 86 17 87
REMARK SMILES IDX 18 88 22 89 19 90 21 91 20 92
REMARK H PARENT 3 6 81 24 51 35 7 72 14 84
REMARK Flexibility Score: inf
ROOT
ATOM      1  C   UNL A   1      31.885  28.323  27.491  1.00  0.00     0.042 C 
ENDROOT
BRANCH   1   2
ATOM      2  C   UNL A   1      33.127  29.116  27.074  1.00  0.00     0.118 C 
BRANCH   2   3
ATOM      3  N   UNL A   1      33.323  30.372  27.768  1.00  0.00    -0.352 N 
ATOM      4  O   UNL A   1      34.170  32.285  28.459  1.00  0.00    -0.269 OA
ATOM      5  C   UNL A   1      34.413  31.133  28.089  1.00  0.00     0.251 C 
ATOM      6  H   UNL A   1      32.478  30.769  28.081  1.00  0.00     0.163 HD
BRANCH   5   7
ATOM      7  C   UNL A   1      35.818  30.649  28.120  1.00  0.00     0.039 A 
ATOM      8  C   UNL A   1      36.261  29.383  27.730  1.00  0.00     0.014 A 
ATOM      9  C   UNL A   1      36.748  31.546  28.679  1.00  0.00     0.014 A 
ATOM     10  C   UNL A   1      37.562  28.977  28.015  1.00  0.00     0.010 A 
ATOM     11  C   UNL A   1      38.047  31.150  28.958  1.00  0.00     0.010 A 
ATOM     12  C   UNL A   1      38.432  29.844  28.677  1.00  0.00    -0.014 A 
BRANCH  12  13
ATOM     13  C   UNL A   1      39.790  29.398  28.967  1.00  0.00     0.031 A 
ATOM     14  C   UNL A   1      40.089  29.232  30.417  1.00  0.00     0.074 A 
ATOM     15  C   UNL A   1      40.649  29.005  28.003  1.00  0.00     0.049 A 
ATOM     16  N   UNL A   1      40.957  29.867  31.135  1.00  0.00    -0.248 NA
ATOM     17  C   UNL A   1      39.221  28.330  31.193  1.00  0.00     0.031 C 
ATOM     18  C   UNL A   1      40.383  28.842  26.570  1.00  0.00     0.029 A 
ATOM     19  N   UNL A   1      41.925  28.544  28.124  1.00  0.00    -0.354 N 
ATOM     20  C   UNL A   1      40.891  29.301  32.407  1.00  0.00     0.074 A 
ATOM     21  C   UNL A   1      39.701  28.488  32.426  1.00  0.00     0.031 C 
ATOM     22  C   UNL A   1      41.364  28.094  26.015  1.00  0.00     0.029 A 
ATOM     23  C   UNL A   1      42.390  27.846  27.014  1.00  0.00     0.049 A 
ATOM     24  H   UNL A   1      42.472  28.692  28.930  1.00  0.00     0.167 HD
ATOM     25  C   UNL A   1      41.939  29.350  33.278  1.00  0.00     0.031 A 
ATOM     26  C   UNL A   1      43.499  27.062  26.946  1.00  0.00     0.031 A 
ATOM     27  C   UNL A   1      42.911  30.337  32.895  1.00  0.00     0.049 A 
ATOM     28  C   UNL A   1      44.380  27.451  28.075  1.00  0.00     0.074 A 
ATOM     29  C   UNL A   1      42.899  31.707  32.727  1.00  0.00     0.029 A 
ATOM     30  N   UNL A   1      44.041  29.889  32.250  1.00  0.00    -0.354 N 
ATOM     31  N   UNL A   1      44.945  28.622  28.167  1.00  0.00    -0.248 NA
ATOM     32  C   UNL A   1      44.248  26.721  29.326  1.00  0.00     0.031 C 
ATOM     33  C   UNL A   1      43.725  31.941  31.588  1.00  0.00     0.029 A 
ATOM     34  C   UNL A   1      44.245  30.713  31.174  1.00  0.00     0.049 A 
ATOM     35  H   UNL A   1      44.597  29.120  32.512  1.00  0.00     0.167 HD
ATOM     36  C   UNL A   1      44.841  28.961  29.509  1.00  0.00     0.074 A 
ATOM     37  C   UNL A   1      44.482  27.716  30.187  1.00  0.00     0.031 C 
ATOM     38  C   UNL A   1      44.783  30.267  29.907  1.00  0.00     0.031 A 
BRANCH  25  39
ATOM     39  C   UNL A   1      42.281  28.226  34.230  1.00  0.00    -0.014 A 
ATOM     40  C   UNL A   1      42.412  28.517  35.605  1.00  0.00     0.010 A 
ATOM     41  C   UNL A   1      42.770  26.978  33.793  1.00  0.00     0.010 A 
ATOM     42  C   UNL A   1      43.081  27.644  36.473  1.00  0.00     0.020 A 
ATOM     43  C   UNL A   1      43.398  26.081  34.659  1.00  0.00     0.020 A 
ATOM     44  C   UNL A   1      43.588  26.439  35.986  1.00  0.00     0.054 A 
BRANCH  44  45
ATOM     45  S   UNL A   1      44.567  25.378  37.078  1.00  0.00     0.124 S 
ATOM     46  O   UNL A   1      43.991  25.686  38.386  1.00  0.00    -0.237 OA
ATOM     47  O   UNL A   1      44.270  24.044  36.555  1.00  0.00    -0.237 OA
ATOM     48  O   UNL A   1      45.932  25.837  36.868  1.00  0.00    -0.744 OA
ENDBRANCH  44  45
ENDBRANCH  25  39
BRANCH  26  49
ATOM     49  C   UNL A   1      43.660  25.777  26.212  1.00  0.00    -0.014 A 
ATOM     50  C   UNL A   1      44.776  25.529  25.387  1.00  0.00     0.010 A 
ATOM     51  C   UNL A   1      42.848  24.675  26.551  1.00  0.00     0.010 A 
ATOM     52  C   UNL A   1      45.092  24.223  24.963  1.00  0.00     0.020 A 
ATOM     53  C   UNL A   1      43.154  23.374  26.131  1.00  0.00     0.020 A 
ATOM     54  C   UNL A   1      44.288  23.150  25.355  1.00  0.00     0.054 A 
BRANCH  54  55
ATOM     55  S   UNL A   1      44.790  21.448  24.951  1.00  0.00     0.124 S 
ATOM     56  O   UNL A   1      43.789  20.651  25.654  1.00  0.00    -0.237 OA
ATOM     57  O   UNL A   1      44.705  21.427  23.494  1.00  0.00    -0.237 OA
ATOM     58  O   UNL A   1      46.146  21.352  25.489  1.00  0.00    -0.744 OA
ENDBRANCH  54  55
ENDBRANCH  26  49
BRANCH  38  59
ATOM     59  C   UNL A   1      45.070  31.344  28.885  1.00  0.00    -0.014 A 
ATOM     60  C   UNL A   1      44.080  31.939  28.078  1.00  0.00     0.010 A 
ATOM     61  C   UNL A   1      46.367  31.882  28.859  1.00  0.00     0.010 A 
ATOM     62  C   UNL A   1      44.390  33.029  27.249  1.00  0.00     0.020 A 
ATOM     63  C   UNL A   1      46.679  32.978  28.050  1.00  0.00     0.020 A 
ATOM     64  C   UNL A   1      45.690  33.542  27.242  1.00  0.00     0.054 A 
BRANCH  64  65
ATOM     65  S   UNL A   1      46.078  34.981  26.207  1.00  0.00     0.124 S 
ATOM     66  O   UNL A   1      47.395  35.381  26.698  1.00  0.00    -0.237 OA
ATOM     67  O   UNL A   1      46.054  34.424  24.856  1.00  0.00    -0.237 OA
ATOM     68  O   UNL A   1      44.998  35.922  26.498  1.00  0.00    -0.744 OA
ENDBRANCH  64  65
ENDBRANCH  38  59
ENDBRANCH  12  13
ENDBRANCH   5   7
ENDBRANCH   2   3
ENDBRANCH   1   2
BRANCH   1  69
ATOM     69  C   UNL A   1      31.704  26.984  26.770  1.00  0.00     0.117 C 
BRANCH  69  70
ATOM     70  N   UNL A   1      32.768  26.735  25.810  1.00  0.00    -0.356 N 
ATOM     71  C   UNL A   1      33.408  25.582  25.470  1.00  0.00     0.226 C 
ATOM     72  H   UNL A   1      33.076  27.534  25.325  1.00  0.00     0.163 HD
ATOM     73  O   UNL A   1      34.423  25.690  24.779  1.00  0.00    -0.275 OA
BRANCH  71  74
ATOM     74  C   UNL A   1      32.883  24.247  25.971  1.00  0.00     0.122 C 
ATOM     75  C   UNL A   1      33.769  23.065  25.524  1.00  0.00     0.122 C 
ATOM     76  C   UNL A   1      31.554  23.902  25.282  1.00  0.00     0.132 C 
ATOM     77  C   UNL A   1      32.780  22.185  24.751  1.00  0.00     0.132 C 
ATOM     78  C   UNL A   1      30.850  22.753  26.010  1.00  0.00     0.035 C 
ATOM     79  O   UNL A   1      32.007  23.220  24.079  1.00  0.00    -0.373 OA
ATOM     80  C   UNL A   1      31.662  21.539  25.560  1.00  0.00     0.035 C 
BRANCH  75  81
ATOM     81  C   UNL A   1      34.438  22.410  26.710  1.00  0.00     0.226 C 
ATOM     82  O   UNL A   1      34.112  22.651  27.871  1.00  0.00    -0.275 OA
ATOM     83  N   UNL A   1      35.488  21.568  26.521  1.00  0.00    -0.354 N 
ATOM     84  H   UNL A   1      35.858  21.191  27.352  1.00  0.00     0.163 HD
BRANCH  83  85
ATOM     85  C   UNL A   1      36.164  21.123  25.308  1.00  0.00     0.139 C 
BRANCH  85  86
ATOM     86  C   UNL A   1      37.086  22.197  24.730  1.00  0.00     0.165 C 
BRANCH  86  87
ATOM     87  N   UNL A   1      38.006  22.769  25.699  1.00  0.00    -0.269 N 
ATOM     88  C   UNL A   1      38.023  24.063  26.137  1.00  0.00     0.129 A 
ATOM     89  N   UNL A   1      38.985  22.011  26.238  1.00  0.00    -0.180 NA
ATOM     90  C   UNL A   1      39.058  24.144  27.033  1.00  0.00     0.079 A 
ATOM     91  C   UNL A   1      39.609  22.852  27.070  1.00  0.00     0.155 A 
ATOM     92  Cl  UNL A   1      39.583  25.488  27.911  1.00  0.00    -0.081 Cl
ENDBRANCH  86  87
ENDBRANCH  85  86
ENDBRANCH  83  85
ENDBRANCH  75  81
ENDBRANCH  71  74
ENDBRANCH  69  70
ENDBRANCH   1  69
TORSDOF 17
ENDMDL
MODEL 2
REMARK VINA RESULT:     -11.6      2.973      9.194
REMARK SMILES O=C(NCCCNC(=O)[C@@H]1[C@@H](C(=O)NCCn2cc(Cl)cn2)[C@H]2CC[C@@H]1O2)c1ccc(-c2c3nc(c(-c4ccc(S(=O)(=O)[O-])cc4)c4ccc([nH]4)c(-c4ccc(S(=O)(=O)[O-])cc4)c4nc(c(-c5ccc(S(=O)(=O)[O-])cc5)c5ccc2[nH]5)C=C4)C=C3)cc1
REMARK SMILES IDX 5 1 4 2 3 3 1 4 2 5 28 7 29 8 87 9 30 10 86 11 31 12 32 13
REMARK SMILES IDX 33 14 80 15 34 16 85 17 79 18 81 19 35 20 84 21 78 22 77 23
REMARK SMILES IDX 36 25 66 26 47 27 65 28 48 29 51 30 64 31 82 32 49 33 50 34
REMARK SMILES IDX 63 36 83 37 52 38 37 39 38 40 46 41 39 42 45 43 40 44 41 45
REMARK SMILES IDX 42 46 43 47 44 48 67 49 68 50 76 51 69 52 75 53 70 54 71 55
REMARK SMILES IDX 72 56 73 57 74 58 53 59 54 60 62 61 55 62 61 63 56 64 57 65
REMARK SMILES IDX 58 66 59 67 60 68 6 69 7 70 8 71 9 73 10 74 11 75 26 76
REMARK SMILES IDX 23 77 25 78 27 79 24 80 12 81 13 82 14 83 15 85 16 86 17 87
REMARK SMILES IDX 18 88 22 89 19 90 21 91 20 92
REMARK H PARENT 3 6 81 24 51 35 7 72 14 84
REMARK Flexibility Score: inf
ROOT
ATOM      1  C   UNL A   1      40.113  22.549  27.227  1.00  0.00     0.042 C 
ENDROOT
BRANCH   1   2
ATOM      2  C   UNL A   1      41.113  21.519  26.692  1.00  0.00     0.118 C 
BRANCH   2   3
ATOM      3  N   UNL A   1      41.885  21.944  25.542  1.00  0.00    -0.352 N 
ATOM      4  O   UNL A   1      43.408  22.890  24.264  1.00  0.00    -0.269 OA
ATOM      5  C   UNL A   1      42.713  22.999  25.277  1.00  0.00     0.251 C 
ATOM      6  H   UNL A   1      41.791  21.333  24.775  1.00  0.00     0.163 HD
BRANCH   5   7
ATOM      7  C   UNL A   1      42.755  24.271  26.046  1.00  0.00     0.039 A 
ATOM      8  C   UNL A   1      43.479  24.499  27.218  1.00  0.00     0.014 A 
ATOM      9  C   UNL A   1      41.909  25.289  25.566  1.00  0.00     0.014 A 
ATOM     10  C   UNL A   1      43.261  25.656  27.962  1.00  0.00     0.010 A 
ATOM     11  C   UNL A   1      41.694  26.446  26.299  1.00  0.00     0.010 A 
ATOM     12  C   UNL A   1      42.329  26.598  27.527  1.00  0.00    -0.014 A 
BRANCH  12  13
ATOM     13  C   UNL A   1      42.115  27.802  28.322  1.00  0.00     0.031 A 
ATOM     14  C   UNL A   1      43.196  28.820  28.203  1.00  0.00     0.074 A 
ATOM     15  C   UNL A   1      40.960  28.047  28.975  1.00  0.00     0.049 A 
ATOM     16  N   UNL A   1      43.983  29.267  29.127  1.00  0.00    -0.248 NA
ATOM     17  C   UNL A   1      43.522  29.311  26.853  1.00  0.00     0.031 C 
ATOM     18  C   UNL A   1      39.718  27.269  28.935  1.00  0.00     0.029 A 
ATOM     19  N   UNL A   1      40.611  29.128  29.728  1.00  0.00    -0.354 N 
ATOM     20  C   UNL A   1      44.767  30.247  28.522  1.00  0.00     0.074 A 
ATOM     21  C   UNL A   1      44.559  30.112  27.102  1.00  0.00     0.031 C 
ATOM     22  C   UNL A   1      38.701  28.022  29.413  1.00  0.00     0.029 A 
ATOM     23  C   UNL A   1      39.240  29.274  29.919  1.00  0.00     0.049 A 
ATOM     24  H   UNL A   1      41.273  29.753  30.104  1.00  0.00     0.167 HD
ATOM     25  C   UNL A   1      45.349  31.253  29.235  1.00  0.00     0.031 A 
ATOM     26  C   UNL A   1      38.593  30.373  30.390  1.00  0.00     0.031 A 
ATOM     27  C   UNL A   1      45.378  30.966  30.643  1.00  0.00     0.049 A 
ATOM     28  C   UNL A   1      39.595  31.196  31.111  1.00  0.00     0.074 A 
ATOM     29  C   UNL A   1      45.949  29.986  31.429  1.00  0.00     0.029 A 
ATOM     30  N   UNL A   1      44.417  31.564  31.426  1.00  0.00    -0.354 N 
ATOM     31  N   UNL A   1      40.186  30.804  32.205  1.00  0.00    -0.248 NA
ATOM     32  C   UNL A   1      40.287  32.235  30.366  1.00  0.00     0.031 C 
ATOM     33  C   UNL A   1      44.979  29.718  32.439  1.00  0.00     0.029 A 
ATOM     34  C   UNL A   1      43.908  30.594  32.250  1.00  0.00     0.049 A 
ATOM     35  H   UNL A   1      44.146  32.509  31.398  1.00  0.00     0.167 HD
ATOM     36  C   UNL A   1      41.504  31.213  32.063  1.00  0.00     0.074 A 
ATOM     37  C   UNL A   1      41.487  32.164  30.950  1.00  0.00     0.031 C 
ATOM     38  C   UNL A   1      42.525  30.538  32.671  1.00  0.00     0.031 A 
BRANCH  25  39
ATOM     39  C   UNL A   1      45.509  32.661  28.708  1.00  0.00    -0.014 A 
ATOM     40  C   UNL A   1      46.794  33.104  28.332  1.00  0.00     0.010 A 
ATOM     41  C   UNL A   1      44.511  33.647  28.852  1.00  0.00     0.010 A 
ATOM     42  C   UNL A   1      47.084  34.469  28.202  1.00  0.00     0.020 A 
ATOM     43  C   UNL A   1      44.778  35.007  28.681  1.00  0.00     0.020 A 
ATOM     44  C   UNL A   1      46.075  35.412  28.399  1.00  0.00     0.054 A 
BRANCH  44  45
ATOM     45  S   UNL A   1      46.484  37.175  28.363  1.00  0.00     0.124 S 
ATOM     46  O   UNL A   1      46.593  37.483  29.789  1.00  0.00    -0.237 OA
ATOM     47  O   UNL A   1      47.742  37.183  27.617  1.00  0.00    -0.237 OA
ATOM     48  O   UNL A   1      45.351  37.776  27.675  1.00  0.00    -0.744 OA
ENDBRANCH  44  45
ENDBRANCH  25  39
BRANCH  26  49
ATOM     49  C   UNL A   1      37.283  30.920  29.940  1.00  0.00    -0.014 A 
ATOM     50  C   UNL A   1      36.392  31.543  30.836  1.00  0.00     0.010 A 
ATOM     51  C   UNL A   1      37.035  31.083  28.561  1.00  0.00     0.010 A 
ATOM     52  C   UNL A   1      35.326  32.337  30.368  1.00  0.00     0.020 A 
ATOM     53  C   UNL A   1      35.977  31.868  28.088  1.00  0.00     0.020 A 
ATOM     54  C   UNL A   1      35.137  32.510  28.994  1.00  0.00     0.054 A 
BRANCH  54  55
ATOM     55  S   UNL A   1      33.869  33.670  28.394  1.00  0.00     0.124 S 
ATOM     56  O   UNL A   1      33.417  34.305  29.628  1.00  0.00    -0.237 OA
ATOM     57  O   UNL A   1      34.623  34.525  27.482  1.00  0.00    -0.237 OA
ATOM     58  O   UNL A   1      32.886  32.800  27.750  1.00  0.00    -0.744 OA
ENDBRANCH  54  55
ENDBRANCH  26  49
BRANCH  38  59
ATOM     59  C   UNL A   1      42.179  29.480  33.694  1.00  0.00    -0.014 A 
ATOM     60  C   UNL A   1      41.865  28.146  33.362  1.00  0.00     0.010 A 
ATOM     61  C   UNL A   1      42.334  29.814  35.049  1.00  0.00     0.010 A 
ATOM     62  C   UNL A   1      41.689  27.180  34.366  1.00  0.00     0.020 A 
ATOM     63  C   UNL A   1      42.178  28.854  36.052  1.00  0.00     0.020 A 
ATOM     64  C   UNL A   1      41.848  27.542  35.707  1.00  0.00     0.054 A 
BRANCH  64  65
ATOM     65  S   UNL A   1      41.667  26.283  37.001  1.00  0.00     0.124 S 
ATOM     66  O   UNL A   1      42.851  26.504  37.828  1.00  0.00    -0.237 OA
ATOM     67  O   UNL A   1      40.392  26.636  37.621  1.00  0.00    -0.237 OA
ATOM     68  O   UNL A   1      41.657  25.022  36.262  1.00  0.00    -0.744 OA
ENDBRANCH  64  65
ENDBRANCH  38  59
ENDBRANCH  12  13
ENDBRANCH   5   7
ENDBRANCH   2   3
ENDBRANCH   1   2
BRANCH   1  69
ATOM     69  C   UNL A   1      38.953  22.871  26.280  1.00  0.00     0.117 C 
BRANCH  69  70
ATOM     70  N   UNL A   1      38.600  21.734  25.445  1.00  0.00    -0.356 N 
ATOM     71  C   UNL A   1      37.387  21.289  25.014  1.00  0.00     0.226 C 
ATOM     72  H   UNL A   1      39.366  21.195  25.142  1.00  0.00     0.163 HD
ATOM     73  O   UNL A   1      37.354  20.173  24.493  1.00  0.00    -0.275 OA
BRANCH  71  74
ATOM     74  C   UNL A   1      36.149  22.148  25.218  1.00  0.00     0.122 C 
ATOM     75  C   UNL A   1      34.947  21.645  24.390  1.00  0.00     0.122 C 
ATOM     76  C   UNL A   1      36.362  23.545  24.616  1.00  0.00     0.132 C 
ATOM     77  C   UNL A   1      34.599  22.869  23.535  1.00  0.00     0.132 C 
ATOM     78  C   UNL A   1      35.280  24.514  25.105  1.00  0.00     0.035 C 
ATOM     79  O   UNL A   1      35.942  23.347  23.238  1.00  0.00    -0.373 OA
ATOM     80  C   UNL A   1      34.069  24.091  24.275  1.00  0.00     0.035 C 
BRANCH  75  81
ATOM     81  C   UNL A   1      33.842  21.140  25.290  1.00  0.00     0.226 C 
ATOM     82  O   UNL A   1      33.951  21.101  26.514  1.00  0.00    -0.275 OA
ATOM     83  N   UNL A   1      32.699  20.642  24.752  1.00  0.00    -0.354 N 
ATOM     84  H   UNL A   1      32.038  20.338  25.415  1.00  0.00     0.163 HD
BRANCH  83  85
ATOM     85  C   UNL A   1      32.273  20.479  23.366  1.00  0.00     0.139 C 
BRANCH  85  86
ATOM     86  C   UNL A   1      32.249  19.011  22.936  1.00  0.00     0.165 C 
BRANCH  86  87
ATOM     87  N   UNL A   1      32.836  18.103  23.906  1.00  0.00    -0.269 N 
ATOM     88  C   UNL A   1      34.052  17.487  23.809  1.00  0.00     0.129 A 
ATOM     89  N   UNL A   1      32.156  17.766  25.023  1.00  0.00    -0.180 NA
ATOM     90  C   UNL A   1      34.180  16.725  24.943  1.00  0.00     0.079 A 
ATOM     91  C   UNL A   1      32.993  16.942  25.662  1.00  0.00     0.155 A 
ATOM     92  Cl  UNL A   1      35.467  15.730  25.399  1.00  0.00    -0.081 Cl
ENDBRANCH  86  87
ENDBRANCH  85  86
ENDBRANCH  83  85
ENDBRANCH  75  81
ENDBRANCH  71  74
ENDBRANCH  69  70
ENDBRANCH   1  69
TORSDOF 17
ENDMDL
MODEL 3
REMARK VINA RESULT:     -11.6      3.073      9.125
REMARK SMILES O=C(NCCCNC(=O)[C@@H]1[C@@H](C(=O)NCCn2cc(Cl)cn2)[C@H]2CC[C@@H]1O2)c1ccc(-c2c3nc(c(-c4ccc(S(=O)(=O)[O-])cc4)c4ccc([nH]4)c(-c4ccc(S(=O)(=O)[O-])cc4)c4nc(c(-c5ccc(S(=O)(=O)[O-])cc5)c5ccc2[nH]5)C=C4)C=C3)cc1
REMARK SMILES IDX 5 1 4 2 3 3 1 4 2 5 28 7 29 8 87 9 30 10 86 11 31 12 32 13
REMARK SMILES IDX 33 14 80 15 34 16 85 17 79 18 81 19 35 20 84 21 78 22 77 23
REMARK SMILES IDX 36 25 66 26 47 27 65 28 48 29 51 30 64 31 82 32 49 33 50 34
REMARK SMILES IDX 63 36 83 37 52 38 37 39 38 40 46 41 39 42 45 43 40 44 41 45
REMARK SMILES IDX 42 46 43 47 44 48 67 49 68 50 76 51 69 52 75 53 70 54 71 55
REMARK SMILES IDX 72 56 73 57 74 58 53 59 54 60 62 61 55 62 61 63 56 64 57 65
REMARK SMILES IDX 58 66 59 67 60 68 6 69 7 70 8 71 9 73 10 74 11 75 26 76
REMARK SMILES IDX 23 77 25 78 27 79 24 80 12 81 13 82 14 83 15 85 16 86 17 87
REMARK SMILES IDX 18 88 22 89 19 90 21 91 20 92
REMARK H PARENT 3 6 81 24 51 35 7 72 14 84
REMARK Flexibility Score: inf
ROOT
ATOM      1  C   UNL A   1      36.630  22.673  24.101  1.00  0.00     0.042 C 
ENDROOT
BRANCH   1   2
ATOM      2  C   UNL A   1      37.100  22.058  25.423  1.00  0.00     0.118 C 
BRANCH   2   3
ATOM      3  N   UNL A   1      38.476  21.608  25.443  1.00  0.00    -0.352 N 
ATOM      4  O   UNL A   1      40.535  21.162  26.087  1.00  0.00    -0.269 OA
ATOM      5  C   UNL A   1      39.589  21.951  26.159  1.00  0.00     0.251 C 
ATOM      6  H   UNL A   1      38.651  20.891  24.791  1.00  0.00     0.163 HD
BRANCH   5   7
ATOM      7  C   UNL A   1      39.767  23.220  26.913  1.00  0.00     0.039 A 
ATOM      8  C   UNL A   1      38.988  24.371  26.782  1.00  0.00     0.014 A 
ATOM      9  C   UNL A   1      40.887  23.257  27.767  1.00  0.00     0.014 A 
ATOM     10  C   UNL A   1      39.392  25.563  27.378  1.00  0.00     0.010 A 
ATOM     11  C   UNL A   1      41.289  24.439  28.369  1.00  0.00     0.010 A 
ATOM     12  C   UNL A   1      40.570  25.603  28.124  1.00  0.00    -0.014 A 
BRANCH  12  13
ATOM     13  C   UNL A   1      40.975  26.863  28.739  1.00  0.00     0.031 A 
ATOM     14  C   UNL A   1      42.179  27.489  28.125  1.00  0.00     0.074 A 
ATOM     15  C   UNL A   1      40.228  27.492  29.669  1.00  0.00     0.049 A 
ATOM     16  N   UNL A   1      43.326  27.730  28.673  1.00  0.00    -0.248 NA
ATOM     17  C   UNL A   1      42.139  27.770  26.680  1.00  0.00     0.031 C 
ATOM     18  C   UNL A   1      38.888  27.132  30.144  1.00  0.00     0.029 A 
ATOM     19  N   UNL A   1      40.463  28.673  30.306  1.00  0.00    -0.354 N 
ATOM     20  C   UNL A   1      44.085  28.382  27.703  1.00  0.00     0.074 A 
ATOM     21  C   UNL A   1      43.372  28.227  26.460  1.00  0.00     0.031 C 
ATOM     22  C   UNL A   1      38.341  28.190  30.785  1.00  0.00     0.029 A 
ATOM     23  C   UNL A   1      39.335  29.245  30.887  1.00  0.00     0.049 A 
ATOM     24  H   UNL A   1      41.356  29.087  30.350  1.00  0.00     0.167 HD
ATOM     25  C   UNL A   1      45.124  29.203  28.025  1.00  0.00     0.031 A 
ATOM     26  C   UNL A   1      39.210  30.518  31.350  1.00  0.00     0.031 A 
ATOM     27  C   UNL A   1      45.560  29.011  29.382  1.00  0.00     0.049 A 
ATOM     28  C   UNL A   1      40.582  31.036  31.579  1.00  0.00     0.074 A 
ATOM     29  C   UNL A   1      46.082  27.955  30.101  1.00  0.00     0.029 A 
ATOM     30  N   UNL A   1      45.126  29.924  30.316  1.00  0.00    -0.354 N 
ATOM     31  N   UNL A   1      41.385  30.553  32.484  1.00  0.00    -0.248 NA
ATOM     32  C   UNL A   1      41.225  31.763  30.497  1.00  0.00     0.031 C 
ATOM     33  C   UNL A   1      45.486  28.063  31.392  1.00  0.00     0.029 A 
ATOM     34  C   UNL A   1      44.692  29.212  31.404  1.00  0.00     0.049 A 
ATOM     35  H   UNL A   1      45.126  30.903  30.220  1.00  0.00     0.167 HD
ATOM     36  C   UNL A   1      42.631  30.526  31.875  1.00  0.00     0.074 A 
ATOM     37  C   UNL A   1      42.487  31.364  30.683  1.00  0.00     0.031 C 
ATOM     38  C   UNL A   1      43.578  29.610  32.237  1.00  0.00     0.031 A 
BRANCH  25  39
ATOM     39  C   UNL A   1      45.464  30.458  27.253  1.00  0.00    -0.014 A 
ATOM     40  C   UNL A   1      46.821  30.798  27.073  1.00  0.00     0.010 A 
ATOM     41  C   UNL A   1      44.512  31.458  26.965  1.00  0.00     0.010 A 
ATOM     42  C   UNL A   1      47.204  32.098  26.715  1.00  0.00     0.020 A 
ATOM     43  C   UNL A   1      44.881  32.743  26.565  1.00  0.00     0.020 A 
ATOM     44  C   UNL A   1      46.228  33.067  26.484  1.00  0.00     0.054 A 
BRANCH  44  45
ATOM     45  S   UNL A   1      46.728  34.775  26.156  1.00  0.00     0.124 S 
ATOM     46  O   UNL A   1      45.472  35.370  25.701  1.00  0.00    -0.237 OA
ATOM     47  O   UNL A   1      47.196  35.215  27.470  1.00  0.00    -0.237 OA
ATOM     48  O   UNL A   1      47.764  34.641  25.142  1.00  0.00    -0.744 OA
ENDBRANCH  44  45
ENDBRANCH  25  39
BRANCH  26  49
ATOM     49  C   UNL A   1      38.024  31.411  31.245  1.00  0.00    -0.014 A 
ATOM     50  C   UNL A   1      36.714  30.898  31.162  1.00  0.00     0.010 A 
ATOM     51  C   UNL A   1      38.164  32.788  31.516  1.00  0.00     0.010 A 
ATOM     52  C   UNL A   1      35.593  31.721  31.391  1.00  0.00     0.020 A 
ATOM     53  C   UNL A   1      37.056  33.614  31.742  1.00  0.00     0.020 A 
ATOM     54  C   UNL A   1      35.774  33.072  31.700  1.00  0.00     0.054 A 
BRANCH  54  55
ATOM     55  S   UNL A   1      34.341  34.094  32.162  1.00  0.00     0.124 S 
ATOM     56  O   UNL A   1      34.973  35.275  32.743  1.00  0.00    -0.237 OA
ATOM     57  O   UNL A   1      33.670  34.301  30.882  1.00  0.00    -0.237 OA
ATOM     58  O   UNL A   1      33.611  33.254  33.110  1.00  0.00    -0.744 OA
ENDBRANCH  54  55
ENDBRANCH  26  49
BRANCH  38  59
ATOM     59  C   UNL A   1      43.336  28.777  33.475  1.00  0.00    -0.014 A 
ATOM     60  C   UNL A   1      43.629  29.216  34.782  1.00  0.00     0.010 A 
ATOM     61  C   UNL A   1      42.639  27.568  33.316  1.00  0.00     0.010 A 
ATOM     62  C   UNL A   1      43.252  28.450  35.897  1.00  0.00     0.020 A 
ATOM     63  C   UNL A   1      42.246  26.810  34.421  1.00  0.00     0.020 A 
ATOM     64  C   UNL A   1      42.561  27.250  35.708  1.00  0.00     0.054 A 
BRANCH  64  65
ATOM     65  S   UNL A   1      42.033  26.285  37.151  1.00  0.00     0.124 S 
ATOM     66  O   UNL A   1      43.094  26.552  38.118  1.00  0.00    -0.237 OA
ATOM     67  O   UNL A   1      40.730  26.866  37.470  1.00  0.00    -0.237 OA
ATOM     68  O   UNL A   1      41.982  24.912  36.653  1.00  0.00    -0.744 OA
ENDBRANCH  64  65
ENDBRANCH  38  59
ENDBRANCH  12  13
ENDBRANCH   5   7
ENDBRANCH   2   3
ENDBRANCH   1   2
BRANCH   1  69
ATOM     69  C   UNL A   1      35.657  23.847  24.248  1.00  0.00     0.117 C 
BRANCH  69  70
ATOM     70  N   UNL A   1      34.597  23.803  23.253  1.00  0.00    -0.356 N 
ATOM     71  C   UNL A   1      33.259  24.031  23.367  1.00  0.00     0.226 C 
ATOM     72  H   UNL A   1      34.897  23.568  22.345  1.00  0.00     0.163 HD
ATOM     73  O   UNL A   1      32.555  23.714  22.407  1.00  0.00    -0.275 OA
BRANCH  71  74
ATOM     74  C   UNL A   1      32.698  24.618  24.652  1.00  0.00     0.122 C 
ATOM     75  C   UNL A   1      31.296  24.065  24.983  1.00  0.00     0.122 C 
ATOM     76  C   UNL A   1      32.393  26.113  24.469  1.00  0.00     0.132 C 
ATOM     77  C   UNL A   1      30.444  25.338  25.047  1.00  0.00     0.132 C 
ATOM     78  C   UNL A   1      32.156  26.786  25.824  1.00  0.00     0.035 C 
ATOM     79  O   UNL A   1      31.036  26.082  23.944  1.00  0.00    -0.373 OA
ATOM     80  C   UNL A   1      30.749  26.309  26.180  1.00  0.00     0.035 C 
BRANCH  75  81
ATOM     81  C   UNL A   1      31.325  23.234  26.246  1.00  0.00     0.226 C 
ATOM     82  O   UNL A   1      31.172  23.723  27.364  1.00  0.00    -0.275 OA
ATOM     83  N   UNL A   1      31.595  21.904  26.181  1.00  0.00    -0.354 N 
ATOM     84  H   UNL A   1      31.593  21.448  27.054  1.00  0.00     0.163 HD
BRANCH  83  85
ATOM     85  C   UNL A   1      31.887  21.031  25.050  1.00  0.00     0.139 C 
BRANCH  85  86
ATOM     86  C   UNL A   1      33.207  20.278  25.224  1.00  0.00     0.165 C 
BRANCH  86  87
ATOM     87  N   UNL A   1      33.121  18.860  24.921  1.00  0.00    -0.269 N 
ATOM     88  C   UNL A   1      32.704  17.872  25.769  1.00  0.00     0.129 A 
ATOM     89  N   UNL A   1      33.503  18.397  23.711  1.00  0.00    -0.180 NA
ATOM     90  C   UNL A   1      32.797  16.702  25.059  1.00  0.00     0.079 A 
ATOM     91  C   UNL A   1      33.281  17.081  23.796  1.00  0.00     0.155 A 
ATOM     92  Cl  UNL A   1      32.425  15.134  25.566  1.00  0.00    -0.081 Cl
ENDBRANCH  86  87
ENDBRANCH  85  86
ENDBRANCH  83  85
ENDBRANCH  75  81
ENDBRANCH  71  74
ENDBRANCH  69  70
ENDBRANCH   1  69
TORSDOF 17
ENDMDL
