MODEL 1
REMARK VINA RESULT:     -10.2      0.000      0.000
REMARK SMILES CCC(CC)(C(=O)NCCCNC(=O)c1ccc(-c2c3nc(c(-c4ccc(S(=O)(=O)[O-])cc4)c4ccc([nH]4)c(-c4ccc(S(=O)(=O)[O-])cc4)c4nc(c(-c5ccc(S(=O)(=O)[O-])cc5)c5ccc2[nH]5)C=C4)C=C3)cc1)n1nnnc1[C@H]1C[C@H]2CC[C@@H]1C2
REMARK SMILES IDX 10 1 9 2 8 3 6 4 7 5 3 7 2 8 1 9 4 10 5 11 75 12 76 13 79 14
REMARK SMILES IDX 77 15 78 16 80 17 81 18 85 19 82 20 84 21 86 22 83 23 11 24
REMARK SMILES IDX 12 25 13 26 14 28 15 29 16 30 74 31 17 32 73 33 18 34 19 35
REMARK SMILES IDX 20 36 67 37 21 38 72 39 66 40 68 41 22 42 71 43 65 44 64 45
REMARK SMILES IDX 23 47 53 48 34 49 52 50 35 51 38 52 51 53 69 54 36 55 37 56
REMARK SMILES IDX 50 58 70 59 39 60 24 61 25 62 33 63 26 64 32 65 27 66 28 67
REMARK SMILES IDX 29 68 30 69 31 70 54 71 55 72 63 73 56 74 62 75 57 76 58 77
REMARK SMILES IDX 59 78 60 79 61 80 40 81 41 82 49 83 42 84 48 85 43 86 44 87
REMARK SMILES IDX 45 88 46 89 47 90
REMARK H PARENT 8 6 12 27 68 46 38 57
REMARK Flexibility Score: inf
ROOT
ATOM      1  C   UNL A   1      31.841  27.882  27.326  1.00  0.00     0.042 C 
ENDROOT
BRANCH   1   2
ATOM      2  C   UNL A   1      31.516  26.900  26.208  1.00  0.00     0.117 C 
BRANCH   2   3
ATOM      3  N   UNL A   1      32.575  26.776  25.219  1.00  0.00    -0.354 N 
ATOM      4  C   UNL A   1      32.985  25.800  24.362  1.00  0.00     0.248 C 
ATOM      5  O   UNL A   1      33.838  26.176  23.545  1.00  0.00    -0.272 OA
ATOM      6  H   UNL A   1      33.125  27.590  25.153  1.00  0.00     0.163 HD
BRANCH   4   7
ATOM      7  C   UNL A   1      32.439  24.352  24.310  1.00  0.00     0.144 C 
BRANCH   7   8
ATOM      8  C   UNL A   1      30.906  24.144  24.341  1.00  0.00     0.037 C 
ATOM      9  C   UNL A   1      30.116  25.020  23.369  1.00  0.00     0.007 C 
ENDBRANCH   7   8
BRANCH   7  10
ATOM     10  C   UNL A   1      33.077  23.793  22.967  1.00  0.00     0.037 C 
ATOM     11  C   UNL A   1      32.801  22.344  22.593  1.00  0.00     0.007 C 
ENDBRANCH   7  10
BRANCH   7  12
ATOM     12  N   UNL A   1      33.007  23.603  25.483  1.00  0.00    -0.214 N 
ATOM     13  N   UNL A   1      32.094  23.025  26.315  1.00  0.00    -0.044 NA
ATOM     14  C   UNL A   1      34.269  23.444  26.070  1.00  0.00     0.155 A 
ATOM     15  N   UNL A   1      32.743  22.595  27.368  1.00  0.00    -0.024 NA
ATOM     16  N   UNL A   1      34.059  22.858  27.247  1.00  0.00    -0.114 NA
BRANCH  14  17
ATOM     17  C   UNL A   1      35.706  23.789  25.754  1.00  0.00     0.063 C 
ATOM     18  C   UNL A   1      36.650  23.027  26.744  1.00  0.00     0.015 C 
ATOM     19  C   UNL A   1      36.465  23.646  24.421  1.00  0.00    -0.000 C 
ATOM     20  C   UNL A   1      37.774  22.511  25.840  1.00  0.00    -0.010 C 
ATOM     21  C   UNL A   1      36.475  22.234  23.864  1.00  0.00     0.004 C 
ATOM     22  C   UNL A   1      37.937  23.696  24.890  1.00  0.00     0.008 C 
ATOM     23  C   UNL A   1      37.203  21.418  24.927  1.00  0.00     0.004 C 
ENDBRANCH  14  17
ENDBRANCH   7  12
ENDBRANCH   4   7
ENDBRANCH   2   3
ENDBRANCH   1   2
BRANCH   1  24
ATOM     24  C   UNL A   1      33.265  28.430  27.277  1.00  0.00     0.118 C 
BRANCH  24  25
ATOM     25  N   UNL A   1      33.316  29.883  27.408  1.00  0.00    -0.352 N 
ATOM     26  C   UNL A   1      34.281  30.709  27.925  1.00  0.00     0.251 C 
ATOM     27  H   UNL A   1      32.520  30.350  27.065  1.00  0.00     0.163 HD
ATOM     28  O   UNL A   1      33.999  31.887  28.159  1.00  0.00    -0.269 OA
BRANCH  26  29
ATOM     29  C   UNL A   1      35.638  30.205  28.211  1.00  0.00     0.039 A 
ATOM     30  C   UNL A   1      36.606  30.214  27.201  1.00  0.00     0.014 A 
ATOM     31  C   UNL A   1      35.950  29.685  29.467  1.00  0.00     0.014 A 
ATOM     32  C   UNL A   1      37.905  29.774  27.475  1.00  0.00     0.010 A 
ATOM     33  C   UNL A   1      37.261  29.340  29.766  1.00  0.00     0.010 A 
ATOM     34  C   UNL A   1      38.252  29.372  28.774  1.00  0.00    -0.014 A 
BRANCH  34  35
ATOM     35  C   UNL A   1      39.628  28.949  29.139  1.00  0.00     0.031 A 
ATOM     36  C   UNL A   1      40.581  29.959  29.720  1.00  0.00     0.074 A 
ATOM     37  C   UNL A   1      40.060  27.709  28.832  1.00  0.00     0.049 A 
ATOM     38  N   UNL A   1      41.872  29.864  29.913  1.00  0.00    -0.248 NA
ATOM     39  C   UNL A   1      40.011  31.265  30.090  1.00  0.00     0.031 C 
ATOM     40  C   UNL A   1      39.243  26.647  28.243  1.00  0.00     0.029 A 
ATOM     41  N   UNL A   1      41.306  27.145  28.948  1.00  0.00    -0.354 N 
ATOM     42  C   UNL A   1      42.272  31.110  30.386  1.00  0.00     0.074 A 
ATOM     43  C   UNL A   1      41.097  31.953  30.401  1.00  0.00     0.031 C 
ATOM     44  C   UNL A   1      40.007  25.560  28.055  1.00  0.00     0.029 A 
ATOM     45  C   UNL A   1      41.377  25.864  28.457  1.00  0.00     0.049 A 
ATOM     46  H   UNL A   1      42.076  27.614  29.344  1.00  0.00     0.167 HD
ATOM     47  C   UNL A   1      43.503  31.510  30.786  1.00  0.00     0.031 A 
ATOM     48  C   UNL A   1      42.429  25.032  28.321  1.00  0.00     0.031 A 
ATOM     49  C   UNL A   1      44.661  30.658  30.779  1.00  0.00     0.049 A 
ATOM     50  C   UNL A   1      43.790  25.492  28.765  1.00  0.00     0.074 A 
ATOM     51  C   UNL A   1      45.943  30.946  31.214  1.00  0.00     0.029 A 
ATOM     52  N   UNL A   1      44.678  29.351  30.314  1.00  0.00    -0.354 N 
ATOM     53  N   UNL A   1      44.145  26.658  29.252  1.00  0.00    -0.248 NA
ATOM     54  C   UNL A   1      44.890  24.524  28.654  1.00  0.00     0.031 C 
ATOM     55  C   UNL A   1      46.747  29.830  30.960  1.00  0.00     0.029 A 
ATOM     56  C   UNL A   1      45.951  28.824  30.434  1.00  0.00     0.049 A 
ATOM     57  H   UNL A   1      43.899  28.870  29.952  1.00  0.00     0.167 HD
ATOM     58  C   UNL A   1      45.501  26.551  29.541  1.00  0.00     0.074 A 
ATOM     59  C   UNL A   1      45.902  25.209  29.172  1.00  0.00     0.031 C 
ATOM     60  C   UNL A   1      46.332  27.480  30.073  1.00  0.00     0.031 A 
BRANCH  47  61
ATOM     61  C   UNL A   1      43.651  32.941  31.238  1.00  0.00    -0.014 A 
ATOM     62  C   UNL A   1      43.883  33.980  30.317  1.00  0.00     0.010 A 
ATOM     63  C   UNL A   1      43.564  33.252  32.608  1.00  0.00     0.010 A 
ATOM     64  C   UNL A   1      44.101  35.286  30.762  1.00  0.00     0.020 A 
ATOM     65  C   UNL A   1      43.744  34.564  33.054  1.00  0.00     0.020 A 
ATOM     66  C   UNL A   1      44.039  35.567  32.129  1.00  0.00     0.054 A 
BRANCH  66  67
ATOM     67  S   UNL A   1      44.349  37.268  32.680  1.00  0.00     0.124 S 
ATOM     68  O   UNL A   1      43.212  37.506  33.567  1.00  0.00    -0.237 OA
ATOM     69  O   UNL A   1      45.647  37.160  33.340  1.00  0.00    -0.237 OA
ATOM     70  O   UNL A   1      44.344  38.040  31.441  1.00  0.00    -0.744 OA
ENDBRANCH  66  67
ENDBRANCH  47  61
BRANCH  48  71
ATOM     71  C   UNL A   1      42.219  23.674  27.748  1.00  0.00    -0.014 A 
ATOM     72  C   UNL A   1      42.434  23.438  26.379  1.00  0.00     0.010 A 
ATOM     73  C   UNL A   1      41.863  22.596  28.580  1.00  0.00     0.010 A 
ATOM     74  C   UNL A   1      42.300  22.150  25.853  1.00  0.00     0.020 A 
ATOM     75  C   UNL A   1      41.755  21.302  28.063  1.00  0.00     0.020 A 
ATOM     76  C   UNL A   1      41.972  21.088  26.700  1.00  0.00     0.054 A 
BRANCH  76  77
ATOM     77  S   UNL A   1      41.897  19.410  26.011  1.00  0.00     0.124 S 
ATOM     78  O   UNL A   1      42.802  19.510  24.870  1.00  0.00    -0.237 OA
ATOM     79  O   UNL A   1      42.368  18.593  27.125  1.00  0.00    -0.237 OA
ATOM     80  O   UNL A   1      40.485  19.240  25.678  1.00  0.00    -0.744 OA
ENDBRANCH  76  77
ENDBRANCH  48  71
BRANCH  60  81
ATOM     81  C   UNL A   1      47.755  27.073  30.354  1.00  0.00    -0.014 A 
ATOM     82  C   UNL A   1      48.783  27.294  29.421  1.00  0.00     0.010 A 
ATOM     83  C   UNL A   1      48.078  26.553  31.622  1.00  0.00     0.010 A 
ATOM     84  C   UNL A   1      50.109  26.995  29.749  1.00  0.00     0.020 A 
ATOM     85  C   UNL A   1      49.404  26.280  31.963  1.00  0.00     0.020 A 
ATOM     86  C   UNL A   1      50.412  26.498  31.021  1.00  0.00     0.054 A 
BRANCH  86  87
ATOM     87  S   UNL A   1      52.148  26.198  31.452  1.00  0.00     0.124 S 
ATOM     88  O   UNL A   1      52.793  26.211  30.142  1.00  0.00    -0.237 OA
ATOM     89  O   UNL A   1      52.462  27.332  32.318  1.00  0.00    -0.237 OA
ATOM     90  O   UNL A   1      52.122  24.899  32.121  1.00  0.00    -0.744 OA
ENDBRANCH  86  87
ENDBRANCH  60  81
ENDBRANCH  34  35
ENDBRANCH  26  29
ENDBRANCH  24  25
ENDBRANCH   1  24
TORSDOF 17
ENDMDL
MODEL 2
REMARK VINA RESULT:     -10.1      3.018      7.793
REMARK SMILES CCC(CC)(C(=O)NCCCNC(=O)c1ccc(-c2c3nc(c(-c4ccc(S(=O)(=O)[O-])cc4)c4ccc([nH]4)c(-c4ccc(S(=O)(=O)[O-])cc4)c4nc(c(-c5ccc(S(=O)(=O)[O-])cc5)c5ccc2[nH]5)C=C4)C=C3)cc1)n1nnnc1[C@H]1C[C@H]2CC[C@@H]1C2
REMARK SMILES IDX 10 1 9 2 8 3 6 4 7 5 3 7 2 8 1 9 4 10 5 11 75 12 76 13 79 14
REMARK SMILES IDX 77 15 78 16 80 17 81 18 85 19 82 20 84 21 86 22 83 23 11 24
REMARK SMILES IDX 12 25 13 26 14 28 15 29 16 30 74 31 17 32 73 33 18 34 19 35
REMARK SMILES IDX 20 36 67 37 21 38 72 39 66 40 68 41 22 42 71 43 65 44 64 45
REMARK SMILES IDX 23 47 53 48 34 49 52 50 35 51 38 52 51 53 69 54 36 55 37 56
REMARK SMILES IDX 50 58 70 59 39 60 24 61 25 62 33 63 26 64 32 65 27 66 28 67
REMARK SMILES IDX 29 68 30 69 31 70 54 71 55 72 63 73 56 74 62 75 57 76 58 77
REMARK SMILES IDX 59 78 60 79 61 80 40 81 41 82 49 83 42 84 48 85 43 86 44 87
REMARK SMILES IDX 45 88 46 89 47 90
REMARK H PARENT 8 6 12 27 68 46 38 57
REMARK Flexibility Score: inf
ROOT
ATOM      1  C   UNL A   1      37.563  20.448  24.880  1.00  0.00     0.042 C 
ENDROOT
BRANCH   1   2
ATOM      2  C   UNL A   1      36.564  21.539  24.518  1.00  0.00     0.117 C 
BRANCH   2   3
ATOM      3  N   UNL A   1      35.966  22.185  25.676  1.00  0.00    -0.354 N 
ATOM      4  C   UNL A   1      34.695  22.490  26.060  1.00  0.00     0.248 C 
ATOM      5  O   UNL A   1      34.608  22.890  27.231  1.00  0.00    -0.272 OA
ATOM      6  H   UNL A   1      36.638  22.466  26.338  1.00  0.00     0.163 HD
BRANCH   4   7
ATOM      7  C   UNL A   1      33.422  22.321  25.196  1.00  0.00     0.144 C 
BRANCH   7   8
ATOM      8  C   UNL A   1      33.141  20.937  24.565  1.00  0.00     0.037 C 
ATOM      9  C   UNL A   1      33.200  19.759  25.537  1.00  0.00     0.007 C 
ENDBRANCH   7   8
BRANCH   7  10
ATOM     10  C   UNL A   1      32.267  22.749  26.200  1.00  0.00     0.037 C 
ATOM     11  C   UNL A   1      30.830  22.703  25.700  1.00  0.00     0.007 C 
ENDBRANCH   7  10
BRANCH   7  12
ATOM     12  N   UNL A   1      33.495  23.311  24.067  1.00  0.00    -0.214 N 
ATOM     13  N   UNL A   1      33.435  22.783  22.812  1.00  0.00    -0.044 NA
ATOM     14  C   UNL A   1      33.766  24.679  23.936  1.00  0.00     0.155 A 
ATOM     15  N   UNL A   1      33.709  23.749  21.969  1.00  0.00    -0.024 NA
ATOM     16  N   UNL A   1      33.933  24.900  22.633  1.00  0.00    -0.114 NA
BRANCH  14  17
ATOM     17  C   UNL A   1      33.955  25.879  24.835  1.00  0.00     0.063 C 
ATOM     18  C   UNL A   1      33.802  27.188  23.990  1.00  0.00     0.015 C 
ATOM     19  C   UNL A   1      33.202  26.248  26.127  1.00  0.00    -0.000 C 
ATOM     20  C   UNL A   1      32.943  28.091  24.881  1.00  0.00    -0.010 C 
ATOM     21  C   UNL A   1      31.698  26.368  25.952  1.00  0.00     0.004 C 
ATOM     22  C   UNL A   1      33.517  27.756  26.256  1.00  0.00     0.008 C 
ATOM     23  C   UNL A   1      31.527  27.504  24.950  1.00  0.00     0.004 C 
ENDBRANCH  14  17
ENDBRANCH   7  12
ENDBRANCH   4   7
ENDBRANCH   2   3
ENDBRANCH   1   2
BRANCH   1  24
ATOM     24  C   UNL A   1      38.739  20.937  25.722  1.00  0.00     0.118 C 
BRANCH  24  25
ATOM     25  N   UNL A   1      39.783  19.929  25.874  1.00  0.00    -0.352 N 
ATOM     26  C   UNL A   1      41.126  20.051  26.128  1.00  0.00     0.251 C 
ATOM     27  H   UNL A   1      39.470  19.001  25.778  1.00  0.00     0.163 HD
ATOM     28  O   UNL A   1      41.858  19.072  25.966  1.00  0.00    -0.269 OA
BRANCH  26  29
ATOM     29  C   UNL A   1      41.699  21.333  26.581  1.00  0.00     0.039 A 
ATOM     30  C   UNL A   1      42.002  21.515  27.935  1.00  0.00     0.014 A 
ATOM     31  C   UNL A   1      41.902  22.376  25.677  1.00  0.00     0.014 A 
ATOM     32  C   UNL A   1      42.582  22.713  28.365  1.00  0.00     0.010 A 
ATOM     33  C   UNL A   1      42.565  23.526  26.086  1.00  0.00     0.010 A 
ATOM     34  C   UNL A   1      42.905  23.713  27.434  1.00  0.00    -0.014 A 
BRANCH  34  35
ATOM     35  C   UNL A   1      43.573  24.981  27.823  1.00  0.00     0.031 A 
ATOM     36  C   UNL A   1      42.736  26.149  28.271  1.00  0.00     0.074 A 
ATOM     37  C   UNL A   1      44.902  25.127  27.651  1.00  0.00     0.049 A 
ATOM     38  N   UNL A   1      43.085  27.396  28.453  1.00  0.00    -0.248 NA
ATOM     39  C   UNL A   1      41.306  25.884  28.501  1.00  0.00     0.031 C 
ATOM     40  C   UNL A   1      45.819  24.081  27.197  1.00  0.00     0.029 A 
ATOM     41  N   UNL A   1      45.705  26.228  27.809  1.00  0.00    -0.354 N 
ATOM     42  C   UNL A   1      41.912  28.070  28.777  1.00  0.00     0.074 A 
ATOM     43  C   UNL A   1      40.838  27.103  28.715  1.00  0.00     0.031 C 
ATOM     44  C   UNL A   1      47.060  24.588  27.121  1.00  0.00     0.029 A 
ATOM     45  C   UNL A   1      47.017  26.007  27.464  1.00  0.00     0.049 A 
ATOM     46  H   UNL A   1      45.374  27.095  28.137  1.00  0.00     0.167 HD
ATOM     47  C   UNL A   1      41.746  29.373  29.110  1.00  0.00     0.031 A 
ATOM     48  C   UNL A   1      48.065  26.852  27.406  1.00  0.00     0.031 A 
ATOM     49  C   UNL A   1      42.823  30.323  29.180  1.00  0.00     0.049 A 
ATOM     50  C   UNL A   1      47.865  28.295  27.774  1.00  0.00     0.074 A 
ATOM     51  C   UNL A   1      42.774  31.653  29.559  1.00  0.00     0.029 A 
ATOM     52  N   UNL A   1      44.145  30.043  28.865  1.00  0.00    -0.354 N 
ATOM     53  N   UNL A   1      46.758  28.909  28.121  1.00  0.00    -0.248 NA
ATOM     54  C   UNL A   1      49.053  29.160  27.755  1.00  0.00     0.031 C 
ATOM     55  C   UNL A   1      44.057  32.191  29.420  1.00  0.00     0.029 A 
ATOM     56  C   UNL A   1      44.918  31.179  29.023  1.00  0.00     0.049 A 
ATOM     57  H   UNL A   1      44.482  29.166  28.571  1.00  0.00     0.167 HD
ATOM     58  C   UNL A   1      47.122  30.222  28.398  1.00  0.00     0.074 A 
ATOM     59  C   UNL A   1      48.551  30.314  28.176  1.00  0.00     0.031 C 
ATOM     60  C   UNL A   1      46.343  31.252  28.810  1.00  0.00     0.031 A 
BRANCH  47  61
ATOM     61  C   UNL A   1      40.341  29.840  29.395  1.00  0.00    -0.014 A 
ATOM     62  C   UNL A   1      39.411  30.041  28.358  1.00  0.00     0.010 A 
ATOM     63  C   UNL A   1      39.945  30.088  30.723  1.00  0.00     0.010 A 
ATOM     64  C   UNL A   1      38.140  30.552  28.635  1.00  0.00     0.020 A 
ATOM     65  C   UNL A   1      38.662  30.565  31.007  1.00  0.00     0.020 A 
ATOM     66  C   UNL A   1      37.778  30.820  29.957  1.00  0.00     0.054 A 
BRANCH  66  67
ATOM     67  S   UNL A   1      36.131  31.506  30.285  1.00  0.00     0.124 S 
ATOM     68  O   UNL A   1      35.362  30.989  29.156  1.00  0.00    -0.237 OA
ATOM     69  O   UNL A   1      35.798  30.934  31.586  1.00  0.00    -0.237 OA
ATOM     70  O   UNL A   1      36.351  32.950  30.280  1.00  0.00    -0.744 OA
ENDBRANCH  66  67
ENDBRANCH  47  61
BRANCH  48  71
ATOM     71  C   UNL A   1      49.399  26.335  26.993  1.00  0.00    -0.014 A 
ATOM     72  C   UNL A   1      49.772  26.330  25.637  1.00  0.00     0.010 A 
ATOM     73  C   UNL A   1      50.328  25.904  27.959  1.00  0.00     0.010 A 
ATOM     74  C   UNL A   1      51.047  25.906  25.255  1.00  0.00     0.020 A 
ATOM     75  C   UNL A   1      51.614  25.506  27.583  1.00  0.00     0.020 A 
ATOM     76  C   UNL A   1      51.965  25.507  26.232  1.00  0.00     0.054 A 
BRANCH  76  77
ATOM     77  S   UNL A   1      53.645  25.052  25.719  1.00  0.00     0.124 S 
ATOM     78  O   UNL A   1      53.455  23.691  25.227  1.00  0.00    -0.237 OA
ATOM     79  O   UNL A   1      53.945  26.058  24.703  1.00  0.00    -0.237 OA
ATOM     80  O   UNL A   1      54.423  25.172  26.950  1.00  0.00    -0.744 OA
ENDBRANCH  76  77
ENDBRANCH  48  71
BRANCH  60  81
ATOM     81  C   UNL A   1      47.015  32.566  29.111  1.00  0.00    -0.014 A 
ATOM     82  C   UNL A   1      47.145  33.569  28.136  1.00  0.00     0.010 A 
ATOM     83  C   UNL A   1      47.429  32.833  30.431  1.00  0.00     0.010 A 
ATOM     84  C   UNL A   1      47.684  34.814  28.473  1.00  0.00     0.020 A 
ATOM     85  C   UNL A   1      47.943  34.084  30.777  1.00  0.00     0.020 A 
ATOM     86  C   UNL A   1      48.073  35.066  29.793  1.00  0.00     0.054 A 
BRANCH  86  87
ATOM     87  S   UNL A   1      48.690  36.717  30.222  1.00  0.00     0.124 S 
ATOM     88  O   UNL A   1      49.098  37.237  28.921  1.00  0.00    -0.237 OA
ATOM     89  O   UNL A   1      47.516  37.353  30.813  1.00  0.00    -0.237 OA
ATOM     90  O   UNL A   1      49.782  36.447  31.156  1.00  0.00    -0.744 OA
ENDBRANCH  86  87
ENDBRANCH  60  81
ENDBRANCH  34  35
ENDBRANCH  26  29
ENDBRANCH  24  25
ENDBRANCH   1  24
TORSDOF 17
ENDMDL
MODEL 3
REMARK VINA RESULT:     -10.0      4.627      9.683
REMARK SMILES CCC(CC)(C(=O)NCCCNC(=O)c1ccc(-c2c3nc(c(-c4ccc(S(=O)(=O)[O-])cc4)c4ccc([nH]4)c(-c4ccc(S(=O)(=O)[O-])cc4)c4nc(c(-c5ccc(S(=O)(=O)[O-])cc5)c5ccc2[nH]5)C=C4)C=C3)cc1)n1nnnc1[C@H]1C[C@H]2CC[C@@H]1C2
REMARK SMILES IDX 10 1 9 2 8 3 6 4 7 5 3 7 2 8 1 9 4 10 5 11 75 12 76 13 79 14
REMARK SMILES IDX 77 15 78 16 80 17 81 18 85 19 82 20 84 21 86 22 83 23 11 24
REMARK SMILES IDX 12 25 13 26 14 28 15 29 16 30 74 31 17 32 73 33 18 34 19 35
REMARK SMILES IDX 20 36 67 37 21 38 72 39 66 40 68 41 22 42 71 43 65 44 64 45
REMARK SMILES IDX 23 47 53 48 34 49 52 50 35 51 38 52 51 53 69 54 36 55 37 56
REMARK SMILES IDX 50 58 70 59 39 60 24 61 25 62 33 63 26 64 32 65 27 66 28 67
REMARK SMILES IDX 29 68 30 69 31 70 54 71 55 72 63 73 56 74 62 75 57 76 58 77
REMARK SMILES IDX 59 78 60 79 61 80 40 81 41 82 49 83 42 84 48 85 43 86 44 87
REMARK SMILES IDX 45 88 46 89 47 90
REMARK H PARENT 8 6 12 27 68 46 38 57
REMARK Flexibility Score: inf
ROOT
ATOM      1  C   UNL A   1      31.559  31.781  26.578  1.00  0.00     0.042 C 
ENDROOT
BRANCH   1   2
ATOM      2  C   UNL A   1      31.789  30.457  25.862  1.00  0.00     0.117 C 
BRANCH   2   3
ATOM      3  N   UNL A   1      31.105  30.362  24.582  1.00  0.00    -0.354 N 
ATOM      4  C   UNL A   1      30.661  29.340  23.800  1.00  0.00     0.248 C 
ATOM      5  O   UNL A   1      29.954  29.706  22.849  1.00  0.00    -0.272 OA
ATOM      6  H   UNL A   1      30.919  31.245  24.190  1.00  0.00     0.163 HD
BRANCH   4   7
ATOM      7  C   UNL A   1      30.918  27.832  24.046  1.00  0.00     0.144 C 
BRANCH   7   8
ATOM      8  C   UNL A   1      31.174  27.358  25.496  1.00  0.00     0.037 C 
ATOM      9  C   UNL A   1      32.647  27.207  25.875  1.00  0.00     0.007 C 
ENDBRANCH   7   8
BRANCH   7  10
ATOM     10  C   UNL A   1      29.616  27.159  23.433  1.00  0.00     0.037 C 
ATOM     11  C   UNL A   1      28.811  26.220  24.320  1.00  0.00     0.007 C 
ENDBRANCH   7  10
BRANCH   7  12
ATOM     12  N   UNL A   1      32.118  27.431  23.234  1.00  0.00    -0.214 N 
ATOM     13  N   UNL A   1      32.958  28.445  22.880  1.00  0.00    -0.044 NA
ATOM     14  C   UNL A   1      32.562  26.271  22.587  1.00  0.00     0.155 A 
ATOM     15  N   UNL A   1      33.822  27.954  22.026  1.00  0.00    -0.024 NA
ATOM     16  N   UNL A   1      33.586  26.644  21.820  1.00  0.00    -0.114 NA
BRANCH  14  17
ATOM     17  C   UNL A   1      32.173  24.813  22.501  1.00  0.00     0.063 C 
ATOM     18  C   UNL A   1      33.415  23.972  22.053  1.00  0.00     0.015 C 
ATOM     19  C   UNL A   1      31.555  23.911  23.586  1.00  0.00    -0.000 C 
ATOM     20  C   UNL A   1      33.369  22.748  22.973  1.00  0.00    -0.010 C 
ATOM     21  C   UNL A   1      32.382  23.820  24.856  1.00  0.00     0.004 C 
ATOM     22  C   UNL A   1      31.863  22.500  23.035  1.00  0.00     0.008 C 
ATOM     23  C   UNL A   1      33.699  23.200  24.402  1.00  0.00     0.004 C 
ENDBRANCH  14  17
ENDBRANCH   7  12
ENDBRANCH   4   7
ENDBRANCH   2   3
ENDBRANCH   1   2
BRANCH   1  24
ATOM     24  C   UNL A   1      32.796  32.326  27.288  1.00  0.00     0.118 C 
BRANCH  24  25
ATOM     25  N   UNL A   1      32.642  33.717  27.703  1.00  0.00    -0.352 N 
ATOM     26  C   UNL A   1      33.274  34.442  28.680  1.00  0.00     0.251 C 
ATOM     27  H   UNL A   1      31.969  34.222  27.192  1.00  0.00     0.163 HD
ATOM     28  O   UNL A   1      32.805  35.533  29.016  1.00  0.00    -0.269 OA
BRANCH  26  29
ATOM     29  C   UNL A   1      34.495  33.933  29.334  1.00  0.00     0.039 A 
ATOM     30  C   UNL A   1      35.751  34.311  28.846  1.00  0.00     0.014 A 
ATOM     31  C   UNL A   1      34.405  33.047  30.407  1.00  0.00     0.014 A 
ATOM     32  C   UNL A   1      36.911  33.864  29.485  1.00  0.00     0.010 A 
ATOM     33  C   UNL A   1      35.552  32.680  31.100  1.00  0.00     0.010 A 
ATOM     34  C   UNL A   1      36.818  33.076  30.643  1.00  0.00    -0.014 A 
BRANCH  34  35
ATOM     35  C   UNL A   1      38.013  32.618  31.397  1.00  0.00     0.031 A 
ATOM     36  C   UNL A   1      38.800  31.441  30.889  1.00  0.00     0.074 A 
ATOM     37  C   UNL A   1      38.312  33.168  32.591  1.00  0.00     0.049 A 
ATOM     38  N   UNL A   1      39.738  30.751  31.486  1.00  0.00    -0.248 NA
ATOM     39  C   UNL A   1      38.453  30.947  29.546  1.00  0.00     0.031 C 
ATOM     40  C   UNL A   1      37.611  34.296  33.206  1.00  0.00     0.029 A 
ATOM     41  N   UNL A   1      39.269  32.827  33.514  1.00  0.00    -0.354 N 
ATOM     42  C   UNL A   1      40.060  29.720  30.610  1.00  0.00     0.074 A 
ATOM     43  C   UNL A   1      39.183  29.847  29.467  1.00  0.00     0.031 C 
ATOM     44  C   UNL A   1      38.165  34.558  34.401  1.00  0.00     0.029 A 
ATOM     45  C   UNL A   1      39.221  33.584  34.661  1.00  0.00     0.049 A 
ATOM     46  H   UNL A   1      39.926  32.109  33.370  1.00  0.00     0.167 HD
ATOM     47  C   UNL A   1      41.011  28.762  30.739  1.00  0.00     0.031 A 
ATOM     48  C   UNL A   1      39.929  33.492  35.804  1.00  0.00     0.031 A 
ATOM     49  C   UNL A   1      41.885  28.654  31.875  1.00  0.00     0.049 A 
ATOM     50  C   UNL A   1      40.977  32.422  35.935  1.00  0.00     0.074 A 
ATOM     51  C   UNL A   1      42.918  27.756  32.083  1.00  0.00     0.029 A 
ATOM     52  N   UNL A   1      41.831  29.470  32.996  1.00  0.00    -0.354 N 
ATOM     53  N   UNL A   1      41.300  31.481  35.079  1.00  0.00    -0.248 NA
ATOM     54  C   UNL A   1      41.763  32.406  37.176  1.00  0.00     0.031 C 
ATOM     55  C   UNL A   1      43.451  27.996  33.353  1.00  0.00     0.029 A 
ATOM     56  C   UNL A   1      42.799  29.087  33.906  1.00  0.00     0.049 A 
ATOM     57  H   UNL A   1      41.196  30.212  33.124  1.00  0.00     0.167 HD
ATOM     58  C   UNL A   1      42.354  30.784  35.663  1.00  0.00     0.074 A 
ATOM     59  C   UNL A   1      42.610  31.411  36.944  1.00  0.00     0.031 C 
ATOM     60  C   UNL A   1      43.050  29.729  35.174  1.00  0.00     0.031 A 
BRANCH  47  61
ATOM     61  C   UNL A   1      41.125  27.748  29.629  1.00  0.00    -0.014 A 
ATOM     62  C   UNL A   1      42.195  27.781  28.715  1.00  0.00     0.010 A 
ATOM     63  C   UNL A   1      40.144  26.749  29.494  1.00  0.00     0.010 A 
ATOM     64  C   UNL A   1      42.239  26.885  27.643  1.00  0.00     0.020 A 
ATOM     65  C   UNL A   1      40.205  25.827  28.446  1.00  0.00     0.020 A 
ATOM     66  C   UNL A   1      41.238  25.920  27.511  1.00  0.00     0.054 A 
BRANCH  66  67
ATOM     67  S   UNL A   1      41.308  24.784  26.098  1.00  0.00     0.124 S 
ATOM     68  O   UNL A   1      41.254  25.709  24.968  1.00  0.00    -0.237 OA
ATOM     69  O   UNL A   1      42.587  24.107  26.294  1.00  0.00    -0.237 OA
ATOM     70  O   UNL A   1      40.126  23.943  26.271  1.00  0.00    -0.744 OA
ENDBRANCH  66  67
ENDBRANCH  47  61
BRANCH  48  71
ATOM     71  C   UNL A   1      39.667  34.459  36.906  1.00  0.00    -0.014 A 
ATOM     72  C   UNL A   1      38.906  34.076  38.024  1.00  0.00     0.010 A 
ATOM     73  C   UNL A   1      40.231  35.749  36.871  1.00  0.00     0.010 A 
ATOM     74  C   UNL A   1      38.715  34.962  39.088  1.00  0.00     0.020 A 
ATOM     75  C   UNL A   1      40.065  36.627  37.945  1.00  0.00     0.020 A 
ATOM     76  C   UNL A   1      39.305  36.229  39.047  1.00  0.00     0.054 A 
BRANCH  76  77
ATOM     77  S   UNL A   1      39.121  37.325  40.482  1.00  0.00     0.124 S 
ATOM     78  O   UNL A   1      40.493  37.776  40.698  1.00  0.00    -0.237 OA
ATOM     79  O   UNL A   1      38.192  38.337  39.985  1.00  0.00    -0.237 OA
ATOM     80  O   UNL A   1      38.579  36.447  41.516  1.00  0.00    -0.744 OA
ENDBRANCH  76  77
ENDBRANCH  48  71
BRANCH  60  81
ATOM     81  C   UNL A   1      44.203  29.208  35.990  1.00  0.00    -0.014 A 
ATOM     82  C   UNL A   1      45.472  29.810  35.942  1.00  0.00     0.010 A 
ATOM     83  C   UNL A   1      43.976  28.157  36.899  1.00  0.00     0.010 A 
ATOM     84  C   UNL A   1      46.495  29.365  36.784  1.00  0.00     0.020 A 
ATOM     85  C   UNL A   1      44.987  27.728  37.761  1.00  0.00     0.020 A 
ATOM     86  C   UNL A   1      46.244  28.332  37.694  1.00  0.00     0.054 A 
BRANCH  86  87
ATOM     87  S   UNL A   1      47.563  27.831  38.834  1.00  0.00     0.124 S 
ATOM     88  O   UNL A   1      47.326  28.705  39.978  1.00  0.00    -0.237 OA
ATOM     89  O   UNL A   1      47.274  26.416  39.053  1.00  0.00    -0.237 OA
ATOM     90  O   UNL A   1      48.789  28.101  38.086  1.00  0.00    -0.744 OA
ENDBRANCH  86  87
ENDBRANCH  60  81
ENDBRANCH  34  35
ENDBRANCH  26  29
ENDBRANCH  24  25
ENDBRANCH   1  24
TORSDOF 17
ENDMDL
