MODEL 1
REMARK VINA RESULT:     -12.0      0.000      0.000
REMARK SMILES CC1=C(C)C[C@@H](C(=O)NCCCNC(=O)c2ccc(-c3c4nc(c(-c5ccc(S(=O)(=O)[O-])cc5)c5ccc([nH]5)c(-c5ccc(S(=O)(=O)[O-])cc5)c5nc(c(-c6ccc(S(=O)(=O)[O-])cc6)c6ccc3[nH]6)C=C5)C=C4)cc2)[C@@H](C(=O)NCC[NH+]2CCOCC2)C1
REMARK SMILES IDX 10 1 9 2 7 3 8 4 6 6 1 7 2 8 3 9 88 10 4 11 5 12 76 13 77 14
REMARK SMILES IDX 78 15 79 16 80 18 81 19 82 20 83 21 87 22 84 24 86 25 85 26
REMARK SMILES IDX 11 27 12 28 13 29 14 30 15 32 16 33 17 34 75 35 18 36 74 37
REMARK SMILES IDX 19 38 20 39 21 40 68 41 22 42 73 43 67 44 69 45 23 46 72 47
REMARK SMILES IDX 66 48 65 49 24 51 54 52 35 53 53 54 36 55 39 56 52 57 70 58
REMARK SMILES IDX 37 59 38 60 51 62 71 63 40 64 25 65 26 66 34 67 27 68 33 69
REMARK SMILES IDX 28 70 29 71 30 72 31 73 32 74 55 75 56 76 64 77 57 78 63 79
REMARK SMILES IDX 58 80 59 81 60 82 61 83 62 84 41 85 42 86 50 87 43 88 49 89
REMARK SMILES IDX 44 90 45 91 46 92 47 93 48 94
REMARK H PARENT 9 5 79 17 82 23 13 31 69 50 39 61
REMARK Flexibility Score: inf
ROOT
ATOM      1  C   UNL A   1      36.252  22.669  25.765  1.00  0.00     0.117 C 
ENDROOT
BRANCH   1   2
ATOM      2  N   UNL A   1      35.233  23.116  26.686  1.00  0.00    -0.356 N 
ATOM      3  C   UNL A   1      33.964  23.547  26.487  1.00  0.00     0.224 C 
ATOM      4  O   UNL A   1      33.234  23.559  27.486  1.00  0.00    -0.275 OA
ATOM      5  H   UNL A   1      35.511  23.104  27.630  1.00  0.00     0.163 HD
BRANCH   3   6
ATOM      6  C   UNL A   1      33.385  23.927  25.116  1.00  0.00     0.095 C 
ATOM      7  C   UNL A   1      30.902  27.591  24.704  1.00  0.00     0.039 C 
ATOM      8  C   UNL A   1      31.813  26.387  24.701  1.00  0.00    -0.074 C 
ATOM      9  C   UNL A   1      33.153  26.452  24.568  1.00  0.00    -0.074 C 
ATOM     10  C   UNL A   1      31.080  25.091  24.944  1.00  0.00     0.045 C 
ATOM     11  C   UNL A   1      33.941  27.737  24.490  1.00  0.00     0.039 C 
ATOM     12  C   UNL A   1      34.020  25.217  24.586  1.00  0.00     0.045 C 
ATOM     13  C   UNL A   1      31.859  23.778  24.880  1.00  0.00     0.095 C 
BRANCH  13  14
ATOM     14  C   UNL A   1      31.282  22.595  25.679  1.00  0.00     0.224 C 
ATOM     15  O   UNL A   1      30.457  22.788  26.577  1.00  0.00    -0.275 OA
ATOM     16  N   UNL A   1      31.692  21.309  25.571  1.00  0.00    -0.350 N 
ATOM     17  H   UNL A   1      31.238  20.707  26.206  1.00  0.00     0.163 HD
BRANCH  16  18
ATOM     18  C   UNL A   1      32.653  20.616  24.724  1.00  0.00     0.177 C 
BRANCH  18  19
ATOM     19  C   UNL A   1      33.113  19.258  25.306  1.00  0.00     0.283 C 
BRANCH  19  20
ATOM     20  N   UNL A   1      32.595  17.984  24.801  1.00  0.00    -0.330 N 
ATOM     21  C   UNL A   1      32.936  16.793  25.598  1.00  0.00     0.291 C 
ATOM     22  C   UNL A   1      32.728  17.687  23.372  1.00  0.00     0.291 C 
ATOM     23  H   UNL A   1      31.605  18.192  24.931  1.00  0.00     0.348 HD
ATOM     24  C   UNL A   1      34.246  16.110  25.185  1.00  0.00     0.221 C 
ATOM     25  C   UNL A   1      34.039  16.982  22.997  1.00  0.00     0.221 C 
ATOM     26  O   UNL A   1      34.270  15.812  23.785  1.00  0.00    -0.370 OA
ENDBRANCH  19  20
ENDBRANCH  18  19
ENDBRANCH  16  18
ENDBRANCH  13  14
ENDBRANCH   3   6
ENDBRANCH   1   2
BRANCH   1  27
ATOM     27  C   UNL A   1      37.310  23.725  25.493  1.00  0.00     0.042 C 
BRANCH  27  28
ATOM     28  C   UNL A   1      38.328  23.877  26.615  1.00  0.00     0.118 C 
BRANCH  28  29
ATOM     29  N   UNL A   1      39.695  23.906  26.120  1.00  0.00    -0.352 N 
ATOM     30  C   UNL A   1      40.715  24.780  26.392  1.00  0.00     0.251 C 
ATOM     31  H   UNL A   1      39.923  23.185  25.490  1.00  0.00     0.163 HD
ATOM     32  O   UNL A   1      41.724  24.752  25.685  1.00  0.00    -0.269 OA
BRANCH  30  33
ATOM     33  C   UNL A   1      40.620  25.755  27.504  1.00  0.00     0.039 A 
ATOM     34  C   UNL A   1      41.559  26.789  27.571  1.00  0.00     0.014 A 
ATOM     35  C   UNL A   1      39.658  25.629  28.510  1.00  0.00     0.014 A 
ATOM     36  C   UNL A   1      41.501  27.720  28.612  1.00  0.00     0.010 A 
ATOM     37  C   UNL A   1      39.551  26.603  29.500  1.00  0.00     0.010 A 
ATOM     38  C   UNL A   1      40.480  27.651  29.573  1.00  0.00    -0.014 A 
BRANCH  38  39
ATOM     39  C   UNL A   1      40.379  28.653  30.667  1.00  0.00     0.031 A 
ATOM     40  C   UNL A   1      41.249  28.531  31.891  1.00  0.00     0.074 A 
ATOM     41  C   UNL A   1      39.472  29.646  30.585  1.00  0.00     0.049 A 
ATOM     42  N   UNL A   1      41.278  29.285  32.961  1.00  0.00    -0.248 NA
ATOM     43  C   UNL A   1      42.199  27.407  31.926  1.00  0.00     0.031 C 
ATOM     44  C   UNL A   1      38.547  29.858  29.470  1.00  0.00     0.029 A 
ATOM     45  N   UNL A   1      39.173  30.661  31.460  1.00  0.00    -0.354 N 
ATOM     46  C   UNL A   1      42.234  28.721  33.797  1.00  0.00     0.074 A 
ATOM     47  C   UNL A   1      42.727  27.534  33.134  1.00  0.00     0.031 C 
ATOM     48  C   UNL A   1      37.796  30.944  29.721  1.00  0.00     0.029 A 
ATOM     49  C   UNL A   1      38.161  31.484  31.027  1.00  0.00     0.049 A 
ATOM     50  H   UNL A   1      39.638  30.787  32.318  1.00  0.00     0.167 HD
ATOM     51  C   UNL A   1      42.679  29.160  34.999  1.00  0.00     0.031 A 
ATOM     52  C   UNL A   1      37.584  32.550  31.613  1.00  0.00     0.031 A 
ATOM     53  C   UNL A   1      42.195  30.347  35.655  1.00  0.00     0.049 A 
ATOM     54  C   UNL A   1      38.081  33.011  32.956  1.00  0.00     0.074 A 
ATOM     55  C   UNL A   1      42.625  30.907  36.846  1.00  0.00     0.029 A 
ATOM     56  N   UNL A   1      41.171  31.153  35.180  1.00  0.00    -0.354 N 
ATOM     57  N   UNL A   1      39.034  32.503  33.698  1.00  0.00    -0.248 NA
ATOM     58  C   UNL A   1      37.432  34.196  33.532  1.00  0.00     0.031 C 
ATOM     59  C   UNL A   1      41.827  32.024  37.116  1.00  0.00     0.029 A 
ATOM     60  C   UNL A   1      40.937  32.190  36.066  1.00  0.00     0.049 A 
ATOM     61  H   UNL A   1      40.683  31.008  34.338  1.00  0.00     0.167 HD
ATOM     62  C   UNL A   1      39.118  33.322  34.818  1.00  0.00     0.074 A 
ATOM     63  C   UNL A   1      38.128  34.366  34.648  1.00  0.00     0.031 C 
ATOM     64  C   UNL A   1      39.943  33.219  35.889  1.00  0.00     0.031 A 
BRANCH  51  65
ATOM     65  C   UNL A   1      43.746  28.348  35.686  1.00  0.00    -0.014 A 
ATOM     66  C   UNL A   1      45.111  28.607  35.464  1.00  0.00     0.010 A 
ATOM     67  C   UNL A   1      43.380  27.336  36.592  1.00  0.00     0.010 A 
ATOM     68  C   UNL A   1      46.089  27.839  36.100  1.00  0.00     0.020 A 
ATOM     69  C   UNL A   1      44.357  26.584  37.252  1.00  0.00     0.020 A 
ATOM     70  C   UNL A   1      45.706  26.829  36.987  1.00  0.00     0.054 A 
BRANCH  70  71
ATOM     71  S   UNL A   1      46.999  25.860  37.813  1.00  0.00     0.124 S 
ATOM     72  O   UNL A   1      46.981  24.619  37.043  1.00  0.00    -0.237 OA
ATOM     73  O   UNL A   1      48.187  26.692  37.635  1.00  0.00    -0.237 OA
ATOM     74  O   UNL A   1      46.521  25.746  39.188  1.00  0.00    -0.744 OA
ENDBRANCH  70  71
ENDBRANCH  51  65
BRANCH  52  75
ATOM     75  C   UNL A   1      36.478  33.266  30.921  1.00  0.00    -0.014 A 
ATOM     76  C   UNL A   1      35.165  33.205  31.423  1.00  0.00     0.010 A 
ATOM     77  C   UNL A   1      36.736  34.028  29.768  1.00  0.00     0.010 A 
ATOM     78  C   UNL A   1      34.130  33.884  30.776  1.00  0.00     0.020 A 
ATOM     79  C   UNL A   1      35.707  34.729  29.134  1.00  0.00     0.020 A 
ATOM     80  C   UNL A   1      34.408  34.646  29.637  1.00  0.00     0.054 A 
BRANCH  80  81
ATOM     81  S   UNL A   1      33.060  35.572  28.850  1.00  0.00     0.124 S 
ATOM     82  O   UNL A   1      33.789  36.579  28.085  1.00  0.00    -0.237 OA
ATOM     83  O   UNL A   1      32.386  34.542  28.063  1.00  0.00    -0.237 OA
ATOM     84  O   UNL A   1      32.290  36.079  29.984  1.00  0.00    -0.744 OA
ENDBRANCH  80  81
ENDBRANCH  52  75
BRANCH  64  85
ATOM     85  C   UNL A   1      39.830  34.277  36.953  1.00  0.00    -0.014 A 
ATOM     86  C   UNL A   1      40.434  35.537  36.793  1.00  0.00     0.010 A 
ATOM     87  C   UNL A   1      39.066  34.024  38.107  1.00  0.00     0.010 A 
ATOM     88  C   UNL A   1      40.300  36.514  37.783  1.00  0.00     0.020 A 
ATOM     89  C   UNL A   1      38.907  35.009  39.085  1.00  0.00     0.020 A 
ATOM     90  C   UNL A   1      39.538  36.244  38.924  1.00  0.00     0.054 A 
BRANCH  90  91
ATOM     91  S   UNL A   1      39.343  37.544  40.173  1.00  0.00     0.124 S 
ATOM     92  O   UNL A   1      40.675  38.140  40.200  1.00  0.00    -0.237 OA
ATOM     93  O   UNL A   1      38.290  38.382  39.605  1.00  0.00    -0.237 OA
ATOM     94  O   UNL A   1      38.963  36.811  41.379  1.00  0.00    -0.744 OA
ENDBRANCH  90  91
ENDBRANCH  64  85
ENDBRANCH  38  39
ENDBRANCH  30  33
ENDBRANCH  28  29
ENDBRANCH  27  28
ENDBRANCH   1  27
TORSDOF 17
ENDMDL
MODEL 2
REMARK VINA RESULT:     -12.0      4.353      9.746
REMARK SMILES CC1=C(C)C[C@@H](C(=O)NCCCNC(=O)c2ccc(-c3c4nc(c(-c5ccc(S(=O)(=O)[O-])cc5)c5ccc([nH]5)c(-c5ccc(S(=O)(=O)[O-])cc5)c5nc(c(-c6ccc(S(=O)(=O)[O-])cc6)c6ccc3[nH]6)C=C5)C=C4)cc2)[C@@H](C(=O)NCC[NH+]2CCOCC2)C1
REMARK SMILES IDX 10 1 9 2 7 3 8 4 6 6 1 7 2 8 3 9 88 10 4 11 5 12 76 13 77 14
REMARK SMILES IDX 78 15 79 16 80 18 81 19 82 20 83 21 87 22 84 24 86 25 85 26
REMARK SMILES IDX 11 27 12 28 13 29 14 30 15 32 16 33 17 34 75 35 18 36 74 37
REMARK SMILES IDX 19 38 20 39 21 40 68 41 22 42 73 43 67 44 69 45 23 46 72 47
REMARK SMILES IDX 66 48 65 49 24 51 54 52 35 53 53 54 36 55 39 56 52 57 70 58
REMARK SMILES IDX 37 59 38 60 51 62 71 63 40 64 25 65 26 66 34 67 27 68 33 69
REMARK SMILES IDX 28 70 29 71 30 72 31 73 32 74 55 75 56 76 64 77 57 78 63 79
REMARK SMILES IDX 58 80 59 81 60 82 61 83 62 84 41 85 42 86 50 87 43 88 49 89
REMARK SMILES IDX 44 90 45 91 46 92 47 93 48 94
REMARK H PARENT 9 5 79 17 82 23 13 31 69 50 39 61
REMARK Flexibility Score: inf
ROOT
ATOM      1  C   UNL A   1      32.195  26.430  26.481  1.00  0.00     0.117 C 
ENDROOT
BRANCH   1   2
ATOM      2  N   UNL A   1      33.247  25.470  26.243  1.00  0.00    -0.356 N 
ATOM      3  C   UNL A   1      33.502  24.652  25.193  1.00  0.00     0.224 C 
ATOM      4  O   UNL A   1      34.643  24.177  25.142  1.00  0.00    -0.275 OA
ATOM      5  H   UNL A   1      33.898  25.396  26.978  1.00  0.00     0.163 HD
BRANCH   3   6
ATOM      6  C   UNL A   1      32.506  24.365  24.059  1.00  0.00     0.095 C 
ATOM      7  C   UNL A   1      28.841  26.848  23.657  1.00  0.00     0.039 C 
ATOM      8  C   UNL A   1      30.096  26.010  23.631  1.00  0.00    -0.074 C 
ATOM      9  C   UNL A   1      31.244  26.385  23.030  1.00  0.00    -0.074 C 
ATOM     10  C   UNL A   1      29.970  24.730  24.419  1.00  0.00     0.045 C 
ATOM     11  C   UNL A   1      31.465  27.726  22.374  1.00  0.00     0.039 C 
ATOM     12  C   UNL A   1      32.477  25.515  23.045  1.00  0.00     0.045 C 
ATOM     13  C   UNL A   1      31.132  23.738  24.409  1.00  0.00     0.095 C 
BRANCH  13  14
ATOM     14  C   UNL A   1      31.241  22.793  25.620  1.00  0.00     0.224 C 
ATOM     15  O   UNL A   1      30.938  23.186  26.752  1.00  0.00    -0.275 OA
ATOM     16  N   UNL A   1      31.770  21.547  25.590  1.00  0.00    -0.350 N 
ATOM     17  H   UNL A   1      31.800  21.122  26.479  1.00  0.00     0.163 HD
BRANCH  16  18
ATOM     18  C   UNL A   1      32.304  20.694  24.537  1.00  0.00     0.177 C 
BRANCH  18  19
ATOM     19  C   UNL A   1      32.853  19.347  25.062  1.00  0.00     0.283 C 
BRANCH  19  20
ATOM     20  N   UNL A   1      32.384  18.062  24.535  1.00  0.00    -0.330 N 
ATOM     21  C   UNL A   1      32.467  16.921  25.463  1.00  0.00     0.291 C 
ATOM     22  C   UNL A   1      32.812  17.653  23.195  1.00  0.00     0.291 C 
ATOM     23  H   UNL A   1      31.404  18.323  24.425  1.00  0.00     0.348 HD
ATOM     24  C   UNL A   1      33.793  16.151  25.399  1.00  0.00     0.221 C 
ATOM     25  C   UNL A   1      34.129  16.864  23.170  1.00  0.00     0.221 C 
ATOM     26  O   UNL A   1      34.109  15.747  24.062  1.00  0.00    -0.370 OA
ENDBRANCH  19  20
ENDBRANCH  18  19
ENDBRANCH  16  18
ENDBRANCH  13  14
ENDBRANCH   3   6
ENDBRANCH   1   2
BRANCH   1  27
ATOM     27  C   UNL A   1      32.622  27.860  26.200  1.00  0.00     0.042 C 
BRANCH  27  28
ATOM     28  C   UNL A   1      33.731  28.361  27.114  1.00  0.00     0.118 C 
BRANCH  28  29
ATOM     29  N   UNL A   1      33.617  29.784  27.392  1.00  0.00    -0.352 N 
ATOM     30  C   UNL A   1      34.482  30.629  28.039  1.00  0.00     0.251 C 
ATOM     31  H   UNL A   1      32.790  30.206  27.065  1.00  0.00     0.163 HD
ATOM     32  O   UNL A   1      34.082  31.749  28.365  1.00  0.00    -0.269 OA
BRANCH  30  33
ATOM     33  C   UNL A   1      35.869  30.220  28.357  1.00  0.00     0.039 A 
ATOM     34  C   UNL A   1      36.841  30.306  27.355  1.00  0.00     0.014 A 
ATOM     35  C   UNL A   1      36.212  29.699  29.608  1.00  0.00     0.014 A 
ATOM     36  C   UNL A   1      38.157  29.919  27.622  1.00  0.00     0.010 A 
ATOM     37  C   UNL A   1      37.539  29.392  29.898  1.00  0.00     0.010 A 
ATOM     38  C   UNL A   1      38.525  29.483  28.905  1.00  0.00    -0.014 A 
BRANCH  38  39
ATOM     39  C   UNL A   1      39.928  29.103  29.219  1.00  0.00     0.031 A 
ATOM     40  C   UNL A   1      40.861  30.099  29.856  1.00  0.00     0.074 A 
ATOM     41  C   UNL A   1      40.379  27.877  28.889  1.00  0.00     0.049 A 
ATOM     42  N   UNL A   1      42.125  29.962  30.169  1.00  0.00    -0.248 NA
ATOM     43  C   UNL A   1      40.308  31.428  30.165  1.00  0.00     0.031 C 
ATOM     44  C   UNL A   1      39.588  26.829  28.240  1.00  0.00     0.029 A 
ATOM     45  N   UNL A   1      41.618  27.305  29.047  1.00  0.00    -0.354 N 
ATOM     46  C   UNL A   1      42.519  31.185  30.699  1.00  0.00     0.074 A 
ATOM     47  C   UNL A   1      41.377  32.068  30.618  1.00  0.00     0.031 C 
ATOM     48  C   UNL A   1      40.355  25.739  28.070  1.00  0.00     0.029 A 
ATOM     49  C   UNL A   1      41.699  26.019  28.567  1.00  0.00     0.049 A 
ATOM     50  H   UNL A   1      42.376  27.771  29.466  1.00  0.00     0.167 HD
ATOM     51  C   UNL A   1      43.717  31.538  31.224  1.00  0.00     0.031 A 
ATOM     52  C   UNL A   1      42.736  25.162  28.522  1.00  0.00     0.031 A 
ATOM     53  C   UNL A   1      44.851  30.657  31.314  1.00  0.00     0.049 A 
ATOM     54  C   UNL A   1      44.062  25.581  29.094  1.00  0.00     0.074 A 
ATOM     55  C   UNL A   1      46.088  30.903  31.883  1.00  0.00     0.029 A 
ATOM     56  N   UNL A   1      44.890  29.363  30.816  1.00  0.00    -0.354 N 
ATOM     57  N   UNL A   1      44.394  26.720  29.653  1.00  0.00    -0.248 NA
ATOM     58  C   UNL A   1      45.148  24.594  29.043  1.00  0.00     0.031 C 
ATOM     59  C   UNL A   1      46.892  29.775  31.686  1.00  0.00     0.029 A 
ATOM     60  C   UNL A   1      46.138  28.807  31.042  1.00  0.00     0.049 A 
ATOM     61  H   UNL A   1      44.141  28.908  30.369  1.00  0.00     0.167 HD
ATOM     62  C   UNL A   1      45.721  26.576  30.043  1.00  0.00     0.074 A 
ATOM     63  C   UNL A   1      46.125  25.237  29.669  1.00  0.00     0.031 C 
ATOM     64  C   UNL A   1      46.530  27.475  30.658  1.00  0.00     0.031 A 
BRANCH  51  65
ATOM     65  C   UNL A   1      43.861  32.945  31.743  1.00  0.00    -0.014 A 
ATOM     66  C   UNL A   1      44.326  33.981  30.912  1.00  0.00     0.010 A 
ATOM     67  C   UNL A   1      43.494  33.244  33.068  1.00  0.00     0.010 A 
ATOM     68  C   UNL A   1      44.464  35.279  31.409  1.00  0.00     0.020 A 
ATOM     69  C   UNL A   1      43.604  34.548  33.560  1.00  0.00     0.020 A 
ATOM     70  C   UNL A   1      44.106  35.554  32.732  1.00  0.00     0.054 A 
BRANCH  70  71
ATOM     71  S   UNL A   1      44.279  37.253  33.346  1.00  0.00     0.124 S 
ATOM     72  O   UNL A   1      43.269  37.295  34.401  1.00  0.00    -0.237 OA
ATOM     73  O   UNL A   1      45.666  37.289  33.804  1.00  0.00    -0.237 OA
ATOM     74  O   UNL A   1      43.990  38.075  32.175  1.00  0.00    -0.744 OA
ENDBRANCH  70  71
ENDBRANCH  51  65
BRANCH  52  75
ATOM     75  C   UNL A   1      42.555  23.813  27.923  1.00  0.00    -0.014 A 
ATOM     76  C   UNL A   1      42.955  23.560  26.598  1.00  0.00     0.010 A 
ATOM     77  C   UNL A   1      41.999  22.768  28.682  1.00  0.00     0.010 A 
ATOM     78  C   UNL A   1      42.791  22.289  26.041  1.00  0.00     0.020 A 
ATOM     79  C   UNL A   1      41.858  21.489  28.135  1.00  0.00     0.020 A 
ATOM     80  C   UNL A   1      42.246  21.260  26.814  1.00  0.00     0.054 A 
BRANCH  80  81
ATOM     81  S   UNL A   1      42.102  19.602  26.091  1.00  0.00     0.124 S 
ATOM     82  O   UNL A   1      42.977  19.700  24.927  1.00  0.00    -0.237 OA
ATOM     83  O   UNL A   1      42.579  18.743  27.172  1.00  0.00    -0.237 OA
ATOM     84  O   UNL A   1      40.675  19.484  25.797  1.00  0.00    -0.744 OA
ENDBRANCH  80  81
ENDBRANCH  52  75
BRANCH  64  85
ATOM     85  C   UNL A   1      47.929  27.031  30.990  1.00  0.00    -0.014 A 
ATOM     86  C   UNL A   1      49.033  27.492  30.250  1.00  0.00     0.010 A 
ATOM     87  C   UNL A   1      48.147  26.181  32.089  1.00  0.00     0.010 A 
ATOM     88  C   UNL A   1      50.327  27.085  30.586  1.00  0.00     0.020 A 
ATOM     89  C   UNL A   1      49.442  25.795  32.445  1.00  0.00     0.020 A 
ATOM     90  C   UNL A   1      50.523  26.239  31.682  1.00  0.00     0.054 A 
BRANCH  90  91
ATOM     91  S   UNL A   1      52.216  25.761  32.124  1.00  0.00     0.124 S 
ATOM     92  O   UNL A   1      52.007  24.469  32.770  1.00  0.00    -0.237 OA
ATOM     93  O   UNL A   1      52.886  25.714  30.827  1.00  0.00    -0.237 OA
ATOM     94  O   UNL A   1      52.659  26.836  33.008  1.00  0.00    -0.744 OA
ENDBRANCH  90  91
ENDBRANCH  64  85
ENDBRANCH  38  39
ENDBRANCH  30  33
ENDBRANCH  28  29
ENDBRANCH  27  28
ENDBRANCH   1  27
TORSDOF 17
ENDMDL
MODEL 3
REMARK VINA RESULT:     -11.9      1.801      4.213
REMARK SMILES CC1=C(C)C[C@@H](C(=O)NCCCNC(=O)c2ccc(-c3c4nc(c(-c5ccc(S(=O)(=O)[O-])cc5)c5ccc([nH]5)c(-c5ccc(S(=O)(=O)[O-])cc5)c5nc(c(-c6ccc(S(=O)(=O)[O-])cc6)c6ccc3[nH]6)C=C5)C=C4)cc2)[C@@H](C(=O)NCC[NH+]2CCOCC2)C1
REMARK SMILES IDX 10 1 9 2 7 3 8 4 6 6 1 7 2 8 3 9 88 10 4 11 5 12 76 13 77 14
REMARK SMILES IDX 78 15 79 16 80 18 81 19 82 20 83 21 87 22 84 24 86 25 85 26
REMARK SMILES IDX 11 27 12 28 13 29 14 30 15 32 16 33 17 34 75 35 18 36 74 37
REMARK SMILES IDX 19 38 20 39 21 40 68 41 22 42 73 43 67 44 69 45 23 46 72 47
REMARK SMILES IDX 66 48 65 49 24 51 54 52 35 53 53 54 36 55 39 56 52 57 70 58
REMARK SMILES IDX 37 59 38 60 51 62 71 63 40 64 25 65 26 66 34 67 27 68 33 69
REMARK SMILES IDX 28 70 29 71 30 72 31 73 32 74 55 75 56 76 64 77 57 78 63 79
REMARK SMILES IDX 58 80 59 81 60 82 61 83 62 84 41 85 42 86 50 87 43 88 49 89
REMARK SMILES IDX 44 90 45 91 46 92 47 93 48 94
REMARK H PARENT 9 5 79 17 82 23 13 31 69 50 39 61
REMARK Flexibility Score: inf
ROOT
ATOM      1  C   UNL A   1      37.840  23.795  25.699  1.00  0.00     0.117 C 
ENDROOT
BRANCH   1   2
ATOM      2  N   UNL A   1      37.480  23.339  24.376  1.00  0.00    -0.356 N 
ATOM      3  C   UNL A   1      36.319  22.856  23.872  1.00  0.00     0.224 C 
ATOM      4  O   UNL A   1      36.226  22.848  22.639  1.00  0.00    -0.275 OA
ATOM      5  H   UNL A   1      38.213  23.390  23.721  1.00  0.00     0.163 HD
BRANCH   3   6
ATOM      6  C   UNL A   1      35.123  22.415  24.729  1.00  0.00     0.095 C 
ATOM      7  C   UNL A   1      32.332  19.313  23.196  1.00  0.00     0.039 C 
ATOM      8  C   UNL A   1      33.267  20.293  23.862  1.00  0.00    -0.074 C 
ATOM      9  C   UNL A   1      34.369  19.938  24.554  1.00  0.00    -0.074 C 
ATOM     10  C   UNL A   1      32.891  21.733  23.611  1.00  0.00     0.045 C 
ATOM     11  C   UNL A   1      34.872  18.522  24.688  1.00  0.00     0.039 C 
ATOM     12  C   UNL A   1      35.279  20.961  25.189  1.00  0.00     0.045 C 
ATOM     13  C   UNL A   1      33.695  22.837  24.296  1.00  0.00     0.095 C 
BRANCH  13  14
ATOM     14  C   UNL A   1      33.703  24.213  23.605  1.00  0.00     0.224 C 
ATOM     15  O   UNL A   1      33.641  24.296  22.374  1.00  0.00    -0.275 OA
ATOM     16  N   UNL A   1      33.898  25.398  24.231  1.00  0.00    -0.350 N 
ATOM     17  H   UNL A   1      33.924  26.161  23.607  1.00  0.00     0.163 HD
BRANCH  16  18
ATOM     18  C   UNL A   1      34.077  25.796  25.620  1.00  0.00     0.177 C 
BRANCH  18  19
ATOM     19  C   UNL A   1      33.196  27.000  26.028  1.00  0.00     0.283 C 
BRANCH  19  20
ATOM     20  N   UNL A   1      33.486  28.361  25.570  1.00  0.00    -0.330 N 
ATOM     21  C   UNL A   1      33.680  29.366  26.630  1.00  0.00     0.291 C 
ATOM     22  C   UNL A   1      32.678  28.926  24.485  1.00  0.00     0.291 C 
ATOM     23  H   UNL A   1      34.389  28.159  25.141  1.00  0.00     0.348 HD
ATOM     24  C   UNL A   1      32.394  30.080  27.066  1.00  0.00     0.221 C 
ATOM     25  C   UNL A   1      31.412  29.654  24.959  1.00  0.00     0.221 C 
ATOM     26  O   UNL A   1      31.695  30.643  25.951  1.00  0.00    -0.370 OA
ENDBRANCH  19  20
ENDBRANCH  18  19
ENDBRANCH  16  18
ENDBRANCH  13  14
ENDBRANCH   3   6
ENDBRANCH   1   2
BRANCH   1  27
ATOM     27  C   UNL A   1      38.573  22.741  26.510  1.00  0.00     0.042 C 
BRANCH  27  28
ATOM     28  C   UNL A   1      39.852  23.247  27.161  1.00  0.00     0.118 C 
BRANCH  28  29
ATOM     29  N   UNL A   1      40.751  23.871  26.202  1.00  0.00    -0.352 N 
ATOM     30  C   UNL A   1      41.236  25.151  26.151  1.00  0.00     0.251 C 
ATOM     31  H   UNL A   1      41.057  23.281  25.476  1.00  0.00     0.163 HD
ATOM     32  O   UNL A   1      41.801  25.530  25.122  1.00  0.00    -0.269 OA
BRANCH  30  33
ATOM     33  C   UNL A   1      41.087  26.080  27.295  1.00  0.00     0.039 A 
ATOM     34  C   UNL A   1      41.997  27.134  27.427  1.00  0.00     0.014 A 
ATOM     35  C   UNL A   1      40.101  25.894  28.268  1.00  0.00     0.014 A 
ATOM     36  C   UNL A   1      41.887  28.023  28.500  1.00  0.00     0.010 A 
ATOM     37  C   UNL A   1      39.942  26.827  29.290  1.00  0.00     0.010 A 
ATOM     38  C   UNL A   1      40.842  27.894  29.428  1.00  0.00    -0.014 A 
BRANCH  38  39
ATOM     39  C   UNL A   1      40.686  28.850  30.556  1.00  0.00     0.031 A 
ATOM     40  C   UNL A   1      41.549  28.724  31.784  1.00  0.00     0.074 A 
ATOM     41  C   UNL A   1      39.737  29.804  30.498  1.00  0.00     0.049 A 
ATOM     42  N   UNL A   1      41.533  29.440  32.880  1.00  0.00    -0.248 NA
ATOM     43  C   UNL A   1      42.547  27.642  31.790  1.00  0.00     0.031 C 
ATOM     44  C   UNL A   1      38.814  30.015  29.380  1.00  0.00     0.029 A 
ATOM     45  N   UNL A   1      39.384  30.774  31.405  1.00  0.00    -0.354 N 
ATOM     46  C   UNL A   1      42.506  28.889  33.707  1.00  0.00     0.074 A 
ATOM     47  C   UNL A   1      43.058  27.750  33.009  1.00  0.00     0.031 C 
ATOM     48  C   UNL A   1      38.013  31.057  29.660  1.00  0.00     0.029 A 
ATOM     49  C   UNL A   1      38.340  31.567  30.988  1.00  0.00     0.049 A 
ATOM     50  H   UNL A   1      39.835  30.890  32.271  1.00  0.00     0.167 HD
ATOM     51  C   UNL A   1      42.918  29.305  34.928  1.00  0.00     0.031 A 
ATOM     52  C   UNL A   1      37.711  32.585  31.605  1.00  0.00     0.031 A 
ATOM     53  C   UNL A   1      42.376  30.445  35.620  1.00  0.00     0.049 A 
ATOM     54  C   UNL A   1      38.173  33.019  32.968  1.00  0.00     0.074 A 
ATOM     55  C   UNL A   1      42.768  30.981  36.834  1.00  0.00     0.029 A 
ATOM     56  N   UNL A   1      41.322  31.221  35.162  1.00  0.00    -0.354 N 
ATOM     57  N   UNL A   1      39.142  32.527  33.703  1.00  0.00    -0.248 NA
ATOM     58  C   UNL A   1      37.467  34.153  33.578  1.00  0.00     0.031 C 
ATOM     59  C   UNL A   1      41.919  32.051  37.134  1.00  0.00     0.029 A 
ATOM     60  C   UNL A   1      41.033  32.216  36.081  1.00  0.00     0.049 A 
ATOM     61  H   UNL A   1      40.849  31.085  34.310  1.00  0.00     0.167 HD
ATOM     62  C   UNL A   1      39.178  33.309  34.852  1.00  0.00     0.074 A 
ATOM     63  C   UNL A   1      38.144  34.314  34.708  1.00  0.00     0.031 C 
ATOM     64  C   UNL A   1      39.996  33.205  35.929  1.00  0.00     0.031 A 
BRANCH  51  65
ATOM     65  C   UNL A   1      44.014  28.517  35.598  1.00  0.00    -0.014 A 
ATOM     66  C   UNL A   1      45.367  28.755  35.298  1.00  0.00     0.010 A 
ATOM     67  C   UNL A   1      43.688  27.550  36.566  1.00  0.00     0.010 A 
ATOM     68  C   UNL A   1      46.372  28.011  35.920  1.00  0.00     0.020 A 
ATOM     69  C   UNL A   1      44.693  26.822  37.212  1.00  0.00     0.020 A 
ATOM     70  C   UNL A   1      46.028  27.044  36.870  1.00  0.00     0.054 A 
BRANCH  70  71
ATOM     71  S   UNL A   1      47.355  26.104  37.675  1.00  0.00     0.124 S 
ATOM     72  O   UNL A   1      46.631  24.944  38.189  1.00  0.00    -0.237 OA
ATOM     73  O   UNL A   1      48.271  25.832  36.569  1.00  0.00    -0.237 OA
ATOM     74  O   UNL A   1      47.863  27.022  38.690  1.00  0.00    -0.744 OA
ENDBRANCH  70  71
ENDBRANCH  51  65
BRANCH  52  75
ATOM     75  C   UNL A   1      36.581  33.274  30.926  1.00  0.00    -0.014 A 
ATOM     76  C   UNL A   1      35.296  33.270  31.498  1.00  0.00     0.010 A 
ATOM     77  C   UNL A   1      36.790  33.956  29.714  1.00  0.00     0.010 A 
ATOM     78  C   UNL A   1      34.238  33.926  30.862  1.00  0.00     0.020 A 
ATOM     79  C   UNL A   1      35.739  34.634  29.090  1.00  0.00     0.020 A 
ATOM     80  C   UNL A   1      34.467  34.607  29.663  1.00  0.00     0.054 A 
BRANCH  80  81
ATOM     81  S   UNL A   1      33.094  35.505  28.889  1.00  0.00     0.124 S 
ATOM     82  O   UNL A   1      32.378  36.026  30.049  1.00  0.00    -0.237 OA
ATOM     83  O   UNL A   1      33.787  36.500  28.073  1.00  0.00    -0.237 OA
ATOM     84  O   UNL A   1      32.396  34.469  28.131  1.00  0.00    -0.744 OA
ENDBRANCH  80  81
ENDBRANCH  52  75
BRANCH  64  85
ATOM     85  C   UNL A   1      39.825  34.219  37.028  1.00  0.00    -0.014 A 
ATOM     86  C   UNL A   1      40.273  35.543  36.872  1.00  0.00     0.010 A 
ATOM     87  C   UNL A   1      39.162  33.854  38.213  1.00  0.00     0.010 A 
ATOM     88  C   UNL A   1      40.087  36.475  37.896  1.00  0.00     0.020 A 
ATOM     89  C   UNL A   1      38.949  34.791  39.227  1.00  0.00     0.020 A 
ATOM     90  C   UNL A   1      39.427  36.094  39.067  1.00  0.00     0.054 A 
BRANCH  90  91
ATOM     91  S   UNL A   1      39.159  37.334  40.363  1.00  0.00     0.124 S 
ATOM     92  O   UNL A   1      38.316  38.310  39.679  1.00  0.00    -0.237 OA
ATOM     93  O   UNL A   1      38.500  36.564  41.415  1.00  0.00    -0.237 OA
ATOM     94  O   UNL A   1      40.507  37.793  40.688  1.00  0.00    -0.744 OA
ENDBRANCH  90  91
ENDBRANCH  64  85
ENDBRANCH  38  39
ENDBRANCH  30  33
ENDBRANCH  28  29
ENDBRANCH  27  28
ENDBRANCH   1  27
TORSDOF 17
ENDMDL
