MODEL 1
REMARK VINA RESULT:      -9.4      0.000      0.000
REMARK SMILES CN(C)C(=O)Cc1nc(C[N@@H+](C)CC(=O)NCCCNC(=O)c2ccc(-c3c4nc(c(-c5ccc(S(=O)(=O)[O-])cc5)c5ccc([nH]5)c(-c5ccc(S(=O)(=O)[O-])cc5)c5nc(c(-c6ccc(S(=O)(=O)[O-])cc6)c6ccc3[nH]6)C=C5)C=C4)cc2)cs1
REMARK SMILES IDX 17 1 16 2 14 3 15 4 13 6 11 7 12 8 10 10 9 11 83 12 8 13
REMARK SMILES IDX 84 14 7 15 6 16 4 17 5 18 2 19 1 20 3 21 18 22 19 23 20 24
REMARK SMILES IDX 21 25 22 27 23 28 24 29 82 30 25 31 81 32 26 33 27 34 28 35
REMARK SMILES IDX 75 36 29 37 80 38 74 39 76 40 30 41 79 42 73 43 72 44 31 46
REMARK SMILES IDX 61 47 42 48 60 49 43 50 46 51 59 52 77 53 44 54 45 55 58 57
REMARK SMILES IDX 78 58 47 59 32 60 33 61 41 62 34 63 40 64 35 65 36 66 37 67
REMARK SMILES IDX 38 68 39 69 62 70 63 71 71 72 64 73 70 74 65 75 66 76 67 77
REMARK SMILES IDX 68 78 69 79 48 80 49 81 57 82 50 83 56 84 51 85 52 86 53 87
REMARK SMILES IDX 54 88 55 89
REMARK H PARENT 16 5 11 9 20 26 76 45 46 56
REMARK Flexibility Score: inf
ROOT
ATOM      1  C   UNL A   1      42.055  19.537  27.586  1.00  0.00     0.118 C 
ENDROOT
BRANCH   1   2
ATOM      2  N   UNL A   1      42.454  18.711  26.459  1.00  0.00    -0.351 N 
ATOM      3  C   UNL A   1      43.373  18.911  25.474  1.00  0.00     0.275 C 
ATOM      4  O   UNL A   1      43.582  17.979  24.691  1.00  0.00    -0.269 OA
ATOM      5  H   UNL A   1      41.974  17.853  26.396  1.00  0.00     0.163 HD
BRANCH   3   6
ATOM      6  C   UNL A   1      44.148  20.220  25.361  1.00  0.00     0.363 C 
BRANCH   6   7
ATOM      7  N   UNL A   1      45.562  20.073  25.037  1.00  0.00    -0.325 N 
ATOM      8  C   UNL A   1      46.305  18.980  25.610  1.00  0.00     0.333 C 
ATOM      9  H   UNL A   1      45.367  19.640  24.134  1.00  0.00     0.348 HD
BRANCH   7  10
ATOM     10  C   UNL A   1      46.304  21.209  24.503  1.00  0.00     0.320 C 
BRANCH  10  11
ATOM     11  C   UNL A   1      45.841  22.581  24.923  1.00  0.00     0.106 A 
ATOM     12  C   UNL A   1      44.913  23.414  24.331  1.00  0.00     0.096 A 
ATOM     13  N   UNL A   1      46.360  23.093  26.110  1.00  0.00    -0.240 NA
ATOM     14  S   UNL A   1      44.764  24.884  25.191  1.00  0.00    -0.126 S 
ATOM     15  C   UNL A   1      45.893  24.303  26.345  1.00  0.00     0.102 A 
BRANCH  15  16
ATOM     16  C   UNL A   1      46.247  25.123  27.540  1.00  0.00     0.167 C 
BRANCH  16  17
ATOM     17  C   UNL A   1      46.752  26.485  27.107  1.00  0.00     0.228 C 
ATOM     18  O   UNL A   1      45.948  27.409  26.946  1.00  0.00    -0.274 OA
ATOM     19  N   UNL A   1      48.119  26.682  26.928  1.00  0.00    -0.348 N 
ATOM     20  C   UNL A   1      49.120  25.625  26.924  1.00  0.00     0.146 C 
ATOM     21  C   UNL A   1      48.542  27.983  26.443  1.00  0.00     0.146 C 
ENDBRANCH  16  17
ENDBRANCH  15  16
ENDBRANCH  10  11
ENDBRANCH   7  10
ENDBRANCH   6   7
ENDBRANCH   3   6
ENDBRANCH   1   2
BRANCH   1  22
ATOM     22  C   UNL A   1      40.739  20.283  27.371  1.00  0.00     0.042 C 
BRANCH  22  23
ATOM     23  C   UNL A   1      40.811  21.505  26.456  1.00  0.00     0.118 C 
BRANCH  23  24
ATOM     24  N   UNL A   1      39.532  21.827  25.857  1.00  0.00    -0.352 N 
ATOM     25  C   UNL A   1      38.754  22.952  26.008  1.00  0.00     0.251 C 
ATOM     26  H   UNL A   1      39.165  21.141  25.255  1.00  0.00     0.163 HD
ATOM     27  O   UNL A   1      37.606  22.943  25.568  1.00  0.00    -0.269 OA
BRANCH  25  28
ATOM     28  C   UNL A   1      39.265  24.158  26.708  1.00  0.00     0.039 A 
ATOM     29  C   UNL A   1      38.904  24.352  28.045  1.00  0.00     0.014 A 
ATOM     30  C   UNL A   1      40.027  25.132  26.054  1.00  0.00     0.014 A 
ATOM     31  C   UNL A   1      39.329  25.495  28.732  1.00  0.00     0.010 A 
ATOM     32  C   UNL A   1      40.498  26.246  26.756  1.00  0.00     0.010 A 
ATOM     33  C   UNL A   1      40.141  26.449  28.099  1.00  0.00    -0.014 A 
BRANCH  33  34
ATOM     34  C   UNL A   1      40.588  27.670  28.826  1.00  0.00     0.031 A 
ATOM     35  C   UNL A   1      41.980  27.756  29.392  1.00  0.00     0.074 A 
ATOM     36  C   UNL A   1      39.742  28.708  28.986  1.00  0.00     0.049 A 
ATOM     37  N   UNL A   1      42.550  28.742  30.040  1.00  0.00    -0.248 NA
ATOM     38  C   UNL A   1      42.843  26.576  29.218  1.00  0.00     0.031 C 
ATOM     39  C   UNL A   1      38.363  28.759  28.499  1.00  0.00     0.029 A 
ATOM     40  N   UNL A   1      39.924  29.924  29.599  1.00  0.00    -0.354 N 
ATOM     41  C   UNL A   1      43.830  28.302  30.355  1.00  0.00     0.074 A 
ATOM     42  C   UNL A   1      43.937  26.943  29.870  1.00  0.00     0.031 C 
ATOM     43  C   UNL A   1      37.837  29.958  28.798  1.00  0.00     0.029 A 
ATOM     44  C   UNL A   1      38.826  30.747  29.528  1.00  0.00     0.049 A 
ATOM     45  H   UNL A   1      40.762  30.181  30.046  1.00  0.00     0.167 HD
ATOM     46  C   UNL A   1      44.836  28.968  30.976  1.00  0.00     0.031 A 
ATOM     47  C   UNL A   1      38.632  31.998  29.991  1.00  0.00     0.031 A 
ATOM     48  C   UNL A   1      44.738  30.318  31.466  1.00  0.00     0.049 A 
ATOM     49  C   UNL A   1      39.747  32.706  30.711  1.00  0.00     0.074 A 
ATOM     50  C   UNL A   1      45.713  31.085  32.082  1.00  0.00     0.029 A 
ATOM     51  N   UNL A   1      43.597  31.101  31.403  1.00  0.00    -0.354 N 
ATOM     52  N   UNL A   1      40.963  32.285  30.963  1.00  0.00    -0.248 NA
ATOM     53  C   UNL A   1      39.464  34.062  31.201  1.00  0.00     0.031 C 
ATOM     54  C   UNL A   1      45.148  32.318  32.428  1.00  0.00     0.029 A 
ATOM     55  C   UNL A   1      43.836  32.336  31.984  1.00  0.00     0.049 A 
ATOM     56  H   UNL A   1      42.742  30.823  31.003  1.00  0.00     0.167 HD
ATOM     57  C   UNL A   1      41.599  33.336  31.616  1.00  0.00     0.074 A 
ATOM     58  C   UNL A   1      40.635  34.412  31.715  1.00  0.00     0.031 C 
ATOM     59  C   UNL A   1      42.870  33.402  32.084  1.00  0.00     0.031 A 
BRANCH  46  60
ATOM     60  C   UNL A   1      46.132  28.223  31.168  1.00  0.00    -0.014 A 
ATOM     61  C   UNL A   1      47.166  28.311  30.217  1.00  0.00     0.010 A 
ATOM     62  C   UNL A   1      46.320  27.425  32.310  1.00  0.00     0.010 A 
ATOM     63  C   UNL A   1      48.337  27.565  30.372  1.00  0.00     0.020 A 
ATOM     64  C   UNL A   1      47.501  26.697  32.483  1.00  0.00     0.020 A 
ATOM     65  C   UNL A   1      48.492  26.751  31.499  1.00  0.00     0.054 A 
BRANCH  65  66
ATOM     66  S   UNL A   1      50.010  25.774  31.669  1.00  0.00     0.124 S 
ATOM     67  O   UNL A   1      49.583  24.713  32.579  1.00  0.00    -0.237 OA
ATOM     68  O   UNL A   1      50.278  25.351  30.296  1.00  0.00    -0.237 OA
ATOM     69  O   UNL A   1      50.972  26.723  32.223  1.00  0.00    -0.744 OA
ENDBRANCH  65  66
ENDBRANCH  46  60
BRANCH  47  70
ATOM     70  C   UNL A   1      37.332  32.679  29.752  1.00  0.00    -0.014 A 
ATOM     71  C   UNL A   1      36.315  32.620  30.722  1.00  0.00     0.010 A 
ATOM     72  C   UNL A   1      37.113  33.412  28.572  1.00  0.00     0.010 A 
ATOM     73  C   UNL A   1      35.101  33.281  30.515  1.00  0.00     0.020 A 
ATOM     74  C   UNL A   1      35.908  34.092  28.371  1.00  0.00     0.020 A 
ATOM     75  C   UNL A   1      34.907  34.017  29.343  1.00  0.00     0.054 A 
BRANCH  75  76
ATOM     76  S   UNL A   1      33.354  34.932  29.130  1.00  0.00     0.124 S 
ATOM     77  O   UNL A   1      33.826  36.219  28.630  1.00  0.00    -0.237 OA
ATOM     78  O   UNL A   1      32.629  34.105  28.168  1.00  0.00    -0.237 OA
ATOM     79  O   UNL A   1      32.783  34.952  30.475  1.00  0.00    -0.744 OA
ENDBRANCH  75  76
ENDBRANCH  47  70
BRANCH  59  80
ATOM     80  C   UNL A   1      43.307  34.694  32.721  1.00  0.00    -0.014 A 
ATOM     81  C   UNL A   1      43.122  34.931  34.094  1.00  0.00     0.010 A 
ATOM     82  C   UNL A   1      43.955  35.668  31.939  1.00  0.00     0.010 A 
ATOM     83  C   UNL A   1      43.551  36.131  34.668  1.00  0.00     0.020 A 
ATOM     84  C   UNL A   1      44.406  36.859  32.514  1.00  0.00     0.020 A 
ATOM     85  C   UNL A   1      44.187  37.089  33.874  1.00  0.00     0.054 A 
BRANCH  85  86
ATOM     86  S   UNL A   1      44.773  38.622  34.649  1.00  0.00     0.124 S 
ATOM     87  O   UNL A   1      45.267  38.142  35.936  1.00  0.00    -0.237 OA
ATOM     88  O   UNL A   1      45.798  39.085  33.716  1.00  0.00    -0.237 OA
ATOM     89  O   UNL A   1      43.575  39.456  34.712  1.00  0.00    -0.744 OA
ENDBRANCH  85  86
ENDBRANCH  59  80
ENDBRANCH  33  34
ENDBRANCH  25  28
ENDBRANCH  23  24
ENDBRANCH  22  23
ENDBRANCH   1  22
TORSDOF 18
ENDMDL
MODEL 2
REMARK VINA RESULT:      -9.2      4.218     11.385
REMARK SMILES CN(C)C(=O)Cc1nc(C[N@@H+](C)CC(=O)NCCCNC(=O)c2ccc(-c3c4nc(c(-c5ccc(S(=O)(=O)[O-])cc5)c5ccc([nH]5)c(-c5ccc(S(=O)(=O)[O-])cc5)c5nc(c(-c6ccc(S(=O)(=O)[O-])cc6)c6ccc3[nH]6)C=C5)C=C4)cc2)cs1
REMARK SMILES IDX 17 1 16 2 14 3 15 4 13 6 11 7 12 8 10 10 9 11 83 12 8 13
REMARK SMILES IDX 84 14 7 15 6 16 4 17 5 18 2 19 1 20 3 21 18 22 19 23 20 24
REMARK SMILES IDX 21 25 22 27 23 28 24 29 82 30 25 31 81 32 26 33 27 34 28 35
REMARK SMILES IDX 75 36 29 37 80 38 74 39 76 40 30 41 79 42 73 43 72 44 31 46
REMARK SMILES IDX 61 47 42 48 60 49 43 50 46 51 59 52 77 53 44 54 45 55 58 57
REMARK SMILES IDX 78 58 47 59 32 60 33 61 41 62 34 63 40 64 35 65 36 66 37 67
REMARK SMILES IDX 38 68 39 69 62 70 63 71 71 72 64 73 70 74 65 75 66 76 67 77
REMARK SMILES IDX 68 78 69 79 48 80 49 81 57 82 50 83 56 84 51 85 52 86 53 87
REMARK SMILES IDX 54 88 55 89
REMARK H PARENT 16 5 11 9 20 26 76 45 46 56
REMARK Flexibility Score: inf
ROOT
ATOM      1  C   UNL A   1      33.336  27.752  24.675  1.00  0.00     0.118 C 
ENDROOT
BRANCH   1   2
ATOM      2  N   UNL A   1      32.094  28.507  24.666  1.00  0.00    -0.351 N 
ATOM      3  C   UNL A   1      31.084  28.570  23.754  1.00  0.00     0.275 C 
ATOM      4  O   UNL A   1      30.082  29.227  24.057  1.00  0.00    -0.269 OA
ATOM      5  H   UNL A   1      31.959  29.073  25.460  1.00  0.00     0.163 HD
BRANCH   3   6
ATOM      6  C   UNL A   1      31.163  27.829  22.424  1.00  0.00     0.363 C 
BRANCH   6   7
ATOM      7  N   UNL A   1      31.349  26.387  22.532  1.00  0.00    -0.325 N 
ATOM      8  C   UNL A   1      32.256  25.724  21.632  1.00  0.00     0.333 C 
ATOM      9  H   UNL A   1      31.988  26.473  23.323  1.00  0.00     0.348 HD
BRANCH   7  10
ATOM     10  C   UNL A   1      30.354  25.580  23.230  1.00  0.00     0.320 C 
BRANCH  10  11
ATOM     11  C   UNL A   1      30.832  24.796  24.426  1.00  0.00     0.106 A 
ATOM     12  C   UNL A   1      30.833  25.145  25.762  1.00  0.00     0.096 A 
ATOM     13  N   UNL A   1      31.294  23.502  24.196  1.00  0.00    -0.240 NA
ATOM     14  S   UNL A   1      31.509  23.904  26.725  1.00  0.00    -0.126 S 
ATOM     15  C   UNL A   1      31.701  22.941  25.317  1.00  0.00     0.102 A 
BRANCH  15  16
ATOM     16  C   UNL A   1      32.244  21.554  25.415  1.00  0.00     0.167 C 
BRANCH  16  17
ATOM     17  C   UNL A   1      33.758  21.581  25.337  1.00  0.00     0.228 C 
ATOM     18  O   UNL A   1      34.359  22.640  25.542  1.00  0.00    -0.274 OA
ATOM     19  N   UNL A   1      34.449  20.402  25.066  1.00  0.00    -0.348 N 
ATOM     20  C   UNL A   1      33.833  19.153  24.642  1.00  0.00     0.146 C 
ATOM     21  C   UNL A   1      35.891  20.497  24.931  1.00  0.00     0.146 C 
ENDBRANCH  16  17
ENDBRANCH  15  16
ENDBRANCH  10  11
ENDBRANCH   7  10
ENDBRANCH   6   7
ENDBRANCH   3   6
ENDBRANCH   1   2
BRANCH   1  22
ATOM     22  C   UNL A   1      34.253  28.084  25.850  1.00  0.00     0.042 C 
BRANCH  22  23
ATOM     23  C   UNL A   1      33.554  28.355  27.182  1.00  0.00     0.118 C 
BRANCH  23  24
ATOM     24  N   UNL A   1      33.455  29.769  27.481  1.00  0.00    -0.352 N 
ATOM     25  C   UNL A   1      34.375  30.604  28.071  1.00  0.00     0.251 C 
ATOM     26  H   UNL A   1      32.606  30.195  27.223  1.00  0.00     0.163 HD
ATOM     27  O   UNL A   1      34.020  31.729  28.416  1.00  0.00    -0.269 OA
BRANCH  25  28
ATOM     28  C   UNL A   1      35.773  30.166  28.318  1.00  0.00     0.039 A 
ATOM     29  C   UNL A   1      36.092  29.645  29.576  1.00  0.00     0.014 A 
ATOM     30  C   UNL A   1      36.783  30.325  27.364  1.00  0.00     0.014 A 
ATOM     31  C   UNL A   1      37.405  29.257  29.867  1.00  0.00     0.010 A 
ATOM     32  C   UNL A   1      38.083  29.886  27.635  1.00  0.00     0.010 A 
ATOM     33  C   UNL A   1      38.413  29.361  28.895  1.00  0.00    -0.014 A 
BRANCH  33  34
ATOM     34  C   UNL A   1      39.812  28.956  29.205  1.00  0.00     0.031 A 
ATOM     35  C   UNL A   1      40.736  29.894  29.937  1.00  0.00     0.074 A 
ATOM     36  C   UNL A   1      40.264  27.743  28.826  1.00  0.00     0.049 A 
ATOM     37  N   UNL A   1      41.979  29.709  30.306  1.00  0.00    -0.248 NA
ATOM     38  C   UNL A   1      40.196  31.217  30.289  1.00  0.00     0.031 C 
ATOM     39  C   UNL A   1      39.485  26.737  28.104  1.00  0.00     0.029 A 
ATOM     40  N   UNL A   1      41.490  27.150  29.004  1.00  0.00    -0.354 N 
ATOM     41  C   UNL A   1      42.371  30.890  30.927  1.00  0.00     0.074 A 
ATOM     42  C   UNL A   1      41.250  31.800  30.841  1.00  0.00     0.031 C 
ATOM     43  C   UNL A   1      40.237  25.638  27.934  1.00  0.00     0.029 A 
ATOM     44  C   UNL A   1      41.562  25.872  28.503  1.00  0.00     0.049 A 
ATOM     45  H   UNL A   1      42.245  27.596  29.451  1.00  0.00     0.167 HD
ATOM     46  C   UNL A   1      43.549  31.189  31.532  1.00  0.00     0.031 A 
ATOM     47  C   UNL A   1      42.576  24.983  28.502  1.00  0.00     0.031 A 
ATOM     48  C   UNL A   1      44.671  30.292  31.618  1.00  0.00     0.049 A 
ATOM     49  C   UNL A   1      43.886  25.348  29.142  1.00  0.00     0.074 A 
ATOM     50  C   UNL A   1      45.893  30.496  32.235  1.00  0.00     0.029 A 
ATOM     51  N   UNL A   1      44.711  29.021  31.067  1.00  0.00    -0.354 N 
ATOM     52  N   UNL A   1      44.222  26.455  29.759  1.00  0.00    -0.248 NA
ATOM     53  C   UNL A   1      44.952  24.337  29.094  1.00  0.00     0.031 C 
ATOM     54  C   UNL A   1      46.688  29.364  32.021  1.00  0.00     0.029 A 
ATOM     55  C   UNL A   1      45.944  28.436  31.312  1.00  0.00     0.049 A 
ATOM     56  H   UNL A   1      43.974  28.595  30.573  1.00  0.00     0.167 HD
ATOM     57  C   UNL A   1      45.528  26.263  30.197  1.00  0.00     0.074 A 
ATOM     58  C   UNL A   1      45.919  24.932  29.779  1.00  0.00     0.031 C 
ATOM     59  C   UNL A   1      46.328  27.113  30.889  1.00  0.00     0.031 A 
BRANCH  46  60
ATOM     60  C   UNL A   1      43.676  32.563  32.136  1.00  0.00    -0.014 A 
ATOM     61  C   UNL A   1      44.205  33.635  31.393  1.00  0.00     0.010 A 
ATOM     62  C   UNL A   1      43.265  32.789  33.462  1.00  0.00     0.010 A 
ATOM     63  C   UNL A   1      44.379  34.889  31.984  1.00  0.00     0.020 A 
ATOM     64  C   UNL A   1      43.412  34.049  34.048  1.00  0.00     0.020 A 
ATOM     65  C   UNL A   1      43.994  35.085  33.313  1.00  0.00     0.054 A 
BRANCH  65  66
ATOM     66  S   UNL A   1      44.250  36.715  34.066  1.00  0.00     0.124 S 
ATOM     67  O   UNL A   1      44.196  36.398  35.492  1.00  0.00    -0.237 OA
ATOM     68  O   UNL A   1      45.565  37.102  33.561  1.00  0.00    -0.237 OA
ATOM     69  O   UNL A   1      43.134  37.509  33.561  1.00  0.00    -0.744 OA
ENDBRANCH  65  66
ENDBRANCH  46  60
BRANCH  47  70
ATOM     70  C   UNL A   1      42.374  23.638  27.901  1.00  0.00    -0.014 A 
ATOM     71  C   UNL A   1      42.667  23.419  26.543  1.00  0.00     0.010 A 
ATOM     72  C   UNL A   1      41.918  22.563  28.685  1.00  0.00     0.010 A 
ATOM     73  C   UNL A   1      42.506  22.151  25.980  1.00  0.00     0.020 A 
ATOM     74  C   UNL A   1      41.777  21.288  28.130  1.00  0.00     0.020 A 
ATOM     75  C   UNL A   1      42.067  21.092  26.778  1.00  0.00     0.054 A 
BRANCH  75  76
ATOM     76  S   UNL A   1      41.940  19.436  26.045  1.00  0.00     0.124 S 
ATOM     77  O   UNL A   1      42.436  18.587  27.124  1.00  0.00    -0.237 OA
ATOM     78  O   UNL A   1      40.512  19.326  25.756  1.00  0.00    -0.237 OA
ATOM     79  O   UNL A   1      42.799  19.519  24.866  1.00  0.00    -0.744 OA
ENDBRANCH  75  76
ENDBRANCH  47  70
BRANCH  59  80
ATOM     80  C   UNL A   1      47.698  26.619  31.268  1.00  0.00    -0.014 A 
ATOM     81  C   UNL A   1      47.927  25.972  32.495  1.00  0.00     0.010 A 
ATOM     82  C   UNL A   1      48.764  26.765  30.361  1.00  0.00     0.010 A 
ATOM     83  C   UNL A   1      49.204  25.506  32.820  1.00  0.00     0.020 A 
ATOM     84  C   UNL A   1      50.037  26.280  30.673  1.00  0.00     0.020 A 
ATOM     85  C   UNL A   1      50.252  25.665  31.908  1.00  0.00     0.054 A 
BRANCH  85  86
ATOM     86  S   UNL A   1      51.892  25.016  32.334  1.00  0.00     0.124 S 
ATOM     87  O   UNL A   1      51.686  23.574  32.223  1.00  0.00    -0.237 OA
ATOM     88  O   UNL A   1      52.750  25.608  31.310  1.00  0.00    -0.237 OA
ATOM     89  O   UNL A   1      52.119  25.511  33.690  1.00  0.00    -0.744 OA
ENDBRANCH  85  86
ENDBRANCH  59  80
ENDBRANCH  33  34
ENDBRANCH  25  28
ENDBRANCH  23  24
ENDBRANCH  22  23
ENDBRANCH   1  22
TORSDOF 18
ENDMDL
MODEL 3
REMARK VINA RESULT:      -9.2      4.788      7.610
REMARK SMILES CN(C)C(=O)Cc1nc(C[N@@H+](C)CC(=O)NCCCNC(=O)c2ccc(-c3c4nc(c(-c5ccc(S(=O)(=O)[O-])cc5)c5ccc([nH]5)c(-c5ccc(S(=O)(=O)[O-])cc5)c5nc(c(-c6ccc(S(=O)(=O)[O-])cc6)c6ccc3[nH]6)C=C5)C=C4)cc2)cs1
REMARK SMILES IDX 17 1 16 2 14 3 15 4 13 6 11 7 12 8 10 10 9 11 83 12 8 13
REMARK SMILES IDX 84 14 7 15 6 16 4 17 5 18 2 19 1 20 3 21 18 22 19 23 20 24
REMARK SMILES IDX 21 25 22 27 23 28 24 29 82 30 25 31 81 32 26 33 27 34 28 35
REMARK SMILES IDX 75 36 29 37 80 38 74 39 76 40 30 41 79 42 73 43 72 44 31 46
REMARK SMILES IDX 61 47 42 48 60 49 43 50 46 51 59 52 77 53 44 54 45 55 58 57
REMARK SMILES IDX 78 58 47 59 32 60 33 61 41 62 34 63 40 64 35 65 36 66 37 67
REMARK SMILES IDX 38 68 39 69 62 70 63 71 71 72 64 73 70 74 65 75 66 76 67 77
REMARK SMILES IDX 68 78 69 79 48 80 49 81 57 82 50 83 56 84 51 85 52 86 53 87
REMARK SMILES IDX 54 88 55 89
REMARK H PARENT 16 5 11 9 20 26 76 45 46 56
REMARK Flexibility Score: inf
ROOT
ATOM      1  C   UNL A   1      37.109  22.830  25.622  1.00  0.00     0.118 C 
ENDROOT
BRANCH   1   2
ATOM      2  N   UNL A   1      35.981  22.571  26.500  1.00  0.00    -0.351 N 
ATOM      3  C   UNL A   1      34.839  21.851  26.315  1.00  0.00     0.275 C 
ATOM      4  O   UNL A   1      34.088  21.713  27.285  1.00  0.00    -0.269 OA
ATOM      5  H   UNL A   1      36.054  22.993  27.387  1.00  0.00     0.163 HD
BRANCH   3   6
ATOM      6  C   UNL A   1      34.515  21.203  24.973  1.00  0.00     0.363 C 
BRANCH   6   7
ATOM      7  N   UNL A   1      33.669  22.000  24.093  1.00  0.00    -0.325 N 
ATOM      8  C   UNL A   1      32.493  21.404  23.517  1.00  0.00     0.333 C 
ATOM      9  H   UNL A   1      33.209  22.473  24.872  1.00  0.00     0.348 HD
BRANCH   7  10
ATOM     10  C   UNL A   1      34.204  23.210  23.478  1.00  0.00     0.320 C 
BRANCH  10  11
ATOM     11  C   UNL A   1      33.220  24.311  23.177  1.00  0.00     0.106 A 
ATOM     12  C   UNL A   1      32.907  24.903  21.969  1.00  0.00     0.096 A 
ATOM     13  N   UNL A   1      32.452  24.788  24.237  1.00  0.00    -0.240 NA
ATOM     14  S   UNL A   1      31.734  26.131  22.167  1.00  0.00    -0.126 S 
ATOM     15  C   UNL A   1      31.655  25.760  23.841  1.00  0.00     0.102 A 
BRANCH  15  16
ATOM     16  C   UNL A   1      30.698  26.479  24.734  1.00  0.00     0.167 C 
BRANCH  16  17
ATOM     17  C   UNL A   1      31.416  27.581  25.488  1.00  0.00     0.228 C 
ATOM     18  O   UNL A   1      32.026  27.310  26.526  1.00  0.00    -0.274 OA
ATOM     19  N   UNL A   1      31.401  28.878  24.979  1.00  0.00    -0.348 N 
ATOM     20  C   UNL A   1      30.575  29.329  23.869  1.00  0.00     0.146 C 
ATOM     21  C   UNL A   1      32.041  29.908  25.777  1.00  0.00     0.146 C 
ENDBRANCH  16  17
ENDBRANCH  15  16
ENDBRANCH  10  11
ENDBRANCH   7  10
ENDBRANCH   6   7
ENDBRANCH   3   6
ENDBRANCH   1   2
BRANCH   1  22
ATOM     22  C   UNL A   1      38.039  23.936  26.117  1.00  0.00     0.042 C 
BRANCH  22  23
ATOM     23  C   UNL A   1      39.313  23.466  26.819  1.00  0.00     0.118 C 
BRANCH  23  24
ATOM     24  N   UNL A   1      40.515  23.883  26.126  1.00  0.00    -0.352 N 
ATOM     25  C   UNL A   1      41.265  25.025  26.286  1.00  0.00     0.251 C 
ATOM     26  H   UNL A   1      40.844  23.258  25.440  1.00  0.00     0.163 HD
ATOM     27  O   UNL A   1      42.137  25.284  25.460  1.00  0.00    -0.269 OA
BRANCH  25  28
ATOM     28  C   UNL A   1      41.024  25.956  27.419  1.00  0.00     0.039 A 
ATOM     29  C   UNL A   1      41.841  27.086  27.533  1.00  0.00     0.014 A 
ATOM     30  C   UNL A   1      40.065  25.699  28.404  1.00  0.00     0.014 A 
ATOM     31  C   UNL A   1      41.678  27.968  28.607  1.00  0.00     0.010 A 
ATOM     32  C   UNL A   1      39.865  26.610  29.446  1.00  0.00     0.010 A 
ATOM     33  C   UNL A   1      40.679  27.747  29.569  1.00  0.00    -0.014 A 
BRANCH  33  34
ATOM     34  C   UNL A   1      40.509  28.681  30.716  1.00  0.00     0.031 A 
ATOM     35  C   UNL A   1      41.389  28.566  31.934  1.00  0.00     0.074 A 
ATOM     36  C   UNL A   1      39.559  29.637  30.675  1.00  0.00     0.049 A 
ATOM     37  N   UNL A   1      41.398  29.298  33.020  1.00  0.00    -0.248 NA
ATOM     38  C   UNL A   1      42.381  27.479  31.935  1.00  0.00     0.031 C 
ATOM     39  C   UNL A   1      38.630  29.859  29.566  1.00  0.00     0.029 A 
ATOM     40  N   UNL A   1      39.223  30.605  31.590  1.00  0.00    -0.354 N 
ATOM     41  C   UNL A   1      42.388  28.759  33.834  1.00  0.00     0.074 A 
ATOM     42  C   UNL A   1      42.924  27.610  33.137  1.00  0.00     0.031 C 
ATOM     43  C   UNL A   1      37.856  30.919  29.848  1.00  0.00     0.029 A 
ATOM     44  C   UNL A   1      38.208  31.432  31.170  1.00  0.00     0.049 A 
ATOM     45  H   UNL A   1      39.669  30.700  32.462  1.00  0.00     0.167 HD
ATOM     46  C   UNL A   1      42.827  29.187  35.044  1.00  0.00     0.031 A 
ATOM     47  C   UNL A   1      37.625  32.486  31.775  1.00  0.00     0.031 A 
ATOM     48  C   UNL A   1      42.297  30.325  35.748  1.00  0.00     0.049 A 
ATOM     49  C   UNL A   1      38.100  32.921  33.134  1.00  0.00     0.074 A 
ATOM     50  C   UNL A   1      42.698  30.851  36.964  1.00  0.00     0.029 A 
ATOM     51  N   UNL A   1      41.247  31.112  35.301  1.00  0.00    -0.354 N 
ATOM     52  N   UNL A   1      39.065  32.421  33.868  1.00  0.00    -0.248 NA
ATOM     53  C   UNL A   1      37.412  34.069  33.740  1.00  0.00     0.031 C 
ATOM     54  C   UNL A   1      41.863  31.931  37.273  1.00  0.00     0.029 A 
ATOM     55  C   UNL A   1      40.973  32.107  36.226  1.00  0.00     0.049 A 
ATOM     56  H   UNL A   1      40.766  30.983  34.452  1.00  0.00     0.167 HD
ATOM     57  C   UNL A   1      39.118  33.212  35.011  1.00  0.00     0.074 A 
ATOM     58  C   UNL A   1      38.092  34.225  34.867  1.00  0.00     0.031 C 
ATOM     59  C   UNL A   1      39.947  33.109  36.079  1.00  0.00     0.031 A 
BRANCH  46  60
ATOM     60  C   UNL A   1      43.937  28.395  35.686  1.00  0.00    -0.014 A 
ATOM     61  C   UNL A   1      43.655  27.325  36.555  1.00  0.00     0.010 A 
ATOM     62  C   UNL A   1      45.279  28.724  35.421  1.00  0.00     0.010 A 
ATOM     63  C   UNL A   1      44.691  26.640  37.195  1.00  0.00     0.020 A 
ATOM     64  C   UNL A   1      46.319  28.024  36.039  1.00  0.00     0.020 A 
ATOM     65  C   UNL A   1      46.017  27.003  36.943  1.00  0.00     0.054 A 
BRANCH  65  66
ATOM     66  S   UNL A   1      47.345  26.116  37.803  1.00  0.00     0.124 S 
ATOM     67  O   UNL A   1      47.101  24.736  37.387  1.00  0.00    -0.237 OA
ATOM     68  O   UNL A   1      48.553  26.730  37.257  1.00  0.00    -0.237 OA
ATOM     69  O   UNL A   1      47.091  26.396  39.214  1.00  0.00    -0.744 OA
ENDBRANCH  65  66
ENDBRANCH  46  60
BRANCH  47  70
ATOM     70  C   UNL A   1      36.544  33.231  31.075  1.00  0.00    -0.014 A 
ATOM     71  C   UNL A   1      36.847  34.034  29.961  1.00  0.00     0.010 A 
ATOM     72  C   UNL A   1      35.207  33.119  31.497  1.00  0.00     0.010 A 
ATOM     73  C   UNL A   1      35.831  34.713  29.283  1.00  0.00     0.020 A 
ATOM     74  C   UNL A   1      34.187  33.779  30.807  1.00  0.00     0.020 A 
ATOM     75  C   UNL A   1      34.507  34.578  29.707  1.00  0.00     0.054 A 
BRANCH  75  76
ATOM     76  S   UNL A   1      33.195  35.406  28.764  1.00  0.00     0.124 S 
ATOM     77  O   UNL A   1      32.541  34.281  28.103  1.00  0.00    -0.237 OA
ATOM     78  O   UNL A   1      32.420  36.064  29.812  1.00  0.00    -0.237 OA
ATOM     79  O   UNL A   1      33.929  36.311  27.883  1.00  0.00    -0.744 OA
ENDBRANCH  75  76
ENDBRANCH  47  70
BRANCH  59  80
ATOM     80  C   UNL A   1      39.805  34.139  37.168  1.00  0.00    -0.014 A 
ATOM     81  C   UNL A   1      40.462  35.380  37.090  1.00  0.00     0.010 A 
ATOM     82  C   UNL A   1      38.962  33.878  38.264  1.00  0.00     0.010 A 
ATOM     83  C   UNL A   1      40.302  36.329  38.103  1.00  0.00     0.020 A 
ATOM     84  C   UNL A   1      38.782  34.834  39.267  1.00  0.00     0.020 A 
ATOM     85  C   UNL A   1      39.466  36.049  39.188  1.00  0.00     0.054 A 
BRANCH  85  86
ATOM     86  S   UNL A   1      39.241  37.312  40.471  1.00  0.00     0.124 S 
ATOM     87  O   UNL A   1      40.552  37.954  40.499  1.00  0.00    -0.237 OA
ATOM     88  O   UNL A   1      38.154  38.127  39.934  1.00  0.00    -0.237 OA
ATOM     89  O   UNL A   1      38.900  36.538  41.662  1.00  0.00    -0.744 OA
ENDBRANCH  85  86
ENDBRANCH  59  80
ENDBRANCH  33  34
ENDBRANCH  25  28
ENDBRANCH  23  24
ENDBRANCH  22  23
ENDBRANCH   1  22
TORSDOF 18
ENDMDL
