MODEL 1
REMARK VINA RESULT:     -12.1      0.000      0.000
REMARK SMILES O=C(NCCCNC(=O)c1ccc(F)c(S(=O)(=O)N2CCOc3ccccc32)c1)c1ccc(-c2c3nc(c(-c4ccc(S(=O)(=O)[O-])cc4)c4ccc([nH]4)c(-c4ccc(S(=O)(=O)[O-])cc4)c4nc(c(-c5ccc(S(=O)(=O)[O-])cc5)c5ccc2[nH]5)C=C4)C=C3)cc1
REMARK SMILES IDX 4 1 3 2 1 3 2 4 30 6 31 7 89 8 32 9 88 10 33 11 34 12 35 13
REMARK SMILES IDX 82 14 36 15 87 16 81 17 83 18 37 19 86 20 80 21 79 22 38 24
REMARK SMILES IDX 68 25 49 26 67 27 50 28 53 29 66 30 84 31 51 32 52 33 65 35
REMARK SMILES IDX 85 36 54 37 39 38 40 39 48 40 41 41 47 42 42 43 43 44 44 45
REMARK SMILES IDX 45 46 46 47 69 48 70 49 78 50 71 51 77 52 72 53 73 54 74 55
REMARK SMILES IDX 75 56 76 57 55 58 56 59 64 60 57 61 63 62 58 63 59 64 60 65
REMARK SMILES IDX 61 66 62 67 5 68 6 69 7 70 8 71 9 73 10 74 11 75 29 76 12 77
REMARK SMILES IDX 15 78 13 79 14 80 16 81 17 82 18 83 19 84 20 85 28 86 21 87
REMARK SMILES IDX 23 88 27 89 22 90 24 91 26 92 25 93
REMARK H PARENT 3 5 83 23 53 34 7 72
REMARK Flexibility Score: inf
ROOT
ATOM      1  C   UNL A   1      33.577  28.537  27.364  1.00  0.00     0.118 C 
ENDROOT
BRANCH   1   2
ATOM      2  N   UNL A   1      33.549  29.963  27.659  1.00  0.00    -0.352 N 
ATOM      3  O   UNL A   1      34.184  31.890  28.622  1.00  0.00    -0.269 OA
ATOM      4  C   UNL A   1      34.495  30.761  28.255  1.00  0.00     0.251 C 
ATOM      5  H   UNL A   1      32.725  30.428  27.389  1.00  0.00     0.163 HD
BRANCH   4   6
ATOM      6  C   UNL A   1      35.873  30.263  28.459  1.00  0.00     0.039 A 
ATOM      7  C   UNL A   1      36.832  30.381  27.451  1.00  0.00     0.014 A 
ATOM      8  C   UNL A   1      36.230  29.723  29.699  1.00  0.00     0.014 A 
ATOM      9  C   UNL A   1      38.100  29.846  27.629  1.00  0.00     0.010 A 
ATOM     10  C   UNL A   1      37.536  29.273  29.913  1.00  0.00     0.010 A 
ATOM     11  C   UNL A   1      38.478  29.322  28.874  1.00  0.00    -0.014 A 
BRANCH  11  12
ATOM     12  C   UNL A   1      39.900  28.967  29.104  1.00  0.00     0.031 A 
ATOM     13  C   UNL A   1      40.454  27.638  28.682  1.00  0.00     0.074 A 
ATOM     14  C   UNL A   1      40.687  29.879  29.709  1.00  0.00     0.049 A 
ATOM     15  N   UNL A   1      41.672  27.181  28.825  1.00  0.00    -0.248 NA
ATOM     16  C   UNL A   1      39.533  26.696  28.024  1.00  0.00     0.031 C 
ATOM     17  C   UNL A   1      40.244  31.198  30.178  1.00  0.00     0.029 A 
ATOM     18  N   UNL A   1      42.019  29.848  30.030  1.00  0.00    -0.354 N 
ATOM     19  C   UNL A   1      41.662  25.893  28.302  1.00  0.00     0.074 A 
ATOM     20  C   UNL A   1      40.313  25.637  27.843  1.00  0.00     0.031 C 
ATOM     21  C   UNL A   1      41.288  31.857  30.698  1.00  0.00     0.029 A 
ATOM     22  C   UNL A   1      42.456  30.988  30.665  1.00  0.00     0.049 A 
ATOM     23  H   UNL A   1      42.606  29.084  29.827  1.00  0.00     0.167 HD
ATOM     24  C   UNL A   1      42.686  25.012  28.219  1.00  0.00     0.031 A 
ATOM     25  C   UNL A   1      43.654  31.290  31.197  1.00  0.00     0.031 A 
ATOM     26  C   UNL A   1      44.027  25.289  28.666  1.00  0.00     0.049 A 
ATOM     27  C   UNL A   1      44.757  30.278  31.117  1.00  0.00     0.074 A 
ATOM     28  C   UNL A   1      45.151  24.489  28.550  1.00  0.00     0.029 A 
ATOM     29  N   UNL A   1      44.422  26.440  29.328  1.00  0.00    -0.354 N 
ATOM     30  N   UNL A   1      44.746  29.098  30.546  1.00  0.00    -0.248 NA
ATOM     31  C   UNL A   1      46.030  30.630  31.761  1.00  0.00     0.031 C 
ATOM     32  C   UNL A   1      46.212  25.130  29.198  1.00  0.00     0.029 A 
ATOM     33  C   UNL A   1      45.761  26.352  29.671  1.00  0.00     0.049 A 
ATOM     34  H   UNL A   1      43.838  27.208  29.525  1.00  0.00     0.167 HD
ATOM     35  C   UNL A   1      46.010  28.565  30.761  1.00  0.00     0.074 A 
ATOM     36  C   UNL A   1      46.769  29.564  31.487  1.00  0.00     0.031 C 
ATOM     37  C   UNL A   1      46.495  27.352  30.403  1.00  0.00     0.031 A 
BRANCH  24  38
ATOM     38  C   UNL A   1      42.412  23.647  27.646  1.00  0.00    -0.014 A 
ATOM     39  C   UNL A   1      42.644  23.365  26.290  1.00  0.00     0.010 A 
ATOM     40  C   UNL A   1      42.025  22.604  28.508  1.00  0.00     0.010 A 
ATOM     41  C   UNL A   1      42.486  22.063  25.804  1.00  0.00     0.020 A 
ATOM     42  C   UNL A   1      41.882  21.299  28.029  1.00  0.00     0.020 A 
ATOM     43  C   UNL A   1      42.109  21.037  26.678  1.00  0.00     0.054 A 
BRANCH  43  44
ATOM     44  S   UNL A   1      41.977  19.346  26.032  1.00  0.00     0.124 S 
ATOM     45  O   UNL A   1      42.816  19.413  24.838  1.00  0.00    -0.237 OA
ATOM     46  O   UNL A   1      42.510  18.542  27.129  1.00  0.00    -0.237 OA
ATOM     47  O   UNL A   1      40.548  19.181  25.779  1.00  0.00    -0.744 OA
ENDBRANCH  43  44
ENDBRANCH  24  38
BRANCH  25  48
ATOM     48  C   UNL A   1      43.843  32.580  31.912  1.00  0.00    -0.014 A 
ATOM     49  C   UNL A   1      44.291  33.725  31.232  1.00  0.00     0.010 A 
ATOM     50  C   UNL A   1      43.567  32.665  33.290  1.00  0.00     0.010 A 
ATOM     51  C   UNL A   1      44.486  34.925  31.923  1.00  0.00     0.020 A 
ATOM     52  C   UNL A   1      43.731  33.868  33.977  1.00  0.00     0.020 A 
ATOM     53  C   UNL A   1      44.207  34.987  33.293  1.00  0.00     0.054 A 
BRANCH  53  54
ATOM     54  S   UNL A   1      44.440  36.559  34.169  1.00  0.00     0.124 S 
ATOM     55  O   UNL A   1      45.145  37.357  33.172  1.00  0.00    -0.237 OA
ATOM     56  O   UNL A   1      43.067  36.970  34.455  1.00  0.00    -0.237 OA
ATOM     57  O   UNL A   1      45.225  36.181  35.342  1.00  0.00    -0.744 OA
ENDBRANCH  53  54
ENDBRANCH  25  48
BRANCH  37  58
ATOM     58  C   UNL A   1      47.911  27.038  30.793  1.00  0.00    -0.014 A 
ATOM     59  C   UNL A   1      48.195  26.417  32.022  1.00  0.00     0.010 A 
ATOM     60  C   UNL A   1      48.962  27.318  29.902  1.00  0.00     0.010 A 
ATOM     61  C   UNL A   1      49.510  26.098  32.362  1.00  0.00     0.020 A 
ATOM     62  C   UNL A   1      50.277  26.977  30.229  1.00  0.00     0.020 A 
ATOM     63  C   UNL A   1      50.544  26.379  31.462  1.00  0.00     0.054 A 
BRANCH  63  64
ATOM     64  S   UNL A   1      52.237  25.902  31.903  1.00  0.00     0.124 S 
ATOM     65  O   UNL A   1      52.088  24.475  32.174  1.00  0.00    -0.237 OA
ATOM     66  O   UNL A   1      52.989  26.238  30.697  1.00  0.00    -0.237 OA
ATOM     67  O   UNL A   1      52.537  26.731  33.069  1.00  0.00    -0.744 OA
ENDBRANCH  63  64
ENDBRANCH  37  58
ENDBRANCH  11  12
ENDBRANCH   4   6
ENDBRANCH   1   2
BRANCH   1  68
ATOM     68  C   UNL A   1      33.873  28.258  25.901  1.00  0.00     0.042 C 
BRANCH  68  69
ATOM     69  C   UNL A   1      33.132  29.182  24.948  1.00  0.00     0.118 C 
BRANCH  69  70
ATOM     70  N   UNL A   1      33.687  29.159  23.599  1.00  0.00    -0.352 N 
ATOM     71  C   UNL A   1      33.596  28.187  22.633  1.00  0.00     0.251 C 
ATOM     72  H   UNL A   1      34.201  29.959  23.343  1.00  0.00     0.163 HD
ATOM     73  O   UNL A   1      34.256  28.258  21.603  1.00  0.00    -0.269 OA
BRANCH  71  74
ATOM     74  C   UNL A   1      32.702  27.034  22.852  1.00  0.00     0.041 A 
ATOM     75  C   UNL A   1      31.399  27.238  23.322  1.00  0.00     0.017 A 
ATOM     76  C   UNL A   1      33.172  25.742  22.603  1.00  0.00     0.039 A 
ATOM     77  C   UNL A   1      30.631  26.147  23.702  1.00  0.00     0.041 A 
ATOM     78  C   UNL A   1      32.363  24.644  22.933  1.00  0.00     0.124 A 
ATOM     79  C   UNL A   1      31.128  24.858  23.537  1.00  0.00     0.143 A 
ATOM     80  F   UNL A   1      30.361  23.866  23.996  1.00  0.00    -0.205 F 
BRANCH  78  81
ATOM     81  S   UNL A   1      32.989  23.028  22.554  1.00  0.00     0.267 S 
ATOM     82  O   UNL A   1      31.832  22.249  22.156  1.00  0.00    -0.201 OA
ATOM     83  O   UNL A   1      34.077  23.249  21.626  1.00  0.00    -0.201 OA
BRANCH  81  84
ATOM     84  N   UNL A   1      33.543  22.396  24.019  1.00  0.00    -0.259 N 
ATOM     85  C   UNL A   1      32.756  21.291  24.625  1.00  0.00     0.177 C 
ATOM     86  C   UNL A   1      34.929  22.443  24.418  1.00  0.00     0.094 A 
ATOM     87  C   UNL A   1      33.606  20.033  24.638  1.00  0.00     0.252 C 
ATOM     88  C   UNL A   1      35.459  21.369  25.164  1.00  0.00     0.143 A 
ATOM     89  C   UNL A   1      35.725  23.578  24.234  1.00  0.00     0.031 A 
ATOM     90  O   UNL A   1      34.771  20.211  25.454  1.00  0.00    -0.489 OA
ATOM     91  C   UNL A   1      36.747  21.437  25.700  1.00  0.00     0.049 A 
ATOM     92  C   UNL A   1      37.029  23.627  24.741  1.00  0.00     0.002 A 
ATOM     93  C   UNL A   1      37.536  22.562  25.480  1.00  0.00     0.004 A 
ENDBRANCH  81  84
ENDBRANCH  78  81
ENDBRANCH  71  74
ENDBRANCH  69  70
ENDBRANCH  68  69
ENDBRANCH   1  68
TORSDOF 15
ENDMDL
MODEL 2
REMARK VINA RESULT:     -11.8      3.507      9.111
REMARK SMILES O=C(NCCCNC(=O)c1ccc(F)c(S(=O)(=O)N2CCOc3ccccc32)c1)c1ccc(-c2c3nc(c(-c4ccc(S(=O)(=O)[O-])cc4)c4ccc([nH]4)c(-c4ccc(S(=O)(=O)[O-])cc4)c4nc(c(-c5ccc(S(=O)(=O)[O-])cc5)c5ccc2[nH]5)C=C4)C=C3)cc1
REMARK SMILES IDX 4 1 3 2 1 3 2 4 30 6 31 7 89 8 32 9 88 10 33 11 34 12 35 13
REMARK SMILES IDX 82 14 36 15 87 16 81 17 83 18 37 19 86 20 80 21 79 22 38 24
REMARK SMILES IDX 68 25 49 26 67 27 50 28 53 29 66 30 84 31 51 32 52 33 65 35
REMARK SMILES IDX 85 36 54 37 39 38 40 39 48 40 41 41 47 42 42 43 43 44 44 45
REMARK SMILES IDX 45 46 46 47 69 48 70 49 78 50 71 51 77 52 72 53 73 54 74 55
REMARK SMILES IDX 75 56 76 57 55 58 56 59 64 60 57 61 63 62 58 63 59 64 60 65
REMARK SMILES IDX 61 66 62 67 5 68 6 69 7 70 8 71 9 73 10 74 11 75 29 76 12 77
REMARK SMILES IDX 15 78 13 79 14 80 16 81 17 82 18 83 19 84 20 85 28 86 21 87
REMARK SMILES IDX 23 88 27 89 22 90 24 91 26 92 25 93
REMARK H PARENT 3 5 83 23 53 34 7 72
REMARK Flexibility Score: inf
ROOT
ATOM      1  C   UNL A   1      39.383  20.254  26.107  1.00  0.00     0.118 C 
ENDROOT
BRANCH   1   2
ATOM      2  N   UNL A   1      40.439  19.251  26.084  1.00  0.00    -0.352 N 
ATOM      3  O   UNL A   1      42.519  18.441  25.832  1.00  0.00    -0.269 OA
ATOM      4  C   UNL A   1      41.804  19.404  26.091  1.00  0.00     0.251 C 
ATOM      5  H   UNL A   1      40.126  18.318  26.059  1.00  0.00     0.163 HD
BRANCH   4   6
ATOM      6  C   UNL A   1      42.407  20.719  26.402  1.00  0.00     0.039 A 
ATOM      7  C   UNL A   1      42.812  21.578  25.379  1.00  0.00     0.014 A 
ATOM      8  C   UNL A   1      42.513  21.126  27.736  1.00  0.00     0.014 A 
ATOM      9  C   UNL A   1      43.441  22.778  25.684  1.00  0.00     0.010 A 
ATOM     10  C   UNL A   1      43.057  22.378  28.041  1.00  0.00     0.010 A 
ATOM     11  C   UNL A   1      43.534  23.208  27.016  1.00  0.00    -0.014 A 
BRANCH  11  12
ATOM     12  C   UNL A   1      44.003  24.587  27.295  1.00  0.00     0.031 A 
ATOM     13  C   UNL A   1      43.063  25.654  27.776  1.00  0.00     0.074 A 
ATOM     14  C   UNL A   1      45.309  24.859  27.101  1.00  0.00     0.049 A 
ATOM     15  N   UNL A   1      43.324  26.906  28.051  1.00  0.00    -0.248 NA
ATOM     16  C   UNL A   1      41.652  25.279  27.967  1.00  0.00     0.031 C 
ATOM     17  C   UNL A   1      46.308  23.899  26.615  1.00  0.00     0.029 A 
ATOM     18  N   UNL A   1      46.028  26.011  27.289  1.00  0.00    -0.354 N 
ATOM     19  C   UNL A   1      42.113  27.477  28.423  1.00  0.00     0.074 A 
ATOM     20  C   UNL A   1      41.112  26.436  28.332  1.00  0.00     0.031 C 
ATOM     21  C   UNL A   1      47.509  24.493  26.572  1.00  0.00     0.029 A 
ATOM     22  C   UNL A   1      47.357  25.888  26.958  1.00  0.00     0.049 A 
ATOM     23  H   UNL A   1      45.630  26.846  27.628  1.00  0.00     0.167 HD
ATOM     24  C   UNL A   1      41.867  28.753  28.801  1.00  0.00     0.031 A 
ATOM     25  C   UNL A   1      48.342  26.804  26.930  1.00  0.00     0.031 A 
ATOM     26  C   UNL A   1      42.878  29.774  28.903  1.00  0.00     0.049 A 
ATOM     27  C   UNL A   1      48.027  28.216  27.324  1.00  0.00     0.074 A 
ATOM     28  C   UNL A   1      42.740  31.076  29.354  1.00  0.00     0.029 A 
ATOM     29  N   UNL A   1      44.205  29.619  28.532  1.00  0.00    -0.354 N 
ATOM     30  N   UNL A   1      46.891  28.715  27.748  1.00  0.00    -0.248 NA
ATOM     31  C   UNL A   1      49.120  29.193  27.224  1.00  0.00     0.031 C 
ATOM     32  C   UNL A   1      43.968  31.725  29.198  1.00  0.00     0.029 A 
ATOM     33  C   UNL A   1      44.884  30.814  28.698  1.00  0.00     0.049 A 
ATOM     34  H   UNL A   1      44.605  28.782  28.201  1.00  0.00     0.167 HD
ATOM     35  C   UNL A   1      47.132  30.064  27.967  1.00  0.00     0.074 A 
ATOM     36  C   UNL A   1      48.529  30.297  27.658  1.00  0.00     0.031 C 
ATOM     37  C   UNL A   1      46.272  31.028  28.374  1.00  0.00     0.031 A 
BRANCH  24  38
ATOM     38  C   UNL A   1      40.448  29.146  29.115  1.00  0.00    -0.014 A 
ATOM     39  C   UNL A   1      39.986  29.212  30.440  1.00  0.00     0.010 A 
ATOM     40  C   UNL A   1      39.603  29.567  28.071  1.00  0.00     0.010 A 
ATOM     41  C   UNL A   1      38.697  29.683  30.714  1.00  0.00     0.020 A 
ATOM     42  C   UNL A   1      38.322  30.055  28.343  1.00  0.00     0.020 A 
ATOM     43  C   UNL A   1      37.875  30.105  29.664  1.00  0.00     0.054 A 
BRANCH  43  44
ATOM     44  S   UNL A   1      36.234  30.775  30.055  1.00  0.00     0.124 S 
ATOM     45  O   UNL A   1      35.852  29.974  31.217  1.00  0.00    -0.237 OA
ATOM     46  O   UNL A   1      36.520  32.181  30.330  1.00  0.00    -0.237 OA
ATOM     47  O   UNL A   1      35.458  30.523  28.845  1.00  0.00    -0.744 OA
ENDBRANCH  43  44
ENDBRANCH  24  38
BRANCH  25  48
ATOM     48  C   UNL A   1      49.696  26.423  26.447  1.00  0.00    -0.014 A 
ATOM     49  C   UNL A   1      50.065  26.615  25.105  1.00  0.00     0.010 A 
ATOM     50  C   UNL A   1      50.628  25.865  27.342  1.00  0.00     0.010 A 
ATOM     51  C   UNL A   1      51.333  26.230  24.661  1.00  0.00     0.020 A 
ATOM     52  C   UNL A   1      51.906  25.508  26.909  1.00  0.00     0.020 A 
ATOM     53  C   UNL A   1      52.244  25.675  25.566  1.00  0.00     0.054 A 
BRANCH  53  54
ATOM     54  S   UNL A   1      53.896  25.207  24.979  1.00  0.00     0.124 S 
ATOM     55  O   UNL A   1      53.766  23.760  24.841  1.00  0.00    -0.237 OA
ATOM     56  O   UNL A   1      54.014  25.954  23.729  1.00  0.00    -0.237 OA
ATOM     57  O   UNL A   1      54.779  25.660  26.051  1.00  0.00    -0.744 OA
ENDBRANCH  53  54
ENDBRANCH  25  48
BRANCH  37  58
ATOM     58  C   UNL A   1      46.816  32.422  28.506  1.00  0.00    -0.014 A 
ATOM     59  C   UNL A   1      47.425  32.843  29.702  1.00  0.00     0.010 A 
ATOM     60  C   UNL A   1      46.767  33.300  27.410  1.00  0.00     0.010 A 
ATOM     61  C   UNL A   1      47.959  34.128  29.805  1.00  0.00     0.020 A 
ATOM     62  C   UNL A   1      47.322  34.579  27.502  1.00  0.00     0.020 A 
ATOM     63  C   UNL A   1      47.906  34.988  28.703  1.00  0.00     0.054 A 
BRANCH  63  64
ATOM     64  S   UNL A   1      48.657  36.632  28.844  1.00  0.00     0.124 S 
ATOM     65  O   UNL A   1      47.748  37.303  29.768  1.00  0.00    -0.237 OA
ATOM     66  O   UNL A   1      49.985  36.334  29.373  1.00  0.00    -0.237 OA
ATOM     67  O   UNL A   1      48.639  37.139  27.473  1.00  0.00    -0.744 OA
ENDBRANCH  63  64
ENDBRANCH  37  58
ENDBRANCH  11  12
ENDBRANCH   4   6
ENDBRANCH   1   2
BRANCH   1  68
ATOM     68  C   UNL A   1      38.344  20.019  25.025  1.00  0.00     0.042 C 
BRANCH  68  69
ATOM     69  C   UNL A   1      37.605  21.282  24.612  1.00  0.00     0.118 C 
BRANCH  69  70
ATOM     70  N   UNL A   1      38.064  22.463  25.334  1.00  0.00    -0.352 N 
ATOM     71  C   UNL A   1      37.339  23.515  25.839  1.00  0.00     0.251 C 
ATOM     72  H   UNL A   1      39.036  22.514  25.481  1.00  0.00     0.163 HD
ATOM     73  O   UNL A   1      37.898  24.510  26.284  1.00  0.00    -0.269 OA
BRANCH  71  74
ATOM     74  C   UNL A   1      35.865  23.445  25.828  1.00  0.00     0.041 A 
ATOM     75  C   UNL A   1      35.190  22.732  26.825  1.00  0.00     0.017 A 
ATOM     76  C   UNL A   1      35.154  24.082  24.806  1.00  0.00     0.039 A 
ATOM     77  C   UNL A   1      33.824  22.514  26.705  1.00  0.00     0.041 A 
ATOM     78  C   UNL A   1      33.764  23.908  24.728  1.00  0.00     0.124 A 
ATOM     79  C   UNL A   1      33.125  23.075  25.640  1.00  0.00     0.143 A 
ATOM     80  F   UNL A   1      31.830  22.757  25.553  1.00  0.00    -0.205 F 
BRANCH  78  81
ATOM     81  S   UNL A   1      32.906  24.774  23.440  1.00  0.00     0.267 S 
ATOM     82  O   UNL A   1      33.927  25.524  22.733  1.00  0.00    -0.201 OA
ATOM     83  O   UNL A   1      32.132  23.764  22.751  1.00  0.00    -0.201 OA
BRANCH  81  84
ATOM     84  N   UNL A   1      31.910  25.891  24.223  1.00  0.00    -0.259 N 
ATOM     85  C   UNL A   1      30.451  25.616  24.229  1.00  0.00     0.177 C 
ATOM     86  C   UNL A   1      32.374  26.732  25.301  1.00  0.00     0.094 A 
ATOM     87  C   UNL A   1      30.004  25.366  25.659  1.00  0.00     0.252 C 
ATOM     88  C   UNL A   1      31.481  27.053  26.345  1.00  0.00     0.143 A 
ATOM     89  C   UNL A   1      33.618  27.370  25.274  1.00  0.00     0.031 A 
ATOM     90  O   UNL A   1      30.212  26.530  26.469  1.00  0.00    -0.489 OA
ATOM     91  C   UNL A   1      31.833  27.981  27.328  1.00  0.00     0.049 A 
ATOM     92  C   UNL A   1      33.982  28.271  26.281  1.00  0.00     0.002 A 
ATOM     93  C   UNL A   1      33.088  28.583  27.302  1.00  0.00     0.004 A 
ENDBRANCH  81  84
ENDBRANCH  78  81
ENDBRANCH  71  74
ENDBRANCH  69  70
ENDBRANCH  68  69
ENDBRANCH   1  68
TORSDOF 15
ENDMDL
MODEL 3
REMARK VINA RESULT:     -11.8      3.183      8.707
REMARK SMILES O=C(NCCCNC(=O)c1ccc(F)c(S(=O)(=O)N2CCOc3ccccc32)c1)c1ccc(-c2c3nc(c(-c4ccc(S(=O)(=O)[O-])cc4)c4ccc([nH]4)c(-c4ccc(S(=O)(=O)[O-])cc4)c4nc(c(-c5ccc(S(=O)(=O)[O-])cc5)c5ccc2[nH]5)C=C4)C=C3)cc1
REMARK SMILES IDX 4 1 3 2 1 3 2 4 30 6 31 7 89 8 32 9 88 10 33 11 34 12 35 13
REMARK SMILES IDX 82 14 36 15 87 16 81 17 83 18 37 19 86 20 80 21 79 22 38 24
REMARK SMILES IDX 68 25 49 26 67 27 50 28 53 29 66 30 84 31 51 32 52 33 65 35
REMARK SMILES IDX 85 36 54 37 39 38 40 39 48 40 41 41 47 42 42 43 43 44 44 45
REMARK SMILES IDX 45 46 46 47 69 48 70 49 78 50 71 51 77 52 72 53 73 54 74 55
REMARK SMILES IDX 75 56 76 57 55 58 56 59 64 60 57 61 63 62 58 63 59 64 60 65
REMARK SMILES IDX 61 66 62 67 5 68 6 69 7 70 8 71 9 73 10 74 11 75 29 76 12 77
REMARK SMILES IDX 15 78 13 79 14 80 16 81 17 82 18 83 19 84 20 85 28 86 21 87
REMARK SMILES IDX 23 88 27 89 22 90 24 91 26 92 25 93
REMARK H PARENT 3 5 83 23 53 34 7 72
REMARK Flexibility Score: inf
ROOT
ATOM      1  C   UNL A   1      35.657  31.152  27.996  1.00  0.00     0.118 C 
ENDROOT
BRANCH   1   2
ATOM      2  N   UNL A   1      35.527  30.953  29.433  1.00  0.00    -0.352 N 
ATOM      3  O   UNL A   1      35.927  30.023  31.438  1.00  0.00    -0.269 OA
ATOM      4  C   UNL A   1      36.336  30.269  30.307  1.00  0.00     0.251 C 
ATOM      5  H   UNL A   1      34.736  31.373  29.841  1.00  0.00     0.163 HD
BRANCH   4   6
ATOM      6  C   UNL A   1      37.684  29.827  29.889  1.00  0.00     0.039 A 
ATOM      7  C   UNL A   1      38.055  29.844  28.543  1.00  0.00     0.014 A 
ATOM      8  C   UNL A   1      38.613  29.447  30.862  1.00  0.00     0.014 A 
ATOM      9  C   UNL A   1      39.298  29.359  28.156  1.00  0.00     0.010 A 
ATOM     10  C   UNL A   1      39.900  29.053  30.481  1.00  0.00     0.010 A 
ATOM     11  C   UNL A   1      40.247  28.997  29.123  1.00  0.00    -0.014 A 
BRANCH  11  12
ATOM     12  C   UNL A   1      41.635  28.701  28.692  1.00  0.00     0.031 A 
ATOM     13  C   UNL A   1      42.682  29.774  28.625  1.00  0.00     0.074 A 
ATOM     14  C   UNL A   1      41.933  27.429  28.358  1.00  0.00     0.049 A 
ATOM     15  N   UNL A   1      43.933  29.670  28.257  1.00  0.00    -0.248 NA
ATOM     16  C   UNL A   1      42.281  31.138  29.009  1.00  0.00     0.031 C 
ATOM     17  C   UNL A   1      40.983  26.309  28.369  1.00  0.00     0.029 A 
ATOM     18  N   UNL A   1      43.109  26.856  27.950  1.00  0.00    -0.354 N 
ATOM     19  C   UNL A   1      44.465  30.951  28.340  1.00  0.00     0.074 A 
ATOM     20  C   UNL A   1      43.398  31.821  28.786  1.00  0.00     0.031 C 
ATOM     21  C   UNL A   1      41.620  25.185  28.015  1.00  0.00     0.029 A 
ATOM     22  C   UNL A   1      43.001  25.511  27.686  1.00  0.00     0.049 A 
ATOM     23  H   UNL A   1      43.950  27.359  27.856  1.00  0.00     0.167 HD
ATOM     24  C   UNL A   1      45.726  31.356  28.064  1.00  0.00     0.031 A 
ATOM     25  C   UNL A   1      43.900  24.639  27.196  1.00  0.00     0.031 A 
ATOM     26  C   UNL A   1      46.782  30.475  27.636  1.00  0.00     0.049 A 
ATOM     27  C   UNL A   1      45.279  25.128  26.869  1.00  0.00     0.074 A 
ATOM     28  C   UNL A   1      48.113  30.779  27.409  1.00  0.00     0.029 A 
ATOM     29  N   UNL A   1      46.626  29.127  27.352  1.00  0.00    -0.354 N 
ATOM     30  N   UNL A   1      45.782  26.328  27.031  1.00  0.00    -0.248 NA
ATOM     31  C   UNL A   1      46.209  24.153  26.284  1.00  0.00     0.031 C 
ATOM     32  C   UNL A   1      48.748  29.630  26.928  1.00  0.00     0.029 A 
ATOM     33  C   UNL A   1      47.824  28.597  26.905  1.00  0.00     0.049 A 
ATOM     34  H   UNL A   1      45.787  28.621  27.453  1.00  0.00     0.167 HD
ATOM     35  C   UNL A   1      47.088  26.254  26.567  1.00  0.00     0.074 A 
ATOM     36  C   UNL A   1      47.307  24.883  26.149  1.00  0.00     0.031 C 
ATOM     37  C   UNL A   1      48.019  27.233  26.483  1.00  0.00     0.031 A 
BRANCH  24  38
ATOM     38  C   UNL A   1      46.051  32.821  28.186  1.00  0.00    -0.014 A 
ATOM     39  C   UNL A   1      46.582  33.354  29.372  1.00  0.00     0.010 A 
ATOM     40  C   UNL A   1      45.929  33.650  27.055  1.00  0.00     0.010 A 
ATOM     41  C   UNL A   1      46.977  34.695  29.428  1.00  0.00     0.020 A 
ATOM     42  C   UNL A   1      46.339  34.986  27.102  1.00  0.00     0.020 A 
ATOM     43  C   UNL A   1      46.856  35.501  28.291  1.00  0.00     0.054 A 
BRANCH  43  44
ATOM     44  S   UNL A   1      47.438  37.218  28.373  1.00  0.00     0.124 S 
ATOM     45  O   UNL A   1      48.216  37.332  27.141  1.00  0.00    -0.237 OA
ATOM     46  O   UNL A   1      46.191  37.979  28.399  1.00  0.00    -0.237 OA
ATOM     47  O   UNL A   1      48.218  37.263  29.607  1.00  0.00    -0.744 OA
ENDBRANCH  43  44
ENDBRANCH  24  38
BRANCH  25  48
ATOM     48  C   UNL A   1      43.497  23.234  26.921  1.00  0.00    -0.014 A 
ATOM     49  C   UNL A   1      43.576  22.699  25.624  1.00  0.00     0.010 A 
ATOM     50  C   UNL A   1      43.031  22.420  27.971  1.00  0.00     0.010 A 
ATOM     51  C   UNL A   1      43.171  21.384  25.377  1.00  0.00     0.020 A 
ATOM     52  C   UNL A   1      42.656  21.097  27.735  1.00  0.00     0.020 A 
ATOM     53  C   UNL A   1      42.710  20.592  26.435  1.00  0.00     0.054 A 
BRANCH  53  54
ATOM     54  S   UNL A   1      42.214  18.879  26.102  1.00  0.00     0.124 S 
ATOM     55  O   UNL A   1      40.807  19.036  25.752  1.00  0.00    -0.237 OA
ATOM     56  O   UNL A   1      43.101  18.498  25.006  1.00  0.00    -0.237 OA
ATOM     57  O   UNL A   1      42.475  18.198  27.369  1.00  0.00    -0.744 OA
ENDBRANCH  53  54
ENDBRANCH  25  48
BRANCH  37  58
ATOM     58  C   UNL A   1      49.358  26.859  25.914  1.00  0.00    -0.014 A 
ATOM     59  C   UNL A   1      49.625  27.021  24.543  1.00  0.00     0.010 A 
ATOM     60  C   UNL A   1      50.375  26.392  26.765  1.00  0.00     0.010 A 
ATOM     61  C   UNL A   1      50.882  26.703  24.028  1.00  0.00     0.020 A 
ATOM     62  C   UNL A   1      51.643  26.096  26.257  1.00  0.00     0.020 A 
ATOM     63  C   UNL A   1      51.885  26.244  24.889  1.00  0.00     0.054 A 
BRANCH  63  64
ATOM     64  S   UNL A   1      53.527  25.893  24.205  1.00  0.00     0.124 S 
ATOM     65  O   UNL A   1      53.741  24.511  24.627  1.00  0.00    -0.237 OA
ATOM     66  O   UNL A   1      53.327  26.089  22.772  1.00  0.00    -0.237 OA
ATOM     67  O   UNL A   1      54.388  26.882  24.849  1.00  0.00    -0.744 OA
ENDBRANCH  63  64
ENDBRANCH  37  58
ENDBRANCH  11  12
ENDBRANCH   4   6
ENDBRANCH   1   2
BRANCH   1  68
ATOM     68  C   UNL A   1      34.376  30.818  27.251  1.00  0.00     0.042 C 
BRANCH  68  69
ATOM     69  C   UNL A   1      34.201  29.332  26.986  1.00  0.00     0.118 C 
BRANCH  69  70
ATOM     70  N   UNL A   1      33.092  28.754  27.738  1.00  0.00    -0.352 N 
ATOM     71  C   UNL A   1      31.934  28.174  27.280  1.00  0.00     0.251 C 
ATOM     72  H   UNL A   1      33.188  28.784  28.717  1.00  0.00     0.163 HD
ATOM     73  O   UNL A   1      31.029  27.879  28.051  1.00  0.00    -0.269 OA
BRANCH  71  74
ATOM     74  C   UNL A   1      31.778  27.920  25.834  1.00  0.00     0.041 A 
ATOM     75  C   UNL A   1      31.543  28.986  24.958  1.00  0.00     0.017 A 
ATOM     76  C   UNL A   1      31.849  26.610  25.355  1.00  0.00     0.039 A 
ATOM     77  C   UNL A   1      31.212  28.724  23.636  1.00  0.00     0.041 A 
ATOM     78  C   UNL A   1      31.574  26.360  24.002  1.00  0.00     0.124 A 
ATOM     79  C   UNL A   1      31.198  27.411  23.173  1.00  0.00     0.143 A 
ATOM     80  F   UNL A   1      30.797  27.236  21.911  1.00  0.00    -0.205 F 
BRANCH  78  81
ATOM     81  S   UNL A   1      31.724  24.685  23.436  1.00  0.00     0.267 S 
ATOM     82  O   UNL A   1      30.371  24.260  23.130  1.00  0.00    -0.201 OA
ATOM     83  O   UNL A   1      32.732  24.723  22.398  1.00  0.00    -0.201 OA
BRANCH  81  84
ATOM     84  N   UNL A   1      32.243  23.794  24.773  1.00  0.00    -0.259 N 
ATOM     85  C   UNL A   1      31.270  22.853  25.384  1.00  0.00     0.177 C 
ATOM     86  C   UNL A   1      33.630  23.468  25.006  1.00  0.00     0.094 A 
ATOM     87  C   UNL A   1      31.778  21.434  25.201  1.00  0.00     0.252 C 
ATOM     88  C   UNL A   1      33.946  22.229  25.601  1.00  0.00     0.143 A 
ATOM     89  C   UNL A   1      34.661  24.393  24.813  1.00  0.00     0.031 A 
ATOM     90  O   UNL A   1      33.024  21.246  25.884  1.00  0.00    -0.489 OA
ATOM     91  C   UNL A   1      35.257  21.933  25.983  1.00  0.00     0.049 A 
ATOM     92  C   UNL A   1      35.979  24.078  25.164  1.00  0.00     0.002 A 
ATOM     93  C   UNL A   1      36.276  22.854  25.755  1.00  0.00     0.004 A 
ENDBRANCH  81  84
ENDBRANCH  78  81
ENDBRANCH  71  74
ENDBRANCH  69  70
ENDBRANCH  68  69
ENDBRANCH   1  68
TORSDOF 15
ENDMDL
