MODEL 1
REMARK VINA RESULT:     -12.9      0.000      0.000
REMARK SMILES COc1cc(S(=O)(=O)Nc2cccc(C(=O)NCCCNC(=O)c3ccc(-c4c5nc(c(-c6ccc(S(=O)(=O)[O-])cc6)c6ccc([nH]6)c(-c6ccc(S(=O)(=O)[O-])cc6)c6nc(c(-c7ccc(S(=O)(=O)[O-])cc7)c7ccc4[nH]7)C=C6)C=C5)cc3)c2)c(OC)cc1C
REMARK SMILES IDX 18 1 17 2 15 3 16 4 14 6 10 7 11 8 84 9 12 10 13 11 9 12
REMARK SMILES IDX 6 14 7 15 8 16 5 17 3 18 4 19 89 20 88 21 90 22 85 23 2 24
REMARK SMILES IDX 1 25 86 26 87 27 19 28 20 29 21 30 22 31 23 33 24 34 25 35
REMARK SMILES IDX 83 36 26 37 82 38 27 39 28 40 29 41 76 42 30 43 81 44 75 45
REMARK SMILES IDX 77 46 31 47 80 48 74 49 73 50 32 52 62 53 43 54 61 55 44 56
REMARK SMILES IDX 47 57 60 58 78 59 45 60 46 61 59 63 79 64 48 65 33 66 34 67
REMARK SMILES IDX 42 68 35 69 41 70 36 71 37 72 38 73 39 74 40 75 63 76 64 77
REMARK SMILES IDX 72 78 65 79 71 80 66 81 67 82 68 83 69 84 70 85 49 86 50 87
REMARK SMILES IDX 58 88 51 89 57 90 52 91 53 92 54 93 55 94 56 95
REMARK H PARENT 17 5 9 13 21 32 77 51 47 62
REMARK Flexibility Score: inf
ROOT
ATOM      1  C   UNL A   1      35.795  21.500  25.553  1.00  0.00     0.118 C 
ENDROOT
BRANCH   1   2
ATOM      2  N   UNL A   1      35.122  20.284  25.124  1.00  0.00    -0.352 N 
ATOM      3  C   UNL A   1      33.858  20.101  24.621  1.00  0.00     0.251 C 
ATOM      4  O   UNL A   1      33.550  19.033  24.099  1.00  0.00    -0.269 OA
ATOM      5  H   UNL A   1      35.660  19.463  25.207  1.00  0.00     0.163 HD
BRANCH   3   6
ATOM      6  C   UNL A   1      32.860  21.195  24.625  1.00  0.00     0.041 A 
ATOM      7  C   UNL A   1      31.992  23.164  23.496  1.00  0.00     0.050 A 
ATOM      8  C   UNL A   1      31.059  23.334  24.518  1.00  0.00     0.027 A 
ATOM      9  C   UNL A   1      32.842  22.053  23.520  1.00  0.00     0.040 A 
ATOM     10  C   UNL A   1      31.036  22.442  25.597  1.00  0.00     0.003 A 
ATOM     11  C   UNL A   1      31.940  21.378  25.655  1.00  0.00     0.014 A 
BRANCH   7  12
ATOM     12  N   UNL A   1      32.159  24.066  22.407  1.00  0.00    -0.279 N 
ATOM     13  H   UNL A   1      31.632  23.895  21.594  1.00  0.00     0.180 HD
BRANCH  12  14
ATOM     14  S   UNL A   1      33.178  25.389  22.396  1.00  0.00     0.265 S 
ATOM     15  O   UNL A   1      33.182  25.936  21.052  1.00  0.00    -0.201 OA
ATOM     16  O   UNL A   1      34.418  24.926  22.991  1.00  0.00    -0.201 OA
BRANCH  14  17
ATOM     17  C   UNL A   1      32.583  26.686  23.458  1.00  0.00     0.133 A 
ATOM     18  C   UNL A   1      33.275  28.457  24.969  1.00  0.00     0.123 A 
ATOM     19  C   UNL A   1      33.586  27.345  24.193  1.00  0.00     0.073 A 
ATOM     20  C   UNL A   1      32.005  29.026  24.902  1.00  0.00    -0.005 A 
ATOM     21  C   UNL A   1      30.995  28.313  24.240  1.00  0.00     0.055 A 
ATOM     22  C   UNL A   1      31.668  30.338  25.547  1.00  0.00     0.048 C 
ATOM     23  C   UNL A   1      31.257  27.106  23.571  1.00  0.00     0.139 A 
BRANCH  18  24
ATOM     24  O   UNL A   1      34.270  28.967  25.759  1.00  0.00    -0.496 OA
ATOM     25  C   UNL A   1      34.167  28.448  27.091  1.00  0.00     0.278 C 
ENDBRANCH  18  24
BRANCH  23  26
ATOM     26  O   UNL A   1      30.265  26.301  23.095  1.00  0.00    -0.495 OA
ATOM     27  C   UNL A   1      28.995  26.364  23.737  1.00  0.00     0.278 C 
ENDBRANCH  23  26
ENDBRANCH  14  17
ENDBRANCH  12  14
ENDBRANCH   7  12
ENDBRANCH   3   6
ENDBRANCH   1   2
BRANCH   1  28
ATOM     28  C   UNL A   1      37.273  21.538  25.195  1.00  0.00     0.042 C 
BRANCH  28  29
ATOM     29  C   UNL A   1      37.995  22.753  25.767  1.00  0.00     0.118 C 
BRANCH  29  30
ATOM     30  N   UNL A   1      39.361  22.429  26.167  1.00  0.00    -0.352 N 
ATOM     31  C   UNL A   1      40.356  23.277  26.625  1.00  0.00     0.251 C 
ATOM     32  H   UNL A   1      39.609  21.478  26.102  1.00  0.00     0.163 HD
ATOM     33  O   UNL A   1      41.484  22.888  26.835  1.00  0.00    -0.269 OA
BRANCH  31  34
ATOM     34  C   UNL A   1      39.955  24.664  26.938  1.00  0.00     0.039 A 
ATOM     35  C   UNL A   1      40.542  25.690  26.194  1.00  0.00     0.014 A 
ATOM     36  C   UNL A   1      39.250  24.927  28.108  1.00  0.00     0.014 A 
ATOM     37  C   UNL A   1      40.580  26.978  26.723  1.00  0.00     0.010 A 
ATOM     38  C   UNL A   1      39.380  26.178  28.676  1.00  0.00     0.010 A 
ATOM     39  C   UNL A   1      40.082  27.195  28.007  1.00  0.00    -0.014 A 
BRANCH  39  40
ATOM     40  C   UNL A   1      40.308  28.415  28.774  1.00  0.00     0.031 A 
ATOM     41  C   UNL A   1      39.286  29.489  28.787  1.00  0.00     0.074 A 
ATOM     42  C   UNL A   1      41.403  28.563  29.554  1.00  0.00     0.049 A 
ATOM     43  N   UNL A   1      39.531  30.719  29.100  1.00  0.00    -0.248 NA
ATOM     44  C   UNL A   1      37.906  29.275  28.367  1.00  0.00     0.031 C 
ATOM     45  C   UNL A   1      41.559  29.526  30.644  1.00  0.00     0.029 A 
ATOM     46  N   UNL A   1      42.683  28.031  29.396  1.00  0.00    -0.354 N 
ATOM     47  C   UNL A   1      38.322  31.358  29.245  1.00  0.00     0.074 A 
ATOM     48  C   UNL A   1      37.360  30.459  28.651  1.00  0.00     0.031 C 
ATOM     49  C   UNL A   1      42.867  29.744  30.841  1.00  0.00     0.029 A 
ATOM     50  C   UNL A   1      43.583  29.034  29.798  1.00  0.00     0.049 A 
ATOM     51  H   UNL A   1      42.911  27.132  29.066  1.00  0.00     0.167 HD
ATOM     52  C   UNL A   1      38.249  32.504  29.982  1.00  0.00     0.031 A 
ATOM     53  C   UNL A   1      44.580  29.557  29.025  1.00  0.00     0.031 A 
ATOM     54  C   UNL A   1      39.567  32.968  30.422  1.00  0.00     0.049 A 
ATOM     55  C   UNL A   1      44.551  31.066  28.910  1.00  0.00     0.074 A 
ATOM     56  C   UNL A   1      40.212  33.014  31.648  1.00  0.00     0.029 A 
ATOM     57  N   UNL A   1      40.523  33.300  29.474  1.00  0.00    -0.354 N 
ATOM     58  N   UNL A   1      43.615  31.823  29.409  1.00  0.00    -0.248 NA
ATOM     59  C   UNL A   1      45.512  31.835  28.120  1.00  0.00     0.031 C 
ATOM     60  C   UNL A   1      41.557  33.422  31.431  1.00  0.00     0.029 A 
ATOM     61  C   UNL A   1      41.726  33.622  30.075  1.00  0.00     0.049 A 
ATOM     62  H   UNL A   1      40.366  33.305  28.502  1.00  0.00     0.167 HD
ATOM     63  C   UNL A   1      43.768  33.113  28.962  1.00  0.00     0.074 A 
ATOM     64  C   UNL A   1      44.982  33.070  28.168  1.00  0.00     0.031 C 
ATOM     65  C   UNL A   1      42.837  34.075  29.244  1.00  0.00     0.031 A 
BRANCH  52  66
ATOM     66  C   UNL A   1      36.961  33.096  30.529  1.00  0.00    -0.014 A 
ATOM     67  C   UNL A   1      35.806  33.116  29.716  1.00  0.00     0.010 A 
ATOM     68  C   UNL A   1      36.825  33.707  31.788  1.00  0.00     0.010 A 
ATOM     69  C   UNL A   1      34.634  33.795  30.091  1.00  0.00     0.020 A 
ATOM     70  C   UNL A   1      35.670  34.402  32.173  1.00  0.00     0.020 A 
ATOM     71  C   UNL A   1      34.587  34.464  31.310  1.00  0.00     0.054 A 
BRANCH  71  72
ATOM     72  S   UNL A   1      33.112  35.417  31.748  1.00  0.00     0.124 S 
ATOM     73  O   UNL A   1      32.497  34.585  32.778  1.00  0.00    -0.237 OA
ATOM     74  O   UNL A   1      33.677  36.682  32.209  1.00  0.00    -0.237 OA
ATOM     75  O   UNL A   1      32.365  35.496  30.493  1.00  0.00    -0.744 OA
ENDBRANCH  71  72
ENDBRANCH  52  66
BRANCH  53  76
ATOM     76  C   UNL A   1      45.070  28.639  27.963  1.00  0.00    -0.014 A 
ATOM     77  C   UNL A   1      45.900  27.573  28.365  1.00  0.00     0.010 A 
ATOM     78  C   UNL A   1      44.379  28.552  26.742  1.00  0.00     0.010 A 
ATOM     79  C   UNL A   1      45.885  26.368  27.662  1.00  0.00     0.020 A 
ATOM     80  C   UNL A   1      44.366  27.344  26.034  1.00  0.00     0.020 A 
ATOM     81  C   UNL A   1      45.059  26.242  26.545  1.00  0.00     0.054 A 
BRANCH  81  82
ATOM     82  S   UNL A   1      44.729  24.567  25.920  1.00  0.00     0.124 S 
ATOM     83  O   UNL A   1      43.548  24.769  25.086  1.00  0.00    -0.237 OA
ATOM     84  O   UNL A   1      45.966  24.270  25.198  1.00  0.00    -0.237 OA
ATOM     85  O   UNL A   1      44.517  23.790  27.138  1.00  0.00    -0.744 OA
ENDBRANCH  81  82
ENDBRANCH  53  76
BRANCH  65  86
ATOM     86  C   UNL A   1      42.816  35.512  28.758  1.00  0.00    -0.014 A 
ATOM     87  C   UNL A   1      43.205  36.628  29.512  1.00  0.00     0.010 A 
ATOM     88  C   UNL A   1      42.308  35.784  27.460  1.00  0.00     0.010 A 
ATOM     89  C   UNL A   1      43.159  37.929  28.977  1.00  0.00     0.020 A 
ATOM     90  C   UNL A   1      42.242  37.071  26.920  1.00  0.00     0.020 A 
ATOM     91  C   UNL A   1      42.681  38.141  27.682  1.00  0.00     0.054 A 
BRANCH  91  92
ATOM     92  S   UNL A   1      42.631  39.825  27.019  1.00  0.00     0.124 S 
ATOM     93  O   UNL A   1      43.831  39.865  26.188  1.00  0.00    -0.237 OA
ATOM     94  O   UNL A   1      41.364  39.834  26.292  1.00  0.00    -0.237 OA
ATOM     95  O   UNL A   1      42.668  40.672  28.208  1.00  0.00    -0.744 OA
ENDBRANCH  91  92
ENDBRANCH  65  86
ENDBRANCH  39  40
ENDBRANCH  31  34
ENDBRANCH  29  30
ENDBRANCH  28  29
ENDBRANCH   1  28
TORSDOF 18
ENDMDL
MODEL 2
REMARK VINA RESULT:     -12.4      1.234      1.774
REMARK SMILES COc1cc(S(=O)(=O)Nc2cccc(C(=O)NCCCNC(=O)c3ccc(-c4c5nc(c(-c6ccc(S(=O)(=O)[O-])cc6)c6ccc([nH]6)c(-c6ccc(S(=O)(=O)[O-])cc6)c6nc(c(-c7ccc(S(=O)(=O)[O-])cc7)c7ccc4[nH]7)C=C6)C=C5)cc3)c2)c(OC)cc1C
REMARK SMILES IDX 18 1 17 2 15 3 16 4 14 6 10 7 11 8 84 9 12 10 13 11 9 12
REMARK SMILES IDX 6 14 7 15 8 16 5 17 3 18 4 19 89 20 88 21 90 22 85 23 2 24
REMARK SMILES IDX 1 25 86 26 87 27 19 28 20 29 21 30 22 31 23 33 24 34 25 35
REMARK SMILES IDX 83 36 26 37 82 38 27 39 28 40 29 41 76 42 30 43 81 44 75 45
REMARK SMILES IDX 77 46 31 47 80 48 74 49 73 50 32 52 62 53 43 54 61 55 44 56
REMARK SMILES IDX 47 57 60 58 78 59 45 60 46 61 59 63 79 64 48 65 33 66 34 67
REMARK SMILES IDX 42 68 35 69 41 70 36 71 37 72 38 73 39 74 40 75 63 76 64 77
REMARK SMILES IDX 72 78 65 79 71 80 66 81 67 82 68 83 69 84 70 85 49 86 50 87
REMARK SMILES IDX 58 88 51 89 57 90 52 91 53 92 54 93 55 94 56 95
REMARK H PARENT 17 5 9 13 21 32 77 51 47 62
REMARK Flexibility Score: inf
ROOT
ATOM      1  C   UNL A   1      35.986  21.537  24.603  1.00  0.00     0.118 C 
ENDROOT
BRANCH   1   2
ATOM      2  N   UNL A   1      35.148  20.352  24.692  1.00  0.00    -0.352 N 
ATOM      3  C   UNL A   1      33.867  20.206  25.163  1.00  0.00     0.251 C 
ATOM      4  O   UNL A   1      33.243  19.172  24.943  1.00  0.00    -0.269 OA
ATOM      5  H   UNL A   1      35.566  19.524  24.360  1.00  0.00     0.163 HD
BRANCH   3   6
ATOM      6  C   UNL A   1      33.179  21.304  25.879  1.00  0.00     0.041 A 
ATOM      7  C   UNL A   1      31.526  23.083  25.775  1.00  0.00     0.050 A 
ATOM      8  C   UNL A   1      31.822  23.430  27.092  1.00  0.00     0.027 A 
ATOM      9  C   UNL A   1      32.157  21.975  25.199  1.00  0.00     0.040 A 
ATOM     10  C   UNL A   1      32.804  22.723  27.796  1.00  0.00     0.003 A 
ATOM     11  C   UNL A   1      33.487  21.666  27.189  1.00  0.00     0.014 A 
BRANCH   7  12
ATOM     12  N   UNL A   1      30.615  23.796  24.945  1.00  0.00    -0.279 N 
ATOM     13  H   UNL A   1      30.236  23.316  24.174  1.00  0.00     0.180 HD
BRANCH  12  14
ATOM     14  S   UNL A   1      30.138  25.381  25.172  1.00  0.00     0.265 S 
ATOM     15  O   UNL A   1      29.384  25.445  26.409  1.00  0.00    -0.201 OA
ATOM     16  O   UNL A   1      29.514  25.777  23.924  1.00  0.00    -0.201 OA
BRANCH  14  17
ATOM     17  C   UNL A   1      31.533  26.463  25.385  1.00  0.00     0.133 A 
ATOM     18  C   UNL A   1      32.333  28.420  26.582  1.00  0.00     0.123 A 
ATOM     19  C   UNL A   1      31.295  27.562  26.231  1.00  0.00     0.073 A 
ATOM     20  C   UNL A   1      33.646  28.112  26.229  1.00  0.00    -0.005 A 
ATOM     21  C   UNL A   1      33.859  27.070  25.315  1.00  0.00     0.055 A 
ATOM     22  C   UNL A   1      34.826  28.878  26.749  1.00  0.00     0.048 C 
ATOM     23  C   UNL A   1      32.801  26.281  24.832  1.00  0.00     0.139 A 
BRANCH  18  24
ATOM     24  O   UNL A   1      32.006  29.539  27.298  1.00  0.00    -0.496 OA
ATOM     25  C   UNL A   1      31.493  30.557  26.430  1.00  0.00     0.278 C 
ENDBRANCH  18  24
BRANCH  23  26
ATOM     26  O   UNL A   1      32.954  25.401  23.802  1.00  0.00    -0.495 OA
ATOM     27  C   UNL A   1      33.054  25.933  22.484  1.00  0.00     0.278 C 
ENDBRANCH  23  26
ENDBRANCH  14  17
ENDBRANCH  12  14
ENDBRANCH   7  12
ENDBRANCH   3   6
ENDBRANCH   1   2
BRANCH   1  28
ATOM     28  C   UNL A   1      36.984  21.665  25.745  1.00  0.00     0.042 C 
BRANCH  28  29
ATOM     29  C   UNL A   1      38.110  22.648  25.446  1.00  0.00     0.118 C 
BRANCH  29  30
ATOM     30  N   UNL A   1      39.372  22.220  26.042  1.00  0.00    -0.352 N 
ATOM     31  C   UNL A   1      40.331  22.983  26.688  1.00  0.00     0.251 C 
ATOM     32  H   UNL A   1      39.568  21.257  25.977  1.00  0.00     0.163 HD
ATOM     33  O   UNL A   1      41.385  22.512  27.056  1.00  0.00    -0.269 OA
BRANCH  31  34
ATOM     34  C   UNL A   1      39.971  24.383  26.992  1.00  0.00     0.039 A 
ATOM     35  C   UNL A   1      40.739  25.391  26.403  1.00  0.00     0.014 A 
ATOM     36  C   UNL A   1      39.098  24.655  28.039  1.00  0.00     0.014 A 
ATOM     37  C   UNL A   1      40.768  26.654  26.989  1.00  0.00     0.010 A 
ATOM     38  C   UNL A   1      39.208  25.874  28.677  1.00  0.00     0.010 A 
ATOM     39  C   UNL A   1      40.076  26.861  28.181  1.00  0.00    -0.014 A 
BRANCH  39  40
ATOM     40  C   UNL A   1      40.246  28.036  29.029  1.00  0.00     0.031 A 
ATOM     41  C   UNL A   1      39.295  29.169  28.936  1.00  0.00     0.074 A 
ATOM     42  C   UNL A   1      41.213  28.088  29.974  1.00  0.00     0.049 A 
ATOM     43  N   UNL A   1      39.555  30.369  29.339  1.00  0.00    -0.248 NA
ATOM     44  C   UNL A   1      37.987  29.055  28.300  1.00  0.00     0.031 C 
ATOM     45  C   UNL A   1      41.250  28.998  31.118  1.00  0.00     0.029 A 
ATOM     46  N   UNL A   1      42.471  27.485  29.988  1.00  0.00    -0.354 N 
ATOM     47  C   UNL A   1      38.375  31.074  29.327  1.00  0.00     0.074 A 
ATOM     48  C   UNL A   1      37.469  30.259  28.552  1.00  0.00     0.031 C 
ATOM     49  C   UNL A   1      42.521  29.128  31.522  1.00  0.00     0.029 A 
ATOM     50  C   UNL A   1      43.351  28.416  30.570  1.00  0.00     0.049 A 
ATOM     51  H   UNL A   1      42.698  26.586  29.656  1.00  0.00     0.167 HD
ATOM     52  C   UNL A   1      38.251  32.194  30.096  1.00  0.00     0.031 A 
ATOM     53  C   UNL A   1      44.483  28.905  29.983  1.00  0.00     0.031 A 
ATOM     54  C   UNL A   1      39.507  32.561  30.755  1.00  0.00     0.049 A 
ATOM     55  C   UNL A   1      44.554  30.417  29.935  1.00  0.00     0.074 A 
ATOM     56  C   UNL A   1      39.956  32.522  32.065  1.00  0.00     0.029 A 
ATOM     57  N   UNL A   1      40.616  32.869  29.980  1.00  0.00    -0.354 N 
ATOM     58  N   UNL A   1      43.595  31.210  30.320  1.00  0.00    -0.248 NA
ATOM     59  C   UNL A   1      45.667  31.154  29.338  1.00  0.00     0.031 C 
ATOM     60  C   UNL A   1      41.338  32.854  32.075  1.00  0.00     0.029 A 
ATOM     61  C   UNL A   1      41.726  33.095  30.772  1.00  0.00     0.049 A 
ATOM     62  H   UNL A   1      40.612  32.920  28.997  1.00  0.00     0.167 HD
ATOM     63  C   UNL A   1      43.885  32.504  29.962  1.00  0.00     0.074 A 
ATOM     64  C   UNL A   1      45.204  32.416  29.362  1.00  0.00     0.031 C 
ATOM     65  C   UNL A   1      42.976  33.509  30.143  1.00  0.00     0.031 A 
BRANCH  52  66
ATOM     66  C   UNL A   1      36.927  32.843  30.467  1.00  0.00    -0.014 A 
ATOM     67  C   UNL A   1      36.213  33.572  29.489  1.00  0.00     0.010 A 
ATOM     68  C   UNL A   1      36.361  32.842  31.754  1.00  0.00     0.010 A 
ATOM     69  C   UNL A   1      35.076  34.334  29.802  1.00  0.00     0.020 A 
ATOM     70  C   UNL A   1      35.236  33.610  32.088  1.00  0.00     0.020 A 
ATOM     71  C   UNL A   1      34.612  34.373  31.113  1.00  0.00     0.054 A 
BRANCH  71  72
ATOM     72  S   UNL A   1      33.205  35.431  31.531  1.00  0.00     0.124 S 
ATOM     73  O   UNL A   1      32.585  34.706  32.636  1.00  0.00    -0.237 OA
ATOM     74  O   UNL A   1      33.850  36.692  31.885  1.00  0.00    -0.237 OA
ATOM     75  O   UNL A   1      32.418  35.464  30.299  1.00  0.00    -0.744 OA
ENDBRANCH  71  72
ENDBRANCH  52  66
BRANCH  53  76
ATOM     76  C   UNL A   1      45.082  27.999  28.967  1.00  0.00    -0.014 A 
ATOM     77  C   UNL A   1      45.795  26.880  29.442  1.00  0.00     0.010 A 
ATOM     78  C   UNL A   1      44.573  27.989  27.657  1.00  0.00     0.010 A 
ATOM     79  C   UNL A   1      45.828  25.701  28.696  1.00  0.00     0.020 A 
ATOM     80  C   UNL A   1      44.610  26.806  26.907  1.00  0.00     0.020 A 
ATOM     81  C   UNL A   1      45.170  25.654  27.467  1.00  0.00     0.054 A 
BRANCH  81  82
ATOM     82  S   UNL A   1      44.860  24.020  26.734  1.00  0.00     0.124 S 
ATOM     83  O   UNL A   1      43.740  24.285  25.836  1.00  0.00    -0.237 OA
ATOM     84  O   UNL A   1      46.138  23.740  26.081  1.00  0.00    -0.237 OA
ATOM     85  O   UNL A   1      44.556  23.184  27.892  1.00  0.00    -0.744 OA
ENDBRANCH  81  82
ENDBRANCH  53  76
BRANCH  65  86
ATOM     86  C   UNL A   1      43.109  34.963  29.726  1.00  0.00    -0.014 A 
ATOM     87  C   UNL A   1      43.701  35.974  30.496  1.00  0.00     0.010 A 
ATOM     88  C   UNL A   1      42.543  35.370  28.489  1.00  0.00     0.010 A 
ATOM     89  C   UNL A   1      43.787  37.299  30.026  1.00  0.00     0.020 A 
ATOM     90  C   UNL A   1      42.607  36.684  28.016  1.00  0.00     0.020 A 
ATOM     91  C   UNL A   1      43.243  37.643  28.787  1.00  0.00     0.054 A 
BRANCH  91  92
ATOM     92  S   UNL A   1      43.366  39.354  28.209  1.00  0.00     0.124 S 
ATOM     93  O   UNL A   1      43.663  39.179  26.789  1.00  0.00    -0.237 OA
ATOM     94  O   UNL A   1      42.037  39.880  28.511  1.00  0.00    -0.237 OA
ATOM     95  O   UNL A   1      44.451  39.918  29.006  1.00  0.00    -0.744 OA
ENDBRANCH  91  92
ENDBRANCH  65  86
ENDBRANCH  39  40
ENDBRANCH  31  34
ENDBRANCH  29  30
ENDBRANCH  28  29
ENDBRANCH   1  28
TORSDOF 18
ENDMDL
MODEL 3
REMARK VINA RESULT:     -11.4      1.907      2.780
REMARK SMILES COc1cc(S(=O)(=O)Nc2cccc(C(=O)NCCCNC(=O)c3ccc(-c4c5nc(c(-c6ccc(S(=O)(=O)[O-])cc6)c6ccc([nH]6)c(-c6ccc(S(=O)(=O)[O-])cc6)c6nc(c(-c7ccc(S(=O)(=O)[O-])cc7)c7ccc4[nH]7)C=C6)C=C5)cc3)c2)c(OC)cc1C
REMARK SMILES IDX 18 1 17 2 15 3 16 4 14 6 10 7 11 8 84 9 12 10 13 11 9 12
REMARK SMILES IDX 6 14 7 15 8 16 5 17 3 18 4 19 89 20 88 21 90 22 85 23 2 24
REMARK SMILES IDX 1 25 86 26 87 27 19 28 20 29 21 30 22 31 23 33 24 34 25 35
REMARK SMILES IDX 83 36 26 37 82 38 27 39 28 40 29 41 76 42 30 43 81 44 75 45
REMARK SMILES IDX 77 46 31 47 80 48 74 49 73 50 32 52 62 53 43 54 61 55 44 56
REMARK SMILES IDX 47 57 60 58 78 59 45 60 46 61 59 63 79 64 48 65 33 66 34 67
REMARK SMILES IDX 42 68 35 69 41 70 36 71 37 72 38 73 39 74 40 75 63 76 64 77
REMARK SMILES IDX 72 78 65 79 71 80 66 81 67 82 68 83 69 84 70 85 49 86 50 87
REMARK SMILES IDX 58 88 51 89 57 90 52 91 53 92 54 93 55 94 56 95
REMARK H PARENT 17 5 9 13 21 32 77 51 47 62
REMARK Flexibility Score: inf
ROOT
ATOM      1  C   UNL A   1      38.088  21.937  25.836  1.00  0.00     0.118 C 
ENDROOT
BRANCH   1   2
ATOM      2  N   UNL A   1      37.708  22.282  24.475  1.00  0.00    -0.352 N 
ATOM      3  C   UNL A   1      36.468  22.335  23.889  1.00  0.00     0.251 C 
ATOM      4  O   UNL A   1      36.327  22.871  22.793  1.00  0.00    -0.269 OA
ATOM      5  H   UNL A   1      38.459  22.514  23.882  1.00  0.00     0.163 HD
BRANCH   3   6
ATOM      6  C   UNL A   1      35.264  21.822  24.581  1.00  0.00     0.041 A 
ATOM      7  C   UNL A   1      33.300  22.348  25.912  1.00  0.00     0.050 A 
ATOM      8  C   UNL A   1      32.975  20.994  25.961  1.00  0.00     0.027 A 
ATOM      9  C   UNL A   1      34.406  22.762  25.161  1.00  0.00     0.040 A 
ATOM     10  C   UNL A   1      33.801  20.055  25.332  1.00  0.00     0.003 A 
ATOM     11  C   UNL A   1      34.948  20.467  24.649  1.00  0.00     0.014 A 
BRANCH   7  12
ATOM     12  N   UNL A   1      32.580  23.369  26.595  1.00  0.00    -0.279 N 
ATOM     13  H   UNL A   1      32.670  23.407  27.575  1.00  0.00     0.180 HD
BRANCH  12  14
ATOM     14  S   UNL A   1      31.595  24.507  25.871  1.00  0.00     0.265 S 
ATOM     15  O   UNL A   1      30.921  25.245  26.923  1.00  0.00    -0.201 OA
ATOM     16  O   UNL A   1      30.817  23.774  24.890  1.00  0.00    -0.201 OA
BRANCH  14  17
ATOM     17  C   UNL A   1      32.537  25.703  24.952  1.00  0.00     0.133 A 
ATOM     18  C   UNL A   1      33.383  26.257  22.744  1.00  0.00     0.123 A 
ATOM     19  C   UNL A   1      32.766  25.357  23.607  1.00  0.00     0.073 A 
ATOM     20  C   UNL A   1      33.637  27.564  23.156  1.00  0.00    -0.005 A 
ATOM     21  C   UNL A   1      33.488  27.869  24.517  1.00  0.00     0.055 A 
ATOM     22  C   UNL A   1      34.106  28.635  22.217  1.00  0.00     0.048 C 
ATOM     23  C   UNL A   1      33.004  26.925  25.439  1.00  0.00     0.139 A 
BRANCH  18  24
ATOM     24  O   UNL A   1      33.693  25.808  21.489  1.00  0.00    -0.496 OA
ATOM     25  C   UNL A   1      32.505  25.670  20.699  1.00  0.00     0.278 C 
ENDBRANCH  18  24
BRANCH  23  26
ATOM     26  O   UNL A   1      33.038  27.132  26.786  1.00  0.00    -0.495 OA
ATOM     27  C   UNL A   1      33.252  28.462  27.248  1.00  0.00     0.278 C 
ENDBRANCH  23  26
ENDBRANCH  14  17
ENDBRANCH  12  14
ENDBRANCH   7  12
ENDBRANCH   3   6
ENDBRANCH   1   2
BRANCH   1  28
ATOM     28  C   UNL A   1      39.234  22.778  26.381  1.00  0.00     0.042 C 
BRANCH  28  29
ATOM     29  C   UNL A   1      40.465  21.952  26.733  1.00  0.00     0.118 C 
BRANCH  29  30
ATOM     30  N   UNL A   1      41.615  22.322  25.914  1.00  0.00    -0.352 N 
ATOM     31  C   UNL A   1      42.162  23.576  25.700  1.00  0.00     0.251 C 
ATOM     32  H   UNL A   1      42.064  21.577  25.451  1.00  0.00     0.163 HD
ATOM     33  O   UNL A   1      43.069  23.755  24.916  1.00  0.00    -0.269 OA
BRANCH  31  34
ATOM     34  C   UNL A   1      41.652  24.676  26.543  1.00  0.00     0.039 A 
ATOM     35  C   UNL A   1      41.255  25.852  25.902  1.00  0.00     0.014 A 
ATOM     36  C   UNL A   1      41.838  24.627  27.920  1.00  0.00     0.014 A 
ATOM     37  C   UNL A   1      41.221  27.043  26.625  1.00  0.00     0.010 A 
ATOM     38  C   UNL A   1      41.904  25.822  28.609  1.00  0.00     0.010 A 
ATOM     39  C   UNL A   1      41.640  27.037  27.955  1.00  0.00    -0.014 A 
BRANCH  39  40
ATOM     40  C   UNL A   1      41.911  28.243  28.729  1.00  0.00     0.031 A 
ATOM     41  C   UNL A   1      40.806  29.161  29.092  1.00  0.00     0.074 A 
ATOM     42  C   UNL A   1      43.149  28.510  29.206  1.00  0.00     0.049 A 
ATOM     43  N   UNL A   1      40.971  30.399  29.426  1.00  0.00    -0.248 NA
ATOM     44  C   UNL A   1      39.401  28.774  29.032  1.00  0.00     0.031 C 
ATOM     45  C   UNL A   1      43.472  29.438  30.288  1.00  0.00     0.029 A 
ATOM     46  N   UNL A   1      44.394  28.170  28.677  1.00  0.00    -0.354 N 
ATOM     47  C   UNL A   1      39.777  30.855  29.931  1.00  0.00     0.074 A 
ATOM     48  C   UNL A   1      38.809  29.857  29.541  1.00  0.00     0.031 C 
ATOM     49  C   UNL A   1      44.747  29.828  30.154  1.00  0.00     0.029 A 
ATOM     50  C   UNL A   1      45.238  29.271  28.908  1.00  0.00     0.049 A 
ATOM     51  H   UNL A   1      44.634  27.326  28.230  1.00  0.00     0.167 HD
ATOM     52  C   UNL A   1      39.764  31.947  30.749  1.00  0.00     0.031 A 
ATOM     53  C   UNL A   1      45.917  29.961  27.945  1.00  0.00     0.031 A 
ATOM     54  C   UNL A   1      41.084  32.573  30.866  1.00  0.00     0.049 A 
ATOM     55  C   UNL A   1      45.672  31.455  27.960  1.00  0.00     0.074 A 
ATOM     56  C   UNL A   1      42.024  32.657  31.880  1.00  0.00     0.029 A 
ATOM     57  N   UNL A   1      41.700  33.075  29.730  1.00  0.00    -0.354 N 
ATOM     58  N   UNL A   1      44.819  32.051  28.744  1.00  0.00    -0.248 NA
ATOM     59  C   UNL A   1      46.281  32.383  27.010  1.00  0.00     0.031 C 
ATOM     60  C   UNL A   1      43.199  33.257  31.352  1.00  0.00     0.029 A 
ATOM     61  C   UNL A   1      42.971  33.537  30.019  1.00  0.00     0.049 A 
ATOM     62  H   UNL A   1      41.288  33.100  28.836  1.00  0.00     0.167 HD
ATOM     63  C   UNL A   1      44.684  33.367  28.375  1.00  0.00     0.074 A 
ATOM     64  C   UNL A   1      45.636  33.529  27.291  1.00  0.00     0.031 C 
ATOM     65  C   UNL A   1      43.752  34.176  28.965  1.00  0.00     0.031 A 
BRANCH  52  66
ATOM     66  C   UNL A   1      38.607  32.329  31.658  1.00  0.00    -0.014 A 
ATOM     67  C   UNL A   1      37.372  32.709  31.088  1.00  0.00     0.010 A 
ATOM     68  C   UNL A   1      38.675  32.407  33.061  1.00  0.00     0.010 A 
ATOM     69  C   UNL A   1      36.319  33.233  31.856  1.00  0.00     0.020 A 
ATOM     70  C   UNL A   1      37.641  32.942  33.842  1.00  0.00     0.020 A 
ATOM     71  C   UNL A   1      36.474  33.376  33.231  1.00  0.00     0.054 A 
BRANCH  71  72
ATOM     72  S   UNL A   1      35.154  34.140  34.204  1.00  0.00     0.124 S 
ATOM     73  O   UNL A   1      33.964  33.452  33.712  1.00  0.00    -0.237 OA
ATOM     74  O   UNL A   1      35.546  33.824  35.574  1.00  0.00    -0.237 OA
ATOM     75  O   UNL A   1      35.236  35.557  33.848  1.00  0.00    -0.744 OA
ENDBRANCH  71  72
ENDBRANCH  52  66
BRANCH  53  76
ATOM     76  C   UNL A   1      46.213  29.167  26.723  1.00  0.00    -0.014 A 
ATOM     77  C   UNL A   1      47.543  28.733  26.542  1.00  0.00     0.010 A 
ATOM     78  C   UNL A   1      45.173  28.496  26.058  1.00  0.00     0.010 A 
ATOM     79  C   UNL A   1      47.806  27.538  25.873  1.00  0.00     0.020 A 
ATOM     80  C   UNL A   1      45.437  27.297  25.383  1.00  0.00     0.020 A 
ATOM     81  C   UNL A   1      46.742  26.793  25.364  1.00  0.00     0.054 A 
BRANCH  81  82
ATOM     82  S   UNL A   1      47.063  25.067  24.896  1.00  0.00     0.124 S 
ATOM     83  O   UNL A   1      47.640  24.511  26.116  1.00  0.00    -0.237 OA
ATOM     84  O   UNL A   1      45.719  24.595  24.563  1.00  0.00    -0.237 OA
ATOM     85  O   UNL A   1      47.977  25.190  23.764  1.00  0.00    -0.744 OA
ENDBRANCH  81  82
ENDBRANCH  53  76
BRANCH  65  86
ATOM     86  C   UNL A   1      43.423  35.616  28.616  1.00  0.00    -0.014 A 
ATOM     87  C   UNL A   1      43.836  36.740  29.344  1.00  0.00     0.010 A 
ATOM     88  C   UNL A   1      42.581  35.870  27.501  1.00  0.00     0.010 A 
ATOM     89  C   UNL A   1      43.488  38.044  28.942  1.00  0.00     0.020 A 
ATOM     90  C   UNL A   1      42.215  37.157  27.098  1.00  0.00     0.020 A 
ATOM     91  C   UNL A   1      42.683  38.243  27.819  1.00  0.00     0.054 A 
BRANCH  91  92
ATOM     92  S   UNL A   1      42.251  39.930  27.325  1.00  0.00     0.124 S 
ATOM     93  O   UNL A   1      41.666  39.724  26.003  1.00  0.00    -0.237 OA
ATOM     94  O   UNL A   1      41.311  40.328  28.371  1.00  0.00    -0.237 OA
ATOM     95  O   UNL A   1      43.527  40.640  27.338  1.00  0.00    -0.744 OA
ENDBRANCH  91  92
ENDBRANCH  65  86
ENDBRANCH  39  40
ENDBRANCH  31  34
ENDBRANCH  29  30
ENDBRANCH  28  29
ENDBRANCH   1  28
TORSDOF 18
ENDMDL
