MODEL 1
REMARK VINA RESULT:     -12.2      0.000      0.000
REMARK SMILES C[N@H+]1[C@H](C(=O)NCCCNC(=O)c2ccc(-c3c4nc(c(-c5ccc(S(=O)(=O)[O-])cc5)c5ccc([nH]5)c(-c5ccc(S(=O)(=O)[O-])cc5)c5nc(c(-c6ccc(S(=O)(=O)[O-])cc6)c6ccc3[nH]6)C=C5)C=C4)cc2)C[C@H](C(=O)NCC2(CO)CCCC2)[C@@H]1c1ccccc1F
REMARK SMILES IDX 7 1 6 2 4 3 5 4 3 6 1 7 2 8 86 9 73 11 74 12 87 13 88 14
REMARK SMILES IDX 92 15 89 16 91 17 93 18 90 19 75 20 76 21 77 22 78 24 79 25
REMARK SMILES IDX 82 26 85 27 83 28 84 29 80 30 81 31 8 33 9 34 10 35 11 36
REMARK SMILES IDX 12 38 13 39 14 40 72 41 15 42 71 43 16 44 17 45 18 46 65 47
REMARK SMILES IDX 19 48 70 49 64 50 66 51 20 52 69 53 63 54 62 55 21 57 51 58
REMARK SMILES IDX 32 59 50 60 33 61 36 62 49 63 67 64 34 65 35 66 48 68 68 69
REMARK SMILES IDX 37 70 22 71 23 72 31 73 24 74 30 75 25 76 26 77 27 78 28 79
REMARK SMILES IDX 29 80 52 81 53 82 61 83 54 84 60 85 55 86 56 87 57 88 58 89
REMARK SMILES IDX 59 90 38 91 39 92 47 93 40 94 46 95 41 96 42 97 43 98 44 99
REMARK SMILES IDX 45 100
REMARK H PARENT 6 5 2 10 77 23 81 32 10 37 66 56 36 67
REMARK Flexibility Score: inf
ROOT
ATOM      1  C   UNL A   1      34.669  23.742  23.707  1.00  0.00     0.118 C 
ENDROOT
BRANCH   1   2
ATOM      2  N   UNL A   1      33.920  22.561  23.337  1.00  0.00    -0.351 N 
ATOM      3  C   UNL A   1      32.648  22.213  23.688  1.00  0.00     0.278 C 
ATOM      4  O   UNL A   1      32.198  21.154  23.237  1.00  0.00    -0.268 OA
ATOM      5  H   UNL A   1      34.392  21.921  22.756  1.00  0.00     0.163 HD
BRANCH   3   6
ATOM      6  C   UNL A   1      31.759  23.124  24.558  1.00  0.00     0.275 C 
ATOM      7  C   UNL A   1      33.056  23.442  26.572  1.00  0.00     0.333 C 
ATOM      8  N   UNL A   1      32.541  24.085  25.363  1.00  0.00    -0.320 N 
ATOM      9  C   UNL A   1      31.631  25.221  25.625  1.00  0.00     0.231 C 
ATOM     10  H   UNL A   1      33.373  24.423  24.880  1.00  0.00     0.349 HD
ATOM     11  C   UNL A   1      30.767  23.958  23.755  1.00  0.00     0.095 C 
ATOM     12  C   UNL A   1      30.866  25.401  24.286  1.00  0.00     0.148 C 
BRANCH   9  13
ATOM     13  C   UNL A   1      32.201  26.502  26.201  1.00  0.00     0.046 A 
ATOM     14  C   UNL A   1      31.316  27.384  26.855  1.00  0.00     0.013 A 
ATOM     15  C   UNL A   1      33.528  26.925  26.034  1.00  0.00     0.132 A 
ATOM     16  C   UNL A   1      31.737  28.644  27.290  1.00  0.00     0.001 A 
ATOM     17  C   UNL A   1      33.955  28.174  26.482  1.00  0.00     0.040 A 
ATOM     18  F   UNL A   1      34.429  26.156  25.408  1.00  0.00    -0.206 F 
ATOM     19  C   UNL A   1      33.057  29.042  27.098  1.00  0.00     0.003 A 
ENDBRANCH   9  13
BRANCH  12  20
ATOM     20  C   UNL A   1      31.481  26.381  23.260  1.00  0.00     0.229 C 
ATOM     21  O   UNL A   1      32.626  26.305  22.822  1.00  0.00    -0.275 OA
ATOM     22  N   UNL A   1      30.745  27.431  22.800  1.00  0.00    -0.355 N 
ATOM     23  H   UNL A   1      31.179  27.962  22.094  1.00  0.00     0.163 HD
BRANCH  22  24
ATOM     24  C   UNL A   1      29.431  27.893  23.183  1.00  0.00     0.125 C 
BRANCH  24  25
ATOM     25  C   UNL A   1      29.238  29.397  22.934  1.00  0.00     0.011 C 
ATOM     26  C   UNL A   1      27.750  29.756  23.082  1.00  0.00     0.011 C 
ATOM     27  C   UNL A   1      29.871  30.257  24.044  1.00  0.00     0.011 C 
ATOM     28  C   UNL A   1      27.728  31.242  23.406  1.00  0.00     0.001 C 
ATOM     29  C   UNL A   1      29.077  31.558  24.048  1.00  0.00     0.001 C 
BRANCH  25  30
ATOM     30  C   UNL A   1      29.760  29.786  21.534  1.00  0.00     0.164 C 
BRANCH  30  31
ATOM     31  O   UNL A   1      31.165  30.005  21.542  1.00  0.00    -0.396 OA
ATOM     32  H   UNL A   1      31.595  29.323  22.082  1.00  0.00     0.210 HD
ENDBRANCH  30  31
ENDBRANCH  25  30
ENDBRANCH  24  25
ENDBRANCH  22  24
ENDBRANCH  12  20
ENDBRANCH   3   6
ENDBRANCH   1   2
BRANCH   1  33
ATOM     33  C   UNL A   1      36.169  23.542  23.732  1.00  0.00     0.042 C 
BRANCH  33  34
ATOM     34  C   UNL A   1      36.769  23.705  25.115  1.00  0.00     0.118 C 
BRANCH  34  35
ATOM     35  N   UNL A   1      37.837  22.747  25.389  1.00  0.00    -0.352 N 
ATOM     36  C   UNL A   1      39.032  22.927  26.040  1.00  0.00     0.251 C 
ATOM     37  H   UNL A   1      37.676  21.835  25.056  1.00  0.00     0.163 HD
ATOM     38  O   UNL A   1      39.876  22.033  26.031  1.00  0.00    -0.269 OA
BRANCH  36  39
ATOM     39  C   UNL A   1      39.309  24.204  26.730  1.00  0.00     0.039 A 
ATOM     40  C   UNL A   1      38.837  24.391  28.033  1.00  0.00     0.014 A 
ATOM     41  C   UNL A   1      40.048  25.207  26.101  1.00  0.00     0.014 A 
ATOM     42  C   UNL A   1      39.179  25.553  28.728  1.00  0.00     0.010 A 
ATOM     43  C   UNL A   1      40.472  26.311  26.828  1.00  0.00     0.010 A 
ATOM     44  C   UNL A   1      40.036  26.500  28.148  1.00  0.00    -0.014 A 
BRANCH  44  45
ATOM     45  C   UNL A   1      40.484  27.708  28.886  1.00  0.00     0.031 A 
ATOM     46  C   UNL A   1      41.823  27.709  29.573  1.00  0.00     0.074 A 
ATOM     47  C   UNL A   1      39.662  28.770  29.000  1.00  0.00     0.049 A 
ATOM     48  N   UNL A   1      42.351  28.617  30.353  1.00  0.00    -0.248 NA
ATOM     49  C   UNL A   1      42.670  26.518  29.383  1.00  0.00     0.031 C 
ATOM     50  C   UNL A   1      38.324  28.877  28.412  1.00  0.00     0.029 A 
ATOM     51  N   UNL A   1      39.826  29.960  29.663  1.00  0.00    -0.354 N 
ATOM     52  C   UNL A   1      43.578  28.103  30.755  1.00  0.00     0.074 A 
ATOM     53  C   UNL A   1      43.692  26.780  30.185  1.00  0.00     0.031 C 
ATOM     54  C   UNL A   1      37.802  30.076  28.717  1.00  0.00     0.029 A 
ATOM     55  C   UNL A   1      38.743  30.803  29.563  1.00  0.00     0.049 A 
ATOM     56  H   UNL A   1      40.642  30.189  30.163  1.00  0.00     0.167 HD
ATOM     57  C   UNL A   1      44.539  28.689  31.509  1.00  0.00     0.031 A 
ATOM     58  C   UNL A   1      38.527  32.019  30.102  1.00  0.00     0.031 A 
ATOM     59  C   UNL A   1      44.426  30.009  32.067  1.00  0.00     0.049 A 
ATOM     60  C   UNL A   1      39.597  32.637  30.962  1.00  0.00     0.074 A 
ATOM     61  C   UNL A   1      45.356  30.708  32.817  1.00  0.00     0.029 A 
ATOM     62  N   UNL A   1      43.319  30.834  31.930  1.00  0.00    -0.354 N 
ATOM     63  N   UNL A   1      40.773  32.155  31.290  1.00  0.00    -0.248 NA
ATOM     64  C   UNL A   1      39.316  33.969  31.515  1.00  0.00     0.031 C 
ATOM     65  C   UNL A   1      44.793  31.937  33.172  1.00  0.00     0.029 A 
ATOM     66  C   UNL A   1      43.537  32.029  32.594  1.00  0.00     0.049 A 
ATOM     67  H   UNL A   1      42.500  30.603  31.435  1.00  0.00     0.167 HD
ATOM     68  C   UNL A   1      41.385  33.139  32.059  1.00  0.00     0.074 A 
ATOM     69  C   UNL A   1      40.455  34.247  32.138  1.00  0.00     0.031 C 
ATOM     70  C   UNL A   1      42.605  33.127  32.648  1.00  0.00     0.031 A 
BRANCH  57  71
ATOM     71  C   UNL A   1      45.798  27.904  31.763  1.00  0.00    -0.014 A 
ATOM     72  C   UNL A   1      46.898  28.002  30.890  1.00  0.00     0.010 A 
ATOM     73  C   UNL A   1      45.903  27.089  32.904  1.00  0.00     0.010 A 
ATOM     74  C   UNL A   1      48.062  27.269  31.131  1.00  0.00     0.020 A 
ATOM     75  C   UNL A   1      47.078  26.379  33.166  1.00  0.00     0.020 A 
ATOM     76  C   UNL A   1      48.144  26.460  32.268  1.00  0.00     0.054 A 
BRANCH  76  77
ATOM     77  S   UNL A   1      49.680  25.544  32.570  1.00  0.00     0.124 S 
ATOM     78  O   UNL A   1      50.554  26.588  33.100  1.00  0.00    -0.237 OA
ATOM     79  O   UNL A   1      49.263  24.527  33.531  1.00  0.00    -0.237 OA
ATOM     80  O   UNL A   1      50.047  25.037  31.249  1.00  0.00    -0.744 OA
ENDBRANCH  76  77
ENDBRANCH  57  71
BRANCH  58  81
ATOM     81  C   UNL A   1      37.248  32.738  29.846  1.00  0.00    -0.014 A 
ATOM     82  C   UNL A   1      36.205  32.699  30.790  1.00  0.00     0.010 A 
ATOM     83  C   UNL A   1      37.058  33.455  28.651  1.00  0.00     0.010 A 
ATOM     84  C   UNL A   1      34.988  33.333  30.529  1.00  0.00     0.020 A 
ATOM     85  C   UNL A   1      35.853  34.118  28.399  1.00  0.00     0.020 A 
ATOM     86  C   UNL A   1      34.818  34.037  29.333  1.00  0.00     0.054 A 
BRANCH  86  87
ATOM     87  S   UNL A   1      33.235  34.870  29.024  1.00  0.00     0.124 S 
ATOM     88  O   UNL A   1      32.632  34.010  28.012  1.00  0.00    -0.237 OA
ATOM     89  O   UNL A   1      32.600  34.841  30.340  1.00  0.00    -0.237 OA
ATOM     90  O   UNL A   1      33.633  36.198  28.563  1.00  0.00    -0.744 OA
ENDBRANCH  86  87
ENDBRANCH  58  81
BRANCH  70  91
ATOM     91  C   UNL A   1      43.033  34.367  33.388  1.00  0.00    -0.014 A 
ATOM     92  C   UNL A   1      42.886  34.477  34.780  1.00  0.00     0.010 A 
ATOM     93  C   UNL A   1      43.653  35.412  32.678  1.00  0.00     0.010 A 
ATOM     94  C   UNL A   1      43.328  35.622  35.449  1.00  0.00     0.020 A 
ATOM     95  C   UNL A   1      44.122  36.546  33.346  1.00  0.00     0.020 A 
ATOM     96  C   UNL A   1      43.945  36.649  34.726  1.00  0.00     0.054 A 
BRANCH  96  97
ATOM     97  S   UNL A   1      44.559  38.100  35.624  1.00  0.00     0.124 S 
ATOM     98  O   UNL A   1      43.821  38.014  36.881  1.00  0.00    -0.237 OA
ATOM     99  O   UNL A   1      45.993  37.836  35.717  1.00  0.00    -0.237 OA
ATOM    100  O   UNL A   1      44.193  39.222  34.762  1.00  0.00    -0.744 OA
ENDBRANCH  96  97
ENDBRANCH  70  91
ENDBRANCH  44  45
ENDBRANCH  36  39
ENDBRANCH  34  35
ENDBRANCH  33  34
ENDBRANCH   1  33
TORSDOF 19
ENDMDL
MODEL 2
REMARK VINA RESULT:     -12.1      2.754      9.462
REMARK SMILES C[N@H+]1[C@H](C(=O)NCCCNC(=O)c2ccc(-c3c4nc(c(-c5ccc(S(=O)(=O)[O-])cc5)c5ccc([nH]5)c(-c5ccc(S(=O)(=O)[O-])cc5)c5nc(c(-c6ccc(S(=O)(=O)[O-])cc6)c6ccc3[nH]6)C=C5)C=C4)cc2)C[C@H](C(=O)NCC2(CO)CCCC2)[C@@H]1c1ccccc1F
REMARK SMILES IDX 7 1 6 2 4 3 5 4 3 6 1 7 2 8 86 9 73 11 74 12 87 13 88 14
REMARK SMILES IDX 92 15 89 16 91 17 93 18 90 19 75 20 76 21 77 22 78 24 79 25
REMARK SMILES IDX 82 26 85 27 83 28 84 29 80 30 81 31 8 33 9 34 10 35 11 36
REMARK SMILES IDX 12 38 13 39 14 40 72 41 15 42 71 43 16 44 17 45 18 46 65 47
REMARK SMILES IDX 19 48 70 49 64 50 66 51 20 52 69 53 63 54 62 55 21 57 51 58
REMARK SMILES IDX 32 59 50 60 33 61 36 62 49 63 67 64 34 65 35 66 48 68 68 69
REMARK SMILES IDX 37 70 22 71 23 72 31 73 24 74 30 75 25 76 26 77 27 78 28 79
REMARK SMILES IDX 29 80 52 81 53 82 61 83 54 84 60 85 55 86 56 87 57 88 58 89
REMARK SMILES IDX 59 90 38 91 39 92 47 93 40 94 46 95 41 96 42 97 43 98 44 99
REMARK SMILES IDX 45 100
REMARK H PARENT 6 5 2 10 77 23 81 32 10 37 66 56 36 67
REMARK Flexibility Score: inf
ROOT
ATOM      1  C   UNL A   1      31.877  26.539  26.303  1.00  0.00     0.118 C 
ENDROOT
BRANCH   1   2
ATOM      2  N   UNL A   1      30.660  26.796  25.564  1.00  0.00    -0.351 N 
ATOM      3  C   UNL A   1      30.335  26.409  24.296  1.00  0.00     0.278 C 
ATOM      4  O   UNL A   1      29.220  26.729  23.867  1.00  0.00    -0.268 OA
ATOM      5  H   UNL A   1      29.976  27.322  26.038  1.00  0.00     0.163 HD
BRANCH   3   6
ATOM      6  C   UNL A   1      31.278  25.545  23.435  1.00  0.00     0.275 C 
ATOM      7  C   UNL A   1      33.340  26.804  23.398  1.00  0.00     0.333 C 
ATOM      8  N   UNL A   1      32.680  25.597  23.896  1.00  0.00    -0.320 N 
ATOM      9  C   UNL A   1      33.301  24.336  23.434  1.00  0.00     0.231 C 
ATOM     10  H   UNL A   1      32.763  25.661  24.911  1.00  0.00     0.349 HD
ATOM     11  C   UNL A   1      30.899  24.069  23.406  1.00  0.00     0.095 C 
ATOM     12  C   UNL A   1      32.193  23.272  23.662  1.00  0.00     0.148 C 
BRANCH   9  13
ATOM     13  C   UNL A   1      34.665  23.948  23.968  1.00  0.00     0.046 A 
ATOM     14  C   UNL A   1      35.427  23.022  23.226  1.00  0.00     0.013 A 
ATOM     15  C   UNL A   1      35.178  24.363  25.205  1.00  0.00     0.132 A 
ATOM     16  C   UNL A   1      36.629  22.511  23.720  1.00  0.00     0.001 A 
ATOM     17  C   UNL A   1      36.387  23.868  25.693  1.00  0.00     0.040 A 
ATOM     18  F   UNL A   1      34.510  25.227  25.982  1.00  0.00    -0.206 F 
ATOM     19  C   UNL A   1      37.108  22.931  24.958  1.00  0.00     0.003 A 
ENDBRANCH   9  13
BRANCH  12  20
ATOM     20  C   UNL A   1      32.196  22.547  25.026  1.00  0.00     0.229 C 
ATOM     21  O   UNL A   1      32.198  23.112  26.118  1.00  0.00    -0.275 OA
ATOM     22  N   UNL A   1      32.220  21.185  25.071  1.00  0.00    -0.355 N 
ATOM     23  H   UNL A   1      32.142  20.800  25.974  1.00  0.00     0.163 HD
BRANCH  22  24
ATOM     24  C   UNL A   1      32.345  20.215  24.008  1.00  0.00     0.125 C 
BRANCH  24  25
ATOM     25  C   UNL A   1      33.148  18.975  24.430  1.00  0.00     0.011 C 
ATOM     26  C   UNL A   1      33.288  18.021  23.233  1.00  0.00     0.011 C 
ATOM     27  C   UNL A   1      34.621  19.309  24.729  1.00  0.00     0.011 C 
ATOM     28  C   UNL A   1      34.520  17.180  23.534  1.00  0.00     0.001 C 
ATOM     29  C   UNL A   1      35.388  18.017  24.471  1.00  0.00     0.001 C 
BRANCH  25  30
ATOM     30  C   UNL A   1      32.464  18.267  25.619  1.00  0.00     0.164 C 
BRANCH  30  31
ATOM     31  O   UNL A   1      31.625  17.205  25.183  1.00  0.00    -0.396 OA
ATOM     32  H   UNL A   1      32.070  16.357  25.340  1.00  0.00     0.210 HD
ENDBRANCH  30  31
ENDBRANCH  25  30
ENDBRANCH  24  25
ENDBRANCH  22  24
ENDBRANCH  12  20
ENDBRANCH   3   6
ENDBRANCH   1   2
BRANCH   1  33
ATOM     33  C   UNL A   1      32.211  27.597  27.333  1.00  0.00     0.042 C 
BRANCH  33  34
ATOM     34  C   UNL A   1      33.488  28.351  27.020  1.00  0.00     0.118 C 
BRANCH  34  35
ATOM     35  N   UNL A   1      33.431  29.756  27.412  1.00  0.00    -0.352 N 
ATOM     36  C   UNL A   1      34.372  30.531  28.044  1.00  0.00     0.251 C 
ATOM     37  H   UNL A   1      32.591  30.218  27.191  1.00  0.00     0.163 HD
ATOM     38  O   UNL A   1      34.076  31.658  28.436  1.00  0.00    -0.269 OA
BRANCH  36  39
ATOM     39  C   UNL A   1      35.731  29.998  28.272  1.00  0.00     0.039 A 
ATOM     40  C   UNL A   1      36.674  30.073  27.243  1.00  0.00     0.014 A 
ATOM     41  C   UNL A   1      36.080  29.442  29.505  1.00  0.00     0.014 A 
ATOM     42  C   UNL A   1      37.988  29.663  27.482  1.00  0.00     0.010 A 
ATOM     43  C   UNL A   1      37.407  29.133  29.771  1.00  0.00     0.010 A 
ATOM     44  C   UNL A   1      38.375  29.233  28.761  1.00  0.00    -0.014 A 
BRANCH  44  45
ATOM     45  C   UNL A   1      39.779  28.864  29.072  1.00  0.00     0.031 A 
ATOM     46  C   UNL A   1      40.699  29.885  29.686  1.00  0.00     0.074 A 
ATOM     47  C   UNL A   1      40.245  27.645  28.737  1.00  0.00     0.049 A 
ATOM     48  N   UNL A   1      41.981  29.797  29.935  1.00  0.00    -0.248 NA
ATOM     49  C   UNL A   1      40.108  31.187  30.040  1.00  0.00     0.031 C 
ATOM     50  C   UNL A   1      39.462  26.580  28.102  1.00  0.00     0.029 A 
ATOM     51  N   UNL A   1      41.496  27.097  28.873  1.00  0.00    -0.354 N 
ATOM     52  C   UNL A   1      42.348  31.031  30.459  1.00  0.00     0.074 A 
ATOM     53  C   UNL A   1      41.172  31.870  30.437  1.00  0.00     0.031 C 
ATOM     54  C   UNL A   1      40.243  25.502  27.929  1.00  0.00     0.029 A 
ATOM     55  C   UNL A   1      41.592  25.812  28.392  1.00  0.00     0.049 A 
ATOM     56  H   UNL A   1      42.253  27.579  29.275  1.00  0.00     0.167 HD
ATOM     57  C   UNL A   1      43.551  31.424  30.943  1.00  0.00     0.031 A 
ATOM     58  C   UNL A   1      42.651  24.980  28.320  1.00  0.00     0.031 A 
ATOM     59  C   UNL A   1      44.717  30.583  30.973  1.00  0.00     0.049 A 
ATOM     60  C   UNL A   1      43.984  25.451  28.837  1.00  0.00     0.074 A 
ATOM     61  C   UNL A   1      45.974  30.874  31.473  1.00  0.00     0.029 A 
ATOM     62  N   UNL A   1      44.768  29.284  30.490  1.00  0.00    -0.354 N 
ATOM     63  N   UNL A   1      44.300  26.606  29.375  1.00  0.00    -0.248 NA
ATOM     64  C   UNL A   1      45.103  24.502  28.746  1.00  0.00     0.031 C 
ATOM     65  C   UNL A   1      46.798  29.767  31.250  1.00  0.00     0.029 A 
ATOM     66  C   UNL A   1      46.039  28.765  30.666  1.00  0.00     0.049 A 
ATOM     67  H   UNL A   1      44.013  28.803  30.081  1.00  0.00     0.167 HD
ATOM     68  C   UNL A   1      45.644  26.508  29.718  1.00  0.00     0.074 A 
ATOM     69  C   UNL A   1      46.078  25.179  29.338  1.00  0.00     0.031 C 
ATOM     70  C   UNL A   1      46.448  27.434  30.295  1.00  0.00     0.031 A 
BRANCH  57  71
ATOM     71  C   UNL A   1      43.658  32.824  31.487  1.00  0.00    -0.014 A 
ATOM     72  C   UNL A   1      43.996  33.902  30.645  1.00  0.00     0.010 A 
ATOM     73  C   UNL A   1      43.382  33.077  32.842  1.00  0.00     0.010 A 
ATOM     74  C   UNL A   1      44.095  35.197  31.158  1.00  0.00     0.020 A 
ATOM     75  C   UNL A   1      43.450  34.377  33.352  1.00  0.00     0.020 A 
ATOM     76  C   UNL A   1      43.822  35.427  32.509  1.00  0.00     0.054 A 
BRANCH  76  77
ATOM     77  S   UNL A   1      43.931  37.124  33.138  1.00  0.00     0.124 S 
ATOM     78  O   UNL A   1      42.746  37.207  33.987  1.00  0.00    -0.237 OA
ATOM     79  O   UNL A   1      45.210  37.123  33.843  1.00  0.00    -0.237 OA
ATOM     80  O   UNL A   1      43.890  37.946  31.930  1.00  0.00    -0.744 OA
ENDBRANCH  76  77
ENDBRANCH  57  71
BRANCH  58  81
ATOM     81  C   UNL A   1      42.497  23.617  27.741  1.00  0.00    -0.014 A 
ATOM     82  C   UNL A   1      42.084  22.541  28.548  1.00  0.00     0.010 A 
ATOM     83  C   UNL A   1      42.777  23.382  26.382  1.00  0.00     0.010 A 
ATOM     84  C   UNL A   1      41.987  21.252  28.016  1.00  0.00     0.020 A 
ATOM     85  C   UNL A   1      42.650  22.100  25.839  1.00  0.00     0.020 A 
ATOM     86  C   UNL A   1      42.273  21.039  26.664  1.00  0.00     0.054 A 
BRANCH  86  87
ATOM     87  S   UNL A   1      42.120  19.361  25.991  1.00  0.00     0.124 S 
ATOM     88  O   UNL A   1      42.976  19.428  24.811  1.00  0.00    -0.237 OA
ATOM     89  O   UNL A   1      42.616  18.533  27.088  1.00  0.00    -0.237 OA
ATOM     90  O   UNL A   1      40.689  19.230  25.720  1.00  0.00    -0.744 OA
ENDBRANCH  86  87
ENDBRANCH  58  81
BRANCH  70  91
ATOM     91  C   UNL A   1      47.866  27.031  30.601  1.00  0.00    -0.014 A 
ATOM     92  C   UNL A   1      48.914  27.299  29.704  1.00  0.00     0.010 A 
ATOM     93  C   UNL A   1      48.160  26.432  31.840  1.00  0.00     0.010 A 
ATOM     94  C   UNL A   1      50.228  26.951  30.030  1.00  0.00     0.020 A 
ATOM     95  C   UNL A   1      49.474  26.109  32.181  1.00  0.00     0.020 A 
ATOM     96  C   UNL A   1      50.499  26.359  31.268  1.00  0.00     0.054 A 
BRANCH  96  97
ATOM     97  S   UNL A   1      52.220  25.967  31.688  1.00  0.00     0.124 S 
ATOM     98  O   UNL A   1      52.894  26.143  30.405  1.00  0.00    -0.237 OA
ATOM     99  O   UNL A   1      52.536  26.966  32.707  1.00  0.00    -0.237 OA
ATOM    100  O   UNL A   1      52.154  24.590  32.174  1.00  0.00    -0.744 OA
ENDBRANCH  96  97
ENDBRANCH  70  91
ENDBRANCH  44  45
ENDBRANCH  36  39
ENDBRANCH  34  35
ENDBRANCH  33  34
ENDBRANCH   1  33
TORSDOF 19
ENDMDL
MODEL 3
REMARK VINA RESULT:     -11.8      2.147      2.684
REMARK SMILES C[N@H+]1[C@H](C(=O)NCCCNC(=O)c2ccc(-c3c4nc(c(-c5ccc(S(=O)(=O)[O-])cc5)c5ccc([nH]5)c(-c5ccc(S(=O)(=O)[O-])cc5)c5nc(c(-c6ccc(S(=O)(=O)[O-])cc6)c6ccc3[nH]6)C=C5)C=C4)cc2)C[C@H](C(=O)NCC2(CO)CCCC2)[C@@H]1c1ccccc1F
REMARK SMILES IDX 7 1 6 2 4 3 5 4 3 6 1 7 2 8 86 9 73 11 74 12 87 13 88 14
REMARK SMILES IDX 92 15 89 16 91 17 93 18 90 19 75 20 76 21 77 22 78 24 79 25
REMARK SMILES IDX 82 26 85 27 83 28 84 29 80 30 81 31 8 33 9 34 10 35 11 36
REMARK SMILES IDX 12 38 13 39 14 40 72 41 15 42 71 43 16 44 17 45 18 46 65 47
REMARK SMILES IDX 19 48 70 49 64 50 66 51 20 52 69 53 63 54 62 55 21 57 51 58
REMARK SMILES IDX 32 59 50 60 33 61 36 62 49 63 67 64 34 65 35 66 48 68 68 69
REMARK SMILES IDX 37 70 22 71 23 72 31 73 24 74 30 75 25 76 26 77 27 78 28 79
REMARK SMILES IDX 29 80 52 81 53 82 61 83 54 84 60 85 55 86 56 87 57 88 58 89
REMARK SMILES IDX 59 90 38 91 39 92 47 93 40 94 46 95 41 96 42 97 43 98 44 99
REMARK SMILES IDX 45 100
REMARK H PARENT 6 5 2 10 77 23 81 32 10 37 66 56 36 67
REMARK Flexibility Score: inf
ROOT
ATOM      1  C   UNL A   1      34.626  23.613  23.573  1.00  0.00     0.118 C 
ENDROOT
BRANCH   1   2
ATOM      2  N   UNL A   1      33.897  22.422  23.193  1.00  0.00    -0.351 N 
ATOM      3  C   UNL A   1      32.631  22.049  23.542  1.00  0.00     0.278 C 
ATOM      4  O   UNL A   1      32.199  20.986  23.082  1.00  0.00    -0.268 OA
ATOM      5  H   UNL A   1      34.378  21.796  22.604  1.00  0.00     0.163 HD
BRANCH   3   6
ATOM      6  C   UNL A   1      31.729  22.936  24.423  1.00  0.00     0.275 C 
ATOM      7  C   UNL A   1      33.012  23.235  26.448  1.00  0.00     0.333 C 
ATOM      8  N   UNL A   1      32.496  23.892  25.247  1.00  0.00    -0.320 N 
ATOM      9  C   UNL A   1      31.573  25.014  25.523  1.00  0.00     0.231 C 
ATOM     10  H   UNL A   1      33.327  24.247  24.774  1.00  0.00     0.349 HD
ATOM     11  C   UNL A   1      30.731  23.771  23.629  1.00  0.00     0.095 C 
ATOM     12  C   UNL A   1      30.812  25.207  24.183  1.00  0.00     0.148 C 
BRANCH   9  13
ATOM     13  C   UNL A   1      32.126  26.291  26.122  1.00  0.00     0.046 A 
ATOM     14  C   UNL A   1      31.241  27.122  26.840  1.00  0.00     0.013 A 
ATOM     15  C   UNL A   1      33.432  26.760  25.921  1.00  0.00     0.132 A 
ATOM     16  C   UNL A   1      31.640  28.379  27.303  1.00  0.00     0.001 A 
ATOM     17  C   UNL A   1      33.839  28.006  26.397  1.00  0.00     0.040 A 
ATOM     18  F   UNL A   1      34.331  26.042  25.235  1.00  0.00    -0.206 F 
ATOM     19  C   UNL A   1      32.940  28.824  27.077  1.00  0.00     0.003 A 
ENDBRANCH   9  13
BRANCH  12  20
ATOM     20  C   UNL A   1      31.420  26.209  23.177  1.00  0.00     0.229 C 
ATOM     21  O   UNL A   1      32.502  26.063  22.613  1.00  0.00    -0.275 OA
ATOM     22  N   UNL A   1      30.756  27.362  22.882  1.00  0.00    -0.355 N 
ATOM     23  H   UNL A   1      31.171  27.909  22.176  1.00  0.00     0.163 HD
BRANCH  22  24
ATOM     24  C   UNL A   1      29.543  27.912  23.438  1.00  0.00     0.125 C 
BRANCH  24  25
ATOM     25  C   UNL A   1      29.310  29.373  23.022  1.00  0.00     0.011 C 
ATOM     26  C   UNL A   1      27.804  29.680  23.042  1.00  0.00     0.011 C 
ATOM     27  C   UNL A   1      29.839  30.369  24.070  1.00  0.00     0.011 C 
ATOM     28  C   UNL A   1      27.706  31.190  23.206  1.00  0.00     0.001 C 
ATOM     29  C   UNL A   1      28.999  31.628  23.890  1.00  0.00     0.001 C 
BRANCH  25  30
ATOM     30  C   UNL A   1      29.906  29.638  21.622  1.00  0.00     0.164 C 
BRANCH  30  31
ATOM     31  O   UNL A   1      31.277  30.005  21.698  1.00  0.00    -0.396 OA
ATOM     32  H   UNL A   1      31.432  30.792  21.151  1.00  0.00     0.210 HD
ENDBRANCH  30  31
ENDBRANCH  25  30
ENDBRANCH  24  25
ENDBRANCH  22  24
ENDBRANCH  12  20
ENDBRANCH   3   6
ENDBRANCH   1   2
BRANCH   1  33
ATOM     33  C   UNL A   1      36.113  23.398  23.750  1.00  0.00     0.042 C 
BRANCH  33  34
ATOM     34  C   UNL A   1      36.575  23.580  25.182  1.00  0.00     0.118 C 
BRANCH  34  35
ATOM     35  N   UNL A   1      37.500  22.538  25.620  1.00  0.00    -0.352 N 
ATOM     36  C   UNL A   1      38.728  22.650  26.223  1.00  0.00     0.251 C 
ATOM     37  H   UNL A   1      37.197  21.616  25.458  1.00  0.00     0.163 HD
ATOM     38  O   UNL A   1      39.431  21.653  26.372  1.00  0.00    -0.269 OA
BRANCH  36  39
ATOM     39  C   UNL A   1      39.210  23.974  26.670  1.00  0.00     0.039 A 
ATOM     40  C   UNL A   1      39.061  24.337  28.011  1.00  0.00     0.014 A 
ATOM     41  C   UNL A   1      39.825  24.847  25.770  1.00  0.00     0.014 A 
ATOM     42  C   UNL A   1      39.602  25.542  28.463  1.00  0.00     0.010 A 
ATOM     43  C   UNL A   1      40.451  25.993  26.241  1.00  0.00     0.010 A 
ATOM     44  C   UNL A   1      40.341  26.358  27.591  1.00  0.00    -0.014 A 
BRANCH  44  45
ATOM     45  C   UNL A   1      40.997  27.606  28.054  1.00  0.00     0.031 A 
ATOM     46  C   UNL A   1      42.498  27.721  28.011  1.00  0.00     0.074 A 
ATOM     47  C   UNL A   1      40.256  28.602  28.579  1.00  0.00     0.049 A 
ATOM     48  N   UNL A   1      43.266  28.677  28.465  1.00  0.00    -0.248 NA
ATOM     49  C   UNL A   1      43.234  26.598  27.406  1.00  0.00     0.031 C 
ATOM     50  C   UNL A   1      38.796  28.596  28.711  1.00  0.00     0.029 A 
ATOM     51  N   UNL A   1      40.629  29.810  29.112  1.00  0.00    -0.354 N 
ATOM     52  C   UNL A   1      44.570  28.266  28.212  1.00  0.00     0.074 A 
ATOM     53  C   UNL A   1      44.493  26.948  27.622  1.00  0.00     0.031 C 
ATOM     54  C   UNL A   1      38.398  29.755  29.261  1.00  0.00     0.029 A 
ATOM     55  C   UNL A   1      39.573  30.564  29.568  1.00  0.00     0.049 A 
ATOM     56  H   UNL A   1      41.565  30.108  29.163  1.00  0.00     0.167 HD
ATOM     57  C   UNL A   1      45.728  28.935  28.425  1.00  0.00     0.031 A 
ATOM     58  C   UNL A   1      39.553  31.766  30.177  1.00  0.00     0.031 A 
ATOM     59  C   UNL A   1      45.800  30.250  29.003  1.00  0.00     0.049 A 
ATOM     60  C   UNL A   1      40.856  32.477  30.431  1.00  0.00     0.074 A 
ATOM     61  C   UNL A   1      46.921  31.029  29.231  1.00  0.00     0.029 A 
ATOM     62  N   UNL A   1      44.706  30.983  29.439  1.00  0.00    -0.354 N 
ATOM     63  N   UNL A   1      42.076  32.092  30.139  1.00  0.00    -0.248 NA
ATOM     64  C   UNL A   1      40.778  33.790  31.087  1.00  0.00     0.031 C 
ATOM     65  C   UNL A   1      46.509  32.214  29.846  1.00  0.00     0.029 A 
ATOM     66  C   UNL A   1      45.127  32.201  29.947  1.00  0.00     0.049 A 
ATOM     67  H   UNL A   1      43.770  30.683  29.393  1.00  0.00     0.167 HD
ATOM     68  C   UNL A   1      42.908  33.131  30.545  1.00  0.00     0.074 A 
ATOM     69  C   UNL A   1      42.051  34.164  31.091  1.00  0.00     0.031 C 
ATOM     70  C   UNL A   1      44.258  33.222  30.473  1.00  0.00     0.031 A 
BRANCH  57  71
ATOM     71  C   UNL A   1      47.009  28.254  28.021  1.00  0.00    -0.014 A 
ATOM     72  C   UNL A   1      47.676  27.386  28.907  1.00  0.00     0.010 A 
ATOM     73  C   UNL A   1      47.535  28.451  26.732  1.00  0.00     0.010 A 
ATOM     74  C   UNL A   1      48.864  26.760  28.525  1.00  0.00     0.020 A 
ATOM     75  C   UNL A   1      48.708  27.802  26.335  1.00  0.00     0.020 A 
ATOM     76  C   UNL A   1      49.374  26.973  27.241  1.00  0.00     0.054 A 
BRANCH  76  77
ATOM     77  S   UNL A   1      50.904  26.123  26.765  1.00  0.00     0.124 S 
ATOM     78  O   UNL A   1      51.922  26.962  27.393  1.00  0.00    -0.237 OA
ATOM     79  O   UNL A   1      50.731  24.799  27.356  1.00  0.00    -0.237 OA
ATOM     80  O   UNL A   1      50.882  26.160  25.304  1.00  0.00    -0.744 OA
ENDBRANCH  76  77
ENDBRANCH  57  71
BRANCH  58  81
ATOM     81  C   UNL A   1      38.259  32.379  30.588  1.00  0.00    -0.014 A 
ATOM     82  C   UNL A   1      37.546  33.203  29.699  1.00  0.00     0.010 A 
ATOM     83  C   UNL A   1      37.739  32.154  31.876  1.00  0.00     0.010 A 
ATOM     84  C   UNL A   1      36.357  33.818  30.100  1.00  0.00     0.020 A 
ATOM     85  C   UNL A   1      36.533  32.742  32.271  1.00  0.00     0.020 A 
ATOM     86  C   UNL A   1      35.858  33.585  31.386  1.00  0.00     0.054 A 
BRANCH  86  87
ATOM     87  S   UNL A   1      34.302  34.377  31.878  1.00  0.00     0.124 S 
ATOM     88  O   UNL A   1      33.728  33.384  32.780  1.00  0.00    -0.237 OA
ATOM     89  O   UNL A   1      34.761  35.613  32.507  1.00  0.00    -0.237 OA
ATOM     90  O   UNL A   1      33.595  34.557  30.612  1.00  0.00    -0.744 OA
ENDBRANCH  86  87
ENDBRANCH  58  81
BRANCH  70  91
ATOM     91  C   UNL A   1      44.895  34.501  30.947  1.00  0.00    -0.014 A 
ATOM     92  C   UNL A   1      45.061  35.600  30.088  1.00  0.00     0.010 A 
ATOM     93  C   UNL A   1      45.272  34.623  32.298  1.00  0.00     0.010 A 
ATOM     94  C   UNL A   1      45.618  36.790  30.564  1.00  0.00     0.020 A 
ATOM     95  C   UNL A   1      45.803  35.819  32.784  1.00  0.00     0.020 A 
ATOM     96  C   UNL A   1      45.984  36.892  31.910  1.00  0.00     0.054 A 
BRANCH  96  97
ATOM     97  S   UNL A   1      46.654  38.466  32.515  1.00  0.00     0.124 S 
ATOM     98  O   UNL A   1      45.448  39.278  32.648  1.00  0.00    -0.237 OA
ATOM     99  O   UNL A   1      47.295  38.080  33.770  1.00  0.00    -0.237 OA
ATOM    100  O   UNL A   1      47.571  38.882  31.456  1.00  0.00    -0.744 OA
ENDBRANCH  96  97
ENDBRANCH  70  91
ENDBRANCH  44  45
ENDBRANCH  36  39
ENDBRANCH  34  35
ENDBRANCH  33  34
ENDBRANCH   1  33
TORSDOF 19
ENDMDL
