MODEL 1
REMARK VINA RESULT:     -13.0      0.000      0.000
REMARK SMILES Cc1cccc(C[C@H](C(=O)NCCCNC(=O)c2ccc(-c3c4nc(c(-c5ccc(S(=O)(=O)[O-])cc5)c5ccc([nH]5)c(-c5ccc(S(=O)(=O)[O-])cc5)c5nc(c(-c6ccc(S(=O)(=O)[O-])cc6)c6ccc3[nH]6)C=C5)C=C4)cc2)[C@@H]2CCCC[C@@H]2O)c1
REMARK SMILES IDX 13 1 12 2 11 3 9 4 10 5 8 7 7 8 6 9 1 10 2 11 3 12 85 13
REMARK SMILES IDX 4 14 5 15 78 16 79 17 83 18 80 19 82 20 81 21 84 22 14 24
REMARK SMILES IDX 15 25 16 26 17 28 18 29 19 30 77 31 20 32 76 33 21 34 22 35
REMARK SMILES IDX 23 36 70 37 24 38 75 39 69 40 71 41 25 42 74 43 68 44 67 45
REMARK SMILES IDX 26 47 56 48 37 49 55 50 38 51 41 52 54 53 72 54 39 55 40 56
REMARK SMILES IDX 53 58 73 59 42 60 27 61 28 62 36 63 29 64 35 65 30 66 31 67
REMARK SMILES IDX 32 68 33 69 34 70 57 71 58 72 66 73 59 74 65 75 60 76 61 77
REMARK SMILES IDX 62 78 63 79 64 80 43 81 44 82 52 83 45 84 51 85 46 86 47 87
REMARK SMILES IDX 48 88 49 89 50 90
REMARK H PARENT 11 6 84 23 15 27 71 46 41 57
REMARK Flexibility Score: inf
ROOT
ATOM      1  C   UNL A   1      37.299  22.916  25.017  1.00  0.00     0.042 C 
ENDROOT
BRANCH   1   2
ATOM      2  C   UNL A   1      36.219  21.848  25.206  1.00  0.00     0.117 C 
BRANCH   2   3
ATOM      3  N   UNL A   1      35.517  21.826  26.477  1.00  0.00    -0.356 N 
ATOM      4  C   UNL A   1      34.474  22.591  26.924  1.00  0.00     0.223 C 
ATOM      5  O   UNL A   1      34.274  22.617  28.140  1.00  0.00    -0.275 OA
ATOM      6  H   UNL A   1      35.843  21.155  27.119  1.00  0.00     0.163 HD
BRANCH   4   7
ATOM      7  C   UNL A   1      33.594  23.372  25.939  1.00  0.00     0.088 C 
BRANCH   7   8
ATOM      8  C   UNL A   1      34.260  24.613  25.327  1.00  0.00     0.049 C 
BRANCH   8   9
ATOM      9  C   UNL A   1      33.617  25.980  25.190  1.00  0.00    -0.047 A 
ATOM     10  C   UNL A   1      31.651  28.214  27.600  1.00  0.00     0.044 C 
ATOM     11  C   UNL A   1      32.407  27.747  26.394  1.00  0.00    -0.051 A 
ATOM     12  C   UNL A   1      32.757  28.660  25.401  1.00  0.00     0.003 A 
ATOM     13  C   UNL A   1      32.851  26.422  26.288  1.00  0.00     0.007 A 
ATOM     14  C   UNL A   1      33.466  28.236  24.284  1.00  0.00     0.001 A 
ATOM     15  C   UNL A   1      33.866  26.901  24.166  1.00  0.00     0.004 A 
ENDBRANCH   8   9
ENDBRANCH   7   8
BRANCH   7  16
ATOM     16  C   UNL A   1      32.836  22.436  24.916  1.00  0.00     0.030 C 
ATOM     17  C   UNL A   1      33.079  22.654  23.407  1.00  0.00     0.007 C 
ATOM     18  C   UNL A   1      31.313  22.440  25.171  1.00  0.00     0.118 C 
ATOM     19  C   UNL A   1      32.283  23.779  22.728  1.00  0.00     0.001 C 
ATOM     20  C   UNL A   1      30.689  23.765  24.743  1.00  0.00     0.032 C 
ATOM     21  C   UNL A   1      30.862  23.994  23.247  1.00  0.00     0.003 C 
BRANCH  18  22
ATOM     22  O   UNL A   1      31.018  22.203  26.544  1.00  0.00    -0.393 OA
ATOM     23  H   UNL A   1      30.777  23.040  26.972  1.00  0.00     0.210 HD
ENDBRANCH  18  22
ENDBRANCH   7  16
ENDBRANCH   4   7
ENDBRANCH   2   3
ENDBRANCH   1   2
BRANCH   1  24
ATOM     24  C   UNL A   1      37.624  23.747  26.242  1.00  0.00     0.118 C 
BRANCH  24  25
ATOM     25  N   UNL A   1      38.875  23.282  26.858  1.00  0.00    -0.352 N 
ATOM     26  C   UNL A   1      39.827  23.996  27.564  1.00  0.00     0.251 C 
ATOM     27  H   UNL A   1      39.063  22.322  26.752  1.00  0.00     0.163 HD
ATOM     28  O   UNL A   1      40.814  23.450  28.024  1.00  0.00    -0.269 OA
BRANCH  26  29
ATOM     29  C   UNL A   1      39.585  25.436  27.759  1.00  0.00     0.039 A 
ATOM     30  C   UNL A   1      40.055  26.356  26.817  1.00  0.00     0.014 A 
ATOM     31  C   UNL A   1      39.083  25.855  28.984  1.00  0.00     0.014 A 
ATOM     32  C   UNL A   1      40.189  27.698  27.179  1.00  0.00     0.010 A 
ATOM     33  C   UNL A   1      39.334  27.146  29.381  1.00  0.00     0.010 A 
ATOM     34  C   UNL A   1      39.905  28.072  28.492  1.00  0.00    -0.014 A 
BRANCH  34  35
ATOM     35  C   UNL A   1      40.199  29.370  29.093  1.00  0.00     0.031 A 
ATOM     36  C   UNL A   1      39.181  30.452  29.038  1.00  0.00     0.074 A 
ATOM     37  C   UNL A   1      41.260  29.492  29.923  1.00  0.00     0.049 A 
ATOM     38  N   UNL A   1      39.370  31.664  29.440  1.00  0.00    -0.248 NA
ATOM     39  C   UNL A   1      37.849  30.249  28.471  1.00  0.00     0.031 C 
ATOM     40  C   UNL A   1      41.434  30.488  30.979  1.00  0.00     0.029 A 
ATOM     41  N   UNL A   1      42.508  28.869  29.846  1.00  0.00    -0.354 N 
ATOM     42  C   UNL A   1      38.135  32.269  29.523  1.00  0.00     0.074 A 
ATOM     43  C   UNL A   1      37.242  31.388  28.810  1.00  0.00     0.031 C 
ATOM     44  C   UNL A   1      42.744  30.613  31.240  1.00  0.00     0.029 A 
ATOM     45  C   UNL A   1      43.446  29.848  30.226  1.00  0.00     0.049 A 
ATOM     46  H   UNL A   1      42.692  27.939  29.583  1.00  0.00     0.167 HD
ATOM     47  C   UNL A   1      37.986  33.377  30.306  1.00  0.00     0.031 A 
ATOM     48  C   UNL A   1      44.378  30.362  29.368  1.00  0.00     0.031 A 
ATOM     49  C   UNL A   1      39.279  33.911  30.749  1.00  0.00     0.049 A 
ATOM     50  C   UNL A   1      44.276  31.872  29.167  1.00  0.00     0.074 A 
ATOM     51  C   UNL A   1      39.948  34.015  31.956  1.00  0.00     0.029 A 
ATOM     52  N   UNL A   1      40.209  34.240  29.775  1.00  0.00    -0.354 N 
ATOM     53  N   UNL A   1      43.407  32.652  29.747  1.00  0.00    -0.248 NA
ATOM     54  C   UNL A   1      45.084  32.588  28.174  1.00  0.00     0.031 C 
ATOM     55  C   UNL A   1      41.298  34.398  31.685  1.00  0.00     0.029 A 
ATOM     56  C   UNL A   1      41.440  34.541  30.318  1.00  0.00     0.049 A 
ATOM     57  H   UNL A   1      40.014  34.258  28.810  1.00  0.00     0.167 HD
ATOM     58  C   UNL A   1      43.440  33.887  29.154  1.00  0.00     0.074 A 
ATOM     59  C   UNL A   1      44.528  33.810  28.197  1.00  0.00     0.031 C 
ATOM     60  C   UNL A   1      42.528  34.868  29.412  1.00  0.00     0.031 A 
BRANCH  47  61
ATOM     61  C   UNL A   1      36.650  33.868  30.841  1.00  0.00    -0.014 A 
ATOM     62  C   UNL A   1      35.585  34.105  29.948  1.00  0.00     0.010 A 
ATOM     63  C   UNL A   1      36.394  34.187  32.188  1.00  0.00     0.010 A 
ATOM     64  C   UNL A   1      34.381  34.708  30.358  1.00  0.00     0.020 A 
ATOM     65  C   UNL A   1      35.208  34.805  32.612  1.00  0.00     0.020 A 
ATOM     66  C   UNL A   1      34.211  35.078  31.688  1.00  0.00     0.054 A 
BRANCH  66  67
ATOM     67  S   UNL A   1      32.698  35.931  32.198  1.00  0.00     0.124 S 
ATOM     68  O   UNL A   1      32.218  36.499  30.941  1.00  0.00    -0.237 OA
ATOM     69  O   UNL A   1      31.894  34.845  32.749  1.00  0.00    -0.237 OA
ATOM     70  O   UNL A   1      33.165  36.913  33.176  1.00  0.00    -0.744 OA
ENDBRANCH  66  67
ENDBRANCH  47  61
BRANCH  48  71
ATOM     71  C   UNL A   1      44.803  29.423  28.293  1.00  0.00    -0.014 A 
ATOM     72  C   UNL A   1      45.702  28.387  28.618  1.00  0.00     0.010 A 
ATOM     73  C   UNL A   1      44.072  29.340  27.095  1.00  0.00     0.010 A 
ATOM     74  C   UNL A   1      45.777  27.235  27.830  1.00  0.00     0.020 A 
ATOM     75  C   UNL A   1      44.151  28.193  26.298  1.00  0.00     0.020 A 
ATOM     76  C   UNL A   1      44.960  27.127  26.704  1.00  0.00     0.054 A 
BRANCH  76  77
ATOM     77  S   UNL A   1      44.846  25.539  25.837  1.00  0.00     0.124 S 
ATOM     78  O   UNL A   1      46.048  25.523  25.008  1.00  0.00    -0.237 OA
ATOM     79  O   UNL A   1      44.850  24.603  26.957  1.00  0.00    -0.237 OA
ATOM     80  O   UNL A   1      43.586  25.645  25.110  1.00  0.00    -0.744 OA
ENDBRANCH  76  77
ENDBRANCH  48  71
BRANCH  60  81
ATOM     81  C   UNL A   1      42.561  36.217  28.747  1.00  0.00    -0.014 A 
ATOM     82  C   UNL A   1      41.976  36.441  27.490  1.00  0.00     0.010 A 
ATOM     83  C   UNL A   1      43.294  37.279  29.322  1.00  0.00     0.010 A 
ATOM     84  C   UNL A   1      42.082  37.686  26.854  1.00  0.00     0.020 A 
ATOM     85  C   UNL A   1      43.421  38.518  28.687  1.00  0.00     0.020 A 
ATOM     86  C   UNL A   1      42.800  38.719  27.460  1.00  0.00     0.054 A 
BRANCH  86  87
ATOM     87  S   UNL A   1      42.980  40.303  26.600  1.00  0.00     0.124 S 
ATOM     88  O   UNL A   1      43.216  41.240  27.696  1.00  0.00    -0.237 OA
ATOM     89  O   UNL A   1      44.130  40.048  25.736  1.00  0.00    -0.237 OA
ATOM     90  O   UNL A   1      41.705  40.471  25.909  1.00  0.00    -0.744 OA
ENDBRANCH  86  87
ENDBRANCH  60  81
ENDBRANCH  34  35
ENDBRANCH  26  29
ENDBRANCH  24  25
ENDBRANCH   1  24
TORSDOF 17
ENDMDL
MODEL 2
REMARK VINA RESULT:     -12.9      1.530      2.197
REMARK SMILES Cc1cccc(C[C@H](C(=O)NCCCNC(=O)c2ccc(-c3c4nc(c(-c5ccc(S(=O)(=O)[O-])cc5)c5ccc([nH]5)c(-c5ccc(S(=O)(=O)[O-])cc5)c5nc(c(-c6ccc(S(=O)(=O)[O-])cc6)c6ccc3[nH]6)C=C5)C=C4)cc2)[C@@H]2CCCC[C@@H]2O)c1
REMARK SMILES IDX 13 1 12 2 11 3 9 4 10 5 8 7 7 8 6 9 1 10 2 11 3 12 85 13
REMARK SMILES IDX 4 14 5 15 78 16 79 17 83 18 80 19 82 20 81 21 84 22 14 24
REMARK SMILES IDX 15 25 16 26 17 28 18 29 19 30 77 31 20 32 76 33 21 34 22 35
REMARK SMILES IDX 23 36 70 37 24 38 75 39 69 40 71 41 25 42 74 43 68 44 67 45
REMARK SMILES IDX 26 47 56 48 37 49 55 50 38 51 41 52 54 53 72 54 39 55 40 56
REMARK SMILES IDX 53 58 73 59 42 60 27 61 28 62 36 63 29 64 35 65 30 66 31 67
REMARK SMILES IDX 32 68 33 69 34 70 57 71 58 72 66 73 59 74 65 75 60 76 61 77
REMARK SMILES IDX 62 78 63 79 64 80 43 81 44 82 52 83 45 84 51 85 46 86 47 87
REMARK SMILES IDX 48 88 49 89 50 90
REMARK H PARENT 11 6 84 23 15 27 71 46 41 57
REMARK Flexibility Score: inf
ROOT
ATOM      1  C   UNL A   1      36.401  23.343  26.450  1.00  0.00     0.042 C 
ENDROOT
BRANCH   1   2
ATOM      2  C   UNL A   1      35.146  23.798  25.702  1.00  0.00     0.117 C 
BRANCH   2   3
ATOM      3  N   UNL A   1      35.130  23.629  24.260  1.00  0.00    -0.356 N 
ATOM      4  C   UNL A   1      34.376  24.255  23.305  1.00  0.00     0.223 C 
ATOM      5  O   UNL A   1      34.301  23.713  22.200  1.00  0.00    -0.275 OA
ATOM      6  H   UNL A   1      35.763  22.959  23.915  1.00  0.00     0.163 HD
BRANCH   4   7
ATOM      7  C   UNL A   1      33.664  25.580  23.609  1.00  0.00     0.088 C 
BRANCH   7   8
ATOM      8  C   UNL A   1      34.243  26.364  24.796  1.00  0.00     0.049 C 
BRANCH   8   9
ATOM      9  C   UNL A   1      33.432  27.094  25.848  1.00  0.00    -0.047 A 
ATOM     10  C   UNL A   1      33.713  30.564  27.443  1.00  0.00     0.044 C 
ATOM     11  C   UNL A   1      33.179  29.220  27.054  1.00  0.00    -0.051 A 
ATOM     12  C   UNL A   1      31.872  28.871  27.390  1.00  0.00     0.003 A 
ATOM     13  C   UNL A   1      33.940  28.338  26.275  1.00  0.00     0.007 A 
ATOM     14  C   UNL A   1      31.368  27.629  27.025  1.00  0.00     0.001 A 
ATOM     15  C   UNL A   1      32.151  26.737  26.286  1.00  0.00     0.004 A 
ENDBRANCH   8   9
ENDBRANCH   7   8
BRANCH   7  16
ATOM     16  C   UNL A   1      33.374  26.433  22.310  1.00  0.00     0.030 C 
ATOM     17  C   UNL A   1      33.722  27.937  22.331  1.00  0.00     0.007 C 
ATOM     18  C   UNL A   1      31.908  26.278  21.850  1.00  0.00     0.118 C 
ATOM     19  C   UNL A   1      32.704  28.880  22.990  1.00  0.00     0.001 C 
ATOM     20  C   UNL A   1      30.957  27.006  22.795  1.00  0.00     0.032 C 
ATOM     21  C   UNL A   1      31.234  28.503  22.805  1.00  0.00     0.003 C 
BRANCH  18  22
ATOM     22  O   UNL A   1      31.534  24.906  21.772  1.00  0.00    -0.393 OA
ATOM     23  H   UNL A   1      31.646  24.490  22.640  1.00  0.00     0.210 HD
ENDBRANCH  18  22
ENDBRANCH   7  16
ENDBRANCH   4   7
ENDBRANCH   2   3
ENDBRANCH   1   2
BRANCH   1  24
ATOM     24  C   UNL A   1      37.708  23.937  25.965  1.00  0.00     0.118 C 
BRANCH  24  25
ATOM     25  N   UNL A   1      38.834  23.397  26.740  1.00  0.00    -0.352 N 
ATOM     26  C   UNL A   1      39.688  24.041  27.617  1.00  0.00     0.251 C 
ATOM     27  H   UNL A   1      39.006  22.437  26.616  1.00  0.00     0.163 HD
ATOM     28  O   UNL A   1      40.575  23.438  28.195  1.00  0.00    -0.269 OA
BRANCH  26  29
ATOM     29  C   UNL A   1      39.465  25.480  27.846  1.00  0.00     0.039 A 
ATOM     30  C   UNL A   1      39.952  26.416  26.928  1.00  0.00     0.014 A 
ATOM     31  C   UNL A   1      38.962  25.876  29.077  1.00  0.00     0.014 A 
ATOM     32  C   UNL A   1      40.102  27.747  27.323  1.00  0.00     0.010 A 
ATOM     33  C   UNL A   1      39.228  27.154  29.507  1.00  0.00     0.010 A 
ATOM     34  C   UNL A   1      39.816  28.093  28.643  1.00  0.00    -0.014 A 
BRANCH  34  35
ATOM     35  C   UNL A   1      40.124  29.372  29.276  1.00  0.00     0.031 A 
ATOM     36  C   UNL A   1      39.136  30.481  29.209  1.00  0.00     0.074 A 
ATOM     37  C   UNL A   1      41.161  29.452  30.140  1.00  0.00     0.049 A 
ATOM     38  N   UNL A   1      39.343  31.680  29.638  1.00  0.00    -0.248 NA
ATOM     39  C   UNL A   1      37.818  30.322  28.598  1.00  0.00     0.031 C 
ATOM     40  C   UNL A   1      41.327  30.425  31.219  1.00  0.00     0.029 A 
ATOM     41  N   UNL A   1      42.394  28.798  30.090  1.00  0.00    -0.354 N 
ATOM     42  C   UNL A   1      38.121  32.316  29.695  1.00  0.00     0.074 A 
ATOM     43  C   UNL A   1      37.230  31.471  28.939  1.00  0.00     0.031 C 
ATOM     44  C   UNL A   1      42.631  30.511  31.522  1.00  0.00     0.029 A 
ATOM     45  C   UNL A   1      43.344  29.745  30.516  1.00  0.00     0.049 A 
ATOM     46  H   UNL A   1      42.563  27.868  29.816  1.00  0.00     0.167 HD
ATOM     47  C   UNL A   1      37.976  33.414  30.493  1.00  0.00     0.031 A 
ATOM     48  C   UNL A   1      44.316  30.250  29.697  1.00  0.00     0.031 A 
ATOM     49  C   UNL A   1      39.268  33.906  30.985  1.00  0.00     0.049 A 
ATOM     50  C   UNL A   1      44.259  31.765  29.520  1.00  0.00     0.074 A 
ATOM     51  C   UNL A   1      39.902  33.972  32.214  1.00  0.00     0.029 A 
ATOM     52  N   UNL A   1      40.236  34.228  30.047  1.00  0.00    -0.354 N 
ATOM     53  N   UNL A   1      43.392  32.558  30.088  1.00  0.00    -0.248 NA
ATOM     54  C   UNL A   1      45.115  32.477  28.566  1.00  0.00     0.031 C 
ATOM     55  C   UNL A   1      41.269  34.324  31.991  1.00  0.00     0.029 A 
ATOM     56  C   UNL A   1      41.457  34.487  30.632  1.00  0.00     0.049 A 
ATOM     57  H   UNL A   1      40.073  34.267  29.076  1.00  0.00     0.167 HD
ATOM     58  C   UNL A   1      43.475  33.802  29.518  1.00  0.00     0.074 A 
ATOM     59  C   UNL A   1      44.590  33.713  28.594  1.00  0.00     0.031 C 
ATOM     60  C   UNL A   1      42.581  34.801  29.766  1.00  0.00     0.031 A 
BRANCH  47  61
ATOM     61  C   UNL A   1      36.638  33.929  30.995  1.00  0.00    -0.014 A 
ATOM     62  C   UNL A   1      35.531  33.968  30.121  1.00  0.00     0.010 A 
ATOM     63  C   UNL A   1      36.413  34.459  32.280  1.00  0.00     0.010 A 
ATOM     64  C   UNL A   1      34.315  34.579  30.476  1.00  0.00     0.020 A 
ATOM     65  C   UNL A   1      35.214  35.088  32.645  1.00  0.00     0.020 A 
ATOM     66  C   UNL A   1      34.173  35.160  31.733  1.00  0.00     0.054 A 
BRANCH  66  67
ATOM     67  S   UNL A   1      32.638  36.021  32.158  1.00  0.00     0.124 S 
ATOM     68  O   UNL A   1      32.270  36.651  30.892  1.00  0.00    -0.237 OA
ATOM     69  O   UNL A   1      31.775  34.929  32.595  1.00  0.00    -0.237 OA
ATOM     70  O   UNL A   1      33.042  36.951  33.212  1.00  0.00    -0.744 OA
ENDBRANCH  66  67
ENDBRANCH  47  61
BRANCH  48  71
ATOM     71  C   UNL A   1      44.750  29.319  28.619  1.00  0.00    -0.014 A 
ATOM     72  C   UNL A   1      44.105  29.387  27.367  1.00  0.00     0.010 A 
ATOM     73  C   UNL A   1      45.982  28.649  28.715  1.00  0.00     0.010 A 
ATOM     74  C   UNL A   1      44.734  28.909  26.214  1.00  0.00     0.020 A 
ATOM     75  C   UNL A   1      46.612  28.161  27.566  1.00  0.00     0.020 A 
ATOM     76  C   UNL A   1      46.007  28.346  26.318  1.00  0.00     0.054 A 
BRANCH  76  77
ATOM     77  S   UNL A   1      46.942  27.978  24.809  1.00  0.00     0.124 S 
ATOM     78  O   UNL A   1      48.324  27.927  25.275  1.00  0.00    -0.237 OA
ATOM     79  O   UNL A   1      46.366  26.693  24.426  1.00  0.00    -0.237 OA
ATOM     80  O   UNL A   1      46.617  29.099  23.933  1.00  0.00    -0.744 OA
ENDBRANCH  76  77
ENDBRANCH  48  71
BRANCH  60  81
ATOM     81  C   UNL A   1      42.669  36.161  29.127  1.00  0.00    -0.014 A 
ATOM     82  C   UNL A   1      42.025  36.455  27.914  1.00  0.00     0.010 A 
ATOM     83  C   UNL A   1      43.510  37.154  29.675  1.00  0.00     0.010 A 
ATOM     84  C   UNL A   1      42.180  37.704  27.297  1.00  0.00     0.020 A 
ATOM     85  C   UNL A   1      43.686  38.396  29.058  1.00  0.00     0.020 A 
ATOM     86  C   UNL A   1      43.006  38.669  27.877  1.00  0.00     0.054 A 
BRANCH  86  87
ATOM     87  S   UNL A   1      43.246  40.257  27.038  1.00  0.00     0.124 S 
ATOM     88  O   UNL A   1      44.075  39.894  25.891  1.00  0.00    -0.237 OA
ATOM     89  O   UNL A   1      41.872  40.641  26.721  1.00  0.00    -0.237 OA
ATOM     90  O   UNL A   1      43.909  41.085  28.042  1.00  0.00    -0.744 OA
ENDBRANCH  86  87
ENDBRANCH  60  81
ENDBRANCH  34  35
ENDBRANCH  26  29
ENDBRANCH  24  25
ENDBRANCH   1  24
TORSDOF 17
ENDMDL
MODEL 3
REMARK VINA RESULT:     -12.6      0.678      1.108
REMARK SMILES Cc1cccc(C[C@H](C(=O)NCCCNC(=O)c2ccc(-c3c4nc(c(-c5ccc(S(=O)(=O)[O-])cc5)c5ccc([nH]5)c(-c5ccc(S(=O)(=O)[O-])cc5)c5nc(c(-c6ccc(S(=O)(=O)[O-])cc6)c6ccc3[nH]6)C=C5)C=C4)cc2)[C@@H]2CCCC[C@@H]2O)c1
REMARK SMILES IDX 13 1 12 2 11 3 9 4 10 5 8 7 7 8 6 9 1 10 2 11 3 12 85 13
REMARK SMILES IDX 4 14 5 15 78 16 79 17 83 18 80 19 82 20 81 21 84 22 14 24
REMARK SMILES IDX 15 25 16 26 17 28 18 29 19 30 77 31 20 32 76 33 21 34 22 35
REMARK SMILES IDX 23 36 70 37 24 38 75 39 69 40 71 41 25 42 74 43 68 44 67 45
REMARK SMILES IDX 26 47 56 48 37 49 55 50 38 51 41 52 54 53 72 54 39 55 40 56
REMARK SMILES IDX 53 58 73 59 42 60 27 61 28 62 36 63 29 64 35 65 30 66 31 67
REMARK SMILES IDX 32 68 33 69 34 70 57 71 58 72 66 73 59 74 65 75 60 76 61 77
REMARK SMILES IDX 62 78 63 79 64 80 43 81 44 82 52 83 45 84 51 85 46 86 47 87
REMARK SMILES IDX 48 88 49 89 50 90
REMARK H PARENT 11 6 84 23 15 27 71 46 41 57
REMARK Flexibility Score: inf
ROOT
ATOM      1  C   UNL A   1      37.433  22.309  24.988  1.00  0.00     0.042 C 
ENDROOT
BRANCH   1   2
ATOM      2  C   UNL A   1      36.057  21.659  25.153  1.00  0.00     0.117 C 
BRANCH   2   3
ATOM      3  N   UNL A   1      35.444  21.719  26.469  1.00  0.00    -0.356 N 
ATOM      4  C   UNL A   1      34.459  22.538  26.947  1.00  0.00     0.223 C 
ATOM      5  O   UNL A   1      34.344  22.627  28.172  1.00  0.00    -0.275 OA
ATOM      6  H   UNL A   1      35.794  21.067  27.118  1.00  0.00     0.163 HD
BRANCH   4   7
ATOM      7  C   UNL A   1      33.537  23.302  25.989  1.00  0.00     0.088 C 
BRANCH   7   8
ATOM      8  C   UNL A   1      34.252  24.302  25.068  1.00  0.00     0.049 C 
BRANCH   8   9
ATOM      9  C   UNL A   1      33.882  25.762  24.897  1.00  0.00    -0.047 A 
ATOM     10  C   UNL A   1      33.895  28.773  27.263  1.00  0.00     0.044 C 
ATOM     11  C   UNL A   1      33.811  27.949  26.015  1.00  0.00    -0.051 A 
ATOM     12  C   UNL A   1      33.741  28.579  24.773  1.00  0.00     0.003 A 
ATOM     13  C   UNL A   1      33.897  26.551  26.065  1.00  0.00     0.007 A 
ATOM     14  C   UNL A   1      33.672  27.820  23.612  1.00  0.00     0.001 A 
ATOM     15  C   UNL A   1      33.712  26.424  23.675  1.00  0.00     0.004 A 
ENDBRANCH   8   9
ENDBRANCH   7   8
BRANCH   7  16
ATOM     16  C   UNL A   1      32.476  22.368  25.281  1.00  0.00     0.030 C 
ATOM     17  C   UNL A   1      32.519  22.249  23.742  1.00  0.00     0.007 C 
ATOM     18  C   UNL A   1      31.035  22.731  25.703  1.00  0.00     0.118 C 
ATOM     19  C   UNL A   1      31.841  23.368  22.937  1.00  0.00     0.001 C 
ATOM     20  C   UNL A   1      30.598  24.053  25.079  1.00  0.00     0.032 C 
ATOM     21  C   UNL A   1      30.577  23.962  23.559  1.00  0.00     0.003 C 
BRANCH  18  22
ATOM     22  O   UNL A   1      30.918  22.818  27.119  1.00  0.00    -0.393 OA
ATOM     23  H   UNL A   1      30.205  23.435  27.347  1.00  0.00     0.210 HD
ENDBRANCH  18  22
ENDBRANCH   7  16
ENDBRANCH   4   7
ENDBRANCH   2   3
ENDBRANCH   1   2
BRANCH   1  24
ATOM     24  C   UNL A   1      37.844  23.269  26.086  1.00  0.00     0.118 C 
BRANCH  24  25
ATOM     25  N   UNL A   1      39.076  22.803  26.738  1.00  0.00    -0.352 N 
ATOM     26  C   UNL A   1      40.018  23.519  27.453  1.00  0.00     0.251 C 
ATOM     27  H   UNL A   1      39.257  21.840  26.651  1.00  0.00     0.163 HD
ATOM     28  O   UNL A   1      40.989  22.972  27.945  1.00  0.00    -0.269 OA
BRANCH  26  29
ATOM     29  C   UNL A   1      39.786  24.965  27.620  1.00  0.00     0.039 A 
ATOM     30  C   UNL A   1      40.345  25.870  26.713  1.00  0.00     0.014 A 
ATOM     31  C   UNL A   1      39.194  25.400  28.798  1.00  0.00     0.014 A 
ATOM     32  C   UNL A   1      40.472  27.213  27.077  1.00  0.00     0.010 A 
ATOM     33  C   UNL A   1      39.433  26.690  29.206  1.00  0.00     0.010 A 
ATOM     34  C   UNL A   1      40.089  27.600  28.360  1.00  0.00    -0.014 A 
BRANCH  34  35
ATOM     35  C   UNL A   1      40.355  28.897  28.975  1.00  0.00     0.031 A 
ATOM     36  C   UNL A   1      39.351  29.987  28.855  1.00  0.00     0.074 A 
ATOM     37  C   UNL A   1      41.364  29.014  29.869  1.00  0.00     0.049 A 
ATOM     38  N   UNL A   1      39.524  31.199  29.265  1.00  0.00    -0.248 NA
ATOM     39  C   UNL A   1      38.055  29.792  28.207  1.00  0.00     0.031 C 
ATOM     40  C   UNL A   1      41.479  30.012  30.932  1.00  0.00     0.029 A 
ATOM     41  N   UNL A   1      42.609  28.382  29.871  1.00  0.00    -0.354 N 
ATOM     42  C   UNL A   1      38.290  31.813  29.270  1.00  0.00     0.074 A 
ATOM     43  C   UNL A   1      37.437  30.937  28.505  1.00  0.00     0.031 C 
ATOM     44  C   UNL A   1      42.772  30.128  31.273  1.00  0.00     0.029 A 
ATOM     45  C   UNL A   1      43.529  29.354  30.306  1.00  0.00     0.049 A 
ATOM     46  H   UNL A   1      42.802  27.449  29.622  1.00  0.00     0.167 HD
ATOM     47  C   UNL A   1      38.102  32.925  30.040  1.00  0.00     0.031 A 
ATOM     48  C   UNL A   1      44.517  29.860  29.506  1.00  0.00     0.031 A 
ATOM     49  C   UNL A   1      39.369  33.450  30.561  1.00  0.00     0.049 A 
ATOM     50  C   UNL A   1      44.439  31.369  29.295  1.00  0.00     0.074 A 
ATOM     51  C   UNL A   1      39.964  33.553  31.807  1.00  0.00     0.029 A 
ATOM     52  N   UNL A   1      40.360  33.770  29.646  1.00  0.00    -0.354 N 
ATOM     53  N   UNL A   1      43.541  32.158  29.819  1.00  0.00    -0.248 NA
ATOM     54  C   UNL A   1      45.312  32.076  28.353  1.00  0.00     0.031 C 
ATOM     55  C   UNL A   1      41.330  33.925  31.619  1.00  0.00     0.029 A 
ATOM     56  C   UNL A   1      41.558  34.062  30.262  1.00  0.00     0.049 A 
ATOM     57  H   UNL A   1      40.226  33.786  28.670  1.00  0.00     0.167 HD
ATOM     58  C   UNL A   1      43.621  33.391  29.226  1.00  0.00     0.074 A 
ATOM     59  C   UNL A   1      44.765  33.303  28.339  1.00  0.00     0.031 C 
ATOM     60  C   UNL A   1      42.702  34.379  29.425  1.00  0.00     0.031 A 
BRANCH  47  61
ATOM     61  C   UNL A   1      36.740  33.427  30.490  1.00  0.00    -0.014 A 
ATOM     62  C   UNL A   1      35.833  33.936  29.537  1.00  0.00     0.010 A 
ATOM     63  C   UNL A   1      36.313  33.499  31.830  1.00  0.00     0.010 A 
ATOM     64  C   UNL A   1      34.627  34.560  29.906  1.00  0.00     0.020 A 
ATOM     65  C   UNL A   1      35.124  34.132  32.218  1.00  0.00     0.020 A 
ATOM     66  C   UNL A   1      34.292  34.676  31.252  1.00  0.00     0.054 A 
BRANCH  66  67
ATOM     67  S   UNL A   1      32.783  35.554  31.730  1.00  0.00     0.124 S 
ATOM     68  O   UNL A   1      32.242  34.699  32.783  1.00  0.00    -0.237 OA
ATOM     69  O   UNL A   1      33.297  36.848  32.168  1.00  0.00    -0.237 OA
ATOM     70  O   UNL A   1      31.994  35.586  30.499  1.00  0.00    -0.744 OA
ENDBRANCH  66  67
ENDBRANCH  47  61
BRANCH  48  71
ATOM     71  C   UNL A   1      45.000  28.914  28.462  1.00  0.00    -0.014 A 
ATOM     72  C   UNL A   1      45.937  27.925  28.827  1.00  0.00     0.010 A 
ATOM     73  C   UNL A   1      44.295  28.772  27.254  1.00  0.00     0.010 A 
ATOM     74  C   UNL A   1      46.074  26.759  28.069  1.00  0.00     0.020 A 
ATOM     75  C   UNL A   1      44.437  27.611  26.487  1.00  0.00     0.020 A 
ATOM     76  C   UNL A   1      45.282  26.590  26.932  1.00  0.00     0.054 A 
BRANCH  76  77
ATOM     77  S   UNL A   1      45.252  24.978  26.102  1.00  0.00     0.124 S 
ATOM     78  O   UNL A   1      43.859  24.560  26.234  1.00  0.00    -0.237 OA
ATOM     79  O   UNL A   1      45.666  25.346  24.752  1.00  0.00    -0.237 OA
ATOM     80  O   UNL A   1      46.216  24.192  26.864  1.00  0.00    -0.744 OA
ENDBRANCH  76  77
ENDBRANCH  48  71
BRANCH  60  81
ATOM     81  C   UNL A   1      42.786  35.726  28.760  1.00  0.00    -0.014 A 
ATOM     82  C   UNL A   1      43.243  36.865  29.442  1.00  0.00     0.010 A 
ATOM     83  C   UNL A   1      42.288  35.907  27.451  1.00  0.00     0.010 A 
ATOM     84  C   UNL A   1      43.244  38.125  28.826  1.00  0.00     0.020 A 
ATOM     85  C   UNL A   1      42.267  37.162  26.835  1.00  0.00     0.020 A 
ATOM     86  C   UNL A   1      42.760  38.264  27.524  1.00  0.00     0.054 A 
BRANCH  86  87
ATOM     87  S   UNL A   1      42.711  39.907  26.762  1.00  0.00     0.124 S 
ATOM     88  O   UNL A   1      42.867  40.799  27.910  1.00  0.00    -0.237 OA
ATOM     89  O   UNL A   1      43.852  39.853  25.852  1.00  0.00    -0.237 OA
ATOM     90  O   UNL A   1      41.401  39.954  26.119  1.00  0.00    -0.744 OA
ENDBRANCH  86  87
ENDBRANCH  60  81
ENDBRANCH  34  35
ENDBRANCH  26  29
ENDBRANCH  24  25
ENDBRANCH   1  24
TORSDOF 17
ENDMDL
