MODEL 1
REMARK VINA RESULT:     -12.2      0.000      0.000
REMARK SMILES O=C(NCCCNC(=O)c1cc(-c2ccccc2)nc(Nc2nc3ccccc3s2)n1)c1ccc(-c2c3nc(c(-c4ccc(S(=O)(=O)[O-])cc4)c4ccc([nH]4)c(-c4ccc(S(=O)(=O)[O-])cc4)c4nc(c(-c5ccc(S(=O)(=O)[O-])cc5)c5ccc2[nH]5)C=C4)C=C3)cc1
REMARK SMILES IDX 4 1 3 2 1 3 2 4 32 6 33 7 91 8 34 9 90 10 35 11 36 12 37 13
REMARK SMILES IDX 84 14 38 15 89 16 83 17 85 18 39 19 88 20 82 21 81 22 40 24
REMARK SMILES IDX 70 25 51 26 69 27 52 28 55 29 68 30 86 31 53 32 54 33 67 35
REMARK SMILES IDX 87 36 56 37 41 38 42 39 50 40 43 41 49 42 44 43 45 44 46 45
REMARK SMILES IDX 47 46 48 47 71 48 72 49 80 50 73 51 79 52 74 53 75 54 76 55
REMARK SMILES IDX 77 56 78 57 57 58 58 59 66 60 59 61 65 62 60 63 61 64 62 65
REMARK SMILES IDX 63 66 64 67 5 68 6 69 7 70 8 71 9 73 10 74 11 75 31 76 12 77
REMARK SMILES IDX 20 78 19 79 13 80 14 81 18 82 15 83 17 84 16 85 21 86 22 88
REMARK SMILES IDX 23 89 30 90 24 91 29 92 25 93 28 94 26 95 27 96
REMARK H PARENT 3 5 85 23 55 34 7 72 21 87
REMARK Flexibility Score: inf
ROOT
ATOM      1  C   UNL A   1      34.004  28.095  26.461  1.00  0.00     0.118 C 
ENDROOT
BRANCH   1   2
ATOM      2  N   UNL A   1      33.676  29.421  26.972  1.00  0.00    -0.352 N 
ATOM      3  O   UNL A   1      33.840  31.262  28.247  1.00  0.00    -0.269 OA
ATOM      4  C   UNL A   1      34.391  30.272  27.782  1.00  0.00     0.251 C 
ATOM      5  H   UNL A   1      32.799  29.764  26.689  1.00  0.00     0.163 HD
BRANCH   4   6
ATOM      6  C   UNL A   1      35.806  29.985  28.109  1.00  0.00     0.039 A 
ATOM      7  C   UNL A   1      36.814  30.196  27.169  1.00  0.00     0.014 A 
ATOM      8  C   UNL A   1      36.133  29.528  29.389  1.00  0.00     0.014 A 
ATOM      9  C   UNL A   1      38.114  29.791  27.444  1.00  0.00     0.010 A 
ATOM     10  C   UNL A   1      37.462  29.222  29.702  1.00  0.00     0.010 A 
ATOM     11  C   UNL A   1      38.459  29.318  28.720  1.00  0.00    -0.014 A 
BRANCH  11  12
ATOM     12  C   UNL A   1      39.881  29.002  29.010  1.00  0.00     0.031 A 
ATOM     13  C   UNL A   1      40.775  29.987  29.709  1.00  0.00     0.074 A 
ATOM     14  C   UNL A   1      40.349  27.784  28.667  1.00  0.00     0.049 A 
ATOM     15  N   UNL A   1      42.026  29.845  30.070  1.00  0.00    -0.248 NA
ATOM     16  C   UNL A   1      40.203  31.300  30.042  1.00  0.00     0.031 C 
ATOM     17  C   UNL A   1      39.577  26.748  27.973  1.00  0.00     0.029 A 
ATOM     18  N   UNL A   1      41.572  27.200  28.875  1.00  0.00    -0.354 N 
ATOM     19  C   UNL A   1      42.397  31.053  30.650  1.00  0.00     0.074 A 
ATOM     20  C   UNL A   1      41.245  31.925  30.574  1.00  0.00     0.031 C 
ATOM     21  C   UNL A   1      40.323  25.640  27.867  1.00  0.00     0.029 A 
ATOM     22  C   UNL A   1      41.646  25.905  28.419  1.00  0.00     0.049 A 
ATOM     23  H   UNL A   1      42.325  27.663  29.309  1.00  0.00     0.167 HD
ATOM     24  C   UNL A   1      43.588  31.398  31.197  1.00  0.00     0.031 A 
ATOM     25  C   UNL A   1      42.666  25.027  28.427  1.00  0.00     0.031 A 
ATOM     26  C   UNL A   1      44.729  30.523  31.274  1.00  0.00     0.049 A 
ATOM     27  C   UNL A   1      43.975  25.442  29.027  1.00  0.00     0.074 A 
ATOM     28  C   UNL A   1      45.969  30.771  31.836  1.00  0.00     0.029 A 
ATOM     29  N   UNL A   1      44.772  29.230  30.771  1.00  0.00    -0.354 N 
ATOM     30  N   UNL A   1      44.296  26.580  29.595  1.00  0.00    -0.248 NA
ATOM     31  C   UNL A   1      45.062  24.455  28.991  1.00  0.00     0.031 C 
ATOM     32  C   UNL A   1      46.777  29.648  31.632  1.00  0.00     0.029 A 
ATOM     33  C   UNL A   1      46.024  28.678  30.991  1.00  0.00     0.049 A 
ATOM     34  H   UNL A   1      44.024  28.771  30.325  1.00  0.00     0.167 HD
ATOM     35  C   UNL A   1      45.619  26.443  29.993  1.00  0.00     0.074 A 
ATOM     36  C   UNL A   1      46.031  25.103  29.622  1.00  0.00     0.031 C 
ATOM     37  C   UNL A   1      46.421  27.347  30.606  1.00  0.00     0.031 A 
BRANCH  24  38
ATOM     38  C   UNL A   1      43.732  32.800  31.734  1.00  0.00    -0.014 A 
ATOM     39  C   UNL A   1      44.123  33.864  30.902  1.00  0.00     0.010 A 
ATOM     40  C   UNL A   1      43.414  33.064  33.079  1.00  0.00     0.010 A 
ATOM     41  C   UNL A   1      44.230  35.161  31.415  1.00  0.00     0.020 A 
ATOM     42  C   UNL A   1      43.495  34.364  33.590  1.00  0.00     0.020 A 
ATOM     43  C   UNL A   1      43.918  35.402  32.757  1.00  0.00     0.054 A 
BRANCH  43  44
ATOM     44  S   UNL A   1      44.043  37.097  33.392  1.00  0.00     0.124 S 
ATOM     45  O   UNL A   1      44.043  37.881  32.158  1.00  0.00    -0.237 OA
ATOM     46  O   UNL A   1      42.841  37.222  34.212  1.00  0.00    -0.237 OA
ATOM     47  O   UNL A   1      45.302  37.101  34.132  1.00  0.00    -0.744 OA
ENDBRANCH  43  44
ENDBRANCH  24  38
BRANCH  25  48
ATOM     48  C   UNL A   1      42.479  23.680  27.827  1.00  0.00    -0.014 A 
ATOM     49  C   UNL A   1      42.748  23.455  26.467  1.00  0.00     0.010 A 
ATOM     50  C   UNL A   1      42.068  22.601  28.632  1.00  0.00     0.010 A 
ATOM     51  C   UNL A   1      42.601  22.177  25.920  1.00  0.00     0.020 A 
ATOM     52  C   UNL A   1      41.947  21.317  28.096  1.00  0.00     0.020 A 
ATOM     53  C   UNL A   1      42.204  21.115  26.740  1.00  0.00     0.054 A 
BRANCH  53  54
ATOM     54  S   UNL A   1      42.083  19.452  26.025  1.00  0.00     0.124 S 
ATOM     55  O   UNL A   1      40.652  19.342  25.757  1.00  0.00    -0.237 OA
ATOM     56  O   UNL A   1      42.943  19.548  24.849  1.00  0.00    -0.237 OA
ATOM     57  O   UNL A   1      42.590  18.587  27.089  1.00  0.00    -0.744 OA
ENDBRANCH  53  54
ENDBRANCH  25  48
BRANCH  37  58
ATOM     58  C   UNL A   1      47.821  26.906  30.933  1.00  0.00    -0.014 A 
ATOM     59  C   UNL A   1      48.884  27.143  30.044  1.00  0.00     0.010 A 
ATOM     60  C   UNL A   1      48.082  26.277  32.164  1.00  0.00     0.010 A 
ATOM     61  C   UNL A   1      50.178  26.726  30.364  1.00  0.00     0.020 A 
ATOM     62  C   UNL A   1      49.380  25.883  32.499  1.00  0.00     0.020 A 
ATOM     63  C   UNL A   1      50.417  26.095  31.589  1.00  0.00     0.054 A 
BRANCH  63  64
ATOM     64  S   UNL A   1      52.111  25.592  31.998  1.00  0.00     0.124 S 
ATOM     65  O   UNL A   1      52.823  25.890  30.759  1.00  0.00    -0.237 OA
ATOM     66  O   UNL A   1      52.437  26.452  33.133  1.00  0.00    -0.237 OA
ATOM     67  O   UNL A   1      51.982  24.172  32.317  1.00  0.00    -0.744 OA
ENDBRANCH  63  64
ENDBRANCH  37  58
ENDBRANCH  11  12
ENDBRANCH   4   6
ENDBRANCH   1   2
BRANCH   1  68
ATOM     68  C   UNL A   1      33.995  28.029  24.941  1.00  0.00     0.042 C 
BRANCH  68  69
ATOM     69  C   UNL A   1      32.740  27.398  24.360  1.00  0.00     0.118 C 
BRANCH  69  70
ATOM     70  N   UNL A   1      32.866  27.092  22.943  1.00  0.00    -0.351 N 
ATOM     71  C   UNL A   1      33.316  25.948  22.324  1.00  0.00     0.270 C 
ATOM     72  H   UNL A   1      32.586  27.813  22.334  1.00  0.00     0.163 HD
ATOM     73  O   UNL A   1      33.434  25.928  21.101  1.00  0.00    -0.268 OA
BRANCH  71  74
ATOM     74  C   UNL A   1      33.615  24.742  23.133  1.00  0.00     0.134 A 
ATOM     75  C   UNL A   1      34.828  24.614  23.746  1.00  0.00     0.063 A 
ATOM     76  N   UNL A   1      32.648  23.822  23.203  1.00  0.00    -0.207 NA
ATOM     77  C   UNL A   1      35.048  23.408  24.367  1.00  0.00     0.077 A 
ATOM     78  C   UNL A   1      32.905  22.696  23.873  1.00  0.00     0.230 A 
ATOM     79  N   UNL A   1      34.094  22.449  24.455  1.00  0.00    -0.213 NA
BRANCH  77  80
ATOM     80  C   UNL A   1      36.394  23.085  24.862  1.00  0.00     0.000 A 
ATOM     81  C   UNL A   1      37.095  23.995  25.669  1.00  0.00     0.010 A 
ATOM     82  C   UNL A   1      36.956  21.811  24.659  1.00  0.00     0.010 A 
ATOM     83  C   UNL A   1      38.296  23.630  26.284  1.00  0.00     0.001 A 
ATOM     84  C   UNL A   1      38.158  21.447  25.270  1.00  0.00     0.001 A 
ATOM     85  C   UNL A   1      38.822  22.354  26.090  1.00  0.00     0.000 A 
ENDBRANCH  77  80
BRANCH  78  86
ATOM     86  N   UNL A   1      31.887  21.766  24.065  1.00  0.00    -0.300 N 
ATOM     87  H   UNL A   1      30.966  22.094  24.178  1.00  0.00     0.172 HD
BRANCH  86  88
ATOM     88  C   UNL A   1      32.106  20.435  24.103  1.00  0.00     0.190 A 
ATOM     89  N   UNL A   1      32.069  19.695  25.188  1.00  0.00    -0.220 NA
ATOM     90  S   UNL A   1      32.489  19.556  22.668  1.00  0.00    -0.097 S 
ATOM     91  C   UNL A   1      32.568  18.436  24.946  1.00  0.00     0.084 A 
ATOM     92  C   UNL A   1      32.888  18.171  23.617  1.00  0.00     0.056 A 
ATOM     93  C   UNL A   1      32.792  17.445  25.920  1.00  0.00     0.030 A 
ATOM     94  C   UNL A   1      33.445  16.941  23.227  1.00  0.00     0.021 A 
ATOM     95  C   UNL A   1      33.359  16.224  25.549  1.00  0.00     0.002 A 
ATOM     96  C   UNL A   1      33.684  15.978  24.218  1.00  0.00     0.002 A 
ENDBRANCH  86  88
ENDBRANCH  78  86
ENDBRANCH  71  74
ENDBRANCH  69  70
ENDBRANCH  68  69
ENDBRANCH   1  68
TORSDOF 16
ENDMDL
MODEL 2
REMARK VINA RESULT:     -11.9      4.266      9.824
REMARK SMILES O=C(NCCCNC(=O)c1cc(-c2ccccc2)nc(Nc2nc3ccccc3s2)n1)c1ccc(-c2c3nc(c(-c4ccc(S(=O)(=O)[O-])cc4)c4ccc([nH]4)c(-c4ccc(S(=O)(=O)[O-])cc4)c4nc(c(-c5ccc(S(=O)(=O)[O-])cc5)c5ccc2[nH]5)C=C4)C=C3)cc1
REMARK SMILES IDX 4 1 3 2 1 3 2 4 32 6 33 7 91 8 34 9 90 10 35 11 36 12 37 13
REMARK SMILES IDX 84 14 38 15 89 16 83 17 85 18 39 19 88 20 82 21 81 22 40 24
REMARK SMILES IDX 70 25 51 26 69 27 52 28 55 29 68 30 86 31 53 32 54 33 67 35
REMARK SMILES IDX 87 36 56 37 41 38 42 39 50 40 43 41 49 42 44 43 45 44 46 45
REMARK SMILES IDX 47 46 48 47 71 48 72 49 80 50 73 51 79 52 74 53 75 54 76 55
REMARK SMILES IDX 77 56 78 57 57 58 58 59 66 60 59 61 65 62 60 63 61 64 62 65
REMARK SMILES IDX 63 66 64 67 5 68 6 69 7 70 8 71 9 73 10 74 11 75 31 76 12 77
REMARK SMILES IDX 20 78 19 79 13 80 14 81 18 82 15 83 17 84 16 85 21 86 22 88
REMARK SMILES IDX 23 89 30 90 24 91 29 92 25 93 28 94 26 95 27 96
REMARK H PARENT 3 5 85 23 55 34 7 72 21 87
REMARK Flexibility Score: inf
ROOT
ATOM      1  C   UNL A   1      39.694  23.324  27.034  1.00  0.00     0.118 C 
ENDROOT
BRANCH   1   2
ATOM      2  N   UNL A   1      40.622  23.951  26.102  1.00  0.00    -0.352 N 
ATOM      3  O   UNL A   1      41.798  25.592  25.119  1.00  0.00    -0.269 OA
ATOM      4  C   UNL A   1      41.194  25.201  26.110  1.00  0.00     0.251 C 
ATOM      5  H   UNL A   1      40.882  23.386  25.340  1.00  0.00     0.163 HD
BRANCH   4   6
ATOM      6  C   UNL A   1      41.065  26.078  27.296  1.00  0.00     0.039 A 
ATOM      7  C   UNL A   1      40.081  25.844  28.256  1.00  0.00     0.014 A 
ATOM      8  C   UNL A   1      41.966  27.134  27.468  1.00  0.00     0.014 A 
ATOM      9  C   UNL A   1      39.885  26.754  29.286  1.00  0.00     0.010 A 
ATOM     10  C   UNL A   1      41.836  27.990  28.567  1.00  0.00     0.010 A 
ATOM     11  C   UNL A   1      40.772  27.827  29.467  1.00  0.00    -0.014 A 
BRANCH  11  12
ATOM     12  C   UNL A   1      40.597  28.715  30.645  1.00  0.00     0.031 A 
ATOM     13  C   UNL A   1      41.495  28.609  31.845  1.00  0.00     0.074 A 
ATOM     14  C   UNL A   1      39.632  29.656  30.600  1.00  0.00     0.049 A 
ATOM     15  N   UNL A   1      41.497  29.336  32.934  1.00  0.00    -0.248 NA
ATOM     16  C   UNL A   1      42.517  27.550  31.833  1.00  0.00     0.031 C 
ATOM     17  C   UNL A   1      38.691  29.849  29.491  1.00  0.00     0.029 A 
ATOM     18  N   UNL A   1      39.297  30.644  31.491  1.00  0.00    -0.354 N 
ATOM     19  C   UNL A   1      42.499  28.813  33.743  1.00  0.00     0.074 A 
ATOM     20  C   UNL A   1      43.071  27.692  33.029  1.00  0.00     0.031 C 
ATOM     21  C   UNL A   1      37.928  30.921  29.742  1.00  0.00     0.029 A 
ATOM     22  C   UNL A   1      38.274  31.452  31.055  1.00  0.00     0.049 A 
ATOM     23  H   UNL A   1      39.745  30.763  32.360  1.00  0.00     0.167 HD
ATOM     24  C   UNL A   1      42.904  29.233  34.966  1.00  0.00     0.031 A 
ATOM     25  C   UNL A   1      37.666  32.497  31.646  1.00  0.00     0.031 A 
ATOM     26  C   UNL A   1      42.334  30.353  35.669  1.00  0.00     0.049 A 
ATOM     27  C   UNL A   1      38.128  32.931  33.005  1.00  0.00     0.074 A 
ATOM     28  C   UNL A   1      42.697  30.874  36.899  1.00  0.00     0.029 A 
ATOM     29  N   UNL A   1      41.278  31.126  35.206  1.00  0.00    -0.354 N 
ATOM     30  N   UNL A   1      39.096  32.438  33.740  1.00  0.00    -0.248 NA
ATOM     31  C   UNL A   1      37.418  34.062  33.615  1.00  0.00     0.031 C 
ATOM     32  C   UNL A   1      41.831  31.930  37.201  1.00  0.00     0.029 A 
ATOM     33  C   UNL A   1      40.963  32.103  36.136  1.00  0.00     0.049 A 
ATOM     34  H   UNL A   1      40.820  30.999  34.344  1.00  0.00     0.167 HD
ATOM     35  C   UNL A   1      39.119  33.207  34.897  1.00  0.00     0.074 A 
ATOM     36  C   UNL A   1      38.083  34.211  34.752  1.00  0.00     0.031 C 
ATOM     37  C   UNL A   1      39.922  33.088  35.982  1.00  0.00     0.031 A 
BRANCH  24  38
ATOM     38  C   UNL A   1      44.006  28.457  35.643  1.00  0.00    -0.014 A 
ATOM     39  C   UNL A   1      43.723  27.351  36.464  1.00  0.00     0.010 A 
ATOM     40  C   UNL A   1      45.349  28.807  35.408  1.00  0.00     0.010 A 
ATOM     41  C   UNL A   1      44.760  26.631  37.065  1.00  0.00     0.020 A 
ATOM     42  C   UNL A   1      46.390  28.075  35.987  1.00  0.00     0.020 A 
ATOM     43  C   UNL A   1      46.087  27.001  36.826  1.00  0.00     0.054 A 
BRANCH  43  44
ATOM     44  S   UNL A   1      47.415  26.037  37.600  1.00  0.00     0.124 S 
ATOM     45  O   UNL A   1      46.902  24.673  37.489  1.00  0.00    -0.237 OA
ATOM     46  O   UNL A   1      48.568  26.342  36.756  1.00  0.00    -0.237 OA
ATOM     47  O   UNL A   1      47.484  26.567  38.959  1.00  0.00    -0.744 OA
ENDBRANCH  43  44
ENDBRANCH  24  38
BRANCH  25  48
ATOM     48  C   UNL A   1      36.545  33.183  30.951  1.00  0.00    -0.014 A 
ATOM     49  C   UNL A   1      35.240  33.127  31.466  1.00  0.00     0.010 A 
ATOM     50  C   UNL A   1      36.792  33.934  29.787  1.00  0.00     0.010 A 
ATOM     51  C   UNL A   1      34.198  33.803  30.823  1.00  0.00     0.020 A 
ATOM     52  C   UNL A   1      35.760  34.635  29.158  1.00  0.00     0.020 A 
ATOM     53  C   UNL A   1      34.467  34.555  29.675  1.00  0.00     0.054 A 
BRANCH  53  54
ATOM     54  S   UNL A   1      33.114  35.478  28.894  1.00  0.00     0.124 S 
ATOM     55  O   UNL A   1      33.840  36.456  28.090  1.00  0.00    -0.237 OA
ATOM     56  O   UNL A   1      32.411  34.440  28.146  1.00  0.00    -0.237 OA
ATOM     57  O   UNL A   1      32.374  36.024  30.030  1.00  0.00    -0.744 OA
ENDBRANCH  53  54
ENDBRANCH  25  48
BRANCH  37  58
ATOM     58  C   UNL A   1      39.724  34.085  37.090  1.00  0.00    -0.014 A 
ATOM     59  C   UNL A   1      38.939  33.774  38.215  1.00  0.00     0.010 A 
ATOM     60  C   UNL A   1      40.361  35.336  37.021  1.00  0.00     0.010 A 
ATOM     61  C   UNL A   1      38.765  34.712  39.235  1.00  0.00     0.020 A 
ATOM     62  C   UNL A   1      40.211  36.268  38.052  1.00  0.00     0.020 A 
ATOM     63  C   UNL A   1      39.401  35.955  39.145  1.00  0.00     0.054 A 
BRANCH  63  64
ATOM     64  S   UNL A   1      39.188  37.145  40.497  1.00  0.00     0.124 S 
ATOM     65  O   UNL A   1      40.569  37.497  40.811  1.00  0.00    -0.237 OA
ATOM     66  O   UNL A   1      38.395  38.202  39.874  1.00  0.00    -0.237 OA
ATOM     67  O   UNL A   1      38.491  36.377  41.527  1.00  0.00    -0.744 OA
ENDBRANCH  63  64
ENDBRANCH  37  58
ENDBRANCH  11  12
ENDBRANCH   4   6
ENDBRANCH   1   2
BRANCH   1  68
ATOM     68  C   UNL A   1      38.597  22.533  26.335  1.00  0.00     0.042 C 
BRANCH  68  69
ATOM     69  C   UNL A   1      37.471  23.394  25.787  1.00  0.00     0.118 C 
BRANCH  69  70
ATOM     70  N   UNL A   1      37.325  23.282  24.343  1.00  0.00    -0.351 N 
ATOM     71  C   UNL A   1      36.188  23.297  23.567  1.00  0.00     0.270 C 
ATOM     72  H   UNL A   1      38.169  23.179  23.846  1.00  0.00     0.163 HD
ATOM     73  O   UNL A   1      36.277  23.091  22.359  1.00  0.00    -0.268 OA
BRANCH  71  74
ATOM     74  C   UNL A   1      34.877  23.602  24.189  1.00  0.00     0.134 A 
ATOM     75  C   UNL A   1      34.612  24.862  24.642  1.00  0.00     0.063 A 
ATOM     76  N   UNL A   1      34.014  22.585  24.277  1.00  0.00    -0.207 NA
ATOM     77  C   UNL A   1      33.420  25.007  25.311  1.00  0.00     0.077 A 
ATOM     78  C   UNL A   1      32.847  22.809  24.886  1.00  0.00     0.230 A 
ATOM     79  N   UNL A   1      32.522  23.999  25.425  1.00  0.00    -0.213 NA
BRANCH  77  80
ATOM     80  C   UNL A   1      33.142  26.260  26.028  1.00  0.00     0.000 A 
ATOM     81  C   UNL A   1      34.074  27.310  26.020  1.00  0.00     0.010 A 
ATOM     82  C   UNL A   1      31.887  26.494  26.620  1.00  0.00     0.010 A 
ATOM     83  C   UNL A   1      33.748  28.562  26.550  1.00  0.00     0.001 A 
ATOM     84  C   UNL A   1      31.561  27.743  27.152  1.00  0.00     0.001 A 
ATOM     85  C   UNL A   1      32.490  28.779  27.107  1.00  0.00     0.000 A 
ENDBRANCH  77  80
BRANCH  78  86
ATOM     86  N   UNL A   1      31.877  21.809  24.897  1.00  0.00    -0.300 N 
ATOM     87  H   UNL A   1      30.946  22.061  25.093  1.00  0.00     0.172 HD
BRANCH  86  88
ATOM     88  C   UNL A   1      32.156  20.512  24.652  1.00  0.00     0.190 A 
ATOM     89  N   UNL A   1      32.348  19.595  25.572  1.00  0.00    -0.220 NA
ATOM     90  S   UNL A   1      32.311  19.927  23.035  1.00  0.00    -0.097 S 
ATOM     91  C   UNL A   1      32.848  18.438  25.022  1.00  0.00     0.084 A 
ATOM     92  C   UNL A   1      32.933  18.431  23.631  1.00  0.00     0.056 A 
ATOM     93  C   UNL A   1      33.287  17.312  25.744  1.00  0.00     0.030 A 
ATOM     94  C   UNL A   1      33.464  17.333  22.933  1.00  0.00     0.021 A 
ATOM     95  C   UNL A   1      33.829  16.219  25.064  1.00  0.00     0.002 A 
ATOM     96  C   UNL A   1      33.918  16.234  23.675  1.00  0.00     0.002 A 
ENDBRANCH  86  88
ENDBRANCH  78  86
ENDBRANCH  71  74
ENDBRANCH  69  70
ENDBRANCH  68  69
ENDBRANCH   1  68
TORSDOF 16
ENDMDL
MODEL 3
REMARK VINA RESULT:     -11.9      0.577      7.995
REMARK SMILES O=C(NCCCNC(=O)c1cc(-c2ccccc2)nc(Nc2nc3ccccc3s2)n1)c1ccc(-c2c3nc(c(-c4ccc(S(=O)(=O)[O-])cc4)c4ccc([nH]4)c(-c4ccc(S(=O)(=O)[O-])cc4)c4nc(c(-c5ccc(S(=O)(=O)[O-])cc5)c5ccc2[nH]5)C=C4)C=C3)cc1
REMARK SMILES IDX 4 1 3 2 1 3 2 4 32 6 33 7 91 8 34 9 90 10 35 11 36 12 37 13
REMARK SMILES IDX 84 14 38 15 89 16 83 17 85 18 39 19 88 20 82 21 81 22 40 24
REMARK SMILES IDX 70 25 51 26 69 27 52 28 55 29 68 30 86 31 53 32 54 33 67 35
REMARK SMILES IDX 87 36 56 37 41 38 42 39 50 40 43 41 49 42 44 43 45 44 46 45
REMARK SMILES IDX 47 46 48 47 71 48 72 49 80 50 73 51 79 52 74 53 75 54 76 55
REMARK SMILES IDX 77 56 78 57 57 58 58 59 66 60 59 61 65 62 60 63 61 64 62 65
REMARK SMILES IDX 63 66 64 67 5 68 6 69 7 70 8 71 9 73 10 74 11 75 31 76 12 77
REMARK SMILES IDX 20 78 19 79 13 80 14 81 18 82 15 83 17 84 16 85 21 86 22 88
REMARK SMILES IDX 23 89 30 90 24 91 29 92 25 93 28 94 26 95 27 96
REMARK H PARENT 3 5 85 23 55 34 7 72 21 87
REMARK Flexibility Score: inf
ROOT
ATOM      1  C   UNL A   1      34.055  28.067  26.844  1.00  0.00     0.118 C 
ENDROOT
BRANCH   1   2
ATOM      2  N   UNL A   1      33.766  29.426  27.286  1.00  0.00    -0.352 N 
ATOM      3  O   UNL A   1      34.000  31.334  28.446  1.00  0.00    -0.269 OA
ATOM      4  C   UNL A   1      34.519  30.309  28.023  1.00  0.00     0.251 C 
ATOM      5  H   UNL A   1      32.885  29.767  27.012  1.00  0.00     0.163 HD
BRANCH   4   6
ATOM      6  C   UNL A   1      35.940  30.017  28.321  1.00  0.00     0.039 A 
ATOM      7  C   UNL A   1      36.937  30.276  27.381  1.00  0.00     0.014 A 
ATOM      8  C   UNL A   1      36.284  29.504  29.576  1.00  0.00     0.014 A 
ATOM      9  C   UNL A   1      38.242  29.867  27.623  1.00  0.00     0.010 A 
ATOM     10  C   UNL A   1      37.617  29.192  29.860  1.00  0.00     0.010 A 
ATOM     11  C   UNL A   1      38.603  29.338  28.872  1.00  0.00    -0.014 A 
BRANCH  11  12
ATOM     12  C   UNL A   1      40.030  29.017  29.133  1.00  0.00     0.031 A 
ATOM     13  C   UNL A   1      40.620  27.694  28.732  1.00  0.00     0.074 A 
ATOM     14  C   UNL A   1      40.805  29.961  29.705  1.00  0.00     0.049 A 
ATOM     15  N   UNL A   1      41.856  27.278  28.854  1.00  0.00    -0.248 NA
ATOM     16  C   UNL A   1      39.714  26.706  28.127  1.00  0.00     0.031 C 
ATOM     17  C   UNL A   1      40.340  31.280  30.147  1.00  0.00     0.029 A 
ATOM     18  N   UNL A   1      42.146  29.972  29.989  1.00  0.00    -0.354 N 
ATOM     19  C   UNL A   1      41.872  25.978  28.363  1.00  0.00     0.074 A 
ATOM     20  C   UNL A   1      40.518  25.664  27.960  1.00  0.00     0.031 C 
ATOM     21  C   UNL A   1      41.387  31.990  30.590  1.00  0.00     0.029 A 
ATOM     22  C   UNL A   1      42.582  31.157  30.531  1.00  0.00     0.049 A 
ATOM     23  H   UNL A   1      42.740  29.204  29.822  1.00  0.00     0.167 HD
ATOM     24  C   UNL A   1      42.922  25.127  28.255  1.00  0.00     0.031 A 
ATOM     25  C   UNL A   1      43.804  31.536  30.949  1.00  0.00     0.031 A 
ATOM     26  C   UNL A   1      44.269  25.447  28.653  1.00  0.00     0.049 A 
ATOM     27  C   UNL A   1      44.944  30.569  30.830  1.00  0.00     0.074 A 
ATOM     28  C   UNL A   1      45.405  24.663  28.555  1.00  0.00     0.029 A 
ATOM     29  N   UNL A   1      44.662  26.648  29.226  1.00  0.00    -0.354 N 
ATOM     30  N   UNL A   1      44.942  29.353  30.337  1.00  0.00    -0.248 NA
ATOM     31  C   UNL A   1      46.251  31.023  31.321  1.00  0.00     0.031 C 
ATOM     32  C   UNL A   1      46.475  25.370  29.113  1.00  0.00     0.029 A 
ATOM     33  C   UNL A   1      46.018  26.617  29.508  1.00  0.00     0.049 A 
ATOM     34  H   UNL A   1      44.066  27.411  29.406  1.00  0.00     0.167 HD
ATOM     35  C   UNL A   1      46.250  28.901  30.448  1.00  0.00     0.074 A 
ATOM     36  C   UNL A   1      47.019  29.981  31.035  1.00  0.00     0.031 C 
ATOM     37  C   UNL A   1      46.766  27.696  30.101  1.00  0.00     0.031 A 
BRANCH  24  38
ATOM     38  C   UNL A   1      42.652  23.748  27.709  1.00  0.00    -0.014 A 
ATOM     39  C   UNL A   1      42.766  23.472  26.335  1.00  0.00     0.010 A 
ATOM     40  C   UNL A   1      42.336  22.699  28.593  1.00  0.00     0.010 A 
ATOM     41  C   UNL A   1      42.532  22.181  25.850  1.00  0.00     0.020 A 
ATOM     42  C   UNL A   1      42.126  21.402  28.115  1.00  0.00     0.020 A 
ATOM     43  C   UNL A   1      42.210  21.154  26.744  1.00  0.00     0.054 A 
BRANCH  43  44
ATOM     44  S   UNL A   1      41.935  19.483  26.093  1.00  0.00     0.124 S 
ATOM     45  O   UNL A   1      40.484  19.464  25.918  1.00  0.00    -0.237 OA
ATOM     46  O   UNL A   1      42.714  19.488  24.857  1.00  0.00    -0.237 OA
ATOM     47  O   UNL A   1      42.446  18.610  27.145  1.00  0.00    -0.744 OA
ENDBRANCH  43  44
ENDBRANCH  24  38
BRANCH  25  48
ATOM     48  C   UNL A   1      43.992  32.890  31.535  1.00  0.00    -0.014 A 
ATOM     49  C   UNL A   1      43.862  33.099  32.918  1.00  0.00     0.010 A 
ATOM     50  C   UNL A   1      44.347  33.972  30.708  1.00  0.00     0.010 A 
ATOM     51  C   UNL A   1      44.074  34.369  33.462  1.00  0.00     0.020 A 
ATOM     52  C   UNL A   1      44.587  35.236  31.252  1.00  0.00     0.020 A 
ATOM     53  C   UNL A   1      44.438  35.428  32.626  1.00  0.00     0.054 A 
BRANCH  53  54
ATOM     54  S   UNL A   1      44.773  37.053  33.361  1.00  0.00     0.124 S 
ATOM     55  O   UNL A   1      43.434  37.630  33.440  1.00  0.00    -0.237 OA
ATOM     56  O   UNL A   1      45.389  36.703  34.638  1.00  0.00    -0.237 OA
ATOM     57  O   UNL A   1      45.672  37.684  32.397  1.00  0.00    -0.744 OA
ENDBRANCH  53  54
ENDBRANCH  25  48
BRANCH  37  58
ATOM     58  C   UNL A   1      48.238  27.494  30.328  1.00  0.00    -0.014 A 
ATOM     59  C   UNL A   1      48.716  26.900  31.510  1.00  0.00     0.010 A 
ATOM     60  C   UNL A   1      49.154  27.871  29.330  1.00  0.00     0.010 A 
ATOM     61  C   UNL A   1      50.088  26.720  31.704  1.00  0.00     0.020 A 
ATOM     62  C   UNL A   1      50.525  27.668  29.509  1.00  0.00     0.020 A 
ATOM     63  C   UNL A   1      50.984  27.108  30.703  1.00  0.00     0.054 A 
BRANCH  63  64
ATOM     64  S   UNL A   1      52.758  26.834  30.963  1.00  0.00     0.124 S 
ATOM     65  O   UNL A   1      53.128  27.992  31.771  1.00  0.00    -0.237 OA
ATOM     66  O   UNL A   1      52.787  25.548  31.654  1.00  0.00    -0.237 OA
ATOM     67  O   UNL A   1      53.307  26.819  29.608  1.00  0.00    -0.744 OA
ENDBRANCH  63  64
ENDBRANCH  37  58
ENDBRANCH  11  12
ENDBRANCH   4   6
ENDBRANCH   1   2
BRANCH   1  68
ATOM     68  C   UNL A   1      34.134  27.943  25.329  1.00  0.00     0.042 C 
BRANCH  68  69
ATOM     69  C   UNL A   1      32.838  27.486  24.681  1.00  0.00     0.118 C 
BRANCH  69  70
ATOM     70  N   UNL A   1      32.970  27.266  23.248  1.00  0.00    -0.351 N 
ATOM     71  C   UNL A   1      33.409  26.156  22.563  1.00  0.00     0.270 C 
ATOM     72  H   UNL A   1      32.705  28.027  22.683  1.00  0.00     0.163 HD
ATOM     73  O   UNL A   1      33.536  26.209  21.342  1.00  0.00    -0.268 OA
BRANCH  71  74
ATOM     74  C   UNL A   1      33.686  24.898  23.298  1.00  0.00     0.134 A 
ATOM     75  C   UNL A   1      34.897  24.710  23.899  1.00  0.00     0.063 A 
ATOM     76  N   UNL A   1      32.700  23.995  23.316  1.00  0.00    -0.207 NA
ATOM     77  C   UNL A   1      35.094  23.464  24.446  1.00  0.00     0.077 A 
ATOM     78  C   UNL A   1      32.936  22.827  23.918  1.00  0.00     0.230 A 
ATOM     79  N   UNL A   1      34.121  22.522  24.480  1.00  0.00    -0.213 NA
BRANCH  77  80
ATOM     80  C   UNL A   1      36.434  23.087  24.918  1.00  0.00     0.000 A 
ATOM     81  C   UNL A   1      37.185  23.965  25.714  1.00  0.00     0.010 A 
ATOM     82  C   UNL A   1      36.941  21.792  24.702  1.00  0.00     0.010 A 
ATOM     83  C   UNL A   1      38.381  23.550  26.308  1.00  0.00     0.001 A 
ATOM     84  C   UNL A   1      38.137  21.377  25.291  1.00  0.00     0.001 A 
ATOM     85  C   UNL A   1      38.851  22.254  26.102  1.00  0.00     0.000 A 
ENDBRANCH  77  80
BRANCH  78  86
ATOM     86  N   UNL A   1      31.900  21.906  24.057  1.00  0.00    -0.300 N 
ATOM     87  H   UNL A   1      30.978  22.245  24.133  1.00  0.00     0.172 HD
BRANCH  86  88
ATOM     88  C   UNL A   1      32.102  20.573  24.094  1.00  0.00     0.190 A 
ATOM     89  N   UNL A   1      32.107  19.840  25.184  1.00  0.00    -0.220 NA
ATOM     90  S   UNL A   1      32.402  19.680  22.647  1.00  0.00    -0.097 S 
ATOM     91  C   UNL A   1      32.575  18.573  24.926  1.00  0.00     0.084 A 
ATOM     92  C   UNL A   1      32.827  18.295  23.584  1.00  0.00     0.056 A 
ATOM     93  C   UNL A   1      32.833  17.584  25.895  1.00  0.00     0.030 A 
ATOM     94  C   UNL A   1      33.347  17.055  23.177  1.00  0.00     0.021 A 
ATOM     95  C   UNL A   1      33.363  16.353  25.505  1.00  0.00     0.002 A 
ATOM     96  C   UNL A   1      33.620  16.095  24.161  1.00  0.00     0.002 A 
ENDBRANCH  86  88
ENDBRANCH  78  86
ENDBRANCH  71  74
ENDBRANCH  69  70
ENDBRANCH  68  69
ENDBRANCH   1  68
TORSDOF 16
ENDMDL
