MODEL 1
REMARK VINA RESULT:     -11.5      0.000      0.000
REMARK SMILES COc1cccc(C(=O)/C=C(/Nc2cc(C)c(C)cc2[N+](=O)[O-])C(=O)NCCCNC(=O)c2ccc(-c3c4nc(c(-c5ccc(S(=O)(=O)[O-])cc5)c5ccc([nH]5)c(-c5ccc(S(=O)(=O)[O-])cc5)c5nc(c(-c6ccc(S(=O)(=O)[O-])cc6)c6ccc3[nH]6)C=C5)C=C4)cc2)c1
REMARK SMILES IDX 28 1 27 2 26 3 24 4 25 5 11 7 10 8 8 9 9 10 7 11 3 12 4 13
REMARK SMILES IDX 93 14 5 15 6 16 2 17 1 18 12 19 13 21 14 22 20 23 15 24
REMARK SMILES IDX 19 25 16 26 17 27 18 28 21 29 22 30 23 31 29 32 30 33 31 34
REMARK SMILES IDX 32 36 33 37 34 38 92 39 35 40 91 41 36 42 37 43 38 44 85 45
REMARK SMILES IDX 39 46 90 47 84 48 86 49 40 50 89 51 83 52 82 53 41 55 71 56
REMARK SMILES IDX 52 57 70 58 53 59 56 60 69 61 87 62 54 63 55 64 68 66 88 67
REMARK SMILES IDX 57 68 42 69 43 70 51 71 44 72 50 73 45 74 46 75 47 76 48 77
REMARK SMILES IDX 49 78 72 79 73 80 81 81 74 82 80 83 75 84 76 85 77 86 78 87
REMARK SMILES IDX 79 88 58 89 59 90 67 91 60 92 66 93 61 94 62 95 63 96 64 97
REMARK SMILES IDX 65 98
REMARK H PARENT 26 6 12 20 30 35 86 54 56 65
REMARK Flexibility Score: inf
ROOT
ATOM      1  C   UNL A   1      33.738  27.744  25.639  1.00  0.00     0.042 C 
ENDROOT
BRANCH   1   2
ATOM      2  C   UNL A   1      33.496  26.295  25.314  1.00  0.00     0.118 C 
BRANCH   2   3
ATOM      3  N   UNL A   1      32.614  25.540  26.175  1.00  0.00    -0.351 N 
ATOM      4  C   UNL A   1      31.858  24.450  25.817  1.00  0.00     0.267 C 
ATOM      5  O   UNL A   1      31.298  23.768  26.670  1.00  0.00    -0.268 OA
ATOM      6  H   UNL A   1      32.549  25.836  27.112  1.00  0.00     0.163 HD
BRANCH   4   7
ATOM      7  C   UNL A   1      31.701  24.132  24.359  1.00  0.00     0.108 C 
ATOM      8  C   UNL A   1      30.823  24.882  23.661  1.00  0.00     0.084 C 
BRANCH   8   9
ATOM      9  C   UNL A   1      29.855  25.996  23.934  1.00  0.00     0.188 C 
ATOM     10  O   UNL A   1      29.018  25.801  24.821  1.00  0.00    -0.289 OA
BRANCH   9  11
ATOM     11  C   UNL A   1      29.850  27.323  23.284  1.00  0.00     0.026 A 
ATOM     12  C   UNL A   1      28.760  29.334  22.479  1.00  0.00     0.119 A 
ATOM     13  C   UNL A   1      29.998  29.805  22.029  1.00  0.00     0.046 A 
ATOM     14  C   UNL A   1      28.699  28.114  23.161  1.00  0.00     0.058 A 
ATOM     15  C   UNL A   1      31.163  29.081  22.255  1.00  0.00     0.005 A 
ATOM     16  C   UNL A   1      31.090  27.838  22.877  1.00  0.00     0.012 A 
BRANCH  12  17
ATOM     17  O   UNL A   1      27.733  30.172  22.163  1.00  0.00    -0.497 OA
ATOM     18  C   UNL A   1      27.971  31.395  21.499  1.00  0.00     0.278 C 
ENDBRANCH  12  17
ENDBRANCH   9  11
ENDBRANCH   8   9
BRANCH   7  19
ATOM     19  N   UNL A   1      32.479  23.124  23.752  1.00  0.00    -0.345 N 
ATOM     20  H   UNL A   1      32.633  23.223  22.786  1.00  0.00     0.167 HD
BRANCH  19  21
ATOM     21  C   UNL A   1      33.065  21.984  24.362  1.00  0.00     0.118 A 
ATOM     22  C   UNL A   1      32.383  20.758  24.188  1.00  0.00     0.037 A 
ATOM     23  C   UNL A   1      34.374  21.913  24.863  1.00  0.00     0.292 A 
ATOM     24  C   UNL A   1      33.038  19.511  24.300  1.00  0.00    -0.046 A 
ATOM     25  C   UNL A   1      35.040  20.681  25.000  1.00  0.00     0.091 A 
ATOM     26  C   UNL A   1      32.280  18.276  23.883  1.00  0.00     0.045 C 
ATOM     27  C   UNL A   1      34.404  19.481  24.644  1.00  0.00    -0.041 A 
ATOM     28  C   UNL A   1      35.220  18.218  24.571  1.00  0.00     0.045 C 
BRANCH  23  29
ATOM     29  N   UNL A   1      35.078  23.118  25.290  1.00  0.00     0.064 N 
ATOM     30  O   UNL A   1      35.622  23.800  24.408  1.00  0.00    -0.258 OA
ATOM     31  O   UNL A   1      35.152  23.339  26.507  1.00  0.00    -0.258 OA
ENDBRANCH  23  29
ENDBRANCH  19  21
ENDBRANCH   7  19
ENDBRANCH   4   7
ENDBRANCH   2   3
ENDBRANCH   1   2
BRANCH   1  32
ATOM     32  C   UNL A   1      33.733  28.144  27.105  1.00  0.00     0.118 C 
BRANCH  32  33
ATOM     33  N   UNL A   1      33.412  29.524  27.431  1.00  0.00    -0.352 N 
ATOM     34  C   UNL A   1      34.233  30.527  27.909  1.00  0.00     0.251 C 
ATOM     35  H   UNL A   1      32.472  29.781  27.290  1.00  0.00     0.163 HD
ATOM     36  O   UNL A   1      33.771  31.640  28.107  1.00  0.00    -0.269 OA
BRANCH  34  37
ATOM     37  C   UNL A   1      35.648  30.233  28.248  1.00  0.00     0.039 A 
ATOM     38  C   UNL A   1      35.945  29.698  29.505  1.00  0.00     0.014 A 
ATOM     39  C   UNL A   1      36.676  30.439  27.328  1.00  0.00     0.014 A 
ATOM     40  C   UNL A   1      37.253  29.298  29.801  1.00  0.00     0.010 A 
ATOM     41  C   UNL A   1      37.937  29.913  27.567  1.00  0.00     0.010 A 
ATOM     42  C   UNL A   1      38.252  29.368  28.818  1.00  0.00    -0.014 A 
BRANCH  42  43
ATOM     43  C   UNL A   1      39.659  28.974  29.087  1.00  0.00     0.031 A 
ATOM     44  C   UNL A   1      40.599  29.984  29.698  1.00  0.00     0.074 A 
ATOM     45  C   UNL A   1      40.115  27.760  28.716  1.00  0.00     0.049 A 
ATOM     46  N   UNL A   1      41.888  29.904  29.894  1.00  0.00    -0.248 NA
ATOM     47  C   UNL A   1      40.015  31.280  30.092  1.00  0.00     0.031 C 
ATOM     48  C   UNL A   1      39.326  26.711  28.067  1.00  0.00     0.029 A 
ATOM     49  N   UNL A   1      41.366  27.208  28.831  1.00  0.00    -0.354 N 
ATOM     50  C   UNL A   1      42.271  31.147  30.388  1.00  0.00     0.074 A 
ATOM     51  C   UNL A   1      41.094  31.984  30.394  1.00  0.00     0.031 C 
ATOM     52  C   UNL A   1      40.101  25.631  27.875  1.00  0.00     0.029 A 
ATOM     53  C   UNL A   1      41.449  25.921  28.353  1.00  0.00     0.049 A 
ATOM     54  H   UNL A   1      42.133  27.689  29.220  1.00  0.00     0.167 HD
ATOM     55  C   UNL A   1      43.484  31.551  30.834  1.00  0.00     0.031 A 
ATOM     56  C   UNL A   1      42.494  25.072  28.315  1.00  0.00     0.031 A 
ATOM     57  C   UNL A   1      44.637  30.697  30.887  1.00  0.00     0.049 A 
ATOM     58  C   UNL A   1      43.817  25.517  28.877  1.00  0.00     0.074 A 
ATOM     59  C   UNL A   1      45.898  30.980  31.378  1.00  0.00     0.029 A 
ATOM     60  N   UNL A   1      44.658  29.379  30.455  1.00  0.00    -0.354 N 
ATOM     61  N   UNL A   1      44.149  26.684  29.376  1.00  0.00    -0.248 NA
ATOM     62  C   UNL A   1      44.897  24.522  28.896  1.00  0.00     0.031 C 
ATOM     63  C   UNL A   1      46.691  29.838  31.222  1.00  0.00     0.029 A 
ATOM     64  C   UNL A   1      45.909  28.831  30.676  1.00  0.00     0.049 A 
ATOM     65  H   UNL A   1      43.897  28.904  30.052  1.00  0.00     0.167 HD
ATOM     66  C   UNL A   1      45.467  26.550  29.804  1.00  0.00     0.074 A 
ATOM     67  C   UNL A   1      45.864  25.188  29.512  1.00  0.00     0.031 C 
ATOM     68  C   UNL A   1      46.274  27.469  30.390  1.00  0.00     0.031 A 
BRANCH  55  69
ATOM     69  C   UNL A   1      43.606  32.973  31.313  1.00  0.00    -0.014 A 
ATOM     70  C   UNL A   1      44.065  33.991  30.456  1.00  0.00     0.010 A 
ATOM     71  C   UNL A   1      43.257  33.300  32.635  1.00  0.00     0.010 A 
ATOM     72  C   UNL A   1      44.228  35.296  30.928  1.00  0.00     0.020 A 
ATOM     73  C   UNL A   1      43.386  34.611  33.102  1.00  0.00     0.020 A 
ATOM     74  C   UNL A   1      43.892  35.596  32.250  1.00  0.00     0.054 A 
BRANCH  74  75
ATOM     75  S   UNL A   1      44.102  37.299  32.836  1.00  0.00     0.124 S 
ATOM     76  O   UNL A   1      43.090  37.381  33.887  1.00  0.00    -0.237 OA
ATOM     77  O   UNL A   1      45.488  37.312  33.297  1.00  0.00    -0.237 OA
ATOM     78  O   UNL A   1      43.836  38.109  31.650  1.00  0.00    -0.744 OA
ENDBRANCH  74  75
ENDBRANCH  55  69
BRANCH  56  79
ATOM     79  C   UNL A   1      42.318  23.695  27.774  1.00  0.00    -0.014 A 
ATOM     80  C   UNL A   1      42.591  23.426  26.420  1.00  0.00     0.010 A 
ATOM     81  C   UNL A   1      41.886  22.647  28.605  1.00  0.00     0.010 A 
ATOM     82  C   UNL A   1      42.412  22.141  25.901  1.00  0.00     0.020 A 
ATOM     83  C   UNL A   1      41.730  21.354  28.095  1.00  0.00     0.020 A 
ATOM     84  C   UNL A   1      41.983  21.111  26.743  1.00  0.00     0.054 A 
BRANCH  84  85
ATOM     85  S   UNL A   1      41.806  19.438  26.062  1.00  0.00     0.124 S 
ATOM     86  O   UNL A   1      40.386  19.394  25.731  1.00  0.00    -0.237 OA
ATOM     87  O   UNL A   1      42.722  19.463  24.923  1.00  0.00    -0.237 OA
ATOM     88  O   UNL A   1      42.221  18.576  27.166  1.00  0.00    -0.744 OA
ENDBRANCH  84  85
ENDBRANCH  56  79
BRANCH  68  89
ATOM     89  C   UNL A   1      47.643  27.012  30.813  1.00  0.00    -0.014 A 
ATOM     90  C   UNL A   1      48.741  27.075  29.939  1.00  0.00     0.010 A 
ATOM     91  C   UNL A   1      47.836  26.551  32.130  1.00  0.00     0.010 A 
ATOM     92  C   UNL A   1      50.000  26.642  30.359  1.00  0.00     0.020 A 
ATOM     93  C   UNL A   1      49.098  26.143  32.561  1.00  0.00     0.020 A 
ATOM     94  C   UNL A   1      50.170  26.172  31.666  1.00  0.00     0.054 A 
BRANCH  94  95
ATOM     95  S   UNL A   1      51.818  25.636  32.196  1.00  0.00     0.124 S 
ATOM     96  O   UNL A   1      51.696  24.182  32.135  1.00  0.00    -0.237 OA
ATOM     97  O   UNL A   1      52.693  26.237  31.192  1.00  0.00    -0.237 OA
ATOM     98  O   UNL A   1      51.947  26.195  33.541  1.00  0.00    -0.744 OA
ENDBRANCH  94  95
ENDBRANCH  68  89
ENDBRANCH  42  43
ENDBRANCH  34  37
ENDBRANCH  32  33
ENDBRANCH   1  32
TORSDOF 19
ENDMDL
MODEL 2
REMARK VINA RESULT:     -11.3      1.331      4.556
REMARK SMILES COc1cccc(C(=O)/C=C(/Nc2cc(C)c(C)cc2[N+](=O)[O-])C(=O)NCCCNC(=O)c2ccc(-c3c4nc(c(-c5ccc(S(=O)(=O)[O-])cc5)c5ccc([nH]5)c(-c5ccc(S(=O)(=O)[O-])cc5)c5nc(c(-c6ccc(S(=O)(=O)[O-])cc6)c6ccc3[nH]6)C=C5)C=C4)cc2)c1
REMARK SMILES IDX 28 1 27 2 26 3 24 4 25 5 11 7 10 8 8 9 9 10 7 11 3 12 4 13
REMARK SMILES IDX 93 14 5 15 6 16 2 17 1 18 12 19 13 21 14 22 20 23 15 24
REMARK SMILES IDX 19 25 16 26 17 27 18 28 21 29 22 30 23 31 29 32 30 33 31 34
REMARK SMILES IDX 32 36 33 37 34 38 92 39 35 40 91 41 36 42 37 43 38 44 85 45
REMARK SMILES IDX 39 46 90 47 84 48 86 49 40 50 89 51 83 52 82 53 41 55 71 56
REMARK SMILES IDX 52 57 70 58 53 59 56 60 69 61 87 62 54 63 55 64 68 66 88 67
REMARK SMILES IDX 57 68 42 69 43 70 51 71 44 72 50 73 45 74 46 75 47 76 48 77
REMARK SMILES IDX 49 78 72 79 73 80 81 81 74 82 80 83 75 84 76 85 77 86 78 87
REMARK SMILES IDX 79 88 58 89 59 90 67 91 60 92 66 93 61 94 62 95 63 96 64 97
REMARK SMILES IDX 65 98
REMARK H PARENT 26 6 12 20 30 35 86 54 56 65
REMARK Flexibility Score: inf
ROOT
ATOM      1  C   UNL A   1      32.947  27.086  26.003  1.00  0.00     0.042 C 
ENDROOT
BRANCH   1   2
ATOM      2  C   UNL A   1      32.955  25.598  26.228  1.00  0.00     0.118 C 
BRANCH   2   3
ATOM      3  N   UNL A   1      31.820  25.003  26.895  1.00  0.00    -0.351 N 
ATOM      4  C   UNL A   1      31.087  23.926  26.458  1.00  0.00     0.267 C 
ATOM      5  O   UNL A   1      30.271  23.383  27.195  1.00  0.00    -0.268 OA
ATOM      6  H   UNL A   1      31.543  25.409  27.748  1.00  0.00     0.163 HD
BRANCH   4   7
ATOM      7  C   UNL A   1      31.280  23.450  25.048  1.00  0.00     0.108 C 
ATOM      8  C   UNL A   1      32.076  22.375  24.870  1.00  0.00     0.084 C 
BRANCH   8   9
ATOM      9  C   UNL A   1      32.921  21.470  25.717  1.00  0.00     0.188 C 
ATOM     10  O   UNL A   1      33.092  21.806  26.893  1.00  0.00    -0.289 OA
BRANCH   9  11
ATOM     11  C   UNL A   1      33.516  20.185  25.291  1.00  0.00     0.026 A 
ATOM     12  C   UNL A   1      33.396  17.839  24.691  1.00  0.00     0.119 A 
ATOM     13  C   UNL A   1      34.780  17.834  24.499  1.00  0.00     0.046 A 
ATOM     14  C   UNL A   1      32.756  19.035  25.033  1.00  0.00     0.058 A 
ATOM     15  C   UNL A   1      35.526  19.000  24.635  1.00  0.00     0.005 A 
ATOM     16  C   UNL A   1      34.895  20.174  25.037  1.00  0.00     0.012 A 
BRANCH  12  17
ATOM     17  O   UNL A   1      32.837  16.607  24.520  1.00  0.00    -0.497 OA
ATOM     18  C   UNL A   1      32.698  15.715  25.606  1.00  0.00     0.278 C 
ENDBRANCH  12  17
ENDBRANCH   9  11
ENDBRANCH   8   9
BRANCH   7  19
ATOM     19  N   UNL A   1      30.614  24.079  23.976  1.00  0.00    -0.345 N 
ATOM     20  H   UNL A   1      29.755  23.680  23.710  1.00  0.00     0.167 HD
BRANCH  19  21
ATOM     21  C   UNL A   1      31.028  25.215  23.233  1.00  0.00     0.118 A 
ATOM     22  C   UNL A   1      30.226  26.373  23.356  1.00  0.00     0.037 A 
ATOM     23  C   UNL A   1      32.286  25.380  22.633  1.00  0.00     0.292 A 
ATOM     24  C   UNL A   1      30.728  27.667  23.094  1.00  0.00    -0.046 A 
ATOM     25  C   UNL A   1      32.799  26.659  22.347  1.00  0.00     0.091 A 
ATOM     26  C   UNL A   1      29.864  28.847  23.463  1.00  0.00     0.045 C 
ATOM     27  C   UNL A   1      32.056  27.811  22.649  1.00  0.00    -0.041 A 
ATOM     28  C   UNL A   1      32.729  29.156  22.558  1.00  0.00     0.045 C 
BRANCH  23  29
ATOM     29  N   UNL A   1      33.092  24.223  22.256  1.00  0.00     0.064 N 
ATOM     30  O   UNL A   1      32.495  23.249  21.773  1.00  0.00    -0.258 OA
ATOM     31  O   UNL A   1      34.304  24.259  22.514  1.00  0.00    -0.258 OA
ENDBRANCH  23  29
ENDBRANCH  19  21
ENDBRANCH   7  19
ENDBRANCH   4   7
ENDBRANCH   2   3
ENDBRANCH   1   2
BRANCH   1  32
ATOM     32  C   UNL A   1      33.973  27.915  26.759  1.00  0.00     0.118 C 
BRANCH  32  33
ATOM     33  N   UNL A   1      33.602  29.266  27.144  1.00  0.00    -0.352 N 
ATOM     34  C   UNL A   1      34.377  30.262  27.706  1.00  0.00     0.251 C 
ATOM     35  H   UNL A   1      32.661  29.506  26.982  1.00  0.00     0.163 HD
ATOM     36  O   UNL A   1      33.878  31.352  27.945  1.00  0.00    -0.269 OA
BRANCH  34  37
ATOM     37  C   UNL A   1      35.787  29.988  28.082  1.00  0.00     0.039 A 
ATOM     38  C   UNL A   1      36.058  29.452  29.344  1.00  0.00     0.014 A 
ATOM     39  C   UNL A   1      36.837  30.211  27.191  1.00  0.00     0.014 A 
ATOM     40  C   UNL A   1      37.362  29.069  29.675  1.00  0.00     0.010 A 
ATOM     41  C   UNL A   1      38.097  29.701  27.462  1.00  0.00     0.010 A 
ATOM     42  C   UNL A   1      38.386  29.156  28.720  1.00  0.00    -0.014 A 
BRANCH  42  43
ATOM     43  C   UNL A   1      39.791  28.781  29.025  1.00  0.00     0.031 A 
ATOM     44  C   UNL A   1      40.697  29.799  29.673  1.00  0.00     0.074 A 
ATOM     45  C   UNL A   1      40.276  27.578  28.657  1.00  0.00     0.049 A 
ATOM     46  N   UNL A   1      41.982  29.736  29.905  1.00  0.00    -0.248 NA
ATOM     47  C   UNL A   1      40.082  31.082  30.062  1.00  0.00     0.031 C 
ATOM     48  C   UNL A   1      39.522  26.523  27.975  1.00  0.00     0.029 A 
ATOM     49  N   UNL A   1      41.532  27.044  28.802  1.00  0.00    -0.354 N 
ATOM     50  C   UNL A   1      42.330  30.981  30.421  1.00  0.00     0.074 A 
ATOM     51  C   UNL A   1      41.141  31.800  30.401  1.00  0.00     0.031 C 
ATOM     52  C   UNL A   1      40.319  25.457  27.795  1.00  0.00     0.029 A 
ATOM     53  C   UNL A   1      41.648  25.763  28.315  1.00  0.00     0.049 A 
ATOM     54  H   UNL A   1      42.279  27.532  29.217  1.00  0.00     0.167 HD
ATOM     55  C   UNL A   1      43.524  31.399  30.906  1.00  0.00     0.031 A 
ATOM     56  C   UNL A   1      42.707  24.930  28.299  1.00  0.00     0.031 A 
ATOM     57  C   UNL A   1      44.688  30.561  30.984  1.00  0.00     0.049 A 
ATOM     58  C   UNL A   1      44.006  25.389  28.902  1.00  0.00     0.074 A 
ATOM     59  C   UNL A   1      45.930  30.858  31.514  1.00  0.00     0.029 A 
ATOM     60  N   UNL A   1      44.742  29.248  30.541  1.00  0.00    -0.354 N 
ATOM     61  N   UNL A   1      44.306  26.556  29.422  1.00  0.00    -0.248 NA
ATOM     62  C   UNL A   1      45.100  24.410  28.943  1.00  0.00     0.031 C 
ATOM     63  C   UNL A   1      46.745  29.730  31.370  1.00  0.00     0.029 A 
ATOM     64  C   UNL A   1      45.994  28.717  30.793  1.00  0.00     0.049 A 
ATOM     65  H   UNL A   1      44.000  28.766  30.112  1.00  0.00     0.167 HD
ATOM     66  C   UNL A   1      45.612  26.438  29.887  1.00  0.00     0.074 A 
ATOM     67  C   UNL A   1      46.038  25.085  29.594  1.00  0.00     0.031 C 
ATOM     68  C   UNL A   1      46.388  27.363  30.505  1.00  0.00     0.031 A 
BRANCH  55  69
ATOM     69  C   UNL A   1      43.611  32.818  31.401  1.00  0.00    -0.014 A 
ATOM     70  C   UNL A   1      43.903  33.878  30.522  1.00  0.00     0.010 A 
ATOM     71  C   UNL A   1      43.396  33.099  32.762  1.00  0.00     0.010 A 
ATOM     72  C   UNL A   1      44.037  35.182  31.003  1.00  0.00     0.020 A 
ATOM     73  C   UNL A   1      43.494  34.408  33.242  1.00  0.00     0.020 A 
ATOM     74  C   UNL A   1      43.837  35.438  32.362  1.00  0.00     0.054 A 
BRANCH  74  75
ATOM     75  S   UNL A   1      44.005  37.141  32.960  1.00  0.00     0.124 S 
ATOM     76  O   UNL A   1      45.289  37.088  33.657  1.00  0.00    -0.237 OA
ATOM     77  O   UNL A   1      43.994  37.919  31.724  1.00  0.00    -0.237 OA
ATOM     78  O   UNL A   1      42.837  37.325  33.818  1.00  0.00    -0.744 OA
ENDBRANCH  74  75
ENDBRANCH  55  69
BRANCH  56  79
ATOM     79  C   UNL A   1      42.568  23.556  27.740  1.00  0.00    -0.014 A 
ATOM     80  C   UNL A   1      42.973  23.284  26.421  1.00  0.00     0.010 A 
ATOM     81  C   UNL A   1      42.038  22.514  28.521  1.00  0.00     0.010 A 
ATOM     82  C   UNL A   1      42.829  22.002  25.884  1.00  0.00     0.020 A 
ATOM     83  C   UNL A   1      41.917  21.223  27.996  1.00  0.00     0.020 A 
ATOM     84  C   UNL A   1      42.303  20.978  26.675  1.00  0.00     0.054 A 
BRANCH  84  85
ATOM     85  S   UNL A   1      42.173  19.308  25.977  1.00  0.00     0.124 S 
ATOM     86  O   UNL A   1      40.738  19.189  25.740  1.00  0.00    -0.237 OA
ATOM     87  O   UNL A   1      43.007  19.400  24.781  1.00  0.00    -0.237 OA
ATOM     88  O   UNL A   1      42.708  18.454  27.035  1.00  0.00    -0.744 OA
ENDBRANCH  84  85
ENDBRANCH  56  79
BRANCH  68  89
ATOM     89  C   UNL A   1      47.751  26.923  30.963  1.00  0.00    -0.014 A 
ATOM     90  C   UNL A   1      47.959  26.394  32.248  1.00  0.00     0.010 A 
ATOM     91  C   UNL A   1      48.835  27.005  30.068  1.00  0.00     0.010 A 
ATOM     92  C   UNL A   1      49.237  25.997  32.646  1.00  0.00     0.020 A 
ATOM     93  C   UNL A   1      50.108  26.584  30.454  1.00  0.00     0.020 A 
ATOM     94  C   UNL A   1      50.305  26.100  31.749  1.00  0.00     0.054 A 
BRANCH  94  95
ATOM     95  S   UNL A   1      51.951  25.557  32.280  1.00  0.00     0.124 S 
ATOM     96  O   UNL A   1      52.791  26.021  31.179  1.00  0.00    -0.237 OA
ATOM     97  O   UNL A   1      52.130  26.260  33.548  1.00  0.00    -0.237 OA
ATOM     98  O   UNL A   1      51.816  24.106  32.394  1.00  0.00    -0.744 OA
ENDBRANCH  94  95
ENDBRANCH  68  89
ENDBRANCH  42  43
ENDBRANCH  34  37
ENDBRANCH  32  33
ENDBRANCH   1  32
TORSDOF 19
ENDMDL
MODEL 3
REMARK VINA RESULT:     -11.1      2.780      5.321
REMARK SMILES COc1cccc(C(=O)/C=C(/Nc2cc(C)c(C)cc2[N+](=O)[O-])C(=O)NCCCNC(=O)c2ccc(-c3c4nc(c(-c5ccc(S(=O)(=O)[O-])cc5)c5ccc([nH]5)c(-c5ccc(S(=O)(=O)[O-])cc5)c5nc(c(-c6ccc(S(=O)(=O)[O-])cc6)c6ccc3[nH]6)C=C5)C=C4)cc2)c1
REMARK SMILES IDX 28 1 27 2 26 3 24 4 25 5 11 7 10 8 8 9 9 10 7 11 3 12 4 13
REMARK SMILES IDX 93 14 5 15 6 16 2 17 1 18 12 19 13 21 14 22 20 23 15 24
REMARK SMILES IDX 19 25 16 26 17 27 18 28 21 29 22 30 23 31 29 32 30 33 31 34
REMARK SMILES IDX 32 36 33 37 34 38 92 39 35 40 91 41 36 42 37 43 38 44 85 45
REMARK SMILES IDX 39 46 90 47 84 48 86 49 40 50 89 51 83 52 82 53 41 55 71 56
REMARK SMILES IDX 52 57 70 58 53 59 56 60 69 61 87 62 54 63 55 64 68 66 88 67
REMARK SMILES IDX 57 68 42 69 43 70 51 71 44 72 50 73 45 74 46 75 47 76 48 77
REMARK SMILES IDX 49 78 72 79 73 80 81 81 74 82 80 83 75 84 76 85 77 86 78 87
REMARK SMILES IDX 79 88 58 89 59 90 67 91 60 92 66 93 61 94 62 95 63 96 64 97
REMARK SMILES IDX 65 98
REMARK H PARENT 26 6 12 20 30 35 86 54 56 65
REMARK Flexibility Score: inf
ROOT
ATOM      1  C   UNL A   1      33.639  27.303  25.243  1.00  0.00     0.042 C 
ENDROOT
BRANCH   1   2
ATOM      2  C   UNL A   1      33.731  25.802  25.228  1.00  0.00     0.118 C 
BRANCH   2   3
ATOM      3  N   UNL A   1      32.675  25.046  25.862  1.00  0.00    -0.351 N 
ATOM      4  C   UNL A   1      32.217  23.807  25.485  1.00  0.00     0.267 C 
ATOM      5  O   UNL A   1      31.455  23.174  26.208  1.00  0.00    -0.268 OA
ATOM      6  H   UNL A   1      32.241  25.460  26.643  1.00  0.00     0.163 HD
BRANCH   4   7
ATOM      7  C   UNL A   1      32.639  23.259  24.154  1.00  0.00     0.108 C 
ATOM      8  C   UNL A   1      33.652  22.369  24.152  1.00  0.00     0.084 C 
BRANCH   8   9
ATOM      9  C   UNL A   1      34.581  21.746  25.153  1.00  0.00     0.188 C 
ATOM     10  O   UNL A   1      34.179  20.730  25.728  1.00  0.00    -0.289 OA
BRANCH   9  11
ATOM     11  C   UNL A   1      35.953  22.199  25.467  1.00  0.00     0.026 A 
ATOM     12  C   UNL A   1      38.342  21.862  25.700  1.00  0.00     0.119 A 
ATOM     13  C   UNL A   1      38.474  23.195  26.102  1.00  0.00     0.046 A 
ATOM     14  C   UNL A   1      37.083  21.382  25.326  1.00  0.00     0.058 A 
ATOM     15  C   UNL A   1      37.375  24.047  26.127  1.00  0.00     0.005 A 
ATOM     16  C   UNL A   1      36.113  23.548  25.815  1.00  0.00     0.012 A 
BRANCH  12  17
ATOM     17  O   UNL A   1      39.522  21.181  25.743  1.00  0.00    -0.497 OA
ATOM     18  C   UNL A   1      40.275  21.107  26.936  1.00  0.00     0.278 C 
ENDBRANCH  12  17
ENDBRANCH   9  11
ENDBRANCH   8   9
BRANCH   7  19
ATOM     19  N   UNL A   1      31.963  23.633  22.972  1.00  0.00    -0.345 N 
ATOM     20  H   UNL A   1      31.961  22.966  22.249  1.00  0.00     0.167 HD
BRANCH  19  21
ATOM     21  C   UNL A   1      31.288  24.850  22.697  1.00  0.00     0.118 A 
ATOM     22  C   UNL A   1      30.010  25.004  23.280  1.00  0.00     0.037 A 
ATOM     23  C   UNL A   1      31.877  26.001  22.153  1.00  0.00     0.292 A 
ATOM     24  C   UNL A   1      29.435  26.275  23.506  1.00  0.00    -0.046 A 
ATOM     25  C   UNL A   1      31.313  27.276  22.350  1.00  0.00     0.091 A 
ATOM     26  C   UNL A   1      28.172  26.343  24.327  1.00  0.00     0.045 C 
ATOM     27  C   UNL A   1      30.133  27.427  23.095  1.00  0.00    -0.041 A 
ATOM     28  C   UNL A   1      29.695  28.813  23.491  1.00  0.00     0.045 C 
BRANCH  23  29
ATOM     29  N   UNL A   1      33.082  25.910  21.335  1.00  0.00     0.064 N 
ATOM     30  O   UNL A   1      33.105  25.038  20.454  1.00  0.00    -0.258 OA
ATOM     31  O   UNL A   1      34.030  26.655  21.624  1.00  0.00    -0.258 OA
ENDBRANCH  23  29
ENDBRANCH  19  21
ENDBRANCH   7  19
ENDBRANCH   4   7
ENDBRANCH   2   3
ENDBRANCH   1   2
BRANCH   1  32
ATOM     32  C   UNL A   1      34.055  28.019  26.518  1.00  0.00     0.118 C 
BRANCH  32  33
ATOM     33  N   UNL A   1      33.670  29.412  26.670  1.00  0.00    -0.352 N 
ATOM     34  C   UNL A   1      34.339  30.444  27.301  1.00  0.00     0.251 C 
ATOM     35  H   UNL A   1      32.806  29.657  26.266  1.00  0.00     0.163 HD
ATOM     36  O   UNL A   1      33.852  31.564  27.307  1.00  0.00    -0.269 OA
BRANCH  34  37
ATOM     37  C   UNL A   1      35.606  30.176  28.028  1.00  0.00     0.039 A 
ATOM     38  C   UNL A   1      35.544  29.699  29.340  1.00  0.00     0.014 A 
ATOM     39  C   UNL A   1      36.848  30.349  27.417  1.00  0.00     0.014 A 
ATOM     40  C   UNL A   1      36.719  29.322  30.001  1.00  0.00     0.010 A 
ATOM     41  C   UNL A   1      37.992  29.844  28.015  1.00  0.00     0.010 A 
ATOM     42  C   UNL A   1      37.949  29.356  29.328  1.00  0.00    -0.014 A 
BRANCH  42  43
ATOM     43  C   UNL A   1      39.227  28.985  29.989  1.00  0.00     0.031 A 
ATOM     44  C   UNL A   1      39.654  29.732  31.229  1.00  0.00     0.074 A 
ATOM     45  C   UNL A   1      40.034  28.052  29.447  1.00  0.00     0.049 A 
ATOM     46  N   UNL A   1      40.781  29.669  31.887  1.00  0.00    -0.248 NA
ATOM     47  C   UNL A   1      38.703  30.723  31.767  1.00  0.00     0.031 C 
ATOM     48  C   UNL A   1      39.767  27.295  28.222  1.00  0.00     0.029 A 
ATOM     49  N   UNL A   1      41.258  27.587  29.861  1.00  0.00    -0.354 N 
ATOM     50  C   UNL A   1      40.689  30.638  32.882  1.00  0.00     0.074 A 
ATOM     51  C   UNL A   1      39.431  31.322  32.696  1.00  0.00     0.031 C 
ATOM     52  C   UNL A   1      40.776  26.435  28.005  1.00  0.00     0.029 A 
ATOM     53  C   UNL A   1      41.778  26.603  29.053  1.00  0.00     0.049 A 
ATOM     54  H   UNL A   1      41.719  27.925  30.663  1.00  0.00     0.167 HD
ATOM     55  C   UNL A   1      41.555  30.914  33.886  1.00  0.00     0.031 A 
ATOM     56  C   UNL A   1      42.930  25.911  29.154  1.00  0.00     0.031 A 
ATOM     57  C   UNL A   1      42.775  30.189  34.105  1.00  0.00     0.049 A 
ATOM     58  C   UNL A   1      43.847  26.187  30.314  1.00  0.00     0.074 A 
ATOM     59  C   UNL A   1      43.696  30.340  35.127  1.00  0.00     0.029 A 
ATOM     60  N   UNL A   1      43.230  29.155  33.301  1.00  0.00    -0.354 N 
ATOM     61  N   UNL A   1      43.724  27.080  31.267  1.00  0.00    -0.248 NA
ATOM     62  C   UNL A   1      45.043  25.342  30.428  1.00  0.00     0.031 C 
ATOM     63  C   UNL A   1      44.722  29.410  34.926  1.00  0.00     0.029 A 
ATOM     64  C   UNL A   1      44.415  28.651  33.808  1.00  0.00     0.049 A 
ATOM     65  H   UNL A   1      42.777  28.828  32.492  1.00  0.00     0.167 HD
ATOM     66  C   UNL A   1      44.808  26.878  32.116  1.00  0.00     0.074 A 
ATOM     67  C   UNL A   1      45.568  25.773  31.567  1.00  0.00     0.031 C 
ATOM     68  C   UNL A   1      45.143  27.542  33.250  1.00  0.00     0.031 A 
BRANCH  55  69
ATOM     69  C   UNL A   1      41.192  32.035  34.823  1.00  0.00    -0.014 A 
ATOM     70  C   UNL A   1      41.740  33.322  34.664  1.00  0.00     0.010 A 
ATOM     71  C   UNL A   1      40.292  31.802  35.878  1.00  0.00     0.010 A 
ATOM     72  C   UNL A   1      41.439  34.338  35.572  1.00  0.00     0.020 A 
ATOM     73  C   UNL A   1      39.961  32.827  36.770  1.00  0.00     0.020 A 
ATOM     74  C   UNL A   1      40.556  34.082  36.624  1.00  0.00     0.054 A 
BRANCH  74  75
ATOM     75  S   UNL A   1      40.174  35.422  37.785  1.00  0.00     0.124 S 
ATOM     76  O   UNL A   1      39.651  36.452  36.890  1.00  0.00    -0.237 OA
ATOM     77  O   UNL A   1      39.192  34.806  38.674  1.00  0.00    -0.237 OA
ATOM     78  O   UNL A   1      41.463  35.726  38.400  1.00  0.00    -0.744 OA
ENDBRANCH  74  75
ENDBRANCH  55  69
BRANCH  56  79
ATOM     79  C   UNL A   1      43.256  24.854  28.157  1.00  0.00    -0.014 A 
ATOM     80  C   UNL A   1      43.924  25.185  26.965  1.00  0.00     0.010 A 
ATOM     81  C   UNL A   1      42.907  23.513  28.394  1.00  0.00     0.010 A 
ATOM     82  C   UNL A   1      44.217  24.201  26.017  1.00  0.00     0.020 A 
ATOM     83  C   UNL A   1      43.223  22.520  27.460  1.00  0.00     0.020 A 
ATOM     84  C   UNL A   1      43.866  22.873  26.271  1.00  0.00     0.054 A 
BRANCH  84  85
ATOM     85  S   UNL A   1      44.302  21.601  25.052  1.00  0.00     0.124 S 
ATOM     86  O   UNL A   1      45.672  21.274  25.432  1.00  0.00    -0.237 OA
ATOM     87  O   UNL A   1      43.306  20.563  25.309  1.00  0.00    -0.237 OA
ATOM     88  O   UNL A   1      44.153  22.292  23.772  1.00  0.00    -0.744 OA
ENDBRANCH  84  85
ENDBRANCH  56  79
BRANCH  68  89
ATOM     89  C   UNL A   1      46.346  27.050  34.007  1.00  0.00    -0.014 A 
ATOM     90  C   UNL A   1      47.631  27.561  33.756  1.00  0.00     0.010 A 
ATOM     91  C   UNL A   1      46.173  26.085  35.017  1.00  0.00     0.010 A 
ATOM     92  C   UNL A   1      48.729  27.083  34.473  1.00  0.00     0.020 A 
ATOM     93  C   UNL A   1      47.265  25.625  35.754  1.00  0.00     0.020 A 
ATOM     94  C   UNL A   1      48.541  26.113  35.463  1.00  0.00     0.054 A 
BRANCH  94  95
ATOM     95  S   UNL A   1      49.979  25.523  36.397  1.00  0.00     0.124 S 
ATOM     96  O   UNL A   1      49.466  25.511  37.764  1.00  0.00    -0.237 OA
ATOM     97  O   UNL A   1      50.230  24.210  35.807  1.00  0.00    -0.237 OA
ATOM     98  O   UNL A   1      51.004  26.528  36.123  1.00  0.00    -0.744 OA
ENDBRANCH  94  95
ENDBRANCH  68  89
ENDBRANCH  42  43
ENDBRANCH  34  37
ENDBRANCH  32  33
ENDBRANCH   1  32
TORSDOF 19
ENDMDL
