MODEL 1
REMARK VINA RESULT:     -11.5      0.000      0.000
REMARK SMILES O=C(CN(CC(F)(F)F)c1nc(-c2ccccc2)cs1)NCCCNC(=O)c1ccc(-c2c3nc(c(-c4ccc(S(=O)(=O)[O-])cc4)c4ccc([nH]4)c(-c4ccc(S(=O)(=O)[O-])cc4)c4nc(c(-c5ccc(S(=O)(=O)[O-])cc5)c5ccc2[nH]5)C=C4)C=C3)cc1
REMARK SMILES IDX 23 1 22 2 21 3 1 4 2 5 3 7 4 8 5 9 6 10 7 11 8 12 9 13 10 14
REMARK SMILES IDX 11 15 20 16 12 17 19 18 13 19 14 20 18 21 15 22 17 23 16 24
REMARK SMILES IDX 24 25 25 26 26 27 27 29 28 30 29 31 87 32 30 33 86 34 31 35
REMARK SMILES IDX 32 36 33 37 80 38 34 39 85 40 79 41 81 42 35 43 84 44 78 45
REMARK SMILES IDX 77 46 36 48 66 49 47 50 65 51 48 52 51 53 64 54 82 55 49 56
REMARK SMILES IDX 50 57 63 59 83 60 52 61 37 62 38 63 46 64 39 65 45 66 40 67
REMARK SMILES IDX 41 68 42 69 43 70 44 71 67 72 68 73 76 74 69 75 75 76 70 77
REMARK SMILES IDX 71 78 72 79 73 80 74 81 53 82 54 83 62 84 55 85 61 86 56 87
REMARK SMILES IDX 57 88 58 89 59 90 60 91
REMARK H PARENT 21 6 25 28 81 47 51 58
REMARK Flexibility Score: inf
ROOT
ATOM      1  C   UNL A   1      40.603  21.676  26.707  1.00  0.00     0.042 C 
ENDROOT
BRANCH   1   2
ATOM      2  C   UNL A   1      39.361  21.294  25.910  1.00  0.00     0.117 C 
BRANCH   2   3
ATOM      3  N   UNL A   1      38.152  21.945  26.360  1.00  0.00    -0.354 N 
ATOM      4  O   UNL A   1      37.311  22.384  24.269  1.00  0.00    -0.273 OA
ATOM      5  C   UNL A   1      37.159  22.343  25.489  1.00  0.00     0.239 C 
ATOM      6  H   UNL A   1      38.032  22.110  27.324  1.00  0.00     0.163 HD
BRANCH   5   7
ATOM      7  C   UNL A   1      35.864  22.835  26.159  1.00  0.00     0.219 C 
BRANCH   7   8
ATOM      8  N   UNL A   1      34.757  23.131  25.223  1.00  0.00    -0.330 N 
BRANCH   8   9
ATOM      9  C   UNL A   1      34.654  24.496  24.666  1.00  0.00     0.234 C 
BRANCH   9  10
ATOM     10  C   UNL A   1      33.715  25.485  25.375  1.00  0.00     0.406 C 
ATOM     11  F   UNL A   1      33.049  24.915  26.402  1.00  0.00    -0.169 F 
ATOM     12  F   UNL A   1      34.432  26.508  25.902  1.00  0.00    -0.169 F 
ATOM     13  F   UNL A   1      32.807  26.025  24.533  1.00  0.00    -0.169 F 
ENDBRANCH   9  10
ENDBRANCH   8   9
BRANCH   8  14
ATOM     14  C   UNL A   1      34.015  22.086  24.760  1.00  0.00     0.186 A 
ATOM     15  N   UNL A   1      34.338  20.838  25.006  1.00  0.00    -0.220 NA
ATOM     16  S   UNL A   1      32.585  22.253  23.805  1.00  0.00    -0.105 S 
ATOM     17  C   UNL A   1      33.431  19.961  24.443  1.00  0.00     0.083 A 
ATOM     18  C   UNL A   1      32.429  20.554  23.708  1.00  0.00     0.097 A 
BRANCH  17  19
ATOM     19  C   UNL A   1      33.501  18.532  24.691  1.00  0.00     0.001 A 
ATOM     20  C   UNL A   1      34.397  17.713  23.994  1.00  0.00     0.010 A 
ATOM     21  C   UNL A   1      32.627  17.959  25.624  1.00  0.00     0.010 A 
ATOM     22  C   UNL A   1      34.404  16.333  24.217  1.00  0.00     0.001 A 
ATOM     23  C   UNL A   1      32.629  16.580  25.837  1.00  0.00     0.001 A 
ATOM     24  C   UNL A   1      33.515  15.768  25.131  1.00  0.00     0.000 A 
ENDBRANCH  17  19
ENDBRANCH   8  14
ENDBRANCH   7   8
ENDBRANCH   5   7
ENDBRANCH   2   3
ENDBRANCH   1   2
BRANCH   1  25
ATOM     25  C   UNL A   1      40.680  23.144  27.122  1.00  0.00     0.118 C 
BRANCH  25  26
ATOM     26  N   UNL A   1      41.184  24.019  26.073  1.00  0.00    -0.352 N 
ATOM     27  C   UNL A   1      41.399  25.373  26.052  1.00  0.00     0.251 C 
ATOM     28  H   UNL A   1      41.409  23.559  25.231  1.00  0.00     0.163 HD
ATOM     29  O   UNL A   1      41.736  25.899  24.988  1.00  0.00    -0.269 OA
BRANCH  27  30
ATOM     30  C   UNL A   1      41.217  26.218  27.257  1.00  0.00     0.039 A 
ATOM     31  C   UNL A   1      42.135  27.249  27.489  1.00  0.00     0.014 A 
ATOM     32  C   UNL A   1      40.201  25.985  28.189  1.00  0.00     0.014 A 
ATOM     33  C   UNL A   1      42.002  28.073  28.610  1.00  0.00     0.010 A 
ATOM     34  C   UNL A   1      40.027  26.853  29.271  1.00  0.00     0.010 A 
ATOM     35  C   UNL A   1      40.927  27.905  29.496  1.00  0.00    -0.014 A 
BRANCH  35  36
ATOM     36  C   UNL A   1      40.736  28.831  30.647  1.00  0.00     0.031 A 
ATOM     37  C   UNL A   1      41.591  28.715  31.882  1.00  0.00     0.074 A 
ATOM     38  C   UNL A   1      39.762  29.762  30.596  1.00  0.00     0.049 A 
ATOM     39  N   UNL A   1      41.564  29.439  32.974  1.00  0.00    -0.248 NA
ATOM     40  C   UNL A   1      42.592  27.637  31.906  1.00  0.00     0.031 C 
ATOM     41  C   UNL A   1      38.830  29.952  29.481  1.00  0.00     0.029 A 
ATOM     42  N   UNL A   1      39.392  30.725  31.502  1.00  0.00    -0.354 N 
ATOM     43  C   UNL A   1      42.531  28.899  33.815  1.00  0.00     0.074 A 
ATOM     44  C   UNL A   1      43.093  27.757  33.126  1.00  0.00     0.031 C 
ATOM     45  C   UNL A   1      38.021  30.988  29.755  1.00  0.00     0.029 A 
ATOM     46  C   UNL A   1      38.351  31.515  31.075  1.00  0.00     0.049 A 
ATOM     47  H   UNL A   1      39.831  30.839  32.376  1.00  0.00     0.167 HD
ATOM     48  C   UNL A   1      42.929  29.323  35.040  1.00  0.00     0.031 A 
ATOM     49  C   UNL A   1      37.730  32.550  31.673  1.00  0.00     0.031 A 
ATOM     50  C   UNL A   1      42.378  30.464  35.723  1.00  0.00     0.049 A 
ATOM     51  C   UNL A   1      38.195  33.008  33.028  1.00  0.00     0.074 A 
ATOM     52  C   UNL A   1      42.755  31.002  36.941  1.00  0.00     0.029 A 
ATOM     53  N   UNL A   1      41.331  31.243  35.251  1.00  0.00    -0.354 N 
ATOM     54  N   UNL A   1      39.158  32.524  33.774  1.00  0.00    -0.248 NA
ATOM     55  C   UNL A   1      37.500  34.164  33.611  1.00  0.00     0.031 C 
ATOM     56  C   UNL A   1      41.907  32.078  37.229  1.00  0.00     0.029 A 
ATOM     57  C   UNL A   1      41.038  32.244  36.162  1.00  0.00     0.049 A 
ATOM     58  H   UNL A   1      40.867  31.104  34.395  1.00  0.00     0.167 HD
ATOM     59  C   UNL A   1      39.201  33.333  34.905  1.00  0.00     0.074 A 
ATOM     60  C   UNL A   1      38.181  34.347  34.734  1.00  0.00     0.031 C 
ATOM     61  C   UNL A   1      40.016  33.244  35.987  1.00  0.00     0.031 A 
BRANCH  48  62
ATOM     62  C   UNL A   1      44.021  28.541  35.725  1.00  0.00    -0.014 A 
ATOM     63  C   UNL A   1      45.375  28.883  35.554  1.00  0.00     0.010 A 
ATOM     64  C   UNL A   1      43.688  27.477  36.583  1.00  0.00     0.010 A 
ATOM     65  C   UNL A   1      46.377  28.147  36.192  1.00  0.00     0.020 A 
ATOM     66  C   UNL A   1      44.687  26.757  37.246  1.00  0.00     0.020 A 
ATOM     67  C   UNL A   1      46.027  27.086  37.031  1.00  0.00     0.054 A 
BRANCH  67  68
ATOM     68  S   UNL A   1      47.348  26.158  37.858  1.00  0.00     0.124 S 
ATOM     69  O   UNL A   1      47.210  24.835  37.253  1.00  0.00    -0.237 OA
ATOM     70  O   UNL A   1      48.548  26.899  37.477  1.00  0.00    -0.237 OA
ATOM     71  O   UNL A   1      46.994  26.235  39.272  1.00  0.00    -0.744 OA
ENDBRANCH  67  68
ENDBRANCH  48  62
BRANCH  49  72
ATOM     72  C   UNL A   1      36.612  33.247  30.978  1.00  0.00    -0.014 A 
ATOM     73  C   UNL A   1      35.312  33.222  31.514  1.00  0.00     0.010 A 
ATOM     74  C   UNL A   1      36.845  33.952  29.784  1.00  0.00     0.010 A 
ATOM     75  C   UNL A   1      34.262  33.870  30.859  1.00  0.00     0.020 A 
ATOM     76  C   UNL A   1      35.803  34.624  29.139  1.00  0.00     0.020 A 
ATOM     77  C   UNL A   1      34.515  34.569  29.675  1.00  0.00     0.054 A 
BRANCH  77  78
ATOM     78  S   UNL A   1      33.148  35.448  28.868  1.00  0.00     0.124 S 
ATOM     79  O   UNL A   1      32.395  35.952  30.012  1.00  0.00    -0.237 OA
ATOM     80  O   UNL A   1      33.845  36.456  28.073  1.00  0.00    -0.237 OA
ATOM     81  O   UNL A   1      32.483  34.404  28.091  1.00  0.00    -0.744 OA
ENDBRANCH  77  78
ENDBRANCH  49  72
BRANCH  61  82
ATOM     82  C   UNL A   1      39.856  34.292  37.057  1.00  0.00    -0.014 A 
ATOM     83  C   UNL A   1      40.454  35.559  36.934  1.00  0.00     0.010 A 
ATOM     84  C   UNL A   1      39.070  34.012  38.190  1.00  0.00     0.010 A 
ATOM     85  C   UNL A   1      40.306  36.511  37.947  1.00  0.00     0.020 A 
ATOM     86  C   UNL A   1      38.896  34.972  39.190  1.00  0.00     0.020 A 
ATOM     87  C   UNL A   1      39.532  36.209  39.071  1.00  0.00     0.054 A 
BRANCH  87  88
ATOM     88  S   UNL A   1      39.337  37.468  40.363  1.00  0.00     0.124 S 
ATOM     89  O   UNL A   1      38.509  38.465  39.693  1.00  0.00    -0.237 OA
ATOM     90  O   UNL A   1      38.682  36.727  41.438  1.00  0.00    -0.237 OA
ATOM     91  O   UNL A   1      40.709  37.885  40.649  1.00  0.00    -0.744 OA
ENDBRANCH  87  88
ENDBRANCH  61  82
ENDBRANCH  35  36
ENDBRANCH  27  30
ENDBRANCH  25  26
ENDBRANCH   1  25
TORSDOF 18
ENDMDL
MODEL 2
REMARK VINA RESULT:     -11.5      4.429     10.138
REMARK SMILES O=C(CN(CC(F)(F)F)c1nc(-c2ccccc2)cs1)NCCCNC(=O)c1ccc(-c2c3nc(c(-c4ccc(S(=O)(=O)[O-])cc4)c4ccc([nH]4)c(-c4ccc(S(=O)(=O)[O-])cc4)c4nc(c(-c5ccc(S(=O)(=O)[O-])cc5)c5ccc2[nH]5)C=C4)C=C3)cc1
REMARK SMILES IDX 23 1 22 2 21 3 1 4 2 5 3 7 4 8 5 9 6 10 7 11 8 12 9 13 10 14
REMARK SMILES IDX 11 15 20 16 12 17 19 18 13 19 14 20 18 21 15 22 17 23 16 24
REMARK SMILES IDX 24 25 25 26 26 27 27 29 28 30 29 31 87 32 30 33 86 34 31 35
REMARK SMILES IDX 32 36 33 37 80 38 34 39 85 40 79 41 81 42 35 43 84 44 78 45
REMARK SMILES IDX 77 46 36 48 66 49 47 50 65 51 48 52 51 53 64 54 82 55 49 56
REMARK SMILES IDX 50 57 63 59 83 60 52 61 37 62 38 63 46 64 39 65 45 66 40 67
REMARK SMILES IDX 41 68 42 69 43 70 44 71 67 72 68 73 76 74 69 75 75 76 70 77
REMARK SMILES IDX 71 78 72 79 73 80 74 81 53 82 54 83 62 84 55 85 61 86 56 87
REMARK SMILES IDX 57 88 58 89 59 90 60 91
REMARK H PARENT 21 6 25 28 81 47 51 58
REMARK Flexibility Score: inf
ROOT
ATOM      1  C   UNL A   1      33.790  29.052  24.385  1.00  0.00     0.042 C 
ENDROOT
BRANCH   1   2
ATOM      2  C   UNL A   1      34.081  27.854  23.488  1.00  0.00     0.117 C 
BRANCH   2   3
ATOM      3  N   UNL A   1      32.963  26.949  23.339  1.00  0.00    -0.354 N 
ATOM      4  O   UNL A   1      33.622  26.070  21.323  1.00  0.00    -0.273 OA
ATOM      5  C   UNL A   1      32.884  26.039  22.306  1.00  0.00     0.239 C 
ATOM      6  H   UNL A   1      32.232  26.984  23.998  1.00  0.00     0.163 HD
BRANCH   5   7
ATOM      7  C   UNL A   1      31.729  25.027  22.418  1.00  0.00     0.219 C 
BRANCH   7   8
ATOM      8  N   UNL A   1      31.666  24.302  23.706  1.00  0.00    -0.330 N 
BRANCH   8   9
ATOM      9  C   UNL A   1      30.462  24.462  24.547  1.00  0.00     0.234 C 
BRANCH   9  10
ATOM     10  C   UNL A   1      30.369  25.720  25.425  1.00  0.00     0.406 C 
ATOM     11  F   UNL A   1      29.442  25.599  26.400  1.00  0.00    -0.169 F 
ATOM     12  F   UNL A   1      31.554  25.941  26.045  1.00  0.00    -0.169 F 
ATOM     13  F   UNL A   1      30.081  26.827  24.707  1.00  0.00    -0.169 F 
ENDBRANCH   9  10
ENDBRANCH   8   9
BRANCH   8  14
ATOM     14  C   UNL A   1      32.623  23.364  23.959  1.00  0.00     0.186 A 
ATOM     15  N   UNL A   1      33.834  23.689  24.347  1.00  0.00    -0.220 NA
ATOM     16  S   UNL A   1      32.383  21.660  23.803  1.00  0.00    -0.105 S 
ATOM     17  C   UNL A   1      34.617  22.570  24.549  1.00  0.00     0.083 A 
ATOM     18  C   UNL A   1      34.005  21.372  24.257  1.00  0.00     0.097 A 
BRANCH  17  19
ATOM     19  C   UNL A   1      35.953  22.667  25.109  1.00  0.00     0.001 A 
ATOM     20  C   UNL A   1      36.395  23.834  25.745  1.00  0.00     0.010 A 
ATOM     21  C   UNL A   1      36.828  21.581  24.978  1.00  0.00     0.010 A 
ATOM     22  C   UNL A   1      37.704  23.915  26.228  1.00  0.00     0.001 A 
ATOM     23  C   UNL A   1      38.138  21.669  25.452  1.00  0.00     0.001 A 
ATOM     24  C   UNL A   1      38.576  22.837  26.073  1.00  0.00     0.000 A 
ENDBRANCH  17  19
ENDBRANCH   8  14
ENDBRANCH   7   8
ENDBRANCH   5   7
ENDBRANCH   2   3
ENDBRANCH   1   2
BRANCH   1  25
ATOM     25  C   UNL A   1      34.067  28.832  25.871  1.00  0.00     0.118 C 
BRANCH  25  26
ATOM     26  N   UNL A   1      33.791  30.002  26.693  1.00  0.00    -0.352 N 
ATOM     27  C   UNL A   1      34.514  30.589  27.700  1.00  0.00     0.251 C 
ATOM     28  H   UNL A   1      32.936  30.449  26.492  1.00  0.00     0.163 HD
ATOM     29  O   UNL A   1      34.003  31.524  28.323  1.00  0.00    -0.269 OA
BRANCH  27  30
ATOM     30  C   UNL A   1      35.870  30.120  28.073  1.00  0.00     0.039 A 
ATOM     31  C   UNL A   1      36.887  30.204  27.115  1.00  0.00     0.014 A 
ATOM     32  C   UNL A   1      36.149  29.551  29.319  1.00  0.00     0.014 A 
ATOM     33  C   UNL A   1      38.182  29.777  27.423  1.00  0.00     0.010 A 
ATOM     34  C   UNL A   1      37.458  29.189  29.649  1.00  0.00     0.010 A 
ATOM     35  C   UNL A   1      38.490  29.295  28.705  1.00  0.00    -0.014 A 
BRANCH  35  36
ATOM     36  C   UNL A   1      39.885  28.914  29.061  1.00  0.00     0.031 A 
ATOM     37  C   UNL A   1      40.796  29.886  29.765  1.00  0.00     0.074 A 
ATOM     38  C   UNL A   1      40.349  27.695  28.717  1.00  0.00     0.049 A 
ATOM     39  N   UNL A   1      42.037  29.719  30.153  1.00  0.00    -0.248 NA
ATOM     40  C   UNL A   1      40.255  31.223  30.053  1.00  0.00     0.031 C 
ATOM     41  C   UNL A   1      39.588  26.674  27.991  1.00  0.00     0.029 A 
ATOM     42  N   UNL A   1      41.570  27.105  28.934  1.00  0.00    -0.354 N 
ATOM     43  C   UNL A   1      42.426  30.929  30.718  1.00  0.00     0.074 A 
ATOM     44  C   UNL A   1      41.306  31.835  30.578  1.00  0.00     0.031 C 
ATOM     45  C   UNL A   1      40.348  25.575  27.853  1.00  0.00     0.029 A 
ATOM     46  C   UNL A   1      41.657  25.822  28.449  1.00  0.00     0.049 A 
ATOM     47  H   UNL A   1      42.313  27.559  29.393  1.00  0.00     0.167 HD
ATOM     48  C   UNL A   1      43.599  31.253  31.315  1.00  0.00     0.031 A 
ATOM     49  C   UNL A   1      42.673  24.937  28.479  1.00  0.00     0.031 A 
ATOM     50  C   UNL A   1      44.712  30.350  31.463  1.00  0.00     0.049 A 
ATOM     51  C   UNL A   1      43.962  25.316  29.155  1.00  0.00     0.074 A 
ATOM     52  C   UNL A   1      45.919  30.571  32.102  1.00  0.00     0.029 A 
ATOM     53  N   UNL A   1      44.755  29.056  30.966  1.00  0.00    -0.354 N 
ATOM     54  N   UNL A   1      44.283  26.443  29.743  1.00  0.00    -0.248 NA
ATOM     55  C   UNL A   1      45.019  24.295  29.185  1.00  0.00     0.031 C 
ATOM     56  C   UNL A   1      46.712  29.428  31.951  1.00  0.00     0.029 A 
ATOM     57  C   UNL A   1      45.976  28.474  31.267  1.00  0.00     0.049 A 
ATOM     58  H   UNL A   1      44.026  28.617  30.473  1.00  0.00     0.167 HD
ATOM     59  C   UNL A   1      45.570  26.258  30.237  1.00  0.00     0.074 A 
ATOM     60  C   UNL A   1      45.959  24.905  29.894  1.00  0.00     0.031 C 
ATOM     61  C   UNL A   1      46.357  27.130  30.915  1.00  0.00     0.031 A 
BRANCH  48  62
ATOM     62  C   UNL A   1      43.741  32.653  31.855  1.00  0.00    -0.014 A 
ATOM     63  C   UNL A   1      44.277  33.685  31.064  1.00  0.00     0.010 A 
ATOM     64  C   UNL A   1      43.294  32.951  33.156  1.00  0.00     0.010 A 
ATOM     65  C   UNL A   1      44.406  34.978  31.579  1.00  0.00     0.020 A 
ATOM     66  C   UNL A   1      43.395  34.250  33.664  1.00  0.00     0.020 A 
ATOM     67  C   UNL A   1      43.968  35.252  32.877  1.00  0.00     0.054 A 
BRANCH  67  68
ATOM     68  S   UNL A   1      44.134  36.942  33.514  1.00  0.00     0.124 S 
ATOM     69  O   UNL A   1      43.070  36.991  34.514  1.00  0.00    -0.237 OA
ATOM     70  O   UNL A   1      45.495  36.952  34.047  1.00  0.00    -0.237 OA
ATOM     71  O   UNL A   1      43.922  37.780  32.338  1.00  0.00    -0.744 OA
ENDBRANCH  67  68
ENDBRANCH  48  62
BRANCH  49  72
ATOM     72  C   UNL A   1      42.501  23.589  27.872  1.00  0.00    -0.014 A 
ATOM     73  C   UNL A   1      43.018  23.311  26.594  1.00  0.00     0.010 A 
ATOM     74  C   UNL A   1      41.833  22.571  28.575  1.00  0.00     0.010 A 
ATOM     75  C   UNL A   1      42.851  22.047  26.021  1.00  0.00     0.020 A 
ATOM     76  C   UNL A   1      41.688  21.297  28.017  1.00  0.00     0.020 A 
ATOM     77  C   UNL A   1      42.188  21.047  26.738  1.00  0.00     0.054 A 
BRANCH  77  78
ATOM     78  S   UNL A   1      42.029  19.398  25.998  1.00  0.00     0.124 S 
ATOM     79  O   UNL A   1      42.592  18.544  27.038  1.00  0.00    -0.237 OA
ATOM     80  O   UNL A   1      40.587  19.281  25.792  1.00  0.00    -0.237 OA
ATOM     81  O   UNL A   1      42.818  19.496  24.772  1.00  0.00    -0.744 OA
ENDBRANCH  77  78
ENDBRANCH  49  72
BRANCH  61  82
ATOM     82  C   UNL A   1      47.708  26.636  31.360  1.00  0.00    -0.014 A 
ATOM     83  C   UNL A   1      48.846  26.787  30.547  1.00  0.00     0.010 A 
ATOM     84  C   UNL A   1      47.846  26.036  32.625  1.00  0.00     0.010 A 
ATOM     85  C   UNL A   1      50.087  26.307  30.972  1.00  0.00     0.020 A 
ATOM     86  C   UNL A   1      49.091  25.580  33.066  1.00  0.00     0.020 A 
ATOM     87  C   UNL A   1      50.201  25.701  32.227  1.00  0.00     0.054 A 
BRANCH  87  88
ATOM     88  S   UNL A   1      51.826  25.103  32.767  1.00  0.00     0.124 S 
ATOM     89  O   UNL A   1      52.713  25.689  31.767  1.00  0.00    -0.237 OA
ATOM     90  O   UNL A   1      51.943  25.657  34.113  1.00  0.00    -0.237 OA
ATOM     91  O   UNL A   1      51.696  23.647  32.709  1.00  0.00    -0.744 OA
ENDBRANCH  87  88
ENDBRANCH  61  82
ENDBRANCH  35  36
ENDBRANCH  27  30
ENDBRANCH  25  26
ENDBRANCH   1  25
TORSDOF 18
ENDMDL
MODEL 3
REMARK VINA RESULT:     -11.3      2.989      9.084
REMARK SMILES O=C(CN(CC(F)(F)F)c1nc(-c2ccccc2)cs1)NCCCNC(=O)c1ccc(-c2c3nc(c(-c4ccc(S(=O)(=O)[O-])cc4)c4ccc([nH]4)c(-c4ccc(S(=O)(=O)[O-])cc4)c4nc(c(-c5ccc(S(=O)(=O)[O-])cc5)c5ccc2[nH]5)C=C4)C=C3)cc1
REMARK SMILES IDX 23 1 22 2 21 3 1 4 2 5 3 7 4 8 5 9 6 10 7 11 8 12 9 13 10 14
REMARK SMILES IDX 11 15 20 16 12 17 19 18 13 19 14 20 18 21 15 22 17 23 16 24
REMARK SMILES IDX 24 25 25 26 26 27 27 29 28 30 29 31 87 32 30 33 86 34 31 35
REMARK SMILES IDX 32 36 33 37 80 38 34 39 85 40 79 41 81 42 35 43 84 44 78 45
REMARK SMILES IDX 77 46 36 48 66 49 47 50 65 51 48 52 51 53 64 54 82 55 49 56
REMARK SMILES IDX 50 57 63 59 83 60 52 61 37 62 38 63 46 64 39 65 45 66 40 67
REMARK SMILES IDX 41 68 42 69 43 70 44 71 67 72 68 73 76 74 69 75 75 76 70 77
REMARK SMILES IDX 71 78 72 79 73 80 74 81 53 82 54 83 62 84 55 85 61 86 56 87
REMARK SMILES IDX 57 88 58 89 59 90 60 91
REMARK H PARENT 21 6 25 28 81 47 51 58
REMARK Flexibility Score: inf
ROOT
ATOM      1  C   UNL A   1      33.348  27.954  26.916  1.00  0.00     0.042 C 
ENDROOT
BRANCH   1   2
ATOM      2  C   UNL A   1      31.829  27.846  26.972  1.00  0.00     0.117 C 
BRANCH   2   3
ATOM      3  N   UNL A   1      31.316  26.563  26.544  1.00  0.00    -0.354 N 
ATOM      4  O   UNL A   1      30.486  27.287  24.529  1.00  0.00    -0.273 OA
ATOM      5  C   UNL A   1      30.777  26.366  25.290  1.00  0.00     0.239 C 
ATOM      6  H   UNL A   1      31.352  25.804  27.170  1.00  0.00     0.163 HD
BRANCH   5   7
ATOM      7  C   UNL A   1      30.468  24.899  24.940  1.00  0.00     0.219 C 
BRANCH   7   8
ATOM      8  N   UNL A   1      31.517  24.218  24.148  1.00  0.00    -0.330 N 
BRANCH   8   9
ATOM      9  C   UNL A   1      32.037  24.893  22.941  1.00  0.00     0.234 C 
BRANCH   9  10
ATOM     10  C   UNL A   1      33.475  25.434  22.992  1.00  0.00     0.406 C 
ATOM     11  F   UNL A   1      33.668  26.284  24.024  1.00  0.00    -0.169 F 
ATOM     12  F   UNL A   1      34.349  24.412  23.164  1.00  0.00    -0.169 F 
ATOM     13  F   UNL A   1      33.823  26.070  21.852  1.00  0.00    -0.169 F 
ENDBRANCH   9  10
ENDBRANCH   8   9
BRANCH   8  14
ATOM     14  C   UNL A   1      32.098  23.106  24.681  1.00  0.00     0.186 A 
ATOM     15  N   UNL A   1      32.131  21.961  24.040  1.00  0.00    -0.220 NA
ATOM     16  S   UNL A   1      32.850  23.048  26.235  1.00  0.00    -0.105 S 
ATOM     17  C   UNL A   1      32.780  20.989  24.775  1.00  0.00     0.083 A 
ATOM     18  C   UNL A   1      33.202  21.390  26.023  1.00  0.00     0.097 A 
BRANCH  17  19
ATOM     19  C   UNL A   1      33.061  19.677  24.221  1.00  0.00     0.001 A 
ATOM     20  C   UNL A   1      34.129  18.901  24.687  1.00  0.00     0.010 A 
ATOM     21  C   UNL A   1      32.263  19.193  23.176  1.00  0.00     0.010 A 
ATOM     22  C   UNL A   1      34.405  17.663  24.098  1.00  0.00     0.001 A 
ATOM     23  C   UNL A   1      32.548  17.962  22.583  1.00  0.00     0.001 A 
ATOM     24  C   UNL A   1      33.620  17.200  23.042  1.00  0.00     0.000 A 
ENDBRANCH  17  19
ENDBRANCH   8  14
ENDBRANCH   7   8
ENDBRANCH   5   7
ENDBRANCH   2   3
ENDBRANCH   1   2
BRANCH   1  25
ATOM     25  C   UNL A   1      33.885  29.100  26.062  1.00  0.00     0.118 C 
BRANCH  25  26
ATOM     26  N   UNL A   1      33.593  30.418  26.608  1.00  0.00    -0.352 N 
ATOM     27  C   UNL A   1      34.212  31.146  27.592  1.00  0.00     0.251 C 
ATOM     28  H   UNL A   1      32.816  30.865  26.200  1.00  0.00     0.163 HD
ATOM     29  O   UNL A   1      33.697  32.209  27.949  1.00  0.00    -0.269 OA
BRANCH  27  30
ATOM     30  C   UNL A   1      35.459  30.683  28.248  1.00  0.00     0.039 A 
ATOM     31  C   UNL A   1      36.670  31.264  27.855  1.00  0.00     0.014 A 
ATOM     32  C   UNL A   1      35.469  29.657  29.197  1.00  0.00     0.014 A 
ATOM     33  C   UNL A   1      37.870  30.861  28.448  1.00  0.00     0.010 A 
ATOM     34  C   UNL A   1      36.659  29.304  29.840  1.00  0.00     0.010 A 
ATOM     35  C   UNL A   1      37.874  29.900  29.471  1.00  0.00    -0.014 A 
BRANCH  35  36
ATOM     36  C   UNL A   1      39.141  29.526  30.160  1.00  0.00     0.031 A 
ATOM     37  C   UNL A   1      39.578  30.240  31.413  1.00  0.00     0.074 A 
ATOM     38  C   UNL A   1      39.922  28.561  29.636  1.00  0.00     0.049 A 
ATOM     39  N   UNL A   1      40.648  30.042  32.143  1.00  0.00    -0.248 NA
ATOM     40  C   UNL A   1      38.718  31.330  31.898  1.00  0.00     0.031 C 
ATOM     41  C   UNL A   1      39.642  27.821  28.402  1.00  0.00     0.029 A 
ATOM     42  N   UNL A   1      41.111  28.031  30.074  1.00  0.00    -0.354 N 
ATOM     43  C   UNL A   1      40.595  30.985  33.163  1.00  0.00     0.074 A 
ATOM     44  C   UNL A   1      39.413  31.787  32.929  1.00  0.00     0.031 C 
ATOM     45  C   UNL A   1      40.612  26.914  28.202  1.00  0.00     0.029 A 
ATOM     46  C   UNL A   1      41.599  27.027  29.271  1.00  0.00     0.049 A 
ATOM     47  H   UNL A   1      41.571  28.342  30.887  1.00  0.00     0.167 HD
ATOM     48  C   UNL A   1      41.439  31.159  34.209  1.00  0.00     0.031 A 
ATOM     49  C   UNL A   1      42.712  26.277  29.379  1.00  0.00     0.031 A 
ATOM     50  C   UNL A   1      42.611  30.356  34.450  1.00  0.00     0.049 A 
ATOM     51  C   UNL A   1      43.629  26.482  30.553  1.00  0.00     0.074 A 
ATOM     52  C   UNL A   1      43.496  30.422  35.512  1.00  0.00     0.029 A 
ATOM     53  N   UNL A   1      43.063  29.344  33.617  1.00  0.00    -0.354 N 
ATOM     54  N   UNL A   1      43.522  27.335  31.543  1.00  0.00    -0.248 NA
ATOM     55  C   UNL A   1      44.809  25.609  30.632  1.00  0.00     0.031 C 
ATOM     56  C   UNL A   1      44.509  29.481  35.299  1.00  0.00     0.029 A 
ATOM     57  C   UNL A   1      44.224  28.791  34.132  1.00  0.00     0.049 A 
ATOM     58  H   UNL A   1      42.624  29.060  32.783  1.00  0.00     0.167 HD
ATOM     59  C   UNL A   1      44.607  27.084  32.377  1.00  0.00     0.074 A 
ATOM     60  C   UNL A   1      45.346  25.988  31.784  1.00  0.00     0.031 C 
ATOM     61  C   UNL A   1      44.956  27.705  33.531  1.00  0.00     0.031 A 
BRANCH  48  62
ATOM     62  C   UNL A   1      41.125  32.268  35.180  1.00  0.00    -0.014 A 
ATOM     63  C   UNL A   1      40.326  32.036  36.314  1.00  0.00     0.010 A 
ATOM     64  C   UNL A   1      41.668  33.551  34.979  1.00  0.00     0.010 A 
ATOM     65  C   UNL A   1      40.039  33.074  37.204  1.00  0.00     0.020 A 
ATOM     66  C   UNL A   1      41.407  34.585  35.883  1.00  0.00     0.020 A 
ATOM     67  C   UNL A   1      40.577  34.344  36.981  1.00  0.00     0.054 A 
BRANCH  67  68
ATOM     68  S   UNL A   1      40.201  35.670  38.160  1.00  0.00     0.124 S 
ATOM     69  O   UNL A   1      38.997  35.160  38.811  1.00  0.00    -0.237 OA
ATOM     70  O   UNL A   1      41.399  35.705  38.996  1.00  0.00    -0.237 OA
ATOM     71  O   UNL A   1      40.001  36.842  37.313  1.00  0.00    -0.744 OA
ENDBRANCH  67  68
ENDBRANCH  48  62
BRANCH  49  72
ATOM     72  C   UNL A   1      43.009  25.238  28.355  1.00  0.00    -0.014 A 
ATOM     73  C   UNL A   1      43.798  25.546  27.232  1.00  0.00     0.010 A 
ATOM     74  C   UNL A   1      42.517  23.929  28.506  1.00  0.00     0.010 A 
ATOM     75  C   UNL A   1      44.071  24.573  26.269  1.00  0.00     0.020 A 
ATOM     76  C   UNL A   1      42.810  22.945  27.557  1.00  0.00     0.020 A 
ATOM     77  C   UNL A   1      43.577  23.276  26.438  1.00  0.00     0.054 A 
BRANCH  77  78
ATOM     78  S   UNL A   1      43.987  22.013  25.202  1.00  0.00     0.124 S 
ATOM     79  O   UNL A   1      43.830  22.750  23.952  1.00  0.00    -0.237 OA
ATOM     80  O   UNL A   1      45.358  21.654  25.559  1.00  0.00    -0.237 OA
ATOM     81  O   UNL A   1      42.995  20.967  25.441  1.00  0.00    -0.744 OA
ENDBRANCH  77  78
ENDBRANCH  49  72
BRANCH  61  82
ATOM     82  C   UNL A   1      46.178  27.191  34.246  1.00  0.00    -0.014 A 
ATOM     83  C   UNL A   1      47.454  27.727  33.994  1.00  0.00     0.010 A 
ATOM     84  C   UNL A   1      46.042  26.173  35.209  1.00  0.00     0.010 A 
ATOM     85  C   UNL A   1      48.576  27.224  34.657  1.00  0.00     0.020 A 
ATOM     86  C   UNL A   1      47.157  25.688  35.895  1.00  0.00     0.020 A 
ATOM     87  C   UNL A   1      48.421  26.203  35.600  1.00  0.00     0.054 A 
BRANCH  87  88
ATOM     88  S   UNL A   1      49.889  25.579  36.464  1.00  0.00     0.124 S 
ATOM     89  O   UNL A   1      50.931  25.754  35.457  1.00  0.00    -0.237 OA
ATOM     90  O   UNL A   1      49.981  26.462  37.623  1.00  0.00    -0.237 OA
ATOM     91  O   UNL A   1      49.546  24.192  36.772  1.00  0.00    -0.744 OA
ENDBRANCH  87  88
ENDBRANCH  61  82
ENDBRANCH  35  36
ENDBRANCH  27  30
ENDBRANCH  25  26
ENDBRANCH   1  25
TORSDOF 18
ENDMDL
