MODEL 1
REMARK VINA RESULT:     -13.2      0.000      0.000
REMARK SMILES Cc1ccc(N2C(=O)[NH+]=C(NCCCNC(=O)c3ccc(-c4c5nc(c(-c6ccc(S(=O)(=O)[O-])cc6)c6ccc([nH]6)c(-c6ccc(S(=O)(=O)[O-])cc6)c6nc(c(-c7ccc(S(=O)(=O)[O-])cc7)c7ccc4[nH]7)C=C6)C=C5)cc3)/C(=C\c3ccccc3OCc3cccc(C(=O)[O-])c3)C2=O)cc1
REMARK SMILES IDX 12 1 11 2 6 3 7 4 97 5 8 6 9 7 78 8 98 9 10 10 79 12 5 14
REMARK SMILES IDX 1 15 2 16 3 17 100 18 4 19 99 20 80 21 81 22 85 23 82 24
REMARK SMILES IDX 84 25 83 26 86 27 87 28 88 29 89 30 96 31 90 32 92 33 91 34
REMARK SMILES IDX 93 35 94 36 95 37 13 38 14 39 15 40 16 41 17 43 18 44 19 45
REMARK SMILES IDX 77 46 20 47 76 48 21 49 22 50 23 51 70 52 24 53 75 54 69 55
REMARK SMILES IDX 71 56 25 57 74 58 68 59 67 60 26 62 56 63 37 64 55 65 38 66
REMARK SMILES IDX 41 67 54 68 72 69 39 70 40 71 53 73 73 74 42 75 27 76 28 77
REMARK SMILES IDX 36 78 29 79 35 80 30 81 31 82 32 83 33 84 34 85 57 86 58 87
REMARK SMILES IDX 66 88 59 89 65 90 60 91 61 92 62 93 63 94 64 95 43 96 44 97
REMARK SMILES IDX 52 98 45 99 51 100 46 101 47 102 48 103 49 104 50 105
REMARK H PARENT 9 11 11 13 15 42 71 61 41 72
REMARK Flexibility Score: inf
ROOT
ATOM      1  C   UNL A   1      35.426  23.336  24.968  1.00  0.00     0.195 C 
ENDROOT
BRANCH   1   2
ATOM      2  N   UNL A   1      34.249  23.584  25.816  1.00  0.00    -0.305 N 
ATOM      3  N   UNL A   1      32.735  27.450  26.265  1.00  0.00    -0.155 N 
ATOM      4  C   UNL A   1      34.076  27.159  25.966  1.00  0.00     0.448 C 
ATOM      5  C   UNL A   1      31.794  26.459  26.504  1.00  0.00     0.328 C 
ATOM      6  O   UNL A   1      34.911  28.045  25.783  1.00  0.00    -0.212 OA
ATOM      7  N   UNL A   1      34.503  25.860  25.928  1.00  0.00    -0.209 N 
ATOM      8  C   UNL A   1      32.223  25.120  26.049  1.00  0.00     0.129 C 
ATOM      9  O   UNL A   1      30.643  26.630  26.908  1.00  0.00    -0.249 OA
ATOM     10  C   UNL A   1      33.689  24.849  25.934  1.00  0.00     0.236 C 
ATOM     11  H   UNL A   1      35.470  25.685  25.895  1.00  0.00     0.270 HD
ATOM     12  C   UNL A   1      31.210  24.394  25.539  1.00  0.00     0.034 C 
ATOM     13  H   UNL A   1      33.848  22.832  26.311  1.00  0.00     0.256 HD
BRANCH   3  14
ATOM     14  C   UNL A   1      32.303  28.818  26.297  1.00  0.00     0.111 A 
ATOM     15  C   UNL A   1      31.067  32.958  26.371  1.00  0.00     0.044 C 
ATOM     16  C   UNL A   1      31.501  31.525  26.335  1.00  0.00    -0.051 A 
ATOM     17  C   UNL A   1      32.412  31.043  27.280  1.00  0.00     0.007 A 
ATOM     18  C   UNL A   1      31.013  30.657  25.358  1.00  0.00     0.007 A 
ATOM     19  C   UNL A   1      32.799  29.702  27.266  1.00  0.00     0.044 A 
ATOM     20  C   UNL A   1      31.414  29.320  25.337  1.00  0.00     0.044 A 
ENDBRANCH   3  14
BRANCH  12  21
ATOM     21  C   UNL A   1      31.366  23.141  24.826  1.00  0.00     0.018 A 
ATOM     22  C   UNL A   1      31.408  22.031  25.666  1.00  0.00     0.012 A 
ATOM     23  C   UNL A   1      31.678  23.020  23.462  1.00  0.00     0.127 A 
ATOM     24  C   UNL A   1      31.954  20.861  25.188  1.00  0.00     0.001 A 
ATOM     25  C   UNL A   1      32.183  21.815  22.987  1.00  0.00     0.047 A 
ATOM     26  C   UNL A   1      32.369  20.764  23.863  1.00  0.00     0.004 A 
BRANCH  23  27
ATOM     27  O   UNL A   1      31.786  24.023  22.551  1.00  0.00    -0.488 OA
BRANCH  27  28
ATOM     28  C   UNL A   1      33.032  24.666  22.356  1.00  0.00     0.265 C 
BRANCH  28  29
ATOM     29  C   UNL A   1      32.767  26.152  22.325  1.00  0.00    -0.010 A 
ATOM     30  C   UNL A   1      33.835  27.056  22.389  1.00  0.00     0.007 A 
ATOM     31  C   UNL A   1      31.455  26.650  22.266  1.00  0.00     0.017 A 
ATOM     32  C   UNL A   1      33.598  28.430  22.394  1.00  0.00     0.001 A 
ATOM     33  C   UNL A   1      31.211  28.026  22.294  1.00  0.00    -0.002 A 
ATOM     34  C   UNL A   1      32.289  28.915  22.359  1.00  0.00     0.010 A 
BRANCH  33  35
ATOM     35  C   UNL A   1      29.830  28.555  22.313  1.00  0.00     0.071 C 
ATOM     36  O   UNL A   1      29.432  29.531  21.685  1.00  0.00    -0.545 OA
ATOM     37  O   UNL A   1      29.024  27.854  23.123  1.00  0.00    -0.545 OA
ENDBRANCH  33  35
ENDBRANCH  28  29
ENDBRANCH  27  28
ENDBRANCH  23  27
ENDBRANCH  12  21
ENDBRANCH   1   2
BRANCH   1  38
ATOM     38  C   UNL A   1      36.319  22.213  25.484  1.00  0.00     0.059 C 
BRANCH  38  39
ATOM     39  C   UNL A   1      37.810  22.487  25.365  1.00  0.00     0.119 C 
BRANCH  39  40
ATOM     40  N   UNL A   1      38.630  22.070  26.494  1.00  0.00    -0.352 N 
ATOM     41  C   UNL A   1      39.819  22.684  26.884  1.00  0.00     0.251 C 
ATOM     42  H   UNL A   1      38.322  21.297  27.019  1.00  0.00     0.163 HD
ATOM     43  O   UNL A   1      40.813  22.044  27.205  1.00  0.00    -0.269 OA
BRANCH  41  44
ATOM     44  C   UNL A   1      39.779  24.156  27.076  1.00  0.00     0.039 A 
ATOM     45  C   UNL A   1      40.403  24.993  26.138  1.00  0.00     0.014 A 
ATOM     46  C   UNL A   1      39.307  24.685  28.266  1.00  0.00     0.014 A 
ATOM     47  C   UNL A   1      40.749  26.300  26.487  1.00  0.00     0.010 A 
ATOM     48  C   UNL A   1      39.733  25.926  28.652  1.00  0.00     0.010 A 
ATOM     49  C   UNL A   1      40.494  26.718  27.783  1.00  0.00    -0.014 A 
BRANCH  49  50
ATOM     50  C   UNL A   1      40.873  27.987  28.377  1.00  0.00     0.031 A 
ATOM     51  C   UNL A   1      39.797  28.984  28.524  1.00  0.00     0.074 A 
ATOM     52  C   UNL A   1      42.007  28.046  29.113  1.00  0.00     0.049 A 
ATOM     53  N   UNL A   1      39.976  30.153  29.015  1.00  0.00    -0.248 NA
ATOM     54  C   UNL A   1      38.405  28.741  28.133  1.00  0.00     0.031 C 
ATOM     55  C   UNL A   1      42.292  28.885  30.280  1.00  0.00     0.029 A 
ATOM     56  N   UNL A   1      43.187  27.333  28.962  1.00  0.00    -0.354 N 
ATOM     57  C   UNL A   1      38.738  30.674  29.304  1.00  0.00     0.074 A 
ATOM     58  C   UNL A   1      37.789  29.806  28.656  1.00  0.00     0.031 C 
ATOM     59  C   UNL A   1      43.609  28.822  30.560  1.00  0.00     0.029 A 
ATOM     60  C   UNL A   1      44.236  28.114  29.456  1.00  0.00     0.049 A 
ATOM     61  H   UNL A   1      43.272  26.432  28.572  1.00  0.00     0.167 HD
ATOM     62  C   UNL A   1      38.675  31.714  30.175  1.00  0.00     0.031 A 
ATOM     63  C   UNL A   1      45.178  28.632  28.607  1.00  0.00     0.031 A 
ATOM     64  C   UNL A   1      40.019  32.105  30.605  1.00  0.00     0.049 A 
ATOM     65  C   UNL A   1      45.036  30.145  28.500  1.00  0.00     0.074 A 
ATOM     66  C   UNL A   1      40.772  31.881  31.746  1.00  0.00     0.029 A 
ATOM     67  N   UNL A   1      40.910  32.531  29.636  1.00  0.00    -0.354 N 
ATOM     68  N   UNL A   1      44.054  30.814  29.042  1.00  0.00    -0.248 NA
ATOM     69  C   UNL A   1      45.932  31.020  27.751  1.00  0.00     0.031 C 
ATOM     70  C   UNL A   1      42.134  32.172  31.433  1.00  0.00     0.029 A 
ATOM     71  C   UNL A   1      42.200  32.592  30.116  1.00  0.00     0.049 A 
ATOM     72  H   UNL A   1      40.652  32.761  28.715  1.00  0.00     0.167 HD
ATOM     73  C   UNL A   1      44.151  32.139  28.750  1.00  0.00     0.074 A 
ATOM     74  C   UNL A   1      45.329  32.217  27.901  1.00  0.00     0.031 C 
ATOM     75  C   UNL A   1      43.250  33.053  29.219  1.00  0.00     0.031 A 
BRANCH  62  76
ATOM     76  C   UNL A   1      37.426  32.284  30.789  1.00  0.00    -0.014 A 
ATOM     77  C   UNL A   1      37.451  33.633  31.202  1.00  0.00     0.010 A 
ATOM     78  C   UNL A   1      36.212  31.595  30.976  1.00  0.00     0.010 A 
ATOM     79  C   UNL A   1      36.351  34.254  31.794  1.00  0.00     0.020 A 
ATOM     80  C   UNL A   1      35.099  32.205  31.584  1.00  0.00     0.020 A 
ATOM     81  C   UNL A   1      35.178  33.535  31.987  1.00  0.00     0.054 A 
BRANCH  81  82
ATOM     82  S   UNL A   1      33.769  34.382  32.744  1.00  0.00     0.124 S 
ATOM     83  O   UNL A   1      33.007  33.271  33.311  1.00  0.00    -0.237 OA
ATOM     84  O   UNL A   1      34.416  35.262  33.712  1.00  0.00    -0.237 OA
ATOM     85  O   UNL A   1      33.126  35.059  31.619  1.00  0.00    -0.744 OA
ENDBRANCH  81  82
ENDBRANCH  62  76
BRANCH  63  86
ATOM     86  C   UNL A   1      45.494  27.682  27.483  1.00  0.00    -0.014 A 
ATOM     87  C   UNL A   1      46.302  26.569  27.824  1.00  0.00     0.010 A 
ATOM     88  C   UNL A   1      44.584  27.550  26.415  1.00  0.00     0.010 A 
ATOM     89  C   UNL A   1      46.026  25.301  27.298  1.00  0.00     0.020 A 
ATOM     90  C   UNL A   1      44.320  26.279  25.875  1.00  0.00     0.020 A 
ATOM     91  C   UNL A   1      44.981  25.156  26.386  1.00  0.00     0.054 A 
BRANCH  91  92
ATOM     92  S   UNL A   1      44.365  23.472  26.056  1.00  0.00     0.124 S 
ATOM     93  O   UNL A   1      43.389  23.694  24.995  1.00  0.00    -0.237 OA
ATOM     94  O   UNL A   1      45.587  22.777  25.651  1.00  0.00    -0.237 OA
ATOM     95  O   UNL A   1      43.811  23.067  27.343  1.00  0.00    -0.744 OA
ENDBRANCH  91  92
ENDBRANCH  63  86
BRANCH  75  96
ATOM     96  C   UNL A   1      43.266  34.501  28.833  1.00  0.00    -0.014 A 
ATOM     97  C   UNL A   1      42.905  34.940  27.555  1.00  0.00     0.010 A 
ATOM     98  C   UNL A   1      43.732  35.473  29.749  1.00  0.00     0.010 A 
ATOM     99  C   UNL A   1      42.887  36.304  27.250  1.00  0.00     0.020 A 
ATOM    100  C   UNL A   1      43.750  36.830  29.446  1.00  0.00     0.020 A 
ATOM    101  C   UNL A   1      43.288  37.240  28.207  1.00  0.00     0.054 A 
BRANCH 101 102
ATOM    102  S   UNL A   1      43.212  38.997  27.806  1.00  0.00     0.124 S 
ATOM    103  O   UNL A   1      43.138  39.619  29.126  1.00  0.00    -0.237 OA
ATOM    104  O   UNL A   1      44.470  39.192  27.088  1.00  0.00    -0.237 OA
ATOM    105  O   UNL A   1      42.004  39.119  26.993  1.00  0.00    -0.744 OA
ENDBRANCH 101 102
ENDBRANCH  75  96
ENDBRANCH  49  50
ENDBRANCH  41  44
ENDBRANCH  39  40
ENDBRANCH  38  39
ENDBRANCH   1  38
TORSDOF 18
ENDMDL
MODEL 2
REMARK VINA RESULT:     -13.0      1.722      2.524
REMARK SMILES Cc1ccc(N2C(=O)[NH+]=C(NCCCNC(=O)c3ccc(-c4c5nc(c(-c6ccc(S(=O)(=O)[O-])cc6)c6ccc([nH]6)c(-c6ccc(S(=O)(=O)[O-])cc6)c6nc(c(-c7ccc(S(=O)(=O)[O-])cc7)c7ccc4[nH]7)C=C6)C=C5)cc3)/C(=C\c3ccccc3OCc3cccc(C(=O)[O-])c3)C2=O)cc1
REMARK SMILES IDX 12 1 11 2 6 3 7 4 97 5 8 6 9 7 78 8 98 9 10 10 79 12 5 14
REMARK SMILES IDX 1 15 2 16 3 17 100 18 4 19 99 20 80 21 81 22 85 23 82 24
REMARK SMILES IDX 84 25 83 26 86 27 87 28 88 29 89 30 96 31 90 32 92 33 91 34
REMARK SMILES IDX 93 35 94 36 95 37 13 38 14 39 15 40 16 41 17 43 18 44 19 45
REMARK SMILES IDX 77 46 20 47 76 48 21 49 22 50 23 51 70 52 24 53 75 54 69 55
REMARK SMILES IDX 71 56 25 57 74 58 68 59 67 60 26 62 56 63 37 64 55 65 38 66
REMARK SMILES IDX 41 67 54 68 72 69 39 70 40 71 53 73 73 74 42 75 27 76 28 77
REMARK SMILES IDX 36 78 29 79 35 80 30 81 31 82 32 83 33 84 34 85 57 86 58 87
REMARK SMILES IDX 66 88 59 89 65 90 60 91 61 92 62 93 63 94 64 95 43 96 44 97
REMARK SMILES IDX 52 98 45 99 51 100 46 101 47 102 48 103 49 104 50 105
REMARK H PARENT 9 11 11 13 15 42 71 61 41 72
REMARK Flexibility Score: inf
ROOT
ATOM      1  C   UNL A   1      34.732  25.217  24.759  1.00  0.00     0.195 C 
ENDROOT
BRANCH   1   2
ATOM      2  N   UNL A   1      33.750  25.551  25.804  1.00  0.00    -0.305 N 
ATOM      3  N   UNL A   1      33.400  29.468  27.210  1.00  0.00    -0.155 N 
ATOM      4  C   UNL A   1      34.577  28.928  26.666  1.00  0.00     0.448 C 
ATOM      5  C   UNL A   1      32.250  28.713  27.389  1.00  0.00     0.328 C 
ATOM      6  O   UNL A   1      35.602  29.597  26.536  1.00  0.00    -0.212 OA
ATOM      7  N   UNL A   1      34.626  27.608  26.315  1.00  0.00    -0.209 N 
ATOM      8  C   UNL A   1      32.252  27.448  26.626  1.00  0.00     0.129 C 
ATOM      9  O   UNL A   1      31.232  29.068  27.985  1.00  0.00    -0.249 OA
ATOM     10  C   UNL A   1      33.571  26.856  26.245  1.00  0.00     0.236 C 
ATOM     11  H   UNL A   1      35.502  27.210  26.106  1.00  0.00     0.270 HD
ATOM     12  C   UNL A   1      31.037  27.130  26.141  1.00  0.00     0.034 C 
ATOM     13  H   UNL A   1      33.205  24.830  26.198  1.00  0.00     0.256 HD
BRANCH   3  14
ATOM     14  C   UNL A   1      33.364  30.856  27.569  1.00  0.00     0.111 A 
ATOM     15  C   UNL A   1      33.315  35.049  28.613  1.00  0.00     0.044 C 
ATOM     16  C   UNL A   1      33.335  33.599  28.240  1.00  0.00    -0.051 A 
ATOM     17  C   UNL A   1      34.300  32.747  28.785  1.00  0.00     0.007 A 
ATOM     18  C   UNL A   1      32.402  33.081  27.341  1.00  0.00     0.007 A 
ATOM     19  C   UNL A   1      34.306  31.389  28.461  1.00  0.00     0.044 A 
ATOM     20  C   UNL A   1      32.420  31.726  27.006  1.00  0.00     0.044 A 
ENDBRANCH   3  14
BRANCH  12  21
ATOM     21  C   UNL A   1      30.778  26.071  25.184  1.00  0.00     0.018 A 
ATOM     22  C   UNL A   1      30.557  24.832  25.779  1.00  0.00     0.012 A 
ATOM     23  C   UNL A   1      30.949  26.178  23.794  1.00  0.00     0.127 A 
ATOM     24  C   UNL A   1      30.710  23.696  25.018  1.00  0.00     0.001 A 
ATOM     25  C   UNL A   1      31.054  25.019  23.034  1.00  0.00     0.047 A 
ATOM     26  C   UNL A   1      30.989  23.790  23.658  1.00  0.00     0.004 A 
BRANCH  23  27
ATOM     27  O   UNL A   1      31.278  27.293  23.089  1.00  0.00    -0.488 OA
BRANCH  27  28
ATOM     28  C   UNL A   1      30.396  27.785  22.097  1.00  0.00     0.265 C 
BRANCH  28  29
ATOM     29  C   UNL A   1      29.965  29.166  22.528  1.00  0.00    -0.010 A 
ATOM     30  C   UNL A   1      30.224  29.607  23.832  1.00  0.00     0.007 A 
ATOM     31  C   UNL A   1      29.272  30.014  21.648  1.00  0.00     0.017 A 
ATOM     32  C   UNL A   1      29.801  30.868  24.248  1.00  0.00     0.001 A 
ATOM     33  C   UNL A   1      28.826  31.270  22.067  1.00  0.00    -0.002 A 
ATOM     34  C   UNL A   1      29.093  31.694  23.373  1.00  0.00     0.010 A 
BRANCH  33  35
ATOM     35  C   UNL A   1      28.027  32.134  21.170  1.00  0.00     0.071 C 
ATOM     36  O   UNL A   1      27.557  31.797  20.088  1.00  0.00    -0.545 OA
ATOM     37  O   UNL A   1      27.873  33.373  21.658  1.00  0.00    -0.545 OA
ENDBRANCH  33  35
ENDBRANCH  28  29
ENDBRANCH  27  28
ENDBRANCH  23  27
ENDBRANCH  12  21
ENDBRANCH   1   2
BRANCH   1  38
ATOM     38  C   UNL A   1      35.439  23.887  24.995  1.00  0.00     0.059 C 
BRANCH  38  39
ATOM     39  C   UNL A   1      36.619  23.961  25.951  1.00  0.00     0.119 C 
BRANCH  39  40
ATOM     40  N   UNL A   1      37.223  22.689  26.324  1.00  0.00    -0.352 N 
ATOM     41  C   UNL A   1      38.546  22.331  26.069  1.00  0.00     0.251 C 
ATOM     42  H   UNL A   1      36.655  22.035  26.791  1.00  0.00     0.163 HD
ATOM     43  O   UNL A   1      38.856  21.220  25.655  1.00  0.00    -0.269 OA
BRANCH  41  44
ATOM     44  C   UNL A   1      39.592  23.292  26.498  1.00  0.00     0.039 A 
ATOM     45  C   UNL A   1      40.288  23.068  27.696  1.00  0.00     0.014 A 
ATOM     46  C   UNL A   1      39.742  24.496  25.828  1.00  0.00     0.014 A 
ATOM     47  C   UNL A   1      40.948  24.123  28.330  1.00  0.00     0.010 A 
ATOM     48  C   UNL A   1      40.295  25.556  26.491  1.00  0.00     0.010 A 
ATOM     49  C   UNL A   1      40.857  25.384  27.762  1.00  0.00    -0.014 A 
BRANCH  49  50
ATOM     50  C   UNL A   1      41.371  26.625  28.314  1.00  0.00     0.031 A 
ATOM     51  C   UNL A   1      40.384  27.697  28.535  1.00  0.00     0.074 A 
ATOM     52  C   UNL A   1      42.560  26.604  28.960  1.00  0.00     0.049 A 
ATOM     53  N   UNL A   1      40.684  28.851  28.999  1.00  0.00    -0.248 NA
ATOM     54  C   UNL A   1      38.952  27.554  28.254  1.00  0.00     0.031 C 
ATOM     55  C   UNL A   1      42.995  27.424  30.094  1.00  0.00     0.029 A 
ATOM     56  N   UNL A   1      43.671  25.807  28.725  1.00  0.00    -0.354 N 
ATOM     57  C   UNL A   1      39.513  29.462  29.379  1.00  0.00     0.074 A 
ATOM     58  C   UNL A   1      38.457  28.663  28.814  1.00  0.00     0.031 C 
ATOM     59  C   UNL A   1      44.321  27.267  30.272  1.00  0.00     0.029 A 
ATOM     60  C   UNL A   1      44.808  26.511  29.129  1.00  0.00     0.049 A 
ATOM     61  H   UNL A   1      43.660  24.901  28.338  1.00  0.00     0.167 HD
ATOM     62  C   UNL A   1      39.592  30.507  30.243  1.00  0.00     0.031 A 
ATOM     63  C   UNL A   1      45.716  26.958  28.205  1.00  0.00     0.031 A 
ATOM     64  C   UNL A   1      40.991  30.801  30.564  1.00  0.00     0.049 A 
ATOM     65  C   UNL A   1      45.675  28.477  28.096  1.00  0.00     0.074 A 
ATOM     66  C   UNL A   1      41.811  30.528  31.645  1.00  0.00     0.029 A 
ATOM     67  N   UNL A   1      41.832  31.158  29.525  1.00  0.00    -0.354 N 
ATOM     68  N   UNL A   1      44.788  29.217  28.705  1.00  0.00    -0.248 NA
ATOM     69  C   UNL A   1      46.571  29.282  27.272  1.00  0.00     0.031 C 
ATOM     70  C   UNL A   1      43.163  30.718  31.226  1.00  0.00     0.029 A 
ATOM     71  C   UNL A   1      43.156  31.128  29.903  1.00  0.00     0.049 A 
ATOM     72  H   UNL A   1      41.520  31.403  28.624  1.00  0.00     0.167 HD
ATOM     73  C   UNL A   1      44.958  30.530  28.396  1.00  0.00     0.074 A 
ATOM     74  C   UNL A   1      46.069  30.519  27.457  1.00  0.00     0.031 C 
ATOM     75  C   UNL A   1      44.164  31.508  28.924  1.00  0.00     0.031 A 
BRANCH  62  76
ATOM     76  C   UNL A   1      38.439  31.168  30.946  1.00  0.00    -0.014 A 
ATOM     77  C   UNL A   1      38.119  32.493  30.583  1.00  0.00     0.010 A 
ATOM     78  C   UNL A   1      37.627  30.575  31.932  1.00  0.00     0.010 A 
ATOM     79  C   UNL A   1      37.076  33.201  31.183  1.00  0.00     0.020 A 
ATOM     80  C   UNL A   1      36.581  31.282  32.554  1.00  0.00     0.020 A 
ATOM     81  C   UNL A   1      36.313  32.593  32.171  1.00  0.00     0.054 A 
BRANCH  81  82
ATOM     82  S   UNL A   1      34.960  33.540  32.912  1.00  0.00     0.124 S 
ATOM     83  O   UNL A   1      33.793  33.025  32.199  1.00  0.00    -0.237 OA
ATOM     84  O   UNL A   1      35.053  33.166  34.321  1.00  0.00    -0.237 OA
ATOM     85  O   UNL A   1      35.303  34.928  32.613  1.00  0.00    -0.744 OA
ENDBRANCH  81  82
ENDBRANCH  62  76
BRANCH  63  86
ATOM     86  C   UNL A   1      45.875  25.983  27.069  1.00  0.00    -0.014 A 
ATOM     87  C   UNL A   1      46.424  24.722  27.409  1.00  0.00     0.010 A 
ATOM     88  C   UNL A   1      45.000  26.060  25.967  1.00  0.00     0.010 A 
ATOM     89  C   UNL A   1      45.915  23.548  26.841  1.00  0.00     0.020 A 
ATOM     90  C   UNL A   1      44.503  24.881  25.385  1.00  0.00     0.020 A 
ATOM     91  C   UNL A   1      44.899  23.637  25.890  1.00  0.00     0.054 A 
BRANCH  91  92
ATOM     92  S   UNL A   1      43.965  22.122  25.496  1.00  0.00     0.124 S 
ATOM     93  O   UNL A   1      43.308  21.815  26.762  1.00  0.00    -0.237 OA
ATOM     94  O   UNL A   1      43.081  22.582  24.424  1.00  0.00    -0.237 OA
ATOM     95  O   UNL A   1      45.010  21.188  25.088  1.00  0.00    -0.744 OA
ENDBRANCH  91  92
ENDBRANCH  63  86
BRANCH  75  96
ATOM     96  C   UNL A   1      44.254  32.950  28.524  1.00  0.00    -0.014 A 
ATOM     97  C   UNL A   1      43.790  33.417  27.290  1.00  0.00     0.010 A 
ATOM     98  C   UNL A   1      44.895  33.881  29.375  1.00  0.00     0.010 A 
ATOM     99  C   UNL A   1      43.848  34.777  26.976  1.00  0.00     0.020 A 
ATOM    100  C   UNL A   1      44.989  35.233  29.058  1.00  0.00     0.020 A 
ATOM    101  C   UNL A   1      44.427  35.678  27.874  1.00  0.00     0.054 A 
BRANCH 101 102
ATOM    102  S   UNL A   1      44.450  37.435  27.467  1.00  0.00     0.124 S 
ATOM    103  O   UNL A   1      45.702  37.572  26.728  1.00  0.00    -0.237 OA
ATOM    104  O   UNL A   1      43.231  37.571  26.671  1.00  0.00    -0.237 OA
ATOM    105  O   UNL A   1      44.421  38.096  28.770  1.00  0.00    -0.744 OA
ENDBRANCH 101 102
ENDBRANCH  75  96
ENDBRANCH  49  50
ENDBRANCH  41  44
ENDBRANCH  39  40
ENDBRANCH  38  39
ENDBRANCH   1  38
TORSDOF 18
ENDMDL
MODEL 3
REMARK VINA RESULT:     -12.2      2.059      4.714
REMARK SMILES Cc1ccc(N2C(=O)[NH+]=C(NCCCNC(=O)c3ccc(-c4c5nc(c(-c6ccc(S(=O)(=O)[O-])cc6)c6ccc([nH]6)c(-c6ccc(S(=O)(=O)[O-])cc6)c6nc(c(-c7ccc(S(=O)(=O)[O-])cc7)c7ccc4[nH]7)C=C6)C=C5)cc3)/C(=C\c3ccccc3OCc3cccc(C(=O)[O-])c3)C2=O)cc1
REMARK SMILES IDX 12 1 11 2 6 3 7 4 97 5 8 6 9 7 78 8 98 9 10 10 79 12 5 14
REMARK SMILES IDX 1 15 2 16 3 17 100 18 4 19 99 20 80 21 81 22 85 23 82 24
REMARK SMILES IDX 84 25 83 26 86 27 87 28 88 29 89 30 96 31 90 32 92 33 91 34
REMARK SMILES IDX 93 35 94 36 95 37 13 38 14 39 15 40 16 41 17 43 18 44 19 45
REMARK SMILES IDX 77 46 20 47 76 48 21 49 22 50 23 51 70 52 24 53 75 54 69 55
REMARK SMILES IDX 71 56 25 57 74 58 68 59 67 60 26 62 56 63 37 64 55 65 38 66
REMARK SMILES IDX 41 67 54 68 72 69 39 70 40 71 53 73 73 74 42 75 27 76 28 77
REMARK SMILES IDX 36 78 29 79 35 80 30 81 31 82 32 83 33 84 34 85 57 86 58 87
REMARK SMILES IDX 66 88 59 89 65 90 60 91 61 92 62 93 63 94 64 95 43 96 44 97
REMARK SMILES IDX 52 98 45 99 51 100 46 101 47 102 48 103 49 104 50 105
REMARK H PARENT 9 11 11 13 15 42 71 61 41 72
REMARK Flexibility Score: inf
ROOT
ATOM      1  C   UNL A   1      37.662  23.817  24.825  1.00  0.00     0.195 C 
ENDROOT
BRANCH   1   2
ATOM      2  N   UNL A   1      36.487  23.495  24.000  1.00  0.00    -0.305 N 
ATOM      3  N   UNL A   1      34.547  19.820  24.420  1.00  0.00    -0.155 N 
ATOM      4  C   UNL A   1      35.904  20.032  24.711  1.00  0.00     0.448 C 
ATOM      5  C   UNL A   1      33.734  20.815  23.898  1.00  0.00     0.328 C 
ATOM      6  O   UNL A   1      36.625  19.135  25.149  1.00  0.00    -0.212 OA
ATOM      7  N   UNL A   1      36.477  21.247  24.457  1.00  0.00    -0.209 N 
ATOM      8  C   UNL A   1      34.303  22.172  24.036  1.00  0.00     0.129 C 
ATOM      9  O   UNL A   1      32.582  20.673  23.485  1.00  0.00    -0.249 OA
ATOM     10  C   UNL A   1      35.787  22.306  24.162  1.00  0.00     0.236 C 
ATOM     11  H   UNL A   1      37.457  21.321  24.499  1.00  0.00     0.270 HD
ATOM     12  C   UNL A   1      33.368  23.105  24.300  1.00  0.00     0.034 C 
ATOM     13  H   UNL A   1      36.189  24.139  23.316  1.00  0.00     0.256 HD
BRANCH   3  14
ATOM     14  C   UNL A   1      33.960  18.541  24.697  1.00  0.00     0.111 A 
ATOM     15  C   UNL A   1      32.128  14.712  25.508  1.00  0.00     0.044 C 
ATOM     16  C   UNL A   1      32.757  16.039  25.217  1.00  0.00    -0.051 A 
ATOM     17  C   UNL A   1      32.460  17.148  26.016  1.00  0.00     0.007 A 
ATOM     18  C   UNL A   1      33.636  16.192  24.145  1.00  0.00     0.007 A 
ATOM     19  C   UNL A   1      33.063  18.381  25.764  1.00  0.00     0.044 A 
ATOM     20  C   UNL A   1      34.227  17.430  23.885  1.00  0.00     0.044 A 
ENDBRANCH   3  14
BRANCH  12  21
ATOM     21  C   UNL A   1      33.649  24.471  24.695  1.00  0.00     0.018 A 
ATOM     22  C   UNL A   1      33.586  24.671  26.072  1.00  0.00     0.012 A 
ATOM     23  C   UNL A   1      33.751  25.563  23.817  1.00  0.00     0.127 A 
ATOM     24  C   UNL A   1      33.420  25.951  26.548  1.00  0.00     0.001 A 
ATOM     25  C   UNL A   1      33.628  26.852  24.323  1.00  0.00     0.047 A 
ATOM     26  C   UNL A   1      33.409  27.034  25.673  1.00  0.00     0.004 A 
BRANCH  23  27
ATOM     27  O   UNL A   1      33.711  25.532  22.459  1.00  0.00    -0.488 OA
BRANCH  27  28
ATOM     28  C   UNL A   1      32.533  25.111  21.798  1.00  0.00     0.265 C 
BRANCH  28  29
ATOM     29  C   UNL A   1      31.374  25.831  22.447  1.00  0.00    -0.010 A 
ATOM     30  C   UNL A   1      30.584  25.174  23.397  1.00  0.00     0.007 A 
ATOM     31  C   UNL A   1      31.053  27.151  22.087  1.00  0.00     0.017 A 
ATOM     32  C   UNL A   1      29.493  25.820  23.976  1.00  0.00     0.001 A 
ATOM     33  C   UNL A   1      29.947  27.795  22.648  1.00  0.00    -0.002 A 
ATOM     34  C   UNL A   1      29.167  27.124  23.596  1.00  0.00     0.010 A 
BRANCH  33  35
ATOM     35  C   UNL A   1      29.556  29.155  22.216  1.00  0.00     0.071 C 
ATOM     36  O   UNL A   1      30.270  29.939  21.598  1.00  0.00    -0.545 OA
ATOM     37  O   UNL A   1      28.309  29.472  22.590  1.00  0.00    -0.545 OA
ENDBRANCH  33  35
ENDBRANCH  28  29
ENDBRANCH  27  28
ENDBRANCH  23  27
ENDBRANCH  12  21
ENDBRANCH   1   2
BRANCH   1  38
ATOM     38  C   UNL A   1      37.306  24.239  26.247  1.00  0.00     0.059 C 
BRANCH  38  39
ATOM     39  C   UNL A   1      38.504  24.474  27.153  1.00  0.00     0.119 C 
BRANCH  39  40
ATOM     40  N   UNL A   1      39.511  23.422  27.170  1.00  0.00    -0.352 N 
ATOM     41  C   UNL A   1      40.807  23.552  26.673  1.00  0.00     0.251 C 
ATOM     42  H   UNL A   1      39.258  22.555  27.561  1.00  0.00     0.163 HD
ATOM     43  O   UNL A   1      41.341  22.679  25.999  1.00  0.00    -0.269 OA
BRANCH  41  44
ATOM     44  C   UNL A   1      41.591  24.719  27.148  1.00  0.00     0.039 A 
ATOM     45  C   UNL A   1      42.020  24.766  28.484  1.00  0.00     0.014 A 
ATOM     46  C   UNL A   1      41.726  25.837  26.340  1.00  0.00     0.014 A 
ATOM     47  C   UNL A   1      42.371  25.987  29.063  1.00  0.00     0.010 A 
ATOM     48  C   UNL A   1      41.967  27.049  26.925  1.00  0.00     0.010 A 
ATOM     49  C   UNL A   1      42.245  27.133  28.296  1.00  0.00    -0.014 A 
BRANCH  49  50
ATOM     50  C   UNL A   1      42.449  28.502  28.737  1.00  0.00     0.031 A 
ATOM     51  C   UNL A   1      41.231  29.285  29.015  1.00  0.00     0.074 A 
ATOM     52  C   UNL A   1      43.652  28.844  29.253  1.00  0.00     0.049 A 
ATOM     53  N   UNL A   1      41.247  30.507  29.395  1.00  0.00    -0.248 NA
ATOM     54  C   UNL A   1      39.873  28.747  28.894  1.00  0.00     0.031 C 
ATOM     55  C   UNL A   1      43.948  29.827  30.299  1.00  0.00     0.029 A 
ATOM     56  N   UNL A   1      44.912  28.357  28.936  1.00  0.00    -0.354 N 
ATOM     57  C   UNL A   1      39.993  30.809  29.870  1.00  0.00     0.074 A 
ATOM     58  C   UNL A   1      39.148  29.719  29.454  1.00  0.00     0.031 C 
ATOM     59  C   UNL A   1      45.277  30.042  30.342  1.00  0.00     0.029 A 
ATOM     60  C   UNL A   1      45.847  29.366  29.187  1.00  0.00     0.049 A 
ATOM     61  H   UNL A   1      45.113  27.457  28.592  1.00  0.00     0.167 HD
ATOM     62  C   UNL A   1      39.863  31.894  30.675  1.00  0.00     0.031 A 
ATOM     63  C   UNL A   1      46.511  29.972  28.154  1.00  0.00     0.031 A 
ATOM     64  C   UNL A   1      41.152  32.572  30.834  1.00  0.00     0.049 A 
ATOM     65  C   UNL A   1      46.049  31.413  27.985  1.00  0.00     0.074 A 
ATOM     66  C   UNL A   1      42.110  32.604  31.833  1.00  0.00     0.029 A 
ATOM     67  N   UNL A   1      41.766  33.067  29.697  1.00  0.00    -0.354 N 
ATOM     68  N   UNL A   1      45.053  31.931  28.653  1.00  0.00    -0.248 NA
ATOM     69  C   UNL A   1      46.614  32.369  27.037  1.00  0.00     0.031 C 
ATOM     70  C   UNL A   1      43.315  33.117  31.264  1.00  0.00     0.029 A 
ATOM     71  C   UNL A   1      43.078  33.417  29.934  1.00  0.00     0.049 A 
ATOM     72  H   UNL A   1      41.320  33.157  28.825  1.00  0.00     0.167 HD
ATOM     73  C   UNL A   1      44.830  33.217  28.271  1.00  0.00     0.074 A 
ATOM     74  C   UNL A   1      45.813  33.438  27.221  1.00  0.00     0.031 C 
ATOM     75  C   UNL A   1      43.851  33.983  28.838  1.00  0.00     0.031 A 
BRANCH  62  76
ATOM     76  C   UNL A   1      38.642  32.272  31.467  1.00  0.00    -0.014 A 
ATOM     77  C   UNL A   1      38.267  33.632  31.492  1.00  0.00     0.010 A 
ATOM     78  C   UNL A   1      37.816  31.382  32.181  1.00  0.00     0.010 A 
ATOM     79  C   UNL A   1      37.158  34.089  32.207  1.00  0.00     0.020 A 
ATOM     80  C   UNL A   1      36.703  31.830  32.917  1.00  0.00     0.020 A 
ATOM     81  C   UNL A   1      36.382  33.185  32.921  1.00  0.00     0.054 A 
BRANCH  81  82
ATOM     82  S   UNL A   1      34.945  33.816  33.822  1.00  0.00     0.124 S 
ATOM     83  O   UNL A   1      33.852  33.032  33.250  1.00  0.00    -0.237 OA
ATOM     84  O   UNL A   1      35.284  33.506  35.208  1.00  0.00    -0.237 OA
ATOM     85  O   UNL A   1      34.923  35.238  33.489  1.00  0.00    -0.744 OA
ENDBRANCH  81  82
ENDBRANCH  62  76
BRANCH  63  86
ATOM     86  C   UNL A   1      46.826  28.998  27.051  1.00  0.00    -0.014 A 
ATOM     87  C   UNL A   1      47.862  28.070  27.321  1.00  0.00     0.010 A 
ATOM     88  C   UNL A   1      45.808  28.625  26.149  1.00  0.00     0.010 A 
ATOM     89  C   UNL A   1      47.745  26.735  26.919  1.00  0.00     0.020 A 
ATOM     90  C   UNL A   1      45.702  27.287  25.730  1.00  0.00     0.020 A 
ATOM     91  C   UNL A   1      46.621  26.339  26.193  1.00  0.00     0.054 A 
BRANCH  91  92
ATOM     92  S   UNL A   1      46.277  24.554  26.061  1.00  0.00     0.124 S 
ATOM     93  O   UNL A   1      46.346  24.322  24.623  1.00  0.00    -0.237 OA
ATOM     94  O   UNL A   1      47.370  23.976  26.845  1.00  0.00    -0.237 OA
ATOM     95  O   UNL A   1      44.949  24.431  26.653  1.00  0.00    -0.744 OA
ENDBRANCH  91  92
ENDBRANCH  63  86
BRANCH  75  96
ATOM     96  C   UNL A   1      43.509  35.366  28.370  1.00  0.00    -0.014 A 
ATOM     97  C   UNL A   1      43.551  36.476  29.218  1.00  0.00     0.010 A 
ATOM     98  C   UNL A   1      43.051  35.571  27.047  1.00  0.00     0.010 A 
ATOM     99  C   UNL A   1      43.271  37.756  28.730  1.00  0.00     0.020 A 
ATOM    100  C   UNL A   1      42.737  36.835  26.559  1.00  0.00     0.020 A 
ATOM    101  C   UNL A   1      42.889  37.927  27.397  1.00  0.00     0.054 A 
BRANCH 101 102
ATOM    102  S   UNL A   1      42.578  39.592  26.777  1.00  0.00     0.124 S 
ATOM    103  O   UNL A   1      41.249  39.465  26.184  1.00  0.00    -0.237 OA
ATOM    104  O   UNL A   1      42.646  40.383  28.004  1.00  0.00    -0.237 OA
ATOM    105  O   UNL A   1      43.664  39.820  25.826  1.00  0.00    -0.744 OA
ENDBRANCH 101 102
ENDBRANCH  75  96
ENDBRANCH  49  50
ENDBRANCH  41  44
ENDBRANCH  39  40
ENDBRANCH  38  39
ENDBRANCH   1  38
TORSDOF 18
ENDMDL
