MODEL 1
REMARK VINA RESULT:     -12.9      0.000      0.000
REMARK SMILES O=C(COc1ccc(Br)cc1/C=C1\C(=O)Nc2ccc(Br)cc21)NCCCNC(=O)c1ccc(-c2c3nc(c(-c4ccc(S(=O)(=O)[O-])cc4)c4ccc([nH]4)c(-c4ccc(S(=O)(=O)[O-])cc4)c4nc(c(-c5ccc(S(=O)(=O)[O-])cc5)c5ccc2[nH]5)C=C4)C=C3)cc1
REMARK SMILES IDX 26 1 25 2 24 3 1 4 2 5 3 7 4 8 5 9 6 10 11 11 7 12 10 13
REMARK SMILES IDX 8 14 9 15 12 16 13 17 14 18 23 19 15 20 16 21 17 22 22 23
REMARK SMILES IDX 18 25 20 26 19 27 21 28 27 29 28 30 29 31 30 33 31 34 32 35
REMARK SMILES IDX 90 36 33 37 89 38 34 39 35 40 36 41 83 42 37 43 88 44 82 45
REMARK SMILES IDX 84 46 38 47 87 48 81 49 80 50 39 52 69 53 50 54 68 55 51 56
REMARK SMILES IDX 54 57 67 58 85 59 52 60 53 61 66 63 86 64 55 65 40 66 41 67
REMARK SMILES IDX 49 68 42 69 48 70 43 71 44 72 45 73 46 74 47 75 70 76 71 77
REMARK SMILES IDX 79 78 72 79 78 80 73 81 74 82 75 83 76 84 77 85 56 86 57 87
REMARK SMILES IDX 65 88 58 89 64 90 59 91 60 92 61 93 62 94 63 95
REMARK H PARENT 24 6 16 24 28 32 84 51 54 62
REMARK Flexibility Score: inf
ROOT
ATOM      1  C   UNL A   1      39.425  22.041  26.442  1.00  0.00     0.042 C 
ENDROOT
BRANCH   1   2
ATOM      2  C   UNL A   1      38.182  22.474  25.686  1.00  0.00     0.117 C 
BRANCH   2   3
ATOM      3  N   UNL A   1      37.047  22.826  26.526  1.00  0.00    -0.353 N 
ATOM      4  O   UNL A   1      35.845  23.879  24.878  1.00  0.00    -0.271 OA
ATOM      5  C   UNL A   1      35.892  23.361  25.991  1.00  0.00     0.257 C 
ATOM      6  H   UNL A   1      37.104  22.679  27.497  1.00  0.00     0.163 HD
BRANCH   5   7
ATOM      7  C   UNL A   1      34.624  23.174  26.856  1.00  0.00     0.329 C 
BRANCH   7   8
ATOM      8  O   UNL A   1      33.344  22.970  26.246  1.00  0.00    -0.483 OA
BRANCH   8   9
ATOM      9  C   UNL A   1      33.205  21.878  25.413  1.00  0.00     0.127 A 
ATOM     10  C   UNL A   1      33.902  20.678  25.672  1.00  0.00     0.048 A 
ATOM     11  C   UNL A   1      32.268  21.929  24.344  1.00  0.00     0.018 A 
ATOM     12  C   UNL A   1      33.709  19.527  24.918  1.00  0.00     0.019 A 
ATOM     13  C   UNL A   1      32.071  20.723  23.644  1.00  0.00     0.027 A 
ATOM     14  C   UNL A   1      32.787  19.555  23.902  1.00  0.00     0.018 A 
ATOM     15  Br  UNL A   1      32.504  18.017  22.841  1.00  0.00    -0.051 Br
BRANCH  11  16
ATOM     16  C   UNL A   1      31.599  23.209  23.901  1.00  0.00     0.026 C 
ATOM     17  C   UNL A   1      32.072  24.201  23.103  1.00  0.00     0.050 C 
ATOM     18  C   UNL A   1      33.406  24.271  22.395  1.00  0.00     0.256 C 
ATOM     19  C   UNL A   1      31.653  25.621  23.192  1.00  0.00     0.012 A 
ATOM     20  O   UNL A   1      33.884  23.516  21.576  1.00  0.00    -0.269 OA
ATOM     21  N   UNL A   1      33.894  25.527  22.695  1.00  0.00    -0.321 N 
ATOM     22  C   UNL A   1      32.854  26.349  23.107  1.00  0.00     0.049 A 
ATOM     23  C   UNL A   1      30.453  26.305  23.193  1.00  0.00     0.026 A 
ATOM     24  H   UNL A   1      34.837  25.799  22.628  1.00  0.00     0.170 HD
ATOM     25  C   UNL A   1      32.935  27.721  23.206  1.00  0.00     0.028 A 
ATOM     26  C   UNL A   1      30.509  27.711  23.189  1.00  0.00     0.018 A 
ATOM     27  C   UNL A   1      31.731  28.412  23.250  1.00  0.00     0.018 A 
ATOM     28  Br  UNL A   1      28.914  28.715  22.992  1.00  0.00    -0.051 Br
ENDBRANCH  11  16
ENDBRANCH   8   9
ENDBRANCH   7   8
ENDBRANCH   5   7
ENDBRANCH   2   3
ENDBRANCH   1   2
BRANCH   1  29
ATOM     29  C   UNL A   1      40.259  23.187  26.991  1.00  0.00     0.118 C 
BRANCH  29  30
ATOM     30  N   UNL A   1      40.645  24.182  25.994  1.00  0.00    -0.352 N 
ATOM     31  C   UNL A   1      40.943  25.517  26.158  1.00  0.00     0.251 C 
ATOM     32  H   UNL A   1      40.702  23.849  25.069  1.00  0.00     0.163 HD
ATOM     33  O   UNL A   1      41.195  26.214  25.180  1.00  0.00    -0.269 OA
BRANCH  31  34
ATOM     34  C   UNL A   1      40.897  26.117  27.510  1.00  0.00     0.039 A 
ATOM     35  C   UNL A   1      39.688  26.243  28.196  1.00  0.00     0.014 A 
ATOM     36  C   UNL A   1      42.073  26.637  28.059  1.00  0.00     0.014 A 
ATOM     37  C   UNL A   1      39.616  27.074  29.309  1.00  0.00     0.010 A 
ATOM     38  C   UNL A   1      42.012  27.394  29.231  1.00  0.00     0.010 A 
ATOM     39  C   UNL A   1      40.773  27.680  29.824  1.00  0.00    -0.014 A 
BRANCH  39  40
ATOM     40  C   UNL A   1      40.664  28.653  30.943  1.00  0.00     0.031 A 
ATOM     41  C   UNL A   1      39.603  29.726  30.918  1.00  0.00     0.074 A 
ATOM     42  C   UNL A   1      41.479  28.542  32.010  1.00  0.00     0.049 A 
ATOM     43  N   UNL A   1      39.375  30.677  31.788  1.00  0.00    -0.248 NA
ATOM     44  C   UNL A   1      38.676  29.734  29.772  1.00  0.00     0.031 C 
ATOM     45  C   UNL A   1      42.509  27.514  32.177  1.00  0.00     0.029 A 
ATOM     46  N   UNL A   1      41.556  29.279  33.165  1.00  0.00    -0.354 N 
ATOM     47  C   UNL A   1      38.299  31.402  31.288  1.00  0.00     0.074 A 
ATOM     48  C   UNL A   1      37.935  30.804  30.024  1.00  0.00     0.031 C 
ATOM     49  C   UNL A   1      43.079  27.656  33.381  1.00  0.00     0.029 A 
ATOM     50  C   UNL A   1      42.514  28.831  34.043  1.00  0.00     0.049 A 
ATOM     51  H   UNL A   1      40.979  30.056  33.349  1.00  0.00     0.167 HD
ATOM     52  C   UNL A   1      37.662  32.461  31.843  1.00  0.00     0.031 A 
ATOM     53  C   UNL A   1      42.918  29.314  35.235  1.00  0.00     0.031 A 
ATOM     54  C   UNL A   1      38.015  33.036  33.115  1.00  0.00     0.049 A 
ATOM     55  C   UNL A   1      42.254  30.542  35.790  1.00  0.00     0.074 A 
ATOM     56  C   UNL A   1      37.412  34.097  33.767  1.00  0.00     0.029 A 
ATOM     57  N   UNL A   1      39.049  32.600  33.929  1.00  0.00    -0.354 N 
ATOM     58  N   UNL A   1      41.243  31.217  35.299  1.00  0.00    -0.248 NA
ATOM     59  C   UNL A   1      42.788  31.082  37.048  1.00  0.00     0.031 C 
ATOM     60  C   UNL A   1      38.125  34.349  34.940  1.00  0.00     0.029 A 
ATOM     61  C   UNL A   1      39.126  33.397  35.058  1.00  0.00     0.049 A 
ATOM     62  H   UNL A   1      39.641  31.838  33.733  1.00  0.00     0.167 HD
ATOM     63  C   UNL A   1      41.015  32.259  36.190  1.00  0.00     0.074 A 
ATOM     64  C   UNL A   1      41.978  32.113  37.262  1.00  0.00     0.031 C 
ATOM     65  C   UNL A   1      40.092  33.248  36.119  1.00  0.00     0.031 A 
BRANCH  52  66
ATOM     66  C   UNL A   1      36.514  33.088  31.093  1.00  0.00    -0.014 A 
ATOM     67  C   UNL A   1      36.764  33.791  29.899  1.00  0.00     0.010 A 
ATOM     68  C   UNL A   1      35.215  33.099  31.632  1.00  0.00     0.010 A 
ATOM     69  C   UNL A   1      35.747  34.521  29.277  1.00  0.00     0.020 A 
ATOM     70  C   UNL A   1      34.189  33.804  30.997  1.00  0.00     0.020 A 
ATOM     71  C   UNL A   1      34.467  34.532  29.836  1.00  0.00     0.054 A 
BRANCH  71  72
ATOM     72  S   UNL A   1      33.167  35.510  29.033  1.00  0.00     0.124 S 
ATOM     73  O   UNL A   1      33.940  36.509  28.302  1.00  0.00    -0.237 OA
ATOM     74  O   UNL A   1      32.482  34.515  28.211  1.00  0.00    -0.237 OA
ATOM     75  O   UNL A   1      32.383  36.022  30.155  1.00  0.00    -0.744 OA
ENDBRANCH  71  72
ENDBRANCH  52  66
BRANCH  53  76
ATOM     76  C   UNL A   1      44.013  28.616  35.964  1.00  0.00    -0.014 A 
ATOM     77  C   UNL A   1      45.359  28.879  35.644  1.00  0.00     0.010 A 
ATOM     78  C   UNL A   1      43.717  27.613  36.902  1.00  0.00     0.010 A 
ATOM     79  C   UNL A   1      46.383  28.104  36.193  1.00  0.00     0.020 A 
ATOM     80  C   UNL A   1      44.744  26.856  37.478  1.00  0.00     0.020 A 
ATOM     81  C   UNL A   1      46.066  27.085  37.092  1.00  0.00     0.054 A 
BRANCH  81  82
ATOM     82  S   UNL A   1      47.406  26.043  37.733  1.00  0.00     0.124 S 
ATOM     83  O   UNL A   1      46.770  24.729  37.772  1.00  0.00    -0.237 OA
ATOM     84  O   UNL A   1      48.449  26.206  36.724  1.00  0.00    -0.237 OA
ATOM     85  O   UNL A   1      47.705  26.632  39.035  1.00  0.00    -0.744 OA
ENDBRANCH  81  82
ENDBRANCH  53  76
BRANCH  65  86
ATOM     86  C   UNL A   1      40.062  34.284  37.212  1.00  0.00    -0.014 A 
ATOM     87  C   UNL A   1      39.300  34.053  38.373  1.00  0.00     0.010 A 
ATOM     88  C   UNL A   1      40.642  35.548  37.011  1.00  0.00     0.010 A 
ATOM     89  C   UNL A   1      39.069  35.086  39.285  1.00  0.00     0.020 A 
ATOM     90  C   UNL A   1      40.437  36.576  37.935  1.00  0.00     0.020 A 
ATOM     91  C   UNL A   1      39.624  36.347  39.050  1.00  0.00     0.054 A 
BRANCH  91  92
ATOM     92  S   UNL A   1      39.246  37.695  40.201  1.00  0.00     0.124 S 
ATOM     93  O   UNL A   1      38.151  38.382  39.522  1.00  0.00    -0.237 OA
ATOM     94  O   UNL A   1      38.880  36.980  41.422  1.00  0.00    -0.237 OA
ATOM     95  O   UNL A   1      40.499  38.443  40.279  1.00  0.00    -0.744 OA
ENDBRANCH  91  92
ENDBRANCH  65  86
ENDBRANCH  39  40
ENDBRANCH  31  34
ENDBRANCH  29  30
ENDBRANCH   1  29
TORSDOF 16
ENDMDL
MODEL 2
REMARK VINA RESULT:     -12.7      4.184     10.231
REMARK SMILES O=C(COc1ccc(Br)cc1/C=C1\C(=O)Nc2ccc(Br)cc21)NCCCNC(=O)c1ccc(-c2c3nc(c(-c4ccc(S(=O)(=O)[O-])cc4)c4ccc([nH]4)c(-c4ccc(S(=O)(=O)[O-])cc4)c4nc(c(-c5ccc(S(=O)(=O)[O-])cc5)c5ccc2[nH]5)C=C4)C=C3)cc1
REMARK SMILES IDX 26 1 25 2 24 3 1 4 2 5 3 7 4 8 5 9 6 10 11 11 7 12 10 13
REMARK SMILES IDX 8 14 9 15 12 16 13 17 14 18 23 19 15 20 16 21 17 22 22 23
REMARK SMILES IDX 18 25 20 26 19 27 21 28 27 29 28 30 29 31 30 33 31 34 32 35
REMARK SMILES IDX 90 36 33 37 89 38 34 39 35 40 36 41 83 42 37 43 88 44 82 45
REMARK SMILES IDX 84 46 38 47 87 48 81 49 80 50 39 52 69 53 50 54 68 55 51 56
REMARK SMILES IDX 54 57 67 58 85 59 52 60 53 61 66 63 86 64 55 65 40 66 41 67
REMARK SMILES IDX 49 68 42 69 48 70 43 71 44 72 45 73 46 74 47 75 70 76 71 77
REMARK SMILES IDX 79 78 72 79 78 80 73 81 74 82 75 83 76 84 77 85 56 86 57 87
REMARK SMILES IDX 65 88 58 89 64 90 59 91 60 92 61 93 62 94 63 95
REMARK H PARENT 24 6 16 24 28 32 84 51 54 62
REMARK Flexibility Score: inf
ROOT
ATOM      1  C   UNL A   1      33.341  28.345  27.253  1.00  0.00     0.042 C 
ENDROOT
BRANCH   1   2
ATOM      2  C   UNL A   1      32.684  27.337  26.328  1.00  0.00     0.117 C 
BRANCH   2   3
ATOM      3  N   UNL A   1      33.128  27.395  24.944  1.00  0.00    -0.353 N 
ATOM      4  O   UNL A   1      34.269  25.403  24.972  1.00  0.00    -0.271 OA
ATOM      5  C   UNL A   1      33.752  26.321  24.340  1.00  0.00     0.257 C 
ATOM      6  H   UNL A   1      32.980  28.219  24.426  1.00  0.00     0.163 HD
BRANCH   5   7
ATOM      7  C   UNL A   1      33.668  26.301  22.796  1.00  0.00     0.329 C 
BRANCH   7   8
ATOM      8  O   UNL A   1      32.472  25.876  22.133  1.00  0.00    -0.483 OA
BRANCH   8   9
ATOM      9  C   UNL A   1      31.277  26.399  22.584  1.00  0.00     0.127 A 
ATOM     10  C   UNL A   1      30.945  27.751  22.351  1.00  0.00     0.048 A 
ATOM     11  C   UNL A   1      30.325  25.538  23.197  1.00  0.00     0.018 A 
ATOM     12  C   UNL A   1      29.711  28.285  22.700  1.00  0.00     0.019 A 
ATOM     13  C   UNL A   1      29.072  26.114  23.483  1.00  0.00     0.027 A 
ATOM     14  C   UNL A   1      28.774  27.458  23.265  1.00  0.00     0.018 A 
ATOM     15  Br  UNL A   1      27.087  28.147  23.768  1.00  0.00    -0.051 Br
BRANCH  11  16
ATOM     16  C   UNL A   1      30.652  24.126  23.624  1.00  0.00     0.026 C 
ATOM     17  C   UNL A   1      30.884  23.629  24.866  1.00  0.00     0.050 C 
ATOM     18  C   UNL A   1      30.834  24.363  26.187  1.00  0.00     0.256 C 
ATOM     19  C   UNL A   1      31.747  22.458  25.154  1.00  0.00     0.012 A 
ATOM     20  O   UNL A   1      29.914  24.960  26.703  1.00  0.00    -0.269 OA
ATOM     21  N   UNL A   1      32.009  24.014  26.824  1.00  0.00    -0.321 N 
ATOM     22  C   UNL A   1      32.522  22.854  26.260  1.00  0.00     0.049 A 
ATOM     23  C   UNL A   1      31.836  21.155  24.705  1.00  0.00     0.026 A 
ATOM     24  H   UNL A   1      32.420  24.513  27.565  1.00  0.00     0.170 HD
ATOM     25  C   UNL A   1      33.510  22.080  26.828  1.00  0.00     0.028 A 
ATOM     26  C   UNL A   1      32.767  20.313  25.341  1.00  0.00     0.018 A 
ATOM     27  C   UNL A   1      33.632  20.781  26.352  1.00  0.00     0.018 A 
ATOM     28  Br  UNL A   1      32.810  18.466  24.916  1.00  0.00    -0.051 Br
ENDBRANCH  11  16
ENDBRANCH   8   9
ENDBRANCH   7   8
ENDBRANCH   5   7
ENDBRANCH   2   3
ENDBRANCH   1   2
BRANCH   1  29
ATOM     29  C   UNL A   1      33.766  29.638  26.575  1.00  0.00     0.118 C 
BRANCH  29  30
ATOM     30  N   UNL A   1      33.758  30.806  27.451  1.00  0.00    -0.352 N 
ATOM     31  C   UNL A   1      34.701  31.223  28.365  1.00  0.00     0.251 C 
ATOM     32  H   UNL A   1      32.962  31.381  27.375  1.00  0.00     0.163 HD
ATOM     33  O   UNL A   1      34.488  32.214  29.057  1.00  0.00    -0.269 OA
BRANCH  31  34
ATOM     34  C   UNL A   1      35.939  30.435  28.551  1.00  0.00     0.039 A 
ATOM     35  C   UNL A   1      36.161  29.717  29.727  1.00  0.00     0.014 A 
ATOM     36  C   UNL A   1      36.928  30.488  27.564  1.00  0.00     0.014 A 
ATOM     37  C   UNL A   1      37.438  29.246  30.010  1.00  0.00     0.010 A 
ATOM     38  C   UNL A   1      38.183  29.930  27.813  1.00  0.00     0.010 A 
ATOM     39  C   UNL A   1      38.471  29.369  29.068  1.00  0.00    -0.014 A 
BRANCH  39  40
ATOM     40  C   UNL A   1      39.856  28.964  29.428  1.00  0.00     0.031 A 
ATOM     41  C   UNL A   1      40.387  27.616  29.006  1.00  0.00     0.074 A 
ATOM     42  C   UNL A   1      40.658  29.826  30.082  1.00  0.00     0.049 A 
ATOM     43  N   UNL A   1      41.556  27.080  29.252  1.00  0.00    -0.248 NA
ATOM     44  C   UNL A   1      39.497  26.758  28.204  1.00  0.00     0.031 C 
ATOM     45  C   UNL A   1      40.278  31.178  30.497  1.00  0.00     0.029 A 
ATOM     46  N   UNL A   1      41.963  29.708  30.492  1.00  0.00    -0.354 N 
ATOM     47  C   UNL A   1      41.534  25.824  28.655  1.00  0.00     0.074 A 
ATOM     48  C   UNL A   1      40.227  25.661  28.061  1.00  0.00     0.031 C 
ATOM     49  C   UNL A   1      41.337  31.779  31.056  1.00  0.00     0.029 A 
ATOM     50  C   UNL A   1      42.449  30.833  31.114  1.00  0.00     0.049 A 
ATOM     51  H   UNL A   1      42.500  28.894  30.354  1.00  0.00     0.167 HD
ATOM     52  C   UNL A   1      42.520  24.898  28.595  1.00  0.00     0.031 A 
ATOM     53  C   UNL A   1      43.644  31.079  31.690  1.00  0.00     0.031 A 
ATOM     54  C   UNL A   1      43.829  25.079  29.169  1.00  0.00     0.049 A 
ATOM     55  C   UNL A   1      44.693  30.005  31.686  1.00  0.00     0.074 A 
ATOM     56  C   UNL A   1      44.900  24.203  29.140  1.00  0.00     0.029 A 
ATOM     57  N   UNL A   1      44.247  26.203  29.864  1.00  0.00    -0.354 N 
ATOM     58  N   UNL A   1      44.650  28.821  31.123  1.00  0.00    -0.248 NA
ATOM     59  C   UNL A   1      45.944  30.288  32.403  1.00  0.00     0.031 C 
ATOM     60  C   UNL A   1      45.943  24.768  29.876  1.00  0.00     0.029 A 
ATOM     61  C   UNL A   1      45.548  26.026  30.303  1.00  0.00     0.049 A 
ATOM     62  H   UNL A   1      43.701  27.006  30.023  1.00  0.00     0.167 HD
ATOM     63  C   UNL A   1      45.869  28.220  31.412  1.00  0.00     0.074 A 
ATOM     64  C   UNL A   1      46.638  29.178  32.181  1.00  0.00     0.031 C 
ATOM     65  C   UNL A   1      46.305  26.983  31.073  1.00  0.00     0.031 A 
BRANCH  52  66
ATOM     66  C   UNL A   1      42.246  23.594  27.891  1.00  0.00    -0.014 A 
ATOM     67  C   UNL A   1      41.685  22.520  28.608  1.00  0.00     0.010 A 
ATOM     68  C   UNL A   1      42.663  23.385  26.564  1.00  0.00     0.010 A 
ATOM     69  C   UNL A   1      41.577  21.254  28.026  1.00  0.00     0.020 A 
ATOM     70  C   UNL A   1      42.529  22.127  25.968  1.00  0.00     0.020 A 
ATOM     71  C   UNL A   1      42.011  21.063  26.711  1.00  0.00     0.054 A 
BRANCH  71  72
ATOM     72  S   UNL A   1      41.892  19.406  25.981  1.00  0.00     0.124 S 
ATOM     73  O   UNL A   1      40.469  19.305  25.676  1.00  0.00    -0.237 OA
ATOM     74  O   UNL A   1      42.782  19.503  24.826  1.00  0.00    -0.237 OA
ATOM     75  O   UNL A   1      42.368  18.528  27.049  1.00  0.00    -0.744 OA
ENDBRANCH  71  72
ENDBRANCH  52  66
BRANCH  53  76
ATOM     76  C   UNL A   1      43.883  32.410  32.314  1.00  0.00    -0.014 A 
ATOM     77  C   UNL A   1      43.400  32.684  33.608  1.00  0.00     0.010 A 
ATOM     78  C   UNL A   1      44.500  33.438  31.582  1.00  0.00     0.010 A 
ATOM     79  C   UNL A   1      43.463  33.979  34.129  1.00  0.00     0.020 A 
ATOM     80  C   UNL A   1      44.593  34.729  32.115  1.00  0.00     0.020 A 
ATOM     81  C   UNL A   1      44.043  34.997  33.370  1.00  0.00     0.054 A 
BRANCH  81  82
ATOM     82  S   UNL A   1      44.044  36.684  34.036  1.00  0.00     0.124 S 
ATOM     83  O   UNL A   1      45.471  36.933  34.215  1.00  0.00    -0.237 OA
ATOM     84  O   UNL A   1      43.401  37.449  32.971  1.00  0.00    -0.237 OA
ATOM     85  O   UNL A   1      43.270  36.566  35.269  1.00  0.00    -0.744 OA
ENDBRANCH  81  82
ENDBRANCH  53  76
BRANCH  65  86
ATOM     86  C   UNL A   1      47.674  26.552  31.531  1.00  0.00    -0.014 A 
ATOM     87  C   UNL A   1      48.763  26.624  30.643  1.00  0.00     0.010 A 
ATOM     88  C   UNL A   1      47.841  25.916  32.773  1.00  0.00     0.010 A 
ATOM     89  C   UNL A   1      49.980  26.017  30.963  1.00  0.00     0.020 A 
ATOM     90  C   UNL A   1      49.065  25.332  33.110  1.00  0.00     0.020 A 
ATOM     91  C   UNL A   1      50.116  25.358  32.189  1.00  0.00     0.054 A 
BRANCH  91  92
ATOM     92  S   UNL A   1      51.675  24.506  32.552  1.00  0.00     0.124 S 
ATOM     93  O   UNL A   1      51.815  24.719  33.989  1.00  0.00    -0.237 OA
ATOM     94  O   UNL A   1      51.391  23.131  32.144  1.00  0.00    -0.237 OA
ATOM     95  O   UNL A   1      52.651  25.205  31.719  1.00  0.00    -0.744 OA
ENDBRANCH  91  92
ENDBRANCH  65  86
ENDBRANCH  39  40
ENDBRANCH  31  34
ENDBRANCH  29  30
ENDBRANCH   1  29
TORSDOF 16
ENDMDL
MODEL 3
REMARK VINA RESULT:     -12.7      6.115      8.400
REMARK SMILES O=C(COc1ccc(Br)cc1/C=C1\C(=O)Nc2ccc(Br)cc21)NCCCNC(=O)c1ccc(-c2c3nc(c(-c4ccc(S(=O)(=O)[O-])cc4)c4ccc([nH]4)c(-c4ccc(S(=O)(=O)[O-])cc4)c4nc(c(-c5ccc(S(=O)(=O)[O-])cc5)c5ccc2[nH]5)C=C4)C=C3)cc1
REMARK SMILES IDX 26 1 25 2 24 3 1 4 2 5 3 7 4 8 5 9 6 10 11 11 7 12 10 13
REMARK SMILES IDX 8 14 9 15 12 16 13 17 14 18 23 19 15 20 16 21 17 22 22 23
REMARK SMILES IDX 18 25 20 26 19 27 21 28 27 29 28 30 29 31 30 33 31 34 32 35
REMARK SMILES IDX 90 36 33 37 89 38 34 39 35 40 36 41 83 42 37 43 88 44 82 45
REMARK SMILES IDX 84 46 38 47 87 48 81 49 80 50 39 52 69 53 50 54 68 55 51 56
REMARK SMILES IDX 54 57 67 58 85 59 52 60 53 61 66 63 86 64 55 65 40 66 41 67
REMARK SMILES IDX 49 68 42 69 48 70 43 71 44 72 45 73 46 74 47 75 70 76 71 77
REMARK SMILES IDX 79 78 72 79 78 80 73 81 74 82 75 83 76 84 77 85 56 86 57 87
REMARK SMILES IDX 65 88 58 89 64 90 59 91 60 92 61 93 62 94 63 95
REMARK H PARENT 24 6 16 24 28 32 84 51 54 62
REMARK Flexibility Score: inf
ROOT
ATOM      1  C   UNL A   1      37.987  21.110  25.378  1.00  0.00     0.042 C 
ENDROOT
BRANCH   1   2
ATOM      2  C   UNL A   1      37.304  22.461  25.275  1.00  0.00     0.117 C 
BRANCH   2   3
ATOM      3  N   UNL A   1      36.312  22.725  26.305  1.00  0.00    -0.353 N 
ATOM      4  O   UNL A   1      35.204  24.376  25.158  1.00  0.00    -0.271 OA
ATOM      5  C   UNL A   1      35.235  23.559  26.075  1.00  0.00     0.257 C 
ATOM      6  H   UNL A   1      36.409  22.298  27.187  1.00  0.00     0.163 HD
BRANCH   5   7
ATOM      7  C   UNL A   1      34.018  23.325  27.000  1.00  0.00     0.329 C 
BRANCH   7   8
ATOM      8  O   UNL A   1      32.759  22.904  26.461  1.00  0.00    -0.483 OA
BRANCH   8   9
ATOM      9  C   UNL A   1      32.773  21.856  25.564  1.00  0.00     0.127 A 
ATOM     10  C   UNL A   1      33.430  20.646  25.875  1.00  0.00     0.048 A 
ATOM     11  C   UNL A   1      32.026  21.959  24.357  1.00  0.00     0.018 A 
ATOM     12  C   UNL A   1      33.378  19.534  25.042  1.00  0.00     0.019 A 
ATOM     13  C   UNL A   1      31.962  20.789  23.574  1.00  0.00     0.027 A 
ATOM     14  C   UNL A   1      32.638  19.612  23.890  1.00  0.00     0.018 A 
ATOM     15  Br  UNL A   1      32.552  18.129  22.721  1.00  0.00    -0.051 Br
BRANCH  11  16
ATOM     16  C   UNL A   1      31.426  23.257  23.873  1.00  0.00     0.026 C 
ATOM     17  C   UNL A   1      31.940  24.185  23.024  1.00  0.00     0.050 C 
ATOM     18  C   UNL A   1      33.259  24.143  22.287  1.00  0.00     0.256 C 
ATOM     19  C   UNL A   1      31.609  25.630  23.061  1.00  0.00     0.012 A 
ATOM     20  O   UNL A   1      33.673  23.328  21.492  1.00  0.00    -0.269 OA
ATOM     21  N   UNL A   1      33.829  25.379  22.524  1.00  0.00    -0.321 N 
ATOM     22  C   UNL A   1      32.850  26.280  22.921  1.00  0.00     0.049 A 
ATOM     23  C   UNL A   1      30.453  26.386  23.056  1.00  0.00     0.026 A 
ATOM     24  H   UNL A   1      34.785  25.589  22.426  1.00  0.00     0.170 HD
ATOM     25  C   UNL A   1      33.016  27.646  22.960  1.00  0.00     0.028 A 
ATOM     26  C   UNL A   1      30.594  27.784  22.991  1.00  0.00     0.018 A 
ATOM     27  C   UNL A   1      31.857  28.411  22.998  1.00  0.00     0.018 A 
ATOM     28  Br  UNL A   1      29.058  28.876  22.784  1.00  0.00    -0.051 Br
ENDBRANCH  11  16
ENDBRANCH   8   9
ENDBRANCH   7   8
ENDBRANCH   5   7
ENDBRANCH   2   3
ENDBRANCH   1   2
BRANCH   1  29
ATOM     29  C   UNL A   1      39.310  21.128  26.127  1.00  0.00     0.118 C 
BRANCH  29  30
ATOM     30  N   UNL A   1      40.076  19.889  26.026  1.00  0.00    -0.352 N 
ATOM     31  C   UNL A   1      41.434  19.687  26.132  1.00  0.00     0.251 C 
ATOM     32  H   UNL A   1      39.542  19.079  25.858  1.00  0.00     0.163 HD
ATOM     33  O   UNL A   1      41.904  18.566  25.960  1.00  0.00    -0.269 OA
BRANCH  31  34
ATOM     34  C   UNL A   1      42.328  20.837  26.393  1.00  0.00     0.039 A 
ATOM     35  C   UNL A   1      42.536  21.300  27.693  1.00  0.00     0.014 A 
ATOM     36  C   UNL A   1      42.896  21.512  25.308  1.00  0.00     0.014 A 
ATOM     37  C   UNL A   1      43.117  22.549  27.890  1.00  0.00     0.010 A 
ATOM     38  C   UNL A   1      43.563  22.720  25.519  1.00  0.00     0.010 A 
ATOM     39  C   UNL A   1      43.614  23.285  26.803  1.00  0.00    -0.014 A 
BRANCH  39  40
ATOM     40  C   UNL A   1      44.129  24.664  27.015  1.00  0.00     0.031 A 
ATOM     41  C   UNL A   1      43.218  25.742  27.550  1.00  0.00     0.074 A 
ATOM     42  C   UNL A   1      45.428  24.937  26.783  1.00  0.00     0.049 A 
ATOM     43  N   UNL A   1      43.482  27.005  27.772  1.00  0.00    -0.248 NA
ATOM     44  C   UNL A   1      41.835  25.357  27.881  1.00  0.00     0.031 C 
ATOM     45  C   UNL A   1      46.420  23.967  26.316  1.00  0.00     0.029 A 
ATOM     46  N   UNL A   1      46.143  26.099  26.930  1.00  0.00    -0.354 N 
ATOM     47  C   UNL A   1      42.301  27.564  28.247  1.00  0.00     0.074 A 
ATOM     48  C   UNL A   1      41.308  26.515  28.254  1.00  0.00     0.031 C 
ATOM     49  C   UNL A   1      47.621  24.560  26.263  1.00  0.00     0.029 A 
ATOM     50  C   UNL A   1      47.475  25.971  26.614  1.00  0.00     0.049 A 
ATOM     51  H   UNL A   1      45.741  26.946  27.234  1.00  0.00     0.167 HD
ATOM     52  C   UNL A   1      42.071  28.835  28.655  1.00  0.00     0.031 A 
ATOM     53  C   UNL A   1      48.469  26.882  26.582  1.00  0.00     0.031 A 
ATOM     54  C   UNL A   1      43.073  29.869  28.668  1.00  0.00     0.049 A 
ATOM     55  C   UNL A   1      48.170  28.304  26.957  1.00  0.00     0.074 A 
ATOM     56  C   UNL A   1      42.937  31.181  29.086  1.00  0.00     0.029 A 
ATOM     57  N   UNL A   1      44.388  29.713  28.258  1.00  0.00    -0.354 N 
ATOM     58  N   UNL A   1      47.044  28.815  27.397  1.00  0.00    -0.248 NA
ATOM     59  C   UNL A   1      49.263  29.277  26.823  1.00  0.00     0.031 C 
ATOM     60  C   UNL A   1      44.149  31.837  28.862  1.00  0.00     0.029 A 
ATOM     61  C   UNL A   1      45.063  30.915  28.374  1.00  0.00     0.049 A 
ATOM     62  H   UNL A   1      44.782  28.872  27.931  1.00  0.00     0.167 HD
ATOM     63  C   UNL A   1      47.295  30.168  27.597  1.00  0.00     0.074 A 
ATOM     64  C   UNL A   1      48.684  30.393  27.252  1.00  0.00     0.031 C 
ATOM     65  C   UNL A   1      46.445  31.133  28.023  1.00  0.00     0.031 A 
BRANCH  52  66
ATOM     66  C   UNL A   1      40.687  29.204  29.124  1.00  0.00    -0.014 A 
ATOM     67  C   UNL A   1      39.702  29.554  28.181  1.00  0.00     0.010 A 
ATOM     68  C   UNL A   1      40.397  29.336  30.494  1.00  0.00     0.010 A 
ATOM     69  C   UNL A   1      38.467  30.060  28.595  1.00  0.00     0.020 A 
ATOM     70  C   UNL A   1      39.152  29.815  30.913  1.00  0.00     0.020 A 
ATOM     71  C   UNL A   1      38.204  30.198  29.960  1.00  0.00     0.054 A 
BRANCH  71  72
ATOM     72  S   UNL A   1      36.607  30.886  30.480  1.00  0.00     0.124 S 
ATOM     73  O   UNL A   1      36.992  32.189  31.013  1.00  0.00    -0.237 OA
ATOM     74  O   UNL A   1      35.849  30.911  29.232  1.00  0.00    -0.237 OA
ATOM     75  O   UNL A   1      36.126  29.923  31.469  1.00  0.00    -0.744 OA
ENDBRANCH  71  72
ENDBRANCH  52  66
BRANCH  53  76
ATOM     76  C   UNL A   1      49.833  26.447  26.174  1.00  0.00    -0.014 A 
ATOM     77  C   UNL A   1      50.733  25.940  27.131  1.00  0.00     0.010 A 
ATOM     78  C   UNL A   1      50.273  26.633  24.853  1.00  0.00     0.010 A 
ATOM     79  C   UNL A   1      52.067  25.699  26.793  1.00  0.00     0.020 A 
ATOM     80  C   UNL A   1      51.601  26.361  24.503  1.00  0.00     0.020 A 
ATOM     81  C   UNL A   1      52.496  25.929  25.485  1.00  0.00     0.054 A 
BRANCH  81  82
ATOM     82  S   UNL A   1      54.249  25.681  25.089  1.00  0.00     0.124 S 
ATOM     83  O   UNL A   1      54.349  24.224  25.078  1.00  0.00    -0.237 OA
ATOM     84  O   UNL A   1      54.378  26.330  23.787  1.00  0.00    -0.237 OA
ATOM     85  O   UNL A   1      54.945  26.347  26.186  1.00  0.00    -0.744 OA
ENDBRANCH  81  82
ENDBRANCH  53  76
BRANCH  65  86
ATOM     86  C   UNL A   1      46.959  32.544  28.137  1.00  0.00    -0.014 A 
ATOM     87  C   UNL A   1      46.923  33.394  27.015  1.00  0.00     0.010 A 
ATOM     88  C   UNL A   1      47.631  32.966  29.296  1.00  0.00     0.010 A 
ATOM     89  C   UNL A   1      47.601  34.615  27.030  1.00  0.00     0.020 A 
ATOM     90  C   UNL A   1      48.287  34.199  29.325  1.00  0.00     0.020 A 
ATOM     91  C   UNL A   1      48.295  35.001  28.180  1.00  0.00     0.054 A 
BRANCH  91  92
ATOM     92  S   UNL A   1      49.236  36.550  28.152  1.00  0.00     0.124 S 
ATOM     93  O   UNL A   1      48.870  37.110  26.854  1.00  0.00    -0.237 OA
ATOM     94  O   UNL A   1      48.713  37.264  29.315  1.00  0.00    -0.237 OA
ATOM     95  O   UNL A   1      50.625  36.112  28.273  1.00  0.00    -0.744 OA
ENDBRANCH  91  92
ENDBRANCH  65  86
ENDBRANCH  39  40
ENDBRANCH  31  34
ENDBRANCH  29  30
ENDBRANCH   1  29
TORSDOF 16
ENDMDL
