MODEL 1
REMARK VINA RESULT:     -13.6      0.000      0.000
REMARK SMILES Cc1cccc(-c2cccnc2C(=O)NCCCNC(=O)c2ccc(-c3c4nc(c(-c5ccc(S(=O)(=O)[O-])cc5)c5ccc([nH]5)c(-c5ccc(S(=O)(=O)[O-])cc5)c5nc(c(-c6ccc(S(=O)(=O)[O-])cc6)c6ccc3[nH]6)C=C5)C=C4)cc2)c1
REMARK SMILES IDX 18 1 17 2 16 3 15 4 13 5 14 6 12 8 7 9 8 10 9 11 11 12 10 13
REMARK SMILES IDX 6 14 1 15 2 16 3 17 82 18 4 19 5 20 19 21 20 22 21 24 22 25
REMARK SMILES IDX 23 26 81 27 24 28 80 29 25 30 26 31 27 32 74 33 28 34 79 35
REMARK SMILES IDX 73 36 75 37 29 38 78 39 72 40 71 41 30 43 60 44 41 45 59 46
REMARK SMILES IDX 42 47 45 48 58 49 76 50 43 51 44 52 57 54 77 55 46 56 31 57
REMARK SMILES IDX 32 58 40 59 33 60 39 61 34 62 35 63 36 64 37 65 38 66 61 67
REMARK SMILES IDX 62 68 70 69 63 70 69 71 64 72 65 73 66 74 67 75 68 76 47 77
REMARK SMILES IDX 48 78 56 79 49 80 55 81 50 82 51 83 52 84 53 85 54 86
REMARK H PARENT 15 7 19 23 75 42 45 53
REMARK Flexibility Score: inf
ROOT
ATOM      1  C   UNL A   1      38.675  22.949  26.308  1.00  0.00     0.118 C 
ENDROOT
BRANCH   1   2
ATOM      2  C   UNL A   1      38.411  21.634  25.579  1.00  0.00     0.042 C 
BRANCH   2   3
ATOM      3  C   UNL A   1      36.924  21.375  25.448  1.00  0.00     0.118 C 
BRANCH   3   4
ATOM      4  N   UNL A   1      36.317  21.978  24.279  1.00  0.00    -0.351 N 
ATOM      5  C   UNL A   1      35.120  22.489  23.869  1.00  0.00     0.270 C 
ATOM      6  O   UNL A   1      35.199  23.063  22.770  1.00  0.00    -0.267 OA
ATOM      7  H   UNL A   1      36.977  22.038  23.551  1.00  0.00     0.163 HD
BRANCH   5   8
ATOM      8  C   UNL A   1      33.746  22.410  24.502  1.00  0.00     0.135 A 
ATOM      9  C   UNL A   1      32.855  21.339  24.636  1.00  0.00     0.013 A 
ATOM     10  C   UNL A   1      31.685  21.574  25.407  1.00  0.00     0.013 A 
ATOM     11  C   UNL A   1      31.417  22.804  25.990  1.00  0.00     0.021 A 
ATOM     12  N   UNL A   1      33.453  23.633  25.072  1.00  0.00    -0.250 NA
ATOM     13  C   UNL A   1      32.330  23.805  25.787  1.00  0.00     0.112 A 
BRANCH   9  14
ATOM     14  C   UNL A   1      32.956  19.997  24.067  1.00  0.00    -0.016 A 
ATOM     15  C   UNL A   1      35.004  16.846  24.770  1.00  0.00     0.044 C 
ATOM     16  C   UNL A   1      34.059  17.805  24.103  1.00  0.00    -0.051 A 
ATOM     17  C   UNL A   1      33.256  17.403  23.031  1.00  0.00     0.003 A 
ATOM     18  C   UNL A   1      33.891  19.094  24.617  1.00  0.00     0.012 A 
ATOM     19  C   UNL A   1      32.354  18.296  22.446  1.00  0.00     0.001 A 
ATOM     20  C   UNL A   1      32.223  19.599  22.941  1.00  0.00     0.009 A 
ENDBRANCH   9  14
ENDBRANCH   5   8
ENDBRANCH   3   4
ENDBRANCH   2   3
ENDBRANCH   1   2
BRANCH   1  21
ATOM     21  N   UNL A   1      39.824  22.956  27.207  1.00  0.00    -0.352 N 
ATOM     22  C   UNL A   1      40.346  24.016  27.949  1.00  0.00     0.251 C 
ATOM     23  H   UNL A   1      40.294  22.096  27.305  1.00  0.00     0.163 HD
ATOM     24  O   UNL A   1      41.385  23.927  28.568  1.00  0.00    -0.269 OA
BRANCH  22  25
ATOM     25  C   UNL A   1      39.529  25.250  27.989  1.00  0.00     0.039 A 
ATOM     26  C   UNL A   1      39.787  26.212  27.007  1.00  0.00     0.014 A 
ATOM     27  C   UNL A   1      38.958  25.589  29.206  1.00  0.00     0.014 A 
ATOM     28  C   UNL A   1      39.734  27.558  27.356  1.00  0.00     0.010 A 
ATOM     29  C   UNL A   1      39.051  26.911  29.589  1.00  0.00     0.010 A 
ATOM     30  C   UNL A   1      39.507  27.893  28.688  1.00  0.00    -0.014 A 
BRANCH  30  31
ATOM     31  C   UNL A   1      39.863  29.180  29.293  1.00  0.00     0.031 A 
ATOM     32  C   UNL A   1      38.934  30.334  29.154  1.00  0.00     0.074 A 
ATOM     33  C   UNL A   1      40.912  29.273  30.150  1.00  0.00     0.049 A 
ATOM     34  N   UNL A   1      39.193  31.537  29.542  1.00  0.00    -0.248 NA
ATOM     35  C   UNL A   1      37.632  30.231  28.489  1.00  0.00     0.031 C 
ATOM     36  C   UNL A   1      41.102  30.293  31.184  1.00  0.00     0.029 A 
ATOM     37  N   UNL A   1      42.137  28.597  30.140  1.00  0.00    -0.354 N 
ATOM     38  C   UNL A   1      38.012  32.242  29.518  1.00  0.00     0.074 A 
ATOM     39  C   UNL A   1      37.109  31.432  28.742  1.00  0.00     0.031 C 
ATOM     40  C   UNL A   1      42.409  30.384  31.472  1.00  0.00     0.029 A 
ATOM     41  C   UNL A   1      43.109  29.540  30.523  1.00  0.00     0.049 A 
ATOM     42  H   UNL A   1      42.287  27.650  29.912  1.00  0.00     0.167 HD
ATOM     43  C   UNL A   1      37.890  33.358  30.288  1.00  0.00     0.031 A 
ATOM     44  C   UNL A   1      44.145  29.952  29.734  1.00  0.00     0.031 A 
ATOM     45  C   UNL A   1      39.197  33.836  30.737  1.00  0.00     0.049 A 
ATOM     46  C   UNL A   1      44.165  31.448  29.488  1.00  0.00     0.074 A 
ATOM     47  C   UNL A   1      39.857  33.861  31.954  1.00  0.00     0.029 A 
ATOM     48  N   UNL A   1      40.144  34.162  29.771  1.00  0.00    -0.354 N 
ATOM     49  N   UNL A   1      43.190  32.254  29.809  1.00  0.00    -0.248 NA
ATOM     50  C   UNL A   1      45.254  32.146  28.809  1.00  0.00     0.031 C 
ATOM     51  C   UNL A   1      41.237  34.099  31.693  1.00  0.00     0.029 A 
ATOM     52  C   UNL A   1      41.403  34.259  30.329  1.00  0.00     0.049 A 
ATOM     53  H   UNL A   1      39.944  34.304  28.818  1.00  0.00     0.167 HD
ATOM     54  C   UNL A   1      43.460  33.518  29.353  1.00  0.00     0.074 A 
ATOM     55  C   UNL A   1      44.782  33.407  28.765  1.00  0.00     0.031 C 
ATOM     56  C   UNL A   1      42.552  34.533  29.470  1.00  0.00     0.031 A 
BRANCH  43  57
ATOM     57  C   UNL A   1      36.567  33.885  30.812  1.00  0.00    -0.014 A 
ATOM     58  C   UNL A   1      35.488  34.075  29.924  1.00  0.00     0.010 A 
ATOM     59  C   UNL A   1      36.353  34.333  32.133  1.00  0.00     0.010 A 
ATOM     60  C   UNL A   1      34.292  34.703  30.320  1.00  0.00     0.020 A 
ATOM     61  C   UNL A   1      35.160  34.940  32.550  1.00  0.00     0.020 A 
ATOM     62  C   UNL A   1      34.140  35.140  31.634  1.00  0.00     0.054 A 
BRANCH  62  63
ATOM     63  S   UNL A   1      32.623  35.995  32.134  1.00  0.00     0.124 S 
ATOM     64  O   UNL A   1      33.107  36.917  33.158  1.00  0.00    -0.237 OA
ATOM     65  O   UNL A   1      32.179  36.610  30.887  1.00  0.00    -0.237 OA
ATOM     66  O   UNL A   1      31.765  34.920  32.631  1.00  0.00    -0.744 OA
ENDBRANCH  62  63
ENDBRANCH  43  57
BRANCH  44  67
ATOM     67  C   UNL A   1      44.638  28.922  28.779  1.00  0.00    -0.014 A 
ATOM     68  C   UNL A   1      43.967  28.825  27.543  1.00  0.00     0.010 A 
ATOM     69  C   UNL A   1      45.952  28.433  28.887  1.00  0.00     0.010 A 
ATOM     70  C   UNL A   1      44.661  28.449  26.392  1.00  0.00     0.020 A 
ATOM     71  C   UNL A   1      46.648  28.047  27.732  1.00  0.00     0.020 A 
ATOM     72  C   UNL A   1      46.018  28.138  26.487  1.00  0.00     0.054 A 
BRANCH  72  73
ATOM     73  S   UNL A   1      46.992  28.132  24.951  1.00  0.00     0.124 S 
ATOM     74  O   UNL A   1      46.580  26.884  24.320  1.00  0.00    -0.237 OA
ATOM     75  O   UNL A   1      46.524  29.356  24.304  1.00  0.00    -0.237 OA
ATOM     76  O   UNL A   1      48.372  28.176  25.428  1.00  0.00    -0.744 OA
ENDBRANCH  72  73
ENDBRANCH  44  67
BRANCH  56  77
ATOM     77  C   UNL A   1      42.648  35.898  28.819  1.00  0.00    -0.014 A 
ATOM     78  C   UNL A   1      42.022  36.251  27.614  1.00  0.00     0.010 A 
ATOM     79  C   UNL A   1      43.309  36.938  29.519  1.00  0.00     0.010 A 
ATOM     80  C   UNL A   1      42.104  37.555  27.100  1.00  0.00     0.020 A 
ATOM     81  C   UNL A   1      43.356  38.251  29.042  1.00  0.00     0.020 A 
ATOM     82  C   UNL A   1      42.775  38.548  27.816  1.00  0.00     0.054 A 
BRANCH  82  83
ATOM     83  S   UNL A   1      42.827  40.242  27.179  1.00  0.00     0.124 S 
ATOM     84  O   UNL A   1      43.853  40.143  26.144  1.00  0.00    -0.237 OA
ATOM     85  O   UNL A   1      41.465  40.454  26.693  1.00  0.00    -0.237 OA
ATOM     86  O   UNL A   1      43.191  41.035  28.351  1.00  0.00    -0.744 OA
ENDBRANCH  82  83
ENDBRANCH  56  77
ENDBRANCH  30  31
ENDBRANCH  22  25
ENDBRANCH   1  21
TORSDOF 14
ENDMDL
MODEL 2
REMARK VINA RESULT:     -13.2      4.845     11.215
REMARK SMILES Cc1cccc(-c2cccnc2C(=O)NCCCNC(=O)c2ccc(-c3c4nc(c(-c5ccc(S(=O)(=O)[O-])cc5)c5ccc([nH]5)c(-c5ccc(S(=O)(=O)[O-])cc5)c5nc(c(-c6ccc(S(=O)(=O)[O-])cc6)c6ccc3[nH]6)C=C5)C=C4)cc2)c1
REMARK SMILES IDX 18 1 17 2 16 3 15 4 13 5 14 6 12 8 7 9 8 10 9 11 11 12 10 13
REMARK SMILES IDX 6 14 1 15 2 16 3 17 82 18 4 19 5 20 19 21 20 22 21 24 22 25
REMARK SMILES IDX 23 26 81 27 24 28 80 29 25 30 26 31 27 32 74 33 28 34 79 35
REMARK SMILES IDX 73 36 75 37 29 38 78 39 72 40 71 41 30 43 60 44 41 45 59 46
REMARK SMILES IDX 42 47 45 48 58 49 76 50 43 51 44 52 57 54 77 55 46 56 31 57
REMARK SMILES IDX 32 58 40 59 33 60 39 61 34 62 35 63 36 64 37 65 38 66 61 67
REMARK SMILES IDX 62 68 70 69 63 70 69 71 64 72 65 73 66 74 67 75 68 76 47 77
REMARK SMILES IDX 48 78 56 79 49 80 55 81 50 82 51 83 52 84 53 85 54 86
REMARK H PARENT 15 7 19 23 75 42 45 53
REMARK Flexibility Score: inf
ROOT
ATOM      1  C   UNL A   1      33.352  30.268  26.488  1.00  0.00     0.118 C 
ENDROOT
BRANCH   1   2
ATOM      2  C   UNL A   1      32.228  29.619  27.290  1.00  0.00     0.042 C 
BRANCH   2   3
ATOM      3  C   UNL A   1      32.465  28.132  27.452  1.00  0.00     0.118 C 
BRANCH   3   4
ATOM      4  N   UNL A   1      31.336  27.306  27.074  1.00  0.00    -0.351 N 
ATOM      5  C   UNL A   1      30.865  26.608  25.999  1.00  0.00     0.270 C 
ATOM      6  O   UNL A   1      29.885  25.900  26.284  1.00  0.00    -0.267 OA
ATOM      7  H   UNL A   1      30.713  27.222  27.831  1.00  0.00     0.163 HD
BRANCH   5   8
ATOM      8  C   UNL A   1      31.305  26.615  24.549  1.00  0.00     0.135 A 
ATOM      9  C   UNL A   1      30.841  27.348  23.451  1.00  0.00     0.013 A 
ATOM     10  C   UNL A   1      31.567  27.209  22.238  1.00  0.00     0.013 A 
ATOM     11  C   UNL A   1      32.673  26.379  22.128  1.00  0.00     0.021 A 
ATOM     12  N   UNL A   1      32.395  25.778  24.416  1.00  0.00    -0.250 NA
ATOM     13  C   UNL A   1      33.043  25.678  23.245  1.00  0.00     0.112 A 
BRANCH   9  14
ATOM     14  C   UNL A   1      29.682  28.236  23.375  1.00  0.00    -0.016 A 
ATOM     15  C   UNL A   1      29.078  32.007  23.543  1.00  0.00     0.044 C 
ATOM     16  C   UNL A   1      28.815  30.529  23.479  1.00  0.00    -0.051 A 
ATOM     17  C   UNL A   1      27.525  30.032  23.277  1.00  0.00     0.003 A 
ATOM     18  C   UNL A   1      29.882  29.626  23.513  1.00  0.00     0.012 A 
ATOM     19  C   UNL A   1      27.302  28.655  23.181  1.00  0.00     0.001 A 
ATOM     20  C   UNL A   1      28.372  27.756  23.259  1.00  0.00     0.009 A 
ENDBRANCH   9  14
ENDBRANCH   5   8
ENDBRANCH   3   4
ENDBRANCH   2   3
ENDBRANCH   1   2
BRANCH   1  21
ATOM     21  N   UNL A   1      33.974  31.438  27.099  1.00  0.00    -0.352 N 
ATOM     22  C   UNL A   1      35.085  31.498  27.940  1.00  0.00     0.251 C 
ATOM     23  H   UNL A   1      33.553  32.303  26.889  1.00  0.00     0.163 HD
ATOM     24  O   UNL A   1      35.433  32.523  28.486  1.00  0.00    -0.269 OA
BRANCH  22  25
ATOM     25  C   UNL A   1      35.860  30.245  28.088  1.00  0.00     0.039 A 
ATOM     26  C   UNL A   1      35.861  29.648  29.352  1.00  0.00     0.014 A 
ATOM     27  C   UNL A   1      36.886  30.027  27.181  1.00  0.00     0.014 A 
ATOM     28  C   UNL A   1      37.032  29.055  29.814  1.00  0.00     0.010 A 
ATOM     29  C   UNL A   1      38.083  29.575  27.694  1.00  0.00     0.010 A 
ATOM     30  C   UNL A   1      38.182  29.152  29.034  1.00  0.00    -0.014 A 
BRANCH  30  31
ATOM     31  C   UNL A   1      39.548  29.003  29.546  1.00  0.00     0.031 A 
ATOM     32  C   UNL A   1      40.294  27.745  29.274  1.00  0.00     0.074 A 
ATOM     33  C   UNL A   1      40.208  30.066  30.070  1.00  0.00     0.049 A 
ATOM     34  N   UNL A   1      41.451  27.457  29.768  1.00  0.00    -0.248 NA
ATOM     35  C   UNL A   1      39.751  26.658  28.456  1.00  0.00     0.031 C 
ATOM     36  C   UNL A   1      41.661  30.230  30.159  1.00  0.00     0.029 A 
ATOM     37  N   UNL A   1      39.720  31.138  30.826  1.00  0.00    -0.354 N 
ATOM     38  C   UNL A   1      41.938  26.374  29.072  1.00  0.00     0.074 A 
ATOM     39  C   UNL A   1      40.802  25.842  28.365  1.00  0.00     0.031 C 
ATOM     40  C   UNL A   1      41.942  31.099  31.140  1.00  0.00     0.029 A 
ATOM     41  C   UNL A   1      40.692  31.398  31.810  1.00  0.00     0.049 A 
ATOM     42  H   UNL A   1      38.867  31.613  30.695  1.00  0.00     0.167 HD
ATOM     43  C   UNL A   1      43.280  26.147  29.056  1.00  0.00     0.031 A 
ATOM     44  C   UNL A   1      40.485  31.286  33.156  1.00  0.00     0.031 A 
ATOM     45  C   UNL A   1      43.958  26.897  30.113  1.00  0.00     0.049 A 
ATOM     46  C   UNL A   1      41.430  30.315  33.837  1.00  0.00     0.074 A 
ATOM     47  C   UNL A   1      44.803  27.993  30.137  1.00  0.00     0.029 A 
ATOM     48  N   UNL A   1      43.567  26.675  31.430  1.00  0.00    -0.354 N 
ATOM     49  N   UNL A   1      42.227  29.502  33.200  1.00  0.00    -0.248 NA
ATOM     50  C   UNL A   1      41.510  30.139  35.285  1.00  0.00     0.031 C 
ATOM     51  C   UNL A   1      44.827  28.493  31.470  1.00  0.00     0.029 A 
ATOM     52  C   UNL A   1      44.033  27.676  32.257  1.00  0.00     0.049 A 
ATOM     53  H   UNL A   1      43.029  25.907  31.731  1.00  0.00     0.167 HD
ATOM     54  C   UNL A   1      42.863  28.677  34.090  1.00  0.00     0.074 A 
ATOM     55  C   UNL A   1      42.407  29.140  35.388  1.00  0.00     0.031 C 
ATOM     56  C   UNL A   1      43.679  27.663  33.674  1.00  0.00     0.031 A 
BRANCH  43  57
ATOM     57  C   UNL A   1      44.002  25.412  27.940  1.00  0.00    -0.014 A 
ATOM     58  C   UNL A   1      43.698  25.711  26.595  1.00  0.00     0.010 A 
ATOM     59  C   UNL A   1      44.891  24.335  28.139  1.00  0.00     0.010 A 
ATOM     60  C   UNL A   1      44.219  24.959  25.525  1.00  0.00     0.020 A 
ATOM     61  C   UNL A   1      45.435  23.590  27.083  1.00  0.00     0.020 A 
ATOM     62  C   UNL A   1      45.081  23.895  25.779  1.00  0.00     0.054 A 
BRANCH  62  63
ATOM     63  S   UNL A   1      45.711  22.893  24.407  1.00  0.00     0.124 S 
ATOM     64  O   UNL A   1      46.657  23.803  23.765  1.00  0.00    -0.237 OA
ATOM     65  O   UNL A   1      46.302  21.748  25.094  1.00  0.00    -0.237 OA
ATOM     66  O   UNL A   1      44.517  22.591  23.620  1.00  0.00    -0.744 OA
ENDBRANCH  62  63
ENDBRANCH  43  57
BRANCH  44  67
ATOM     67  C   UNL A   1      39.089  31.566  33.589  1.00  0.00    -0.014 A 
ATOM     68  C   UNL A   1      38.771  32.908  33.887  1.00  0.00     0.010 A 
ATOM     69  C   UNL A   1      38.055  30.674  33.255  1.00  0.00     0.010 A 
ATOM     70  C   UNL A   1      37.486  33.396  33.650  1.00  0.00     0.020 A 
ATOM     71  C   UNL A   1      36.761  31.163  33.024  1.00  0.00     0.020 A 
ATOM     72  C   UNL A   1      36.513  32.534  33.145  1.00  0.00     0.054 A 
BRANCH  72  73
ATOM     73  S   UNL A   1      35.031  33.277  32.398  1.00  0.00     0.124 S 
ATOM     74  O   UNL A   1      34.453  32.159  31.661  1.00  0.00    -0.237 OA
ATOM     75  O   UNL A   1      34.291  33.707  33.582  1.00  0.00    -0.237 OA
ATOM     76  O   UNL A   1      35.572  34.361  31.582  1.00  0.00    -0.744 OA
ENDBRANCH  72  73
ENDBRANCH  44  67
BRANCH  56  77
ATOM     77  C   UNL A   1      44.256  26.565  34.544  1.00  0.00    -0.014 A 
ATOM     78  C   UNL A   1      43.515  25.497  35.075  1.00  0.00     0.010 A 
ATOM     79  C   UNL A   1      45.658  26.527  34.748  1.00  0.00     0.010 A 
ATOM     80  C   UNL A   1      44.130  24.480  35.823  1.00  0.00     0.020 A 
ATOM     81  C   UNL A   1      46.287  25.494  35.449  1.00  0.00     0.020 A 
ATOM     82  C   UNL A   1      45.513  24.487  36.009  1.00  0.00     0.054 A 
BRANCH  82  83
ATOM     83  S   UNL A   1      46.307  23.141  36.924  1.00  0.00     0.124 S 
ATOM     84  O   UNL A   1      47.605  23.051  36.260  1.00  0.00    -0.237 OA
ATOM     85  O   UNL A   1      46.338  23.646  38.295  1.00  0.00    -0.237 OA
ATOM     86  O   UNL A   1      45.410  22.007  36.707  1.00  0.00    -0.744 OA
ENDBRANCH  82  83
ENDBRANCH  56  77
ENDBRANCH  30  31
ENDBRANCH  22  25
ENDBRANCH   1  21
TORSDOF 14
ENDMDL
MODEL 3
REMARK VINA RESULT:     -13.1      1.190      2.708
REMARK SMILES Cc1cccc(-c2cccnc2C(=O)NCCCNC(=O)c2ccc(-c3c4nc(c(-c5ccc(S(=O)(=O)[O-])cc5)c5ccc([nH]5)c(-c5ccc(S(=O)(=O)[O-])cc5)c5nc(c(-c6ccc(S(=O)(=O)[O-])cc6)c6ccc3[nH]6)C=C5)C=C4)cc2)c1
REMARK SMILES IDX 18 1 17 2 16 3 15 4 13 5 14 6 12 8 7 9 8 10 9 11 11 12 10 13
REMARK SMILES IDX 6 14 1 15 2 16 3 17 82 18 4 19 5 20 19 21 20 22 21 24 22 25
REMARK SMILES IDX 23 26 81 27 24 28 80 29 25 30 26 31 27 32 74 33 28 34 79 35
REMARK SMILES IDX 73 36 75 37 29 38 78 39 72 40 71 41 30 43 60 44 41 45 59 46
REMARK SMILES IDX 42 47 45 48 58 49 76 50 43 51 44 52 57 54 77 55 46 56 31 57
REMARK SMILES IDX 32 58 40 59 33 60 39 61 34 62 35 63 36 64 37 65 38 66 61 67
REMARK SMILES IDX 62 68 70 69 63 70 69 71 64 72 65 73 66 74 67 75 68 76 47 77
REMARK SMILES IDX 48 78 56 79 49 80 55 81 50 82 51 83 52 84 53 85 54 86
REMARK H PARENT 15 7 19 23 75 42 45 53
REMARK Flexibility Score: inf
ROOT
ATOM      1  C   UNL A   1      38.722  23.000  26.328  1.00  0.00     0.118 C 
ENDROOT
BRANCH   1   2
ATOM      2  C   UNL A   1      38.432  21.673  25.633  1.00  0.00     0.042 C 
BRANCH   2   3
ATOM      3  C   UNL A   1      36.945  21.483  25.422  1.00  0.00     0.118 C 
BRANCH   3   4
ATOM      4  N   UNL A   1      36.420  22.154  24.250  1.00  0.00    -0.351 N 
ATOM      5  C   UNL A   1      35.272  22.745  23.811  1.00  0.00     0.270 C 
ATOM      6  O   UNL A   1      35.427  23.345  22.734  1.00  0.00    -0.267 OA
ATOM      7  H   UNL A   1      37.111  22.196  23.550  1.00  0.00     0.163 HD
BRANCH   5   8
ATOM      8  C   UNL A   1      33.871  22.729  24.388  1.00  0.00     0.135 A 
ATOM      9  C   UNL A   1      33.011  23.773  24.745  1.00  0.00     0.013 A 
ATOM     10  C   UNL A   1      31.696  23.411  25.142  1.00  0.00     0.013 A 
ATOM     11  C   UNL A   1      31.276  22.089  25.196  1.00  0.00     0.021 A 
ATOM     12  N   UNL A   1      33.443  21.418  24.466  1.00  0.00    -0.250 NA
ATOM     13  C   UNL A   1      32.190  21.128  24.854  1.00  0.00     0.112 A 
BRANCH   9  14
ATOM     14  C   UNL A   1      33.291  25.207  24.784  1.00  0.00    -0.016 A 
ATOM     15  C   UNL A   1      33.677  28.016  22.219  1.00  0.00     0.044 C 
ATOM     16  C   UNL A   1      33.673  27.282  23.530  1.00  0.00    -0.051 A 
ATOM     17  C   UNL A   1      33.855  27.959  24.739  1.00  0.00     0.003 A 
ATOM     18  C   UNL A   1      33.381  25.915  23.566  1.00  0.00     0.012 A 
ATOM     19  C   UNL A   1      33.811  27.267  25.953  1.00  0.00     0.001 A 
ATOM     20  C   UNL A   1      33.559  25.891  25.977  1.00  0.00     0.009 A 
ENDBRANCH   9  14
ENDBRANCH   5   8
ENDBRANCH   3   4
ENDBRANCH   2   3
ENDBRANCH   1   2
BRANCH   1  21
ATOM     21  N   UNL A   1      39.865  23.007  27.234  1.00  0.00    -0.352 N 
ATOM     22  C   UNL A   1      40.383  24.065  27.980  1.00  0.00     0.251 C 
ATOM     23  H   UNL A   1      40.335  22.146  27.333  1.00  0.00     0.163 HD
ATOM     24  O   UNL A   1      41.419  23.975  28.604  1.00  0.00    -0.269 OA
BRANCH  22  25
ATOM     25  C   UNL A   1      39.565  25.298  28.018  1.00  0.00     0.039 A 
ATOM     26  C   UNL A   1      39.828  26.261  27.039  1.00  0.00     0.014 A 
ATOM     27  C   UNL A   1      38.989  25.636  29.233  1.00  0.00     0.014 A 
ATOM     28  C   UNL A   1      39.772  27.607  27.388  1.00  0.00     0.010 A 
ATOM     29  C   UNL A   1      39.080  26.958  29.617  1.00  0.00     0.010 A 
ATOM     30  C   UNL A   1      39.540  27.941  28.720  1.00  0.00    -0.014 A 
BRANCH  30  31
ATOM     31  C   UNL A   1      39.893  29.228  29.328  1.00  0.00     0.031 A 
ATOM     32  C   UNL A   1      38.965  30.382  29.184  1.00  0.00     0.074 A 
ATOM     33  C   UNL A   1      40.937  29.320  30.190  1.00  0.00     0.049 A 
ATOM     34  N   UNL A   1      39.222  31.584  29.574  1.00  0.00    -0.248 NA
ATOM     35  C   UNL A   1      37.667  30.280  28.511  1.00  0.00     0.031 C 
ATOM     36  C   UNL A   1      41.121  30.339  31.227  1.00  0.00     0.029 A 
ATOM     37  N   UNL A   1      42.161  28.643  30.188  1.00  0.00    -0.354 N 
ATOM     38  C   UNL A   1      38.041  32.290  29.544  1.00  0.00     0.074 A 
ATOM     39  C   UNL A   1      37.142  31.481  28.762  1.00  0.00     0.031 C 
ATOM     40  C   UNL A   1      42.426  30.429  31.522  1.00  0.00     0.029 A 
ATOM     41  C   UNL A   1      43.131  29.585  30.576  1.00  0.00     0.049 A 
ATOM     42  H   UNL A   1      42.312  27.697  29.959  1.00  0.00     0.167 HD
ATOM     43  C   UNL A   1      37.915  33.405  30.314  1.00  0.00     0.031 A 
ATOM     44  C   UNL A   1      44.172  29.997  29.794  1.00  0.00     0.031 A 
ATOM     45  C   UNL A   1      39.220  33.883  30.771  1.00  0.00     0.049 A 
ATOM     46  C   UNL A   1      44.194  31.494  29.549  1.00  0.00     0.074 A 
ATOM     47  C   UNL A   1      39.872  33.907  31.991  1.00  0.00     0.029 A 
ATOM     48  N   UNL A   1      40.173  34.209  29.811  1.00  0.00    -0.354 N 
ATOM     49  N   UNL A   1      43.218  32.300  29.864  1.00  0.00    -0.248 NA
ATOM     50  C   UNL A   1      45.287  32.192  28.877  1.00  0.00     0.031 C 
ATOM     51  C   UNL A   1      41.254  34.144  31.739  1.00  0.00     0.029 A 
ATOM     52  C   UNL A   1      41.428  34.305  30.376  1.00  0.00     0.049 A 
ATOM     53  H   UNL A   1      39.978  34.351  28.856  1.00  0.00     0.167 HD
ATOM     54  C   UNL A   1      43.490  33.565  29.411  1.00  0.00     0.074 A 
ATOM     55  C   UNL A   1      44.815  33.453  28.830  1.00  0.00     0.031 C 
ATOM     56  C   UNL A   1      42.582  34.579  29.524  1.00  0.00     0.031 A 
BRANCH  43  57
ATOM     57  C   UNL A   1      36.589  33.933  30.831  1.00  0.00    -0.014 A 
ATOM     58  C   UNL A   1      35.506  34.095  29.942  1.00  0.00     0.010 A 
ATOM     59  C   UNL A   1      36.376  34.406  32.143  1.00  0.00     0.010 A 
ATOM     60  C   UNL A   1      34.306  34.721  30.328  1.00  0.00     0.020 A 
ATOM     61  C   UNL A   1      35.179  35.013  32.550  1.00  0.00     0.020 A 
ATOM     62  C   UNL A   1      34.154  35.184  31.634  1.00  0.00     0.054 A 
BRANCH  62  63
ATOM     63  S   UNL A   1      32.631  36.037  32.120  1.00  0.00     0.124 S 
ATOM     64  O   UNL A   1      33.098  36.929  33.178  1.00  0.00    -0.237 OA
ATOM     65  O   UNL A   1      32.221  36.688  30.879  1.00  0.00    -0.237 OA
ATOM     66  O   UNL A   1      31.755  34.956  32.568  1.00  0.00    -0.744 OA
ENDBRANCH  62  63
ENDBRANCH  43  57
BRANCH  44  67
ATOM     67  C   UNL A   1      44.671  28.968  28.841  1.00  0.00    -0.014 A 
ATOM     68  C   UNL A   1      43.986  28.851  27.614  1.00  0.00     0.010 A 
ATOM     69  C   UNL A   1      45.993  28.501  28.937  1.00  0.00     0.010 A 
ATOM     70  C   UNL A   1      44.673  28.477  26.458  1.00  0.00     0.020 A 
ATOM     71  C   UNL A   1      46.681  28.117  27.777  1.00  0.00     0.020 A 
ATOM     72  C   UNL A   1      46.035  28.189  26.539  1.00  0.00     0.054 A 
BRANCH  72  73
ATOM     73  S   UNL A   1      46.991  28.186  24.992  1.00  0.00     0.124 S 
ATOM     74  O   UNL A   1      46.569  26.940  24.361  1.00  0.00    -0.237 OA
ATOM     75  O   UNL A   1      46.518  29.413  24.354  1.00  0.00    -0.237 OA
ATOM     76  O   UNL A   1      48.377  28.225  25.452  1.00  0.00    -0.744 OA
ENDBRANCH  72  73
ENDBRANCH  44  67
BRANCH  56  77
ATOM     77  C   UNL A   1      42.682  35.944  28.874  1.00  0.00    -0.014 A 
ATOM     78  C   UNL A   1      42.100  36.286  27.643  1.00  0.00     0.010 A 
ATOM     79  C   UNL A   1      43.297  36.997  29.598  1.00  0.00     0.010 A 
ATOM     80  C   UNL A   1      42.182  37.591  27.131  1.00  0.00     0.020 A 
ATOM     81  C   UNL A   1      43.342  38.310  29.120  1.00  0.00     0.020 A 
ATOM     82  C   UNL A   1      42.807  38.595  27.872  1.00  0.00     0.054 A 
BRANCH  82  83
ATOM     83  S   UNL A   1      42.857  40.289  27.233  1.00  0.00     0.124 S 
ATOM     84  O   UNL A   1      43.323  41.036  28.398  1.00  0.00    -0.237 OA
ATOM     85  O   UNL A   1      43.806  40.197  26.126  1.00  0.00    -0.237 OA
ATOM     86  O   UNL A   1      41.473  40.543  26.836  1.00  0.00    -0.744 OA
ENDBRANCH  82  83
ENDBRANCH  56  77
ENDBRANCH  30  31
ENDBRANCH  22  25
ENDBRANCH   1  21
TORSDOF 14
ENDMDL
