MODEL 1
REMARK VINA RESULT:     -14.0      0.000      0.000
REMARK SMILES O=C(NCCCNC(=O)c1cc2c(c(S(=O)(=O)Nc3cc(C(F)(F)F)ccc3-n3cccn3)c1)CCC2)c1ccc(-c2c3nc(c(-c4ccc(S(=O)(=O)[O-])cc4)c4ccc([nH]4)c(-c4ccc(S(=O)(=O)[O-])cc4)c4nc(c(-c5ccc(S(=O)(=O)[O-])cc5)c5ccc2[nH]5)C=C4)C=C3)cc1
REMARK SMILES IDX 5 1 4 2 3 3 1 4 2 5 38 7 39 8 97 9 40 10 96 11 41 12 42 13
REMARK SMILES IDX 43 14 90 15 44 16 95 17 89 18 91 19 45 20 94 21 88 22 87 23
REMARK SMILES IDX 46 25 76 26 57 27 75 28 58 29 61 30 74 31 92 32 59 33 60 34
REMARK SMILES IDX 73 36 93 37 62 38 47 39 48 40 56 41 49 42 55 43 50 44 51 45
REMARK SMILES IDX 52 46 53 47 54 48 77 49 78 50 86 51 79 52 85 53 80 54 81 55
REMARK SMILES IDX 82 56 83 57 84 58 63 59 64 60 72 61 65 62 71 63 66 64 67 65
REMARK SMILES IDX 68 66 69 67 70 68 6 69 7 70 8 71 9 73 10 74 11 75 34 76
REMARK SMILES IDX 12 77 14 78 13 79 37 80 35 81 36 82 15 83 16 84 17 85 18 86
REMARK SMILES IDX 19 88 20 89 28 90 21 91 27 92 26 93 29 94 30 95 33 96 31 97
REMARK SMILES IDX 32 98 22 99 23 100 24 101 25 102
REMARK H PARENT 3 6 91 24 61 35 7 72 18 87
REMARK Flexibility Score: inf
ROOT
ATOM      1  C   UNL A   1      35.922  21.364  24.734  1.00  0.00     0.042 C 
ENDROOT
BRANCH   1   2
ATOM      2  C   UNL A   1      37.091  22.305  24.998  1.00  0.00     0.118 C 
BRANCH   2   3
ATOM      3  N   UNL A   1      38.356  21.645  25.242  1.00  0.00    -0.352 N 
ATOM      4  O   UNL A   1      40.223  20.945  26.175  1.00  0.00    -0.269 OA
ATOM      5  C   UNL A   1      39.410  21.870  26.083  1.00  0.00     0.251 C 
ATOM      6  H   UNL A   1      38.487  20.853  24.673  1.00  0.00     0.163 HD
BRANCH   5   7
ATOM      7  C   UNL A   1      39.684  23.141  26.809  1.00  0.00     0.039 A 
ATOM      8  C   UNL A   1      38.961  24.330  26.692  1.00  0.00     0.014 A 
ATOM      9  C   UNL A   1      40.830  23.131  27.627  1.00  0.00     0.014 A 
ATOM     10  C   UNL A   1      39.430  25.504  27.282  1.00  0.00     0.010 A 
ATOM     11  C   UNL A   1      41.293  24.292  28.229  1.00  0.00     0.010 A 
ATOM     12  C   UNL A   1      40.617  25.489  28.015  1.00  0.00    -0.014 A 
BRANCH  12  13
ATOM     13  C   UNL A   1      41.055  26.716  28.680  1.00  0.00     0.031 A 
ATOM     14  C   UNL A   1      42.279  27.340  28.092  1.00  0.00     0.074 A 
ATOM     15  C   UNL A   1      40.302  27.341  29.611  1.00  0.00     0.049 A 
ATOM     16  N   UNL A   1      43.392  27.646  28.676  1.00  0.00    -0.248 NA
ATOM     17  C   UNL A   1      42.298  27.552  26.633  1.00  0.00     0.031 C 
ATOM     18  C   UNL A   1      38.948  26.985  30.050  1.00  0.00     0.029 A 
ATOM     19  N   UNL A   1      40.532  28.515  30.265  1.00  0.00    -0.354 N 
ATOM     20  C   UNL A   1      44.178  28.270  27.707  1.00  0.00     0.074 A 
ATOM     21  C   UNL A   1      43.519  28.048  26.446  1.00  0.00     0.031 C 
ATOM     22  C   UNL A   1      38.392  28.041  30.684  1.00  0.00     0.029 A 
ATOM     23  C   UNL A   1      39.388  29.092  30.812  1.00  0.00     0.049 A 
ATOM     24  H   UNL A   1      41.426  28.918  30.345  1.00  0.00     0.167 HD
ATOM     25  C   UNL A   1      45.194  29.120  28.028  1.00  0.00     0.031 A 
ATOM     26  C   UNL A   1      39.244  30.368  31.259  1.00  0.00     0.031 A 
ATOM     27  C   UNL A   1      45.620  28.957  29.391  1.00  0.00     0.049 A 
ATOM     28  C   UNL A   1      40.604  30.906  31.501  1.00  0.00     0.074 A 
ATOM     29  C   UNL A   1      46.156  27.920  30.127  1.00  0.00     0.029 A 
ATOM     30  N   UNL A   1      45.174  29.878  30.307  1.00  0.00    -0.354 N 
ATOM     31  N   UNL A   1      41.403  30.450  32.424  1.00  0.00    -0.248 NA
ATOM     32  C   UNL A   1      41.248  31.640  30.425  1.00  0.00     0.031 C 
ATOM     33  C   UNL A   1      45.559  28.041  31.415  1.00  0.00     0.029 A 
ATOM     34  C   UNL A   1      44.752  29.179  31.407  1.00  0.00     0.049 A 
ATOM     35  H   UNL A   1      45.160  30.856  30.195  1.00  0.00     0.167 HD
ATOM     36  C   UNL A   1      42.660  30.456  31.839  1.00  0.00     0.074 A 
ATOM     37  C   UNL A   1      42.516  31.282  30.641  1.00  0.00     0.031 C 
ATOM     38  C   UNL A   1      43.627  29.571  32.228  1.00  0.00     0.031 A 
BRANCH  25  39
ATOM     39  C   UNL A   1      45.504  30.376  27.241  1.00  0.00    -0.014 A 
ATOM     40  C   UNL A   1      46.855  30.712  27.004  1.00  0.00     0.010 A 
ATOM     41  C   UNL A   1      44.548  31.385  27.001  1.00  0.00     0.010 A 
ATOM     42  C   UNL A   1      47.232  32.018  26.660  1.00  0.00     0.020 A 
ATOM     43  C   UNL A   1      44.909  32.676  26.614  1.00  0.00     0.020 A 
ATOM     44  C   UNL A   1      46.254  32.997  26.492  1.00  0.00     0.054 A 
BRANCH  44  45
ATOM     45  S   UNL A   1      46.754  34.712  26.205  1.00  0.00     0.124 S 
ATOM     46  O   UNL A   1      45.544  35.282  25.621  1.00  0.00    -0.237 OA
ATOM     47  O   UNL A   1      47.083  35.167  27.553  1.00  0.00    -0.237 OA
ATOM     48  O   UNL A   1      47.892  34.589  25.297  1.00  0.00    -0.744 OA
ENDBRANCH  44  45
ENDBRANCH  25  39
BRANCH  26  49
ATOM     49  C   UNL A   1      38.048  31.247  31.136  1.00  0.00    -0.014 A 
ATOM     50  C   UNL A   1      36.741  30.732  31.232  1.00  0.00     0.010 A 
ATOM     51  C   UNL A   1      38.202  32.647  31.203  1.00  0.00     0.010 A 
ATOM     52  C   UNL A   1      35.638  31.585  31.438  1.00  0.00     0.020 A 
ATOM     53  C   UNL A   1      37.110  33.501  31.401  1.00  0.00     0.020 A 
ATOM     54  C   UNL A   1      35.833  32.965  31.540  1.00  0.00     0.054 A 
BRANCH  54  55
ATOM     55  S   UNL A   1      34.436  34.046  31.974  1.00  0.00     0.124 S 
ATOM     56  O   UNL A   1      33.768  34.224  30.688  1.00  0.00    -0.237 OA
ATOM     57  O   UNL A   1      33.709  33.251  32.959  1.00  0.00    -0.237 OA
ATOM     58  O   UNL A   1      35.082  35.246  32.506  1.00  0.00    -0.744 OA
ENDBRANCH  54  55
ENDBRANCH  26  49
BRANCH  38  59
ATOM     59  C   UNL A   1      43.402  28.759  33.482  1.00  0.00    -0.014 A 
ATOM     60  C   UNL A   1      43.618  29.253  34.784  1.00  0.00     0.010 A 
ATOM     61  C   UNL A   1      42.786  27.504  33.335  1.00  0.00     0.010 A 
ATOM     62  C   UNL A   1      43.245  28.499  35.907  1.00  0.00     0.020 A 
ATOM     63  C   UNL A   1      42.395  26.757  34.448  1.00  0.00     0.020 A 
ATOM     64  C   UNL A   1      42.633  27.254  35.730  1.00  0.00     0.054 A 
BRANCH  64  65
ATOM     65  S   UNL A   1      42.101  26.306  37.183  1.00  0.00     0.124 S 
ATOM     66  O   UNL A   1      42.107  24.933  36.688  1.00  0.00    -0.237 OA
ATOM     67  O   UNL A   1      43.130  26.621  38.172  1.00  0.00    -0.237 OA
ATOM     68  O   UNL A   1      40.777  26.848  37.487  1.00  0.00    -0.744 OA
ENDBRANCH  64  65
ENDBRANCH  38  59
ENDBRANCH  12  13
ENDBRANCH   5   7
ENDBRANCH   2   3
ENDBRANCH   1   2
BRANCH   1  69
ATOM     69  C   UNL A   1      35.025  21.090  25.937  1.00  0.00     0.118 C 
BRANCH  69  70
ATOM     70  N   UNL A   1      33.939  20.145  25.669  1.00  0.00    -0.352 N 
ATOM     71  C   UNL A   1      32.719  20.337  25.053  1.00  0.00     0.251 C 
ATOM     72  H   UNL A   1      34.106  19.226  25.979  1.00  0.00     0.163 HD
ATOM     73  O   UNL A   1      31.897  19.426  25.017  1.00  0.00    -0.269 OA
BRANCH  71  74
ATOM     74  C   UNL A   1      32.385  21.651  24.451  1.00  0.00     0.041 A 
ATOM     75  C   UNL A   1      32.647  21.867  23.104  1.00  0.00     0.018 A 
ATOM     76  C   UNL A   1      31.871  22.692  25.253  1.00  0.00     0.036 A 
ATOM     77  C   UNL A   1      32.662  23.170  22.663  1.00  0.00    -0.043 A 
ATOM     78  C   UNL A   1      31.786  24.018  24.764  1.00  0.00     0.092 A 
ATOM     79  C   UNL A   1      32.317  24.253  23.503  1.00  0.00    -0.024 A 
ATOM     80  C   UNL A   1      33.172  23.631  21.331  1.00  0.00     0.036 C 
ATOM     81  C   UNL A   1      32.781  25.500  22.817  1.00  0.00     0.037 C 
ATOM     82  C   UNL A   1      32.682  25.074  21.348  1.00  0.00     0.010 C 
BRANCH  78  83
ATOM     83  S   UNL A   1      31.212  25.271  25.892  1.00  0.00     0.262 S 
ATOM     84  O   UNL A   1      29.879  25.652  25.447  1.00  0.00    -0.201 OA
ATOM     85  O   UNL A   1      31.388  24.759  27.231  1.00  0.00    -0.201 OA
BRANCH  83  86
ATOM     86  N   UNL A   1      32.062  26.757  25.856  1.00  0.00    -0.277 N 
ATOM     87  H   UNL A   1      32.951  26.788  26.278  1.00  0.00     0.180 HD
BRANCH  86  88
ATOM     88  C   UNL A   1      31.562  27.958  25.253  1.00  0.00     0.075 A 
ATOM     89  C   UNL A   1      30.487  27.850  24.350  1.00  0.00     0.042 A 
ATOM     90  C   UNL A   1      32.042  29.232  25.590  1.00  0.00     0.089 A 
ATOM     91  C   UNL A   1      29.830  28.997  23.858  1.00  0.00     0.058 A 
ATOM     92  C   UNL A   1      31.418  30.378  25.071  1.00  0.00     0.031 A 
ATOM     93  C   UNL A   1      30.322  30.261  24.212  1.00  0.00     0.015 A 
BRANCH  90  94
ATOM     94  N   UNL A   1      33.107  29.404  26.504  1.00  0.00    -0.239 N 
ATOM     95  C   UNL A   1      33.283  30.410  27.427  1.00  0.00     0.115 A 
ATOM     96  N   UNL A   1      34.182  28.577  26.468  1.00  0.00    -0.177 NA
ATOM     97  C   UNL A   1      34.596  30.357  27.824  1.00  0.00     0.042 A 
ATOM     98  C   UNL A   1      35.115  29.235  27.161  1.00  0.00     0.135 A 
ENDBRANCH  90  94
BRANCH  91  99
ATOM     99  C   UNL A   1      28.566  28.859  23.038  1.00  0.00     0.416 C 
ATOM    100  F   UNL A   1      27.593  29.720  23.440  1.00  0.00    -0.166 F 
ATOM    101  F   UNL A   1      28.778  29.115  21.718  1.00  0.00    -0.166 F 
ATOM    102  F   UNL A   1      28.016  27.614  23.098  1.00  0.00    -0.166 F 
ENDBRANCH  91  99
ENDBRANCH  86  88
ENDBRANCH  83  86
ENDBRANCH  78  83
ENDBRANCH  71  74
ENDBRANCH  69  70
ENDBRANCH   1  69
TORSDOF 18
ENDMDL
MODEL 2
REMARK VINA RESULT:     -13.9      3.337      9.555
REMARK SMILES O=C(NCCCNC(=O)c1cc2c(c(S(=O)(=O)Nc3cc(C(F)(F)F)ccc3-n3cccn3)c1)CCC2)c1ccc(-c2c3nc(c(-c4ccc(S(=O)(=O)[O-])cc4)c4ccc([nH]4)c(-c4ccc(S(=O)(=O)[O-])cc4)c4nc(c(-c5ccc(S(=O)(=O)[O-])cc5)c5ccc2[nH]5)C=C4)C=C3)cc1
REMARK SMILES IDX 5 1 4 2 3 3 1 4 2 5 38 7 39 8 97 9 40 10 96 11 41 12 42 13
REMARK SMILES IDX 43 14 90 15 44 16 95 17 89 18 91 19 45 20 94 21 88 22 87 23
REMARK SMILES IDX 46 25 76 26 57 27 75 28 58 29 61 30 74 31 92 32 59 33 60 34
REMARK SMILES IDX 73 36 93 37 62 38 47 39 48 40 56 41 49 42 55 43 50 44 51 45
REMARK SMILES IDX 52 46 53 47 54 48 77 49 78 50 86 51 79 52 85 53 80 54 81 55
REMARK SMILES IDX 82 56 83 57 84 58 63 59 64 60 72 61 65 62 71 63 66 64 67 65
REMARK SMILES IDX 68 66 69 67 70 68 6 69 7 70 8 71 9 73 10 74 11 75 34 76
REMARK SMILES IDX 12 77 14 78 13 79 37 80 35 81 36 82 15 83 16 84 17 85 18 86
REMARK SMILES IDX 19 88 20 89 28 90 21 91 27 92 26 93 29 94 30 95 33 96 31 97
REMARK SMILES IDX 32 98 22 99 23 100 24 101 25 102
REMARK H PARENT 3 6 91 24 61 35 7 72 18 87
REMARK Flexibility Score: inf
ROOT
ATOM      1  C   UNL A   1      33.085  29.668  25.451  1.00  0.00     0.042 C 
ENDROOT
BRANCH   1   2
ATOM      2  C   UNL A   1      32.928  29.582  26.964  1.00  0.00     0.118 C 
BRANCH   2   3
ATOM      3  N   UNL A   1      33.123  30.834  27.666  1.00  0.00    -0.352 N 
ATOM      4  O   UNL A   1      33.989  32.702  28.442  1.00  0.00    -0.269 OA
ATOM      5  C   UNL A   1      34.215  31.545  28.075  1.00  0.00     0.251 C 
ATOM      6  H   UNL A   1      32.274  31.273  27.900  1.00  0.00     0.163 HD
BRANCH   5   7
ATOM      7  C   UNL A   1      35.603  31.015  28.186  1.00  0.00     0.039 A 
ATOM      8  C   UNL A   1      35.989  29.680  28.047  1.00  0.00     0.014 A 
ATOM      9  C   UNL A   1      36.582  31.963  28.538  1.00  0.00     0.014 A 
ATOM     10  C   UNL A   1      37.290  29.284  28.360  1.00  0.00     0.010 A 
ATOM     11  C   UNL A   1      37.882  31.577  28.836  1.00  0.00     0.010 A 
ATOM     12  C   UNL A   1      38.221  30.229  28.792  1.00  0.00    -0.014 A 
BRANCH  12  13
ATOM     13  C   UNL A   1      39.596  29.802  29.050  1.00  0.00     0.031 A 
ATOM     14  C   UNL A   1      39.980  29.779  30.494  1.00  0.00     0.074 A 
ATOM     15  C   UNL A   1      40.383  29.280  28.085  1.00  0.00     0.049 A 
ATOM     16  N   UNL A   1      40.966  30.378  31.080  1.00  0.00    -0.248 NA
ATOM     17  C   UNL A   1      39.078  29.077  31.424  1.00  0.00     0.031 C 
ATOM     18  C   UNL A   1      40.013  28.975  26.698  1.00  0.00     0.029 A 
ATOM     19  N   UNL A   1      41.647  28.776  28.177  1.00  0.00    -0.354 N 
ATOM     20  C   UNL A   1      40.928  29.971  32.414  1.00  0.00     0.074 A 
ATOM     21  C   UNL A   1      39.667  29.300  32.597  1.00  0.00     0.031 C 
ATOM     22  C   UNL A   1      40.920  28.123  26.171  1.00  0.00     0.029 A 
ATOM     23  C   UNL A   1      41.997  27.928  27.127  1.00  0.00     0.049 A 
ATOM     24  H   UNL A   1      42.258  28.991  28.918  1.00  0.00     0.167 HD
ATOM     25  C   UNL A   1      42.026  30.011  33.221  1.00  0.00     0.031 A 
ATOM     26  C   UNL A   1      43.046  27.067  27.082  1.00  0.00     0.031 A 
ATOM     27  C   UNL A   1      43.043  30.884  32.700  1.00  0.00     0.049 A 
ATOM     28  C   UNL A   1      44.016  27.497  28.118  1.00  0.00     0.074 A 
ATOM     29  C   UNL A   1      43.116  32.230  32.409  1.00  0.00     0.029 A 
ATOM     30  N   UNL A   1      44.106  30.300  32.055  1.00  0.00    -0.354 N 
ATOM     31  N   UNL A   1      44.668  28.624  28.066  1.00  0.00    -0.248 NA
ATOM     32  C   UNL A   1      43.920  26.889  29.435  1.00  0.00     0.031 C 
ATOM     33  C   UNL A   1      43.903  32.304  31.223  1.00  0.00     0.029 A 
ATOM     34  C   UNL A   1      44.317  31.010  30.903  1.00  0.00     0.049 A 
ATOM     35  H   UNL A   1      44.620  29.519  32.362  1.00  0.00     0.167 HD
ATOM     36  C   UNL A   1      44.687  29.082  29.376  1.00  0.00     0.074 A 
ATOM     37  C   UNL A   1      44.291  27.930  30.185  1.00  0.00     0.031 C 
ATOM     38  C   UNL A   1      44.755  30.417  29.658  1.00  0.00     0.031 A 
BRANCH  25  39
ATOM     39  C   UNL A   1      42.341  28.942  34.246  1.00  0.00    -0.014 A 
ATOM     40  C   UNL A   1      42.928  27.735  33.809  1.00  0.00     0.010 A 
ATOM     41  C   UNL A   1      41.803  28.951  35.550  1.00  0.00     0.010 A 
ATOM     42  C   UNL A   1      42.874  26.573  34.591  1.00  0.00     0.020 A 
ATOM     43  C   UNL A   1      41.785  27.811  36.356  1.00  0.00     0.020 A 
ATOM     44  C   UNL A   1      42.279  26.616  35.851  1.00  0.00     0.054 A 
BRANCH  44  45
ATOM     45  S   UNL A   1      42.071  25.082  36.788  1.00  0.00     0.124 S 
ATOM     46  O   UNL A   1      43.393  24.914  37.383  1.00  0.00    -0.237 OA
ATOM     47  O   UNL A   1      40.997  25.430  37.715  1.00  0.00    -0.237 OA
ATOM     48  O   UNL A   1      41.713  24.103  35.765  1.00  0.00    -0.744 OA
ENDBRANCH  44  45
ENDBRANCH  25  39
BRANCH  26  49
ATOM     49  C   UNL A   1      43.087  25.711  26.466  1.00  0.00    -0.014 A 
ATOM     50  C   UNL A   1      43.652  25.495  25.194  1.00  0.00     0.010 A 
ATOM     51  C   UNL A   1      42.816  24.576  27.258  1.00  0.00     0.010 A 
ATOM     52  C   UNL A   1      43.980  24.197  24.755  1.00  0.00     0.020 A 
ATOM     53  C   UNL A   1      43.133  23.283  26.826  1.00  0.00     0.020 A 
ATOM     54  C   UNL A   1      43.734  23.099  25.584  1.00  0.00     0.054 A 
BRANCH  54  55
ATOM     55  S   UNL A   1      44.311  21.446  25.090  1.00  0.00     0.124 S 
ATOM     56  O   UNL A   1      44.443  21.582  23.642  1.00  0.00    -0.237 OA
ATOM     57  O   UNL A   1      45.563  21.309  25.828  1.00  0.00    -0.237 OA
ATOM     58  O   UNL A   1      43.235  20.559  25.531  1.00  0.00    -0.744 OA
ENDBRANCH  54  55
ENDBRANCH  26  49
BRANCH  38  59
ATOM     59  C   UNL A   1      45.073  31.378  28.537  1.00  0.00    -0.014 A 
ATOM     60  C   UNL A   1      44.101  31.929  27.679  1.00  0.00     0.010 A 
ATOM     61  C   UNL A   1      46.388  31.869  28.463  1.00  0.00     0.010 A 
ATOM     62  C   UNL A   1      44.444  32.931  26.758  1.00  0.00     0.020 A 
ATOM     63  C   UNL A   1      46.732  32.879  27.562  1.00  0.00     0.020 A 
ATOM     64  C   UNL A   1      45.760  33.401  26.708  1.00  0.00     0.054 A 
BRANCH  64  65
ATOM     65  S   UNL A   1      46.189  34.736  25.555  1.00  0.00     0.124 S 
ATOM     66  O   UNL A   1      47.617  34.524  25.340  1.00  0.00    -0.237 OA
ATOM     67  O   UNL A   1      45.332  34.459  24.404  1.00  0.00    -0.237 OA
ATOM     68  O   UNL A   1      45.848  35.953  26.291  1.00  0.00    -0.744 OA
ENDBRANCH  64  65
ENDBRANCH  38  59
ENDBRANCH  12  13
ENDBRANCH   5   7
ENDBRANCH   2   3
ENDBRANCH   1   2
BRANCH   1  69
ATOM     69  C   UNL A   1      34.268  28.897  24.876  1.00  0.00     0.118 C 
BRANCH  69  70
ATOM     70  N   UNL A   1      34.302  28.859  23.413  1.00  0.00    -0.352 N 
ATOM     71  C   UNL A   1      33.751  27.951  22.530  1.00  0.00     0.251 C 
ATOM     72  H   UNL A   1      34.796  29.598  22.992  1.00  0.00     0.163 HD
ATOM     73  O   UNL A   1      33.983  28.044  21.328  1.00  0.00    -0.269 OA
BRANCH  71  74
ATOM     74  C   UNL A   1      32.897  26.847  23.030  1.00  0.00     0.041 A 
ATOM     75  C   UNL A   1      31.750  27.151  23.753  1.00  0.00     0.018 A 
ATOM     76  C   UNL A   1      33.280  25.504  22.832  1.00  0.00     0.036 A 
ATOM     77  C   UNL A   1      31.181  26.138  24.491  1.00  0.00    -0.043 A 
ATOM     78  C   UNL A   1      32.625  24.448  23.512  1.00  0.00     0.092 A 
ATOM     79  C   UNL A   1      31.661  24.810  24.444  1.00  0.00    -0.024 A 
ATOM     80  C   UNL A   1      30.114  26.314  25.530  1.00  0.00     0.036 C 
ATOM     81  C   UNL A   1      31.057  24.087  25.606  1.00  0.00     0.037 C 
ATOM     82  C   UNL A   1      29.741  24.857  25.772  1.00  0.00     0.010 C 
BRANCH  78  83
ATOM     83  S   UNL A   1      33.252  22.800  23.263  1.00  0.00     0.262 S 
ATOM     84  O   UNL A   1      32.233  22.075  22.519  1.00  0.00    -0.201 OA
ATOM     85  O   UNL A   1      34.579  22.924  22.704  1.00  0.00    -0.201 OA
BRANCH  83  86
ATOM     86  N   UNL A   1      33.439  21.849  24.674  1.00  0.00    -0.277 N 
ATOM     87  H   UNL A   1      33.020  22.170  25.505  1.00  0.00     0.180 HD
BRANCH  86  88
ATOM     88  C   UNL A   1      34.166  20.614  24.724  1.00  0.00     0.075 A 
ATOM     89  C   UNL A   1      33.474  19.424  24.429  1.00  0.00     0.042 A 
ATOM     90  C   UNL A   1      35.546  20.556  24.969  1.00  0.00     0.089 A 
ATOM     91  C   UNL A   1      34.159  18.199  24.283  1.00  0.00     0.058 A 
ATOM     92  C   UNL A   1      36.227  19.332  24.866  1.00  0.00     0.031 A 
ATOM     93  C   UNL A   1      35.539  18.164  24.527  1.00  0.00     0.015 A 
BRANCH  90  94
ATOM     94  N   UNL A   1      36.297  21.719  25.254  1.00  0.00    -0.239 N 
ATOM     95  C   UNL A   1      37.574  22.031  24.844  1.00  0.00     0.115 A 
ATOM     96  N   UNL A   1      35.815  22.654  26.111  1.00  0.00    -0.177 NA
ATOM     97  C   UNL A   1      38.002  23.066  25.637  1.00  0.00     0.042 A 
ATOM     98  C   UNL A   1      36.891  23.376  26.435  1.00  0.00     0.135 A 
ENDBRANCH  90  94
BRANCH  91  99
ATOM     99  C   UNL A   1      33.428  16.971  23.786  1.00  0.00     0.416 C 
ATOM    100  F   UNL A   1      32.689  17.226  22.673  1.00  0.00    -0.166 F 
ATOM    101  F   UNL A   1      34.281  15.964  23.453  1.00  0.00    -0.166 F 
ATOM    102  F   UNL A   1      32.566  16.448  24.701  1.00  0.00    -0.166 F 
ENDBRANCH  91  99
ENDBRANCH  86  88
ENDBRANCH  83  86
ENDBRANCH  78  83
ENDBRANCH  71  74
ENDBRANCH  69  70
ENDBRANCH   1  69
TORSDOF 18
ENDMDL
MODEL 3
REMARK VINA RESULT:     -13.9      1.791      2.512
REMARK SMILES O=C(NCCCNC(=O)c1cc2c(c(S(=O)(=O)Nc3cc(C(F)(F)F)ccc3-n3cccn3)c1)CCC2)c1ccc(-c2c3nc(c(-c4ccc(S(=O)(=O)[O-])cc4)c4ccc([nH]4)c(-c4ccc(S(=O)(=O)[O-])cc4)c4nc(c(-c5ccc(S(=O)(=O)[O-])cc5)c5ccc2[nH]5)C=C4)C=C3)cc1
REMARK SMILES IDX 5 1 4 2 3 3 1 4 2 5 38 7 39 8 97 9 40 10 96 11 41 12 42 13
REMARK SMILES IDX 43 14 90 15 44 16 95 17 89 18 91 19 45 20 94 21 88 22 87 23
REMARK SMILES IDX 46 25 76 26 57 27 75 28 58 29 61 30 74 31 92 32 59 33 60 34
REMARK SMILES IDX 73 36 93 37 62 38 47 39 48 40 56 41 49 42 55 43 50 44 51 45
REMARK SMILES IDX 52 46 53 47 54 48 77 49 78 50 86 51 79 52 85 53 80 54 81 55
REMARK SMILES IDX 82 56 83 57 84 58 63 59 64 60 72 61 65 62 71 63 66 64 67 65
REMARK SMILES IDX 68 66 69 67 70 68 6 69 7 70 8 71 9 73 10 74 11 75 34 76
REMARK SMILES IDX 12 77 14 78 13 79 37 80 35 81 36 82 15 83 16 84 17 85 18 86
REMARK SMILES IDX 19 88 20 89 28 90 21 91 27 92 26 93 29 94 30 95 33 96 31 97
REMARK SMILES IDX 32 98 22 99 23 100 24 101 25 102
REMARK H PARENT 3 6 91 24 61 35 7 72 18 87
REMARK Flexibility Score: inf
ROOT
ATOM      1  C   UNL A   1      36.248  20.983  25.022  1.00  0.00     0.042 C 
ENDROOT
BRANCH   1   2
ATOM      2  C   UNL A   1      37.327  22.047  25.178  1.00  0.00     0.118 C 
BRANCH   2   3
ATOM      3  N   UNL A   1      38.675  21.530  25.297  1.00  0.00    -0.352 N 
ATOM      4  O   UNL A   1      40.679  21.025  26.052  1.00  0.00    -0.269 OA
ATOM      5  C   UNL A   1      39.763  21.853  26.057  1.00  0.00     0.251 C 
ATOM      6  H   UNL A   1      38.845  20.772  24.693  1.00  0.00     0.163 HD
BRANCH   5   7
ATOM      7  C   UNL A   1      39.953  23.129  26.802  1.00  0.00     0.039 A 
ATOM      8  C   UNL A   1      39.188  24.288  26.659  1.00  0.00     0.014 A 
ATOM      9  C   UNL A   1      41.062  23.161  27.668  1.00  0.00     0.014 A 
ATOM     10  C   UNL A   1      39.582  25.476  27.275  1.00  0.00     0.010 A 
ATOM     11  C   UNL A   1      41.452  24.336  28.295  1.00  0.00     0.010 A 
ATOM     12  C   UNL A   1      40.736  25.506  28.059  1.00  0.00    -0.014 A 
BRANCH  12  13
ATOM     13  C   UNL A   1      41.094  26.745  28.748  1.00  0.00     0.031 A 
ATOM     14  C   UNL A   1      42.283  27.451  28.182  1.00  0.00     0.074 A 
ATOM     15  C   UNL A   1      40.298  27.307  29.683  1.00  0.00     0.049 A 
ATOM     16  N   UNL A   1      43.371  27.813  28.781  1.00  0.00    -0.248 NA
ATOM     17  C   UNL A   1      42.301  27.689  26.727  1.00  0.00     0.031 C 
ATOM     18  C   UNL A   1      38.964  26.863  30.104  1.00  0.00     0.029 A 
ATOM     19  N   UNL A   1      40.452  28.481  30.359  1.00  0.00    -0.354 N 
ATOM     20  C   UNL A   1      44.126  28.500  27.830  1.00  0.00     0.074 A 
ATOM     21  C   UNL A   1      43.492  28.261  26.559  1.00  0.00     0.031 C 
ATOM     22  C   UNL A   1      38.341  27.873  30.750  1.00  0.00     0.029 A 
ATOM     23  C   UNL A   1      39.270  28.979  30.905  1.00  0.00     0.049 A 
ATOM     24  H   UNL A   1      41.320  28.936  30.454  1.00  0.00     0.167 HD
ATOM     25  C   UNL A   1      45.087  29.404  28.174  1.00  0.00     0.031 A 
ATOM     26  C   UNL A   1      39.047  30.236  31.372  1.00  0.00     0.031 A 
ATOM     27  C   UNL A   1      45.511  29.242  29.538  1.00  0.00     0.049 A 
ATOM     28  C   UNL A   1      40.370  30.851  31.636  1.00  0.00     0.074 A 
ATOM     29  C   UNL A   1      46.102  28.227  30.261  1.00  0.00     0.029 A 
ATOM     30  N   UNL A   1      45.003  30.119  30.466  1.00  0.00    -0.354 N 
ATOM     31  N   UNL A   1      41.187  30.426  32.558  1.00  0.00    -0.248 NA
ATOM     32  C   UNL A   1      40.978  31.641  30.578  1.00  0.00     0.031 C 
ATOM     33  C   UNL A   1      45.489  28.289  31.546  1.00  0.00     0.029 A 
ATOM     34  C   UNL A   1      44.615  29.377  31.550  1.00  0.00     0.049 A 
ATOM     35  H   UNL A   1      44.932  31.096  30.370  1.00  0.00     0.167 HD
ATOM     36  C   UNL A   1      42.447  30.518  31.985  1.00  0.00     0.074 A 
ATOM     37  C   UNL A   1      42.263  31.355  30.800  1.00  0.00     0.031 C 
ATOM     38  C   UNL A   1      43.462  29.687  32.367  1.00  0.00     0.031 A 
BRANCH  25  39
ATOM     39  C   UNL A   1      45.327  30.689  27.411  1.00  0.00    -0.014 A 
ATOM     40  C   UNL A   1      46.653  31.152  27.262  1.00  0.00     0.010 A 
ATOM     41  C   UNL A   1      44.298  31.606  27.113  1.00  0.00     0.010 A 
ATOM     42  C   UNL A   1      46.927  32.490  26.946  1.00  0.00     0.020 A 
ATOM     43  C   UNL A   1      44.560  32.929  26.753  1.00  0.00     0.020 A 
ATOM     44  C   UNL A   1      45.874  33.375  26.718  1.00  0.00     0.054 A 
BRANCH  44  45
ATOM     45  S   UNL A   1      46.228  35.131  26.467  1.00  0.00     0.124 S 
ATOM     46  O   UNL A   1      45.215  35.503  25.484  1.00  0.00    -0.237 OA
ATOM     47  O   UNL A   1      46.043  35.678  27.809  1.00  0.00    -0.237 OA
ATOM     48  O   UNL A   1      47.606  35.136  25.982  1.00  0.00    -0.744 OA
ENDBRANCH  44  45
ENDBRANCH  25  39
BRANCH  26  49
ATOM     49  C   UNL A   1      37.802  31.044  31.253  1.00  0.00    -0.014 A 
ATOM     50  C   UNL A   1      36.647  30.734  31.998  1.00  0.00     0.010 A 
ATOM     51  C   UNL A   1      37.842  32.298  30.609  1.00  0.00     0.010 A 
ATOM     52  C   UNL A   1      35.597  31.664  32.133  1.00  0.00     0.020 A 
ATOM     53  C   UNL A   1      36.801  33.225  30.733  1.00  0.00     0.020 A 
ATOM     54  C   UNL A   1      35.690  32.913  31.513  1.00  0.00     0.054 A 
BRANCH  54  55
ATOM     55  S   UNL A   1      34.417  34.174  31.825  1.00  0.00     0.124 S 
ATOM     56  O   UNL A   1      33.879  34.412  30.488  1.00  0.00    -0.237 OA
ATOM     57  O   UNL A   1      33.518  33.499  32.756  1.00  0.00    -0.237 OA
ATOM     58  O   UNL A   1      35.169  35.291  32.395  1.00  0.00    -0.744 OA
ENDBRANCH  54  55
ENDBRANCH  26  49
BRANCH  38  59
ATOM     59  C   UNL A   1      43.276  28.841  33.605  1.00  0.00    -0.014 A 
ATOM     60  C   UNL A   1      43.488  29.314  34.916  1.00  0.00     0.010 A 
ATOM     61  C   UNL A   1      42.701  27.569  33.437  1.00  0.00     0.010 A 
ATOM     62  C   UNL A   1      43.151  28.524  36.025  1.00  0.00     0.020 A 
ATOM     63  C   UNL A   1      42.347  26.785  34.536  1.00  0.00     0.020 A 
ATOM     64  C   UNL A   1      42.579  27.263  35.826  1.00  0.00     0.054 A 
BRANCH  64  65
ATOM     65  S   UNL A   1      42.093  26.266  37.263  1.00  0.00     0.124 S 
ATOM     66  O   UNL A   1      40.775  26.802  37.592  1.00  0.00    -0.237 OA
ATOM     67  O   UNL A   1      42.102  24.904  36.732  1.00  0.00    -0.237 OA
ATOM     68  O   UNL A   1      43.137  26.543  38.249  1.00  0.00    -0.744 OA
ENDBRANCH  64  65
ENDBRANCH  38  59
ENDBRANCH  12  13
ENDBRANCH   5   7
ENDBRANCH   2   3
ENDBRANCH   1   2
BRANCH   1  69
ATOM     69  C   UNL A   1      35.134  21.029  26.062  1.00  0.00     0.118 C 
BRANCH  69  70
ATOM     70  N   UNL A   1      33.955  20.236  25.711  1.00  0.00    -0.352 N 
ATOM     71  C   UNL A   1      32.823  20.585  25.001  1.00  0.00     0.251 C 
ATOM     72  H   UNL A   1      33.972  19.307  26.033  1.00  0.00     0.163 HD
ATOM     73  O   UNL A   1      31.891  19.792  24.902  1.00  0.00    -0.269 OA
BRANCH  71  74
ATOM     74  C   UNL A   1      32.718  21.925  24.375  1.00  0.00     0.041 A 
ATOM     75  C   UNL A   1      32.564  22.020  22.997  1.00  0.00     0.018 A 
ATOM     76  C   UNL A   1      32.841  23.090  25.161  1.00  0.00     0.036 A 
ATOM     77  C   UNL A   1      32.821  23.240  22.415  1.00  0.00    -0.043 A 
ATOM     78  C   UNL A   1      32.999  24.364  24.562  1.00  0.00     0.092 A 
ATOM     79  C   UNL A   1      33.121  24.390  23.179  1.00  0.00    -0.024 A 
ATOM     80  C   UNL A   1      32.967  23.487  20.944  1.00  0.00     0.036 C 
ATOM     81  C   UNL A   1      33.679  25.407  22.233  1.00  0.00     0.037 C 
ATOM     82  C   UNL A   1      32.969  25.011  20.932  1.00  0.00     0.010 C 
BRANCH  78  83
ATOM     83  S   UNL A   1      33.242  25.754  25.646  1.00  0.00     0.262 S 
ATOM     84  O   UNL A   1      32.088  25.799  26.532  1.00  0.00    -0.201 OA
ATOM     85  O   UNL A   1      34.563  25.629  26.218  1.00  0.00    -0.201 OA
BRANCH  83  86
ATOM     86  N   UNL A   1      33.210  27.297  24.905  1.00  0.00    -0.277 N 
ATOM     87  H   UNL A   1      33.424  27.352  23.946  1.00  0.00     0.180 HD
BRANCH  86  88
ATOM     88  C   UNL A   1      32.891  28.515  25.591  1.00  0.00     0.075 A 
ATOM     89  C   UNL A   1      33.799  28.990  26.558  1.00  0.00     0.042 A 
ATOM     90  C   UNL A   1      31.764  29.289  25.279  1.00  0.00     0.089 A 
ATOM     91  C   UNL A   1      33.642  30.264  27.141  1.00  0.00     0.058 A 
ATOM     92  C   UNL A   1      31.580  30.542  25.887  1.00  0.00     0.031 A 
ATOM     93  C   UNL A   1      32.511  31.025  26.811  1.00  0.00     0.015 A 
BRANCH  90  94
ATOM     94  N   UNL A   1      30.827  28.873  24.305  1.00  0.00    -0.239 N 
ATOM     95  C   UNL A   1      30.153  29.645  23.386  1.00  0.00     0.115 A 
ATOM     96  N   UNL A   1      30.407  27.583  24.265  1.00  0.00    -0.177 NA
ATOM     97  C   UNL A   1      29.118  28.880  22.910  1.00  0.00     0.042 A 
ATOM     98  C   UNL A   1      29.295  27.632  23.526  1.00  0.00     0.135 A 
ENDBRANCH  90  94
BRANCH  91  99
ATOM     99  C   UNL A   1      34.722  30.832  28.036  1.00  0.00     0.416 C 
ATOM    100  F   UNL A   1      35.649  31.543  27.339  1.00  0.00    -0.166 F 
ATOM    101  F   UNL A   1      34.220  31.680  28.974  1.00  0.00    -0.166 F 
ATOM    102  F   UNL A   1      35.414  29.879  28.719  1.00  0.00    -0.166 F 
ENDBRANCH  91  99
ENDBRANCH  86  88
ENDBRANCH  83  86
ENDBRANCH  78  83
ENDBRANCH  71  74
ENDBRANCH  69  70
ENDBRANCH   1  69
TORSDOF 18
ENDMDL
