MODEL 1
REMARK VINA RESULT:      -7.8      0.000      0.000
REMARK SMILES CC(C)C[C@H](NC(=O)[C@@H](NC(=O)[C@H](C)NC(=O)CNC(=O)OCc1ccccc1)C(C)C)C(=O)NCCCNC(=O)c1ccc(-c2c3nc(c(-c4ccc(S(=O)(=O)[O-])cc4)c4ccc([nH]4)c(-c4ccc(S(=O)(=O)[O-])cc4)c4nc(c(-c5ccc(S(=O)(=O)[O-])cc5)c5ccc2[nH]5)C=C4)C=C3)cc1
REMARK SMILES IDX 6 1 7 2 8 3 5 5 4 6 2 7 1 8 3 9 33 10 34 11 35 12 36 14
REMARK SMILES IDX 37 15 38 16 39 17 40 18 41 20 42 21 43 22 101 23 44 24
REMARK SMILES IDX 100 25 45 26 46 27 47 28 94 29 48 30 99 31 93 32 95 33 49 34
REMARK SMILES IDX 98 35 92 36 91 37 50 39 80 40 61 41 79 42 62 43 65 44 78 45
REMARK SMILES IDX 96 46 63 47 64 48 77 50 97 51 66 52 51 53 52 54 60 55 53 56
REMARK SMILES IDX 59 57 54 58 55 59 56 60 57 61 58 62 81 63 82 64 90 65 83 66
REMARK SMILES IDX 89 67 84 68 85 69 86 70 87 71 88 72 67 73 68 74 76 75 69 76
REMARK SMILES IDX 75 77 70 78 71 79 72 80 73 81 74 82 9 83 10 84 11 85 12 87
REMARK SMILES IDX 13 88 14 89 15 90 16 91 17 93 18 94 19 95 20 96 21 98 22 99
REMARK SMILES IDX 23 100 24 101 25 102 29 103 26 104 28 105 27 106 30 107
REMARK SMILES IDX 31 108 32 109
REMARK H PARENT 6 4 35 13 39 19 95 38 65 49 10 86 15 92 19 97
REMARK Flexibility Score: inf
ROOT
ATOM      1  N   UNL A   1      43.579  27.701  26.223  1.00  0.00    -0.343 N 
ATOM      2  C   UNL A   1      44.642  27.084  25.527  1.00  0.00     0.243 C 
ATOM      3  O   UNL A   1      45.083  27.786  24.598  1.00  0.00    -0.273 OA
ATOM      4  H   UNL A   1      42.971  28.249  25.675  1.00  0.00     0.164 HD
ENDROOT
BRANCH   1   5
ATOM      5  C   UNL A   1      43.260  27.633  27.655  1.00  0.00     0.171 C 
BRANCH   5   6
ATOM      6  C   UNL A   1      44.063  27.509  29.035  1.00  0.00     0.038 C 
BRANCH   6   7
ATOM      7  C   UNL A   1      43.839  28.071  30.451  1.00  0.00    -0.015 C 
ATOM      8  C   UNL A   1      42.498  27.865  31.115  1.00  0.00     0.007 C 
ATOM      9  C   UNL A   1      44.974  27.587  31.396  1.00  0.00     0.007 C 
ENDBRANCH   6   7
ENDBRANCH   5   6
BRANCH   5  10
ATOM     10  C   UNL A   1      43.022  29.064  27.818  1.00  0.00     0.242 C 
ATOM     11  O   UNL A   1      43.997  29.803  27.759  1.00  0.00    -0.273 OA
ATOM     12  N   UNL A   1      41.705  29.490  27.839  1.00  0.00    -0.354 N 
ATOM     13  H   UNL A   1      41.609  30.469  27.826  1.00  0.00     0.163 HD
BRANCH  12  14
ATOM     14  C   UNL A   1      40.390  28.755  27.878  1.00  0.00     0.117 C 
BRANCH  14  15
ATOM     15  C   UNL A   1      39.226  28.782  28.966  1.00  0.00     0.042 C 
BRANCH  15  16
ATOM     16  C   UNL A   1      39.003  27.996  30.290  1.00  0.00     0.118 C 
BRANCH  16  17
ATOM     17  N   UNL A   1      37.871  28.355  31.127  1.00  0.00    -0.352 N 
ATOM     18  C   UNL A   1      37.540  29.538  31.751  1.00  0.00     0.251 C 
ATOM     19  H   UNL A   1      37.227  27.625  31.272  1.00  0.00     0.163 HD
ATOM     20  O   UNL A   1      36.414  29.671  32.227  1.00  0.00    -0.269 OA
BRANCH  18  21
ATOM     21  C   UNL A   1      38.550  30.579  32.007  1.00  0.00     0.039 A 
ATOM     22  C   UNL A   1      38.160  31.895  31.730  1.00  0.00     0.014 A 
ATOM     23  C   UNL A   1      39.821  30.315  32.516  1.00  0.00     0.014 A 
ATOM     24  C   UNL A   1      38.993  32.949  32.082  1.00  0.00     0.010 A 
ATOM     25  C   UNL A   1      40.633  31.368  32.917  1.00  0.00     0.010 A 
ATOM     26  C   UNL A   1      40.200  32.685  32.743  1.00  0.00    -0.014 A 
BRANCH  26  27
ATOM     27  C   UNL A   1      40.945  33.787  33.379  1.00  0.00     0.031 A 
ATOM     28  C   UNL A   1      40.762  34.084  34.831  1.00  0.00     0.074 A 
ATOM     29  C   UNL A   1      41.740  34.530  32.584  1.00  0.00     0.049 A 
ATOM     30  N   UNL A   1      41.372  34.974  35.563  1.00  0.00    -0.248 NA
ATOM     31  C   UNL A   1      39.743  33.302  35.550  1.00  0.00     0.031 C 
ATOM     32  C   UNL A   1      41.892  34.341  31.134  1.00  0.00     0.029 A 
ATOM     33  N   UNL A   1      42.577  35.572  32.867  1.00  0.00    -0.354 N 
ATOM     34  C   UNL A   1      40.812  34.861  36.830  1.00  0.00     0.074 A 
ATOM     35  C   UNL A   1      39.768  33.866  36.749  1.00  0.00     0.031 C 
ATOM     36  C   UNL A   1      42.820  35.192  30.672  1.00  0.00     0.029 A 
ATOM     37  C   UNL A   1      43.294  36.010  31.778  1.00  0.00     0.049 A 
ATOM     38  H   UNL A   1      42.660  35.970  33.764  1.00  0.00     0.167 HD
ATOM     39  C   UNL A   1      41.166  35.520  37.957  1.00  0.00     0.031 A 
ATOM     40  C   UNL A   1      44.243  36.959  31.695  1.00  0.00     0.031 A 
ATOM     41  C   UNL A   1      42.206  36.515  37.985  1.00  0.00     0.049 A 
ATOM     42  C   UNL A   1      44.633  37.656  32.967  1.00  0.00     0.074 A 
ATOM     43  C   UNL A   1      42.693  37.228  39.063  1.00  0.00     0.029 A 
ATOM     44  N   UNL A   1      42.918  36.935  36.867  1.00  0.00    -0.354 N 
ATOM     45  N   UNL A   1      44.153  37.483  34.178  1.00  0.00    -0.248 NA
ATOM     46  C   UNL A   1      45.702  38.652  32.872  1.00  0.00     0.031 C 
ATOM     47  C   UNL A   1      43.659  38.122  38.586  1.00  0.00     0.029 A 
ATOM     48  C   UNL A   1      43.826  37.915  37.224  1.00  0.00     0.049 A 
ATOM     49  H   UNL A   1      42.793  36.587  35.954  1.00  0.00     0.167 HD
ATOM     50  C   UNL A   1      44.878  38.336  34.997  1.00  0.00     0.074 A 
ATOM     51  C   UNL A   1      45.848  38.998  34.143  1.00  0.00     0.031 C 
ATOM     52  C   UNL A   1      44.759  38.559  36.331  1.00  0.00     0.031 A 
BRANCH  39  53
ATOM     53  C   UNL A   1      40.418  35.187  39.221  1.00  0.00    -0.014 A 
ATOM     54  C   UNL A   1      39.288  35.929  39.617  1.00  0.00     0.010 A 
ATOM     55  C   UNL A   1      40.840  34.113  40.024  1.00  0.00     0.010 A 
ATOM     56  C   UNL A   1      38.621  35.630  40.808  1.00  0.00     0.020 A 
ATOM     57  C   UNL A   1      40.157  33.789  41.202  1.00  0.00     0.020 A 
ATOM     58  C   UNL A   1      39.060  34.561  41.593  1.00  0.00     0.054 A 
BRANCH  58  59
ATOM     59  S   UNL A   1      38.153  34.172  43.115  1.00  0.00     0.124 S 
ATOM     60  O   UNL A   1      37.356  35.381  43.309  1.00  0.00    -0.237 OA
ATOM     61  O   UNL A   1      37.401  32.978  42.740  1.00  0.00    -0.237 OA
ATOM     62  O   UNL A   1      39.207  33.957  44.103  1.00  0.00    -0.744 OA
ENDBRANCH  58  59
ENDBRANCH  39  53
BRANCH  40  63
ATOM     63  C   UNL A   1      44.896  37.257  30.391  1.00  0.00    -0.014 A 
ATOM     64  C   UNL A   1      44.375  38.239  29.529  1.00  0.00     0.010 A 
ATOM     65  C   UNL A   1      46.073  36.581  30.016  1.00  0.00     0.010 A 
ATOM     66  C   UNL A   1      44.999  38.518  28.309  1.00  0.00     0.020 A 
ATOM     67  C   UNL A   1      46.718  36.880  28.812  1.00  0.00     0.020 A 
ATOM     68  C   UNL A   1      46.169  37.838  27.959  1.00  0.00     0.054 A 
BRANCH  68  69
ATOM     69  S   UNL A   1      46.983  38.241  26.388  1.00  0.00     0.124 S 
ATOM     70  O   UNL A   1      47.039  36.940  25.731  1.00  0.00    -0.237 OA
ATOM     71  O   UNL A   1      46.064  39.212  25.797  1.00  0.00    -0.237 OA
ATOM     72  O   UNL A   1      48.273  38.790  26.803  1.00  0.00    -0.744 OA
ENDBRANCH  68  69
ENDBRANCH  40  63
BRANCH  52  73
ATOM     73  C   UNL A   1      45.726  39.541  36.932  1.00  0.00    -0.014 A 
ATOM     74  C   UNL A   1      45.415  40.909  37.023  1.00  0.00     0.010 A 
ATOM     75  C   UNL A   1      46.959  39.077  37.424  1.00  0.00     0.010 A 
ATOM     76  C   UNL A   1      46.350  41.806  37.540  1.00  0.00     0.020 A 
ATOM     77  C   UNL A   1      47.878  39.967  37.979  1.00  0.00     0.020 A 
ATOM     78  C   UNL A   1      47.577  41.329  38.009  1.00  0.00     0.054 A 
BRANCH  78  79
ATOM     79  S   UNL A   1      48.772  42.515  38.678  1.00  0.00     0.124 S 
ATOM     80  O   UNL A   1      49.681  41.643  39.416  1.00  0.00    -0.237 OA
ATOM     81  O   UNL A   1      49.325  43.125  37.471  1.00  0.00    -0.237 OA
ATOM     82  O   UNL A   1      47.954  43.403  39.501  1.00  0.00    -0.744 OA
ENDBRANCH  78  79
ENDBRANCH  52  73
ENDBRANCH  26  27
ENDBRANCH  18  21
ENDBRANCH  16  17
ENDBRANCH  15  16
ENDBRANCH  14  15
ENDBRANCH  12  14
ENDBRANCH   5  10
ENDBRANCH   1   5
BRANCH   2  83
ATOM     83  C   UNL A   1      45.465  25.592  25.820  1.00  0.00     0.174 C 
BRANCH  83  84
ATOM     84  N   UNL A   1      44.804  24.585  24.909  1.00  0.00    -0.342 N 
ATOM     85  C   UNL A   1      44.655  23.230  24.796  1.00  0.00     0.242 C 
ATOM     86  H   UNL A   1      44.341  25.043  24.172  1.00  0.00     0.164 HD
ATOM     87  O   UNL A   1      44.003  22.856  23.809  1.00  0.00    -0.273 OA
BRANCH  85  88
ATOM     88  C   UNL A   1      45.017  22.154  25.882  1.00  0.00     0.168 C 
ATOM     89  C   UNL A   1      44.672  20.816  25.246  1.00  0.00     0.041 C 
BRANCH  88  90
ATOM     90  N   UNL A   1      44.424  22.370  27.203  1.00  0.00    -0.343 N 
ATOM     91  C   UNL A   1      43.194  22.548  27.742  1.00  0.00     0.240 C 
ATOM     92  H   UNL A   1      45.120  22.394  27.900  1.00  0.00     0.164 HD
ATOM     93  O   UNL A   1      43.106  22.632  28.973  1.00  0.00    -0.273 OA
BRANCH  91  94
ATOM     94  C   UNL A   1      41.965  22.720  26.882  1.00  0.00     0.219 C 
BRANCH  94  95
ATOM     95  N   UNL A   1      40.947  23.370  27.668  1.00  0.00    -0.312 N 
ATOM     96  C   UNL A   1      39.698  23.659  27.213  1.00  0.00     0.407 C 
ATOM     97  H   UNL A   1      41.170  23.623  28.593  1.00  0.00     0.167 HD
ATOM     98  O   UNL A   1      38.971  24.437  27.790  1.00  0.00    -0.225 OA
BRANCH  96  99
ATOM     99  O   UNL A   1      39.426  23.006  26.051  1.00  0.00    -0.445 OA
BRANCH  99 100
ATOM    100  C   UNL A   1      38.315  22.103  26.078  1.00  0.00     0.270 C 
BRANCH 100 101
ATOM    101  C   UNL A   1      37.096  22.596  25.373  1.00  0.00    -0.011 A 
ATOM    102  C   UNL A   1      37.003  22.356  23.997  1.00  0.00     0.007 A 
ATOM    103  C   UNL A   1      36.163  23.421  26.004  1.00  0.00     0.007 A 
ATOM    104  C   UNL A   1      36.030  23.003  23.249  1.00  0.00     0.000 A 
ATOM    105  C   UNL A   1      35.209  24.087  25.252  1.00  0.00     0.000 A 
ATOM    106  C   UNL A   1      35.151  23.886  23.874  1.00  0.00     0.000 A 
ENDBRANCH 100 101
ENDBRANCH  99 100
ENDBRANCH  96  99
ENDBRANCH  94  95
ENDBRANCH  91  94
ENDBRANCH  88  90
ENDBRANCH  85  88
ENDBRANCH  83  84
BRANCH  83 107
ATOM    107  C   UNL A   1      46.889  25.044  26.450  1.00  0.00     0.015 C 
ATOM    108  C   UNL A   1      48.412  25.115  26.117  1.00  0.00     0.010 C 
ATOM    109  C   UNL A   1      46.805  24.745  27.962  1.00  0.00     0.010 C 
ENDBRANCH  83 107
ENDBRANCH   2  83
TORSDOF 26
ENDMDL
MODEL 2
REMARK VINA RESULT:      -7.7      1.381      7.767
REMARK SMILES CC(C)C[C@H](NC(=O)[C@@H](NC(=O)[C@H](C)NC(=O)CNC(=O)OCc1ccccc1)C(C)C)C(=O)NCCCNC(=O)c1ccc(-c2c3nc(c(-c4ccc(S(=O)(=O)[O-])cc4)c4ccc([nH]4)c(-c4ccc(S(=O)(=O)[O-])cc4)c4nc(c(-c5ccc(S(=O)(=O)[O-])cc5)c5ccc2[nH]5)C=C4)C=C3)cc1
REMARK SMILES IDX 6 1 7 2 8 3 5 5 4 6 2 7 1 8 3 9 33 10 34 11 35 12 36 14
REMARK SMILES IDX 37 15 38 16 39 17 40 18 41 20 42 21 43 22 101 23 44 24
REMARK SMILES IDX 100 25 45 26 46 27 47 28 94 29 48 30 99 31 93 32 95 33 49 34
REMARK SMILES IDX 98 35 92 36 91 37 50 39 80 40 61 41 79 42 62 43 65 44 78 45
REMARK SMILES IDX 96 46 63 47 64 48 77 50 97 51 66 52 51 53 52 54 60 55 53 56
REMARK SMILES IDX 59 57 54 58 55 59 56 60 57 61 58 62 81 63 82 64 90 65 83 66
REMARK SMILES IDX 89 67 84 68 85 69 86 70 87 71 88 72 67 73 68 74 76 75 69 76
REMARK SMILES IDX 75 77 70 78 71 79 72 80 73 81 74 82 9 83 10 84 11 85 12 87
REMARK SMILES IDX 13 88 14 89 15 90 16 91 17 93 18 94 19 95 20 96 21 98 22 99
REMARK SMILES IDX 23 100 24 101 25 102 29 103 26 104 28 105 27 106 30 107
REMARK SMILES IDX 31 108 32 109
REMARK H PARENT 6 4 35 13 39 19 95 38 65 49 10 86 15 92 19 97
REMARK Flexibility Score: inf
ROOT
ATOM      1  N   UNL A   1      45.029  28.559  25.677  1.00  0.00    -0.343 N 
ATOM      2  C   UNL A   1      46.212  28.021  25.124  1.00  0.00     0.243 C 
ATOM      3  O   UNL A   1      46.672  28.716  24.199  1.00  0.00    -0.273 OA
ATOM      4  H   UNL A   1      44.428  29.012  25.042  1.00  0.00     0.164 HD
ENDROOT
BRANCH   1   5
ATOM      5  C   UNL A   1      44.577  28.533  27.074  1.00  0.00     0.171 C 
BRANCH   5   6
ATOM      6  C   UNL A   1      45.212  28.787  28.523  1.00  0.00     0.038 C 
BRANCH   6   7
ATOM      7  C   UNL A   1      46.376  29.652  29.037  1.00  0.00    -0.015 C 
ATOM      8  C   UNL A   1      46.480  29.932  30.519  1.00  0.00     0.007 C 
ATOM      9  C   UNL A   1      47.725  29.087  28.513  1.00  0.00     0.007 C 
ENDBRANCH   6   7
ENDBRANCH   5   6
BRANCH   5  10
ATOM     10  C   UNL A   1      43.916  29.834  27.037  1.00  0.00     0.242 C 
ATOM     11  O   UNL A   1      44.518  30.751  26.492  1.00  0.00    -0.273 OA
ATOM     12  N   UNL A   1      42.596  29.888  27.448  1.00  0.00    -0.354 N 
ATOM     13  H   UNL A   1      42.168  30.759  27.284  1.00  0.00     0.163 HD
BRANCH  12  14
ATOM     14  C   UNL A   1      41.681  28.880  28.096  1.00  0.00     0.117 C 
BRANCH  14  15
ATOM     15  C   UNL A   1      40.418  29.093  29.044  1.00  0.00     0.042 C 
BRANCH  15  16
ATOM     16  C   UNL A   1      39.858  28.287  30.250  1.00  0.00     0.118 C 
BRANCH  16  17
ATOM     17  N   UNL A   1      38.429  28.329  30.508  1.00  0.00    -0.352 N 
ATOM     18  C   UNL A   1      37.636  29.301  31.079  1.00  0.00     0.251 C 
ATOM     19  H   UNL A   1      37.942  27.522  30.226  1.00  0.00     0.163 HD
ATOM     20  O   UNL A   1      36.414  29.206  30.991  1.00  0.00    -0.269 OA
BRANCH  18  21
ATOM     21  C   UNL A   1      38.210  30.358  31.929  1.00  0.00     0.039 A 
ATOM     22  C   UNL A   1      39.219  29.957  32.812  1.00  0.00     0.014 A 
ATOM     23  C   UNL A   1      37.816  31.694  31.872  1.00  0.00     0.014 A 
ATOM     24  C   UNL A   1      39.917  30.912  33.541  1.00  0.00     0.010 A 
ATOM     25  C   UNL A   1      38.546  32.656  32.558  1.00  0.00     0.010 A 
ATOM     26  C   UNL A   1      39.627  32.270  33.357  1.00  0.00    -0.014 A 
BRANCH  26  27
ATOM     27  C   UNL A   1      40.541  33.295  33.889  1.00  0.00     0.031 A 
ATOM     28  C   UNL A   1      41.566  33.927  33.005  1.00  0.00     0.074 A 
ATOM     29  C   UNL A   1      40.444  33.584  35.202  1.00  0.00     0.049 A 
ATOM     30  N   UNL A   1      42.411  34.879  33.289  1.00  0.00    -0.248 NA
ATOM     31  C   UNL A   1      41.676  33.406  31.632  1.00  0.00     0.031 C 
ATOM     32  C   UNL A   1      39.517  32.933  36.139  1.00  0.00     0.029 A 
ATOM     33  N   UNL A   1      41.103  34.497  35.976  1.00  0.00    -0.354 N 
ATOM     34  C   UNL A   1      43.156  35.072  32.132  1.00  0.00     0.074 A 
ATOM     35  C   UNL A   1      42.709  34.094  31.166  1.00  0.00     0.031 C 
ATOM     36  C   UNL A   1      39.621  33.516  37.342  1.00  0.00     0.029 A 
ATOM     37  C   UNL A   1      40.646  34.548  37.272  1.00  0.00     0.049 A 
ATOM     38  H   UNL A   1      41.833  35.064  35.637  1.00  0.00     0.167 HD
ATOM     39  C   UNL A   1      44.109  36.004  31.902  1.00  0.00     0.031 A 
ATOM     40  C   UNL A   1      41.009  35.356  38.284  1.00  0.00     0.031 A 
ATOM     41  C   UNL A   1      44.530  36.951  32.902  1.00  0.00     0.049 A 
ATOM     42  C   UNL A   1      42.051  36.398  37.993  1.00  0.00     0.074 A 
ATOM     43  C   UNL A   1      45.452  37.973  32.792  1.00  0.00     0.029 A 
ATOM     44  N   UNL A   1      44.047  36.981  34.205  1.00  0.00    -0.354 N 
ATOM     45  N   UNL A   1      42.692  36.626  36.868  1.00  0.00    -0.248 NA
ATOM     46  C   UNL A   1      42.401  37.303  39.089  1.00  0.00     0.031 C 
ATOM     47  C   UNL A   1      45.570  38.584  34.046  1.00  0.00     0.029 A 
ATOM     48  C   UNL A   1      44.668  37.990  34.919  1.00  0.00     0.049 A 
ATOM     49  H   UNL A   1      43.363  36.373  34.568  1.00  0.00     0.167 HD
ATOM     50  C   UNL A   1      43.509  37.719  37.115  1.00  0.00     0.074 A 
ATOM     51  C   UNL A   1      43.254  38.120  38.487  1.00  0.00     0.031 C 
ATOM     52  C   UNL A   1      44.393  38.339  36.291  1.00  0.00     0.031 A 
BRANCH  39  53
ATOM     53  C   UNL A   1      44.747  36.027  30.539  1.00  0.00    -0.014 A 
ATOM     54  C   UNL A   1      45.894  35.259  30.258  1.00  0.00     0.010 A 
ATOM     55  C   UNL A   1      44.192  36.816  29.517  1.00  0.00     0.010 A 
ATOM     56  C   UNL A   1      46.495  35.312  28.997  1.00  0.00     0.020 A 
ATOM     57  C   UNL A   1      44.771  36.848  28.243  1.00  0.00     0.020 A 
ATOM     58  C   UNL A   1      45.929  36.105  27.997  1.00  0.00     0.054 A 
BRANCH  58  59
ATOM     59  S   UNL A   1      46.709  36.127  26.359  1.00  0.00     0.124 S 
ATOM     60  O   UNL A   1      45.862  35.201  25.609  1.00  0.00    -0.237 OA
ATOM     61  O   UNL A   1      46.598  37.531  25.974  1.00  0.00    -0.237 OA
ATOM     62  O   UNL A   1      48.068  35.658  26.615  1.00  0.00    -0.744 OA
ENDBRANCH  58  59
ENDBRANCH  39  53
BRANCH  40  63
ATOM     63  C   UNL A   1      40.358  35.230  39.617  1.00  0.00    -0.014 A 
ATOM     64  C   UNL A   1      40.922  34.429  40.625  1.00  0.00     0.010 A 
ATOM     65  C   UNL A   1      39.178  35.947  39.900  1.00  0.00     0.010 A 
ATOM     66  C   UNL A   1      40.307  34.323  41.877  1.00  0.00     0.020 A 
ATOM     67  C   UNL A   1      38.579  35.870  41.161  1.00  0.00     0.020 A 
ATOM     68  C   UNL A   1      39.140  35.046  42.137  1.00  0.00     0.054 A 
BRANCH  68  69
ATOM     69  S   UNL A   1      38.380  34.923  43.781  1.00  0.00     0.124 S 
ATOM     70  O   UNL A   1      36.978  35.203  43.489  1.00  0.00    -0.237 OA
ATOM     71  O   UNL A   1      38.686  33.548  44.167  1.00  0.00    -0.237 OA
ATOM     72  O   UNL A   1      39.075  35.949  44.557  1.00  0.00    -0.744 OA
ENDBRANCH  68  69
ENDBRANCH  40  63
BRANCH  52  73
ATOM     73  C   UNL A   1      45.116  39.527  36.862  1.00  0.00    -0.014 A 
ATOM     74  C   UNL A   1      44.581  40.823  36.766  1.00  0.00     0.010 A 
ATOM     75  C   UNL A   1      46.347  39.333  37.515  1.00  0.00     0.010 A 
ATOM     76  C   UNL A   1      45.296  41.914  37.260  1.00  0.00     0.020 A 
ATOM     77  C   UNL A   1      47.044  40.417  38.046  1.00  0.00     0.020 A 
ATOM     78  C   UNL A   1      46.525  41.704  37.892  1.00  0.00     0.054 A 
BRANCH  78  79
ATOM     79  S   UNL A   1      47.432  43.137  38.526  1.00  0.00     0.124 S 
ATOM     80  O   UNL A   1      46.633  43.509  39.691  1.00  0.00    -0.237 OA
ATOM     81  O   UNL A   1      48.749  42.578  38.818  1.00  0.00    -0.237 OA
ATOM     82  O   UNL A   1      47.396  44.088  37.417  1.00  0.00    -0.744 OA
ENDBRANCH  78  79
ENDBRANCH  52  73
ENDBRANCH  26  27
ENDBRANCH  18  21
ENDBRANCH  16  17
ENDBRANCH  15  16
ENDBRANCH  14  15
ENDBRANCH  12  14
ENDBRANCH   5  10
ENDBRANCH   1   5
BRANCH   2  83
ATOM     83  C   UNL A   1      47.145  26.640  25.586  1.00  0.00     0.174 C 
BRANCH  83  84
ATOM     84  N   UNL A   1      46.578  25.490  24.789  1.00  0.00    -0.342 N 
ATOM     85  C   UNL A   1      46.264  24.168  24.954  1.00  0.00     0.242 C 
ATOM     86  H   UNL A   1      46.373  25.778  23.871  1.00  0.00     0.164 HD
ATOM     87  O   UNL A   1      45.815  23.607  23.943  1.00  0.00    -0.273 OA
BRANCH  85  88
ATOM     88  C   UNL A   1      46.199  23.384  26.314  1.00  0.00     0.168 C 
ATOM     89  C   UNL A   1      45.381  22.138  26.014  1.00  0.00     0.041 C 
BRANCH  88  90
ATOM     90  N   UNL A   1      45.730  24.158  27.464  1.00  0.00    -0.343 N 
ATOM     91  C   UNL A   1      44.552  24.571  27.992  1.00  0.00     0.240 C 
ATOM     92  H   UNL A   1      46.487  24.469  28.010  1.00  0.00     0.164 HD
ATOM     93  O   UNL A   1      44.580  25.179  29.069  1.00  0.00    -0.273 OA
BRANCH  91  94
ATOM     94  C   UNL A   1      43.242  24.374  27.267  1.00  0.00     0.219 C 
BRANCH  94  95
ATOM     95  N   UNL A   1      42.175  24.821  28.127  1.00  0.00    -0.312 N 
ATOM     96  C   UNL A   1      40.855  24.753  27.806  1.00  0.00     0.407 C 
ATOM     97  H   UNL A   1      42.417  25.200  29.003  1.00  0.00     0.167 HD
ATOM     98  O   UNL A   1      40.015  25.376  28.417  1.00  0.00    -0.225 OA
BRANCH  96  99
ATOM     99  O   UNL A   1      40.644  23.954  26.725  1.00  0.00    -0.445 OA
BRANCH  99 100
ATOM    100  C   UNL A   1      39.881  22.766  26.956  1.00  0.00     0.270 C 
BRANCH 100 101
ATOM    101  C   UNL A   1      38.612  22.680  26.177  1.00  0.00    -0.011 A 
ATOM    102  C   UNL A   1      38.347  21.483  25.500  1.00  0.00     0.007 A 
ATOM    103  C   UNL A   1      37.798  23.796  25.969  1.00  0.00     0.007 A 
ATOM    104  C   UNL A   1      37.323  21.432  24.565  1.00  0.00     0.000 A 
ATOM    105  C   UNL A   1      36.794  23.751  25.015  1.00  0.00     0.000 A 
ATOM    106  C   UNL A   1      36.565  22.573  24.307  1.00  0.00     0.000 A 
ENDBRANCH 100 101
ENDBRANCH  99 100
ENDBRANCH  96  99
ENDBRANCH  94  95
ENDBRANCH  91  94
ENDBRANCH  88  90
ENDBRANCH  85  88
ENDBRANCH  83  84
BRANCH  83 107
ATOM    107  C   UNL A   1      48.599  26.280  26.281  1.00  0.00     0.015 C 
ATOM    108  C   UNL A   1      49.131  25.654  27.607  1.00  0.00     0.010 C 
ATOM    109  C   UNL A   1      49.732  26.099  25.249  1.00  0.00     0.010 C 
ENDBRANCH  83 107
ENDBRANCH   2  83
TORSDOF 26
ENDMDL
MODEL 3
REMARK VINA RESULT:      -7.7      6.742     13.730
REMARK SMILES CC(C)C[C@H](NC(=O)[C@@H](NC(=O)[C@H](C)NC(=O)CNC(=O)OCc1ccccc1)C(C)C)C(=O)NCCCNC(=O)c1ccc(-c2c3nc(c(-c4ccc(S(=O)(=O)[O-])cc4)c4ccc([nH]4)c(-c4ccc(S(=O)(=O)[O-])cc4)c4nc(c(-c5ccc(S(=O)(=O)[O-])cc5)c5ccc2[nH]5)C=C4)C=C3)cc1
REMARK SMILES IDX 6 1 7 2 8 3 5 5 4 6 2 7 1 8 3 9 33 10 34 11 35 12 36 14
REMARK SMILES IDX 37 15 38 16 39 17 40 18 41 20 42 21 43 22 101 23 44 24
REMARK SMILES IDX 100 25 45 26 46 27 47 28 94 29 48 30 99 31 93 32 95 33 49 34
REMARK SMILES IDX 98 35 92 36 91 37 50 39 80 40 61 41 79 42 62 43 65 44 78 45
REMARK SMILES IDX 96 46 63 47 64 48 77 50 97 51 66 52 51 53 52 54 60 55 53 56
REMARK SMILES IDX 59 57 54 58 55 59 56 60 57 61 58 62 81 63 82 64 90 65 83 66
REMARK SMILES IDX 89 67 84 68 85 69 86 70 87 71 88 72 67 73 68 74 76 75 69 76
REMARK SMILES IDX 75 77 70 78 71 79 72 80 73 81 74 82 9 83 10 84 11 85 12 87
REMARK SMILES IDX 13 88 14 89 15 90 16 91 17 93 18 94 19 95 20 96 21 98 22 99
REMARK SMILES IDX 23 100 24 101 25 102 29 103 26 104 28 105 27 106 30 107
REMARK SMILES IDX 31 108 32 109
REMARK H PARENT 6 4 35 13 39 19 95 38 65 49 10 86 15 92 19 97
REMARK Flexibility Score: inf
ROOT
ATOM      1  N   UNL A   1      43.595  28.551  28.558  1.00  0.00    -0.343 N 
ATOM      2  C   UNL A   1      43.337  27.388  29.318  1.00  0.00     0.243 C 
ATOM      3  O   UNL A   1      42.250  27.439  29.923  1.00  0.00    -0.273 OA
ATOM      4  H   UNL A   1      43.277  29.396  28.950  1.00  0.00     0.164 HD
ENDROOT
BRANCH   1   5
ATOM      5  C   UNL A   1      44.276  28.665  27.262  1.00  0.00     0.171 C 
BRANCH   5   6
ATOM      6  C   UNL A   1      44.620  27.708  26.024  1.00  0.00     0.038 C 
BRANCH   6   7
ATOM      7  C   UNL A   1      45.917  27.062  25.507  1.00  0.00    -0.015 C 
ATOM      8  C   UNL A   1      45.935  25.575  25.235  1.00  0.00     0.007 C 
ATOM      9  C   UNL A   1      46.429  27.832  24.258  1.00  0.00     0.007 C 
ENDBRANCH   6   7
ENDBRANCH   5   6
BRANCH   5  10
ATOM     10  C   UNL A   1      43.162  29.308  26.570  1.00  0.00     0.242 C 
ATOM     11  O   UNL A   1      42.181  28.616  26.326  1.00  0.00    -0.273 OA
ATOM     12  N   UNL A   1      43.221  30.682  26.412  1.00  0.00    -0.354 N 
ATOM     13  H   UNL A   1      42.392  31.072  26.053  1.00  0.00     0.163 HD
BRANCH  12  14
ATOM     14  C   UNL A   1      44.301  31.699  26.679  1.00  0.00     0.117 C 
BRANCH  14  15
ATOM     15  C   UNL A   1      44.365  33.251  26.324  1.00  0.00     0.042 C 
BRANCH  15  16
ATOM     16  C   UNL A   1      44.226  34.537  27.189  1.00  0.00     0.118 C 
BRANCH  16  17
ATOM     17  N   UNL A   1      43.011  34.724  27.962  1.00  0.00    -0.352 N 
ATOM     18  C   UNL A   1      42.723  34.462  29.284  1.00  0.00     0.251 C 
ATOM     19  H   UNL A   1      42.261  35.106  27.452  1.00  0.00     0.163 HD
ATOM     20  O   UNL A   1      41.689  34.911  29.774  1.00  0.00    -0.269 OA
BRANCH  18  21
ATOM     21  C   UNL A   1      43.538  33.524  30.075  1.00  0.00     0.039 A 
ATOM     22  C   UNL A   1      43.068  32.207  30.144  1.00  0.00     0.014 A 
ATOM     23  C   UNL A   1      44.726  33.880  30.712  1.00  0.00     0.014 A 
ATOM     24  C   UNL A   1      43.849  31.226  30.741  1.00  0.00     0.010 A 
ATOM     25  C   UNL A   1      45.534  32.893  31.263  1.00  0.00     0.010 A 
ATOM     26  C   UNL A   1      45.117  31.559  31.235  1.00  0.00    -0.014 A 
BRANCH  26  27
ATOM     27  C   UNL A   1      46.067  30.492  31.598  1.00  0.00     0.031 A 
ATOM     28  C   UNL A   1      46.922  29.854  30.553  1.00  0.00     0.074 A 
ATOM     29  C   UNL A   1      46.080  30.093  32.885  1.00  0.00     0.049 A 
ATOM     30  N   UNL A   1      47.846  28.945  30.700  1.00  0.00    -0.248 NA
ATOM     31  C   UNL A   1      46.694  30.268  29.159  1.00  0.00     0.031 C 
ATOM     32  C   UNL A   1      45.201  30.621  33.938  1.00  0.00     0.029 A 
ATOM     33  N   UNL A   1      46.857  29.177  33.537  1.00  0.00    -0.354 N 
ATOM     34  C   UNL A   1      48.311  28.676  29.419  1.00  0.00     0.074 A 
ATOM     35  C   UNL A   1      47.521  29.466  28.502  1.00  0.00     0.031 C 
ATOM     36  C   UNL A   1      45.537  30.069  35.113  1.00  0.00     0.029 A 
ATOM     37  C   UNL A   1      46.620  29.122  34.891  1.00  0.00     0.049 A 
ATOM     38  H   UNL A   1      47.523  28.612  33.081  1.00  0.00     0.167 HD
ATOM     39  C   UNL A   1      49.324  27.857  29.057  1.00  0.00     0.031 A 
ATOM     40  C   UNL A   1      47.229  28.395  35.844  1.00  0.00     0.031 A 
ATOM     41  C   UNL A   1      50.074  27.078  30.007  1.00  0.00     0.049 A 
ATOM     42  C   UNL A   1      48.368  27.514  35.417  1.00  0.00     0.074 A 
ATOM     43  C   UNL A   1      51.150  26.241  29.783  1.00  0.00     0.029 A 
ATOM     44  N   UNL A   1      49.814  27.046  31.372  1.00  0.00    -0.354 N 
ATOM     45  N   UNL A   1      48.854  27.329  34.210  1.00  0.00    -0.248 NA
ATOM     46  C   UNL A   1      49.054  26.766  36.472  1.00  0.00     0.031 C 
ATOM     47  C   UNL A   1      51.503  25.657  31.005  1.00  0.00     0.029 A 
ATOM     48  C   UNL A   1      50.695  26.185  32.003  1.00  0.00     0.049 A 
ATOM     49  H   UNL A   1      49.106  27.559  31.825  1.00  0.00     0.167 HD
ATOM     50  C   UNL A   1      49.921  26.457  34.362  1.00  0.00     0.074 A 
ATOM     51  C   UNL A   1      50.024  26.180  35.785  1.00  0.00     0.031 C 
ATOM     52  C   UNL A   1      50.744  25.928  33.422  1.00  0.00     0.031 A 
BRANCH  39  53
ATOM     53  C   UNL A   1      49.656  27.766  27.591  1.00  0.00    -0.014 A 
ATOM     54  C   UNL A   1      49.336  26.618  26.840  1.00  0.00     0.010 A 
ATOM     55  C   UNL A   1      50.289  28.844  26.947  1.00  0.00     0.010 A 
ATOM     56  C   UNL A   1      49.677  26.534  25.487  1.00  0.00     0.020 A 
ATOM     57  C   UNL A   1      50.604  28.778  25.585  1.00  0.00     0.020 A 
ATOM     58  C   UNL A   1      50.308  27.616  24.868  1.00  0.00     0.054 A 
BRANCH  58  59
ATOM     59  S   UNL A   1      50.707  27.493  23.102  1.00  0.00     0.124 S 
ATOM     60  O   UNL A   1      50.928  28.893  22.745  1.00  0.00    -0.237 OA
ATOM     61  O   UNL A   1      51.899  26.650  23.104  1.00  0.00    -0.237 OA
ATOM     62  O   UNL A   1      49.516  26.883  22.518  1.00  0.00    -0.744 OA
ENDBRANCH  58  59
ENDBRANCH  39  53
BRANCH  40  63
ATOM     63  C   UNL A   1      46.801  28.511  37.266  1.00  0.00    -0.014 A 
ATOM     64  C   UNL A   1      45.751  27.725  37.771  1.00  0.00     0.010 A 
ATOM     65  C   UNL A   1      47.472  29.390  38.138  1.00  0.00     0.010 A 
ATOM     66  C   UNL A   1      45.361  27.835  39.110  1.00  0.00     0.020 A 
ATOM     67  C   UNL A   1      47.106  29.479  39.486  1.00  0.00     0.020 A 
ATOM     68  C   UNL A   1      46.042  28.710  39.959  1.00  0.00     0.054 A 
BRANCH  68  69
ATOM     69  S   UNL A   1      45.544  28.810  41.702  1.00  0.00     0.124 S 
ATOM     70  O   UNL A   1      45.781  27.447  42.164  1.00  0.00    -0.237 OA
ATOM     71  O   UNL A   1      46.451  29.827  42.230  1.00  0.00    -0.237 OA
ATOM     72  O   UNL A   1      44.140  29.214  41.633  1.00  0.00    -0.744 OA
ENDBRANCH  68  69
ENDBRANCH  40  63
BRANCH  52  73
ATOM     73  C   UNL A   1      51.835  25.021  33.922  1.00  0.00    -0.014 A 
ATOM     74  C   UNL A   1      51.602  23.653  34.147  1.00  0.00     0.010 A 
ATOM     75  C   UNL A   1      53.116  25.552  34.157  1.00  0.00     0.010 A 
ATOM     76  C   UNL A   1      52.617  22.845  34.658  1.00  0.00     0.020 A 
ATOM     77  C   UNL A   1      54.144  24.737  34.629  1.00  0.00     0.020 A 
ATOM     78  C   UNL A   1      53.879  23.394  34.900  1.00  0.00     0.054 A 
BRANCH  78  79
ATOM     79  S   UNL A   1      55.180  22.322  35.563  1.00  0.00     0.124 S 
ATOM     80  O   UNL A   1      55.303  22.809  36.934  1.00  0.00    -0.237 OA
ATOM     81  O   UNL A   1      54.601  20.989  35.416  1.00  0.00    -0.237 OA
ATOM     82  O   UNL A   1      56.327  22.597  34.700  1.00  0.00    -0.744 OA
ENDBRANCH  78  79
ENDBRANCH  52  73
ENDBRANCH  26  27
ENDBRANCH  18  21
ENDBRANCH  16  17
ENDBRANCH  15  16
ENDBRANCH  14  15
ENDBRANCH  12  14
ENDBRANCH   5  10
ENDBRANCH   1   5
BRANCH   2  83
ATOM     83  C   UNL A   1      44.225  25.911  29.454  1.00  0.00     0.174 C 
BRANCH  83  84
ATOM     84  N   UNL A   1      45.282  26.174  30.499  1.00  0.00    -0.342 N 
ATOM     85  C   UNL A   1      45.429  26.138  31.859  1.00  0.00     0.242 C 
ATOM     86  H   UNL A   1      46.121  26.461  30.072  1.00  0.00     0.164 HD
ATOM     87  O   UNL A   1      46.547  26.480  32.274  1.00  0.00    -0.273 OA
BRANCH  85  88
ATOM     88  C   UNL A   1      44.429  25.503  32.891  1.00  0.00     0.168 C 
ATOM     89  C   UNL A   1      44.385  26.484  34.053  1.00  0.00     0.041 C 
BRANCH  88  90
ATOM     90  N   UNL A   1      44.714  24.120  33.274  1.00  0.00    -0.343 N 
ATOM     91  C   UNL A   1      45.594  23.447  34.054  1.00  0.00     0.240 C 
ATOM     92  H   UNL A   1      44.086  23.499  32.838  1.00  0.00     0.164 HD
ATOM     93  O   UNL A   1      45.450  22.224  34.171  1.00  0.00    -0.273 OA
BRANCH  91  94
ATOM     94  C   UNL A   1      46.767  24.137  34.708  1.00  0.00     0.219 C 
BRANCH  94  95
ATOM     95  N   UNL A   1      47.767  23.144  35.011  1.00  0.00    -0.312 N 
ATOM     96  C   UNL A   1      48.277  22.927  36.254  1.00  0.00     0.407 C 
ATOM     97  H   UNL A   1      48.103  22.588  34.272  1.00  0.00     0.167 HD
ATOM     98  O   UNL A   1      49.293  22.291  36.426  1.00  0.00    -0.225 OA
BRANCH  96  99
ATOM     99  O   UNL A   1      47.531  23.539  37.214  1.00  0.00    -0.445 OA
BRANCH  99 100
ATOM    100  C   UNL A   1      47.812  23.164  38.566  1.00  0.00     0.270 C 
BRANCH 100 101
ATOM    101  C   UNL A   1      48.607  24.166  39.336  1.00  0.00    -0.011 A 
ATOM    102  C   UNL A   1      49.799  23.729  39.927  1.00  0.00     0.007 A 
ATOM    103  C   UNL A   1      48.110  25.440  39.620  1.00  0.00     0.007 A 
ATOM    104  C   UNL A   1      50.443  24.535  40.855  1.00  0.00     0.000 A 
ATOM    105  C   UNL A   1      48.740  26.231  40.567  1.00  0.00     0.000 A 
ATOM    106  C   UNL A   1      49.898  25.773  41.191  1.00  0.00     0.000 A 
ENDBRANCH 100 101
ENDBRANCH  99 100
ENDBRANCH  96  99
ENDBRANCH  94  95
ENDBRANCH  91  94
ENDBRANCH  88  90
ENDBRANCH  85  88
ENDBRANCH  83  84
BRANCH  83 107
ATOM    107  C   UNL A   1      44.054  24.305  29.109  1.00  0.00     0.015 C 
ATOM    108  C   UNL A   1      43.804  22.971  29.878  1.00  0.00     0.010 C 
ATOM    109  C   UNL A   1      43.597  24.045  27.659  1.00  0.00     0.010 C 
ENDBRANCH  83 107
ENDBRANCH   2  83
TORSDOF 26
ENDMDL
