MODEL 1
REMARK VINA RESULT:     -11.3      0.000      0.000
REMARK SMILES CCCC[C@H]1C(=S)c2cc(C(=O)NCCCNC(=O)c3ccc(-c4c5nc(c(-c6ccc(S(=O)(=O)[O-])cc6)c6ccc([nH]6)c(-c6ccc(S(=O)(=O)[O-])cc6)c6nc(c(-c7ccc(S(=O)(=O)[O-])cc7)c7ccc4[nH]7)C=C6)C=C5)cc3)ccc2N=C1C
REMARK SMILES IDX 15 1 14 2 13 3 11 4 12 5 10 7 5 8 6 9 84 10 7 11 8 12 83 13
REMARK SMILES IDX 85 14 9 15 82 16 81 17 80 18 4 19 3 20 2 21 1 22 16 23 17 24
REMARK SMILES IDX 18 25 19 27 20 28 21 29 79 30 22 31 78 32 23 33 24 34 25 35
REMARK SMILES IDX 72 36 26 37 77 38 71 39 73 40 27 41 76 42 70 43 69 44 28 46
REMARK SMILES IDX 58 47 39 48 57 49 40 50 43 51 56 52 74 53 41 54 42 55 55 57
REMARK SMILES IDX 75 58 44 59 29 60 30 61 38 62 31 63 37 64 32 65 33 66 34 67
REMARK SMILES IDX 35 68 36 69 59 70 60 71 68 72 61 73 67 74 62 75 63 76 64 77
REMARK SMILES IDX 65 78 66 79 45 80 46 81 54 82 47 83 53 84 48 85 49 86 50 87
REMARK SMILES IDX 51 88 52 89
REMARK H PARENT 13 6 17 26 73 45 43 56
REMARK Flexibility Score: inf
ROOT
ATOM      1  C   UNL A   1      33.591  28.908  24.491  1.00  0.00     0.042 C 
ENDROOT
BRANCH   1   2
ATOM      2  C   UNL A   1      32.774  27.751  23.924  1.00  0.00     0.118 C 
BRANCH   2   3
ATOM      3  N   UNL A   1      31.860  27.220  24.917  1.00  0.00    -0.352 N 
ATOM      4  C   UNL A   1      31.826  26.062  25.644  1.00  0.00     0.251 C 
ATOM      5  O   UNL A   1      30.889  25.938  26.435  1.00  0.00    -0.269 OA
ATOM      6  H   UNL A   1      31.104  27.821  25.108  1.00  0.00     0.163 HD
BRANCH   4   7
ATOM      7  C   UNL A   1      32.856  24.981  25.575  1.00  0.00     0.040 A 
ATOM      8  C   UNL A   1      33.856  20.245  24.299  1.00  0.00     0.075 C 
ATOM      9  C   UNL A   1      33.040  21.503  24.001  1.00  0.00     0.033 C 
ATOM     10  C   UNL A   1      35.227  20.574  24.873  1.00  0.00     0.024 C 
ATOM     11  S   UNL A   1      31.924  21.504  22.731  1.00  0.00    -0.083 S 
ATOM     12  C   UNL A   1      33.357  22.710  24.803  1.00  0.00     0.016 A 
ATOM     13  N   UNL A   1      35.550  21.725  25.372  1.00  0.00    -0.257 NA
ATOM     14  C   UNL A   1      36.274  19.489  24.922  1.00  0.00     0.062 C 
ATOM     15  C   UNL A   1      32.469  23.792  24.931  1.00  0.00     0.025 A 
ATOM     16  C   UNL A   1      34.624  22.771  25.383  1.00  0.00     0.071 A 
ATOM     17  C   UNL A   1      35.023  23.965  25.984  1.00  0.00     0.030 A 
ATOM     18  C   UNL A   1      34.164  25.068  26.049  1.00  0.00     0.016 A 
BRANCH   8  19
ATOM     19  C   UNL A   1      33.124  19.287  25.264  1.00  0.00     0.015 C 
BRANCH  19  20
ATOM     20  C   UNL A   1      32.524  18.016  24.641  1.00  0.00     0.001 C 
BRANCH  20  21
ATOM     21  C   UNL A   1      32.916  17.708  23.192  1.00  0.00    -0.003 C 
ATOM     22  C   UNL A   1      34.124  16.798  23.062  1.00  0.00     0.004 C 
ENDBRANCH  20  21
ENDBRANCH  19  20
ENDBRANCH   8  19
ENDBRANCH   4   7
ENDBRANCH   2   3
ENDBRANCH   1   2
BRANCH   1  23
ATOM     23  C   UNL A   1      33.816  28.797  25.997  1.00  0.00     0.118 C 
BRANCH  23  24
ATOM     24  N   UNL A   1      33.629  30.073  26.675  1.00  0.00    -0.352 N 
ATOM     25  C   UNL A   1      34.383  30.668  27.660  1.00  0.00     0.251 C 
ATOM     26  H   UNL A   1      32.843  30.589  26.384  1.00  0.00     0.163 HD
ATOM     27  O   UNL A   1      33.940  31.638  28.260  1.00  0.00    -0.269 OA
BRANCH  25  28
ATOM     28  C   UNL A   1      35.715  30.121  28.002  1.00  0.00     0.039 A 
ATOM     29  C   UNL A   1      35.963  29.595  29.272  1.00  0.00     0.014 A 
ATOM     30  C   UNL A   1      36.724  30.125  27.035  1.00  0.00     0.014 A 
ATOM     31  C   UNL A   1      37.256  29.229  29.625  1.00  0.00     0.010 A 
ATOM     32  C   UNL A   1      38.005  29.671  27.366  1.00  0.00     0.010 A 
ATOM     33  C   UNL A   1      38.292  29.261  28.677  1.00  0.00    -0.014 A 
BRANCH  33  34
ATOM     34  C   UNL A   1      39.664  28.857  29.082  1.00  0.00     0.031 A 
ATOM     35  C   UNL A   1      40.495  29.744  29.968  1.00  0.00     0.074 A 
ATOM     36  C   UNL A   1      40.133  27.653  28.696  1.00  0.00     0.049 A 
ATOM     37  N   UNL A   1      41.696  29.534  30.443  1.00  0.00    -0.248 NA
ATOM     38  C   UNL A   1      39.909  31.032  30.377  1.00  0.00     0.031 C 
ATOM     39  C   UNL A   1      39.405  26.700  27.855  1.00  0.00     0.029 A 
ATOM     40  N   UNL A   1      41.311  27.010  28.981  1.00  0.00    -0.354 N 
ATOM     41  C   UNL A   1      42.014  30.662  31.192  1.00  0.00     0.074 A 
ATOM     42  C   UNL A   1      40.895  31.570  31.082  1.00  0.00     0.031 C 
ATOM     43  C   UNL A   1      40.120  25.572  27.749  1.00  0.00     0.029 A 
ATOM     44  C   UNL A   1      41.390  25.745  28.448  1.00  0.00     0.049 A 
ATOM     45  H   UNL A   1      42.030  27.415  29.519  1.00  0.00     0.167 HD
ATOM     46  C   UNL A   1      43.132  30.906  31.915  1.00  0.00     0.031 A 
ATOM     47  C   UNL A   1      42.374  24.824  28.502  1.00  0.00     0.031 A 
ATOM     48  C   UNL A   1      44.234  29.986  32.029  1.00  0.00     0.049 A 
ATOM     49  C   UNL A   1      43.624  25.139  29.270  1.00  0.00     0.074 A 
ATOM     50  C   UNL A   1      45.404  30.140  32.751  1.00  0.00     0.029 A 
ATOM     51  N   UNL A   1      44.302  28.743  31.416  1.00  0.00    -0.354 N 
ATOM     52  N   UNL A   1      43.904  26.212  29.972  1.00  0.00    -0.248 NA
ATOM     53  C   UNL A   1      44.691  24.130  29.256  1.00  0.00     0.031 C 
ATOM     54  C   UNL A   1      46.207  29.021  32.522  1.00  0.00     0.029 A 
ATOM     55  C   UNL A   1      45.507  28.134  31.719  1.00  0.00     0.049 A 
ATOM     56  H   UNL A   1      43.598  28.353  30.849  1.00  0.00     0.167 HD
ATOM     57  C   UNL A   1      45.177  26.005  30.489  1.00  0.00     0.074 A 
ATOM     58  C   UNL A   1      45.603  24.694  30.039  1.00  0.00     0.031 C 
ATOM     59  C   UNL A   1      45.923  26.831  31.261  1.00  0.00     0.031 A 
BRANCH  46  60
ATOM     60  C   UNL A   1      43.238  32.219  32.650  1.00  0.00    -0.014 A 
ATOM     61  C   UNL A   1      43.684  33.366  31.968  1.00  0.00     0.010 A 
ATOM     62  C   UNL A   1      43.016  32.293  34.037  1.00  0.00     0.010 A 
ATOM     63  C   UNL A   1      43.935  34.554  32.661  1.00  0.00     0.020 A 
ATOM     64  C   UNL A   1      43.238  33.487  34.730  1.00  0.00     0.020 A 
ATOM     65  C   UNL A   1      43.719  34.604  34.040  1.00  0.00     0.054 A 
BRANCH  65  66
ATOM     66  S   UNL A   1      44.074  36.146  34.928  1.00  0.00     0.124 S 
ATOM     67  O   UNL A   1      45.183  35.757  35.793  1.00  0.00    -0.237 OA
ATOM     68  O   UNL A   1      44.408  37.069  33.846  1.00  0.00    -0.237 OA
ATOM     69  O   UNL A   1      42.818  36.440  35.616  1.00  0.00    -0.744 OA
ENDBRANCH  65  66
ENDBRANCH  46  60
BRANCH  47  70
ATOM     70  C   UNL A   1      42.179  23.520  27.808  1.00  0.00    -0.014 A 
ATOM     71  C   UNL A   1      41.512  22.464  28.457  1.00  0.00     0.010 A 
ATOM     72  C   UNL A   1      42.751  23.291  26.545  1.00  0.00     0.010 A 
ATOM     73  C   UNL A   1      41.483  21.186  27.893  1.00  0.00     0.020 A 
ATOM     74  C   UNL A   1      42.694  22.021  25.960  1.00  0.00     0.020 A 
ATOM     75  C   UNL A   1      42.091  20.970  26.655  1.00  0.00     0.054 A 
BRANCH  75  76
ATOM     76  S   UNL A   1      42.103  19.288  25.974  1.00  0.00     0.124 S 
ATOM     77  O   UNL A   1      42.635  18.517  27.094  1.00  0.00    -0.237 OA
ATOM     78  O   UNL A   1      40.695  19.059  25.663  1.00  0.00    -0.237 OA
ATOM     79  O   UNL A   1      42.985  19.396  24.814  1.00  0.00    -0.744 OA
ENDBRANCH  75  76
ENDBRANCH  47  70
BRANCH  59  80
ATOM     80  C   UNL A   1      47.295  26.368  31.678  1.00  0.00    -0.014 A 
ATOM     81  C   UNL A   1      48.378  26.508  30.790  1.00  0.00     0.010 A 
ATOM     82  C   UNL A   1      47.480  25.663  32.880  1.00  0.00     0.010 A 
ATOM     83  C   UNL A   1      49.610  25.915  31.077  1.00  0.00     0.020 A 
ATOM     84  C   UNL A   1      48.719  25.094  33.184  1.00  0.00     0.020 A 
ATOM     85  C   UNL A   1      49.768  25.200  32.266  1.00  0.00     0.054 A 
BRANCH  85  86
ATOM     86  S   UNL A   1      51.358  24.393  32.597  1.00  0.00     0.124 S 
ATOM     87  O   UNL A   1      51.109  23.027  32.149  1.00  0.00    -0.237 OA
ATOM     88  O   UNL A   1      52.287  25.166  31.775  1.00  0.00    -0.237 OA
ATOM     89  O   UNL A   1      51.532  24.556  34.038  1.00  0.00    -0.744 OA
ENDBRANCH  85  86
ENDBRANCH  59  80
ENDBRANCH  33  34
ENDBRANCH  25  28
ENDBRANCH  23  24
ENDBRANCH   1  23
TORSDOF 16
ENDMDL
MODEL 2
REMARK VINA RESULT:     -11.1      1.037      1.937
REMARK SMILES CCCC[C@H]1C(=S)c2cc(C(=O)NCCCNC(=O)c3ccc(-c4c5nc(c(-c6ccc(S(=O)(=O)[O-])cc6)c6ccc([nH]6)c(-c6ccc(S(=O)(=O)[O-])cc6)c6nc(c(-c7ccc(S(=O)(=O)[O-])cc7)c7ccc4[nH]7)C=C6)C=C5)cc3)ccc2N=C1C
REMARK SMILES IDX 15 1 14 2 13 3 11 4 12 5 10 7 5 8 6 9 84 10 7 11 8 12 83 13
REMARK SMILES IDX 85 14 9 15 82 16 81 17 80 18 4 19 3 20 2 21 1 22 16 23 17 24
REMARK SMILES IDX 18 25 19 27 20 28 21 29 79 30 22 31 78 32 23 33 24 34 25 35
REMARK SMILES IDX 72 36 26 37 77 38 71 39 73 40 27 41 76 42 70 43 69 44 28 46
REMARK SMILES IDX 58 47 39 48 57 49 40 50 43 51 56 52 74 53 41 54 42 55 55 57
REMARK SMILES IDX 75 58 44 59 29 60 30 61 38 62 31 63 37 64 32 65 33 66 34 67
REMARK SMILES IDX 35 68 36 69 59 70 60 71 68 72 61 73 67 74 62 75 63 76 64 77
REMARK SMILES IDX 65 78 66 79 45 80 46 81 54 82 47 83 53 84 48 85 49 86 50 87
REMARK SMILES IDX 51 88 52 89
REMARK H PARENT 13 6 17 26 73 45 43 56
REMARK Flexibility Score: inf
ROOT
ATOM      1  C   UNL A   1      34.072  28.430  24.500  1.00  0.00     0.042 C 
ENDROOT
BRANCH   1   2
ATOM      2  C   UNL A   1      33.204  27.356  23.851  1.00  0.00     0.118 C 
BRANCH   2   3
ATOM      3  N   UNL A   1      31.946  27.202  24.556  1.00  0.00    -0.352 N 
ATOM      4  C   UNL A   1      31.183  26.120  24.899  1.00  0.00     0.251 C 
ATOM      5  O   UNL A   1      30.152  26.355  25.532  1.00  0.00    -0.269 OA
ATOM      6  H   UNL A   1      31.560  28.059  24.851  1.00  0.00     0.163 HD
BRANCH   4   7
ATOM      7  C   UNL A   1      31.536  24.699  24.602  1.00  0.00     0.040 A 
ATOM      8  C   UNL A   1      34.335  20.744  25.860  1.00  0.00     0.075 C 
ATOM      9  C   UNL A   1      33.598  21.992  26.345  1.00  0.00     0.033 C 
ATOM     10  C   UNL A   1      33.663  20.115  24.648  1.00  0.00     0.024 C 
ATOM     11  S   UNL A   1      33.616  22.402  27.984  1.00  0.00    -0.083 S 
ATOM     12  C   UNL A   1      32.806  22.735  25.332  1.00  0.00     0.016 A 
ATOM     13  N   UNL A   1      32.795  20.720  23.902  1.00  0.00    -0.257 NA
ATOM     14  C   UNL A   1      34.059  18.717  24.241  1.00  0.00     0.062 C 
ATOM     15  C   UNL A   1      32.409  24.071  25.509  1.00  0.00     0.025 A 
ATOM     16  C   UNL A   1      32.397  22.026  24.203  1.00  0.00     0.071 A 
ATOM     17  C   UNL A   1      31.499  22.634  23.325  1.00  0.00     0.030 A 
ATOM     18  C   UNL A   1      31.046  23.941  23.540  1.00  0.00     0.016 A 
BRANCH   8  19
ATOM     19  C   UNL A   1      35.814  21.032  25.521  1.00  0.00     0.015 C 
BRANCH  19  20
ATOM     20  C   UNL A   1      36.076  21.879  24.265  1.00  0.00     0.001 C 
BRANCH  20  21
ATOM     21  C   UNL A   1      36.545  23.320  24.491  1.00  0.00    -0.003 C 
ATOM     22  C   UNL A   1      37.449  23.489  25.700  1.00  0.00     0.004 C 
ENDBRANCH  20  21
ENDBRANCH  19  20
ENDBRANCH   8  19
ENDBRANCH   4   7
ENDBRANCH   2   3
ENDBRANCH   1   2
BRANCH   1  23
ATOM     23  C   UNL A   1      34.032  28.386  26.025  1.00  0.00     0.118 C 
BRANCH  23  24
ATOM     24  N   UNL A   1      33.570  29.645  26.598  1.00  0.00    -0.352 N 
ATOM     25  C   UNL A   1      34.142  30.435  27.568  1.00  0.00     0.251 C 
ATOM     26  H   UNL A   1      32.720  29.982  26.234  1.00  0.00     0.163 HD
ATOM     27  O   UNL A   1      33.492  31.339  28.074  1.00  0.00    -0.269 OA
BRANCH  25  28
ATOM     28  C   UNL A   1      35.530  30.174  28.008  1.00  0.00     0.039 A 
ATOM     29  C   UNL A   1      36.609  30.463  27.169  1.00  0.00     0.014 A 
ATOM     30  C   UNL A   1      35.756  29.645  29.282  1.00  0.00     0.014 A 
ATOM     31  C   UNL A   1      37.890  30.071  27.535  1.00  0.00     0.010 A 
ATOM     32  C   UNL A   1      37.058  29.334  29.684  1.00  0.00     0.010 A 
ATOM     33  C   UNL A   1      38.132  29.503  28.796  1.00  0.00    -0.014 A 
BRANCH  33  34
ATOM     34  C   UNL A   1      39.515  29.100  29.162  1.00  0.00     0.031 A 
ATOM     35  C   UNL A   1      40.376  29.996  30.011  1.00  0.00     0.074 A 
ATOM     36  C   UNL A   1      39.969  27.891  28.775  1.00  0.00     0.049 A 
ATOM     37  N   UNL A   1      41.591  29.789  30.449  1.00  0.00    -0.248 NA
ATOM     38  C   UNL A   1      39.805  31.289  30.423  1.00  0.00     0.031 C 
ATOM     39  C   UNL A   1      39.212  26.929  27.970  1.00  0.00     0.029 A 
ATOM     40  N   UNL A   1      41.155  27.248  29.030  1.00  0.00    -0.354 N 
ATOM     41  C   UNL A   1      41.935  30.924  31.174  1.00  0.00     0.074 A 
ATOM     42  C   UNL A   1      40.815  31.834  31.090  1.00  0.00     0.031 C 
ATOM     43  C   UNL A   1      39.922  25.799  27.853  1.00  0.00     0.029 A 
ATOM     44  C   UNL A   1      41.214  25.977  28.509  1.00  0.00     0.049 A 
ATOM     45  H   UNL A   1      41.891  27.658  29.539  1.00  0.00     0.167 HD
ATOM     46  C   UNL A   1      43.076  31.174  31.858  1.00  0.00     0.031 A 
ATOM     47  C   UNL A   1      42.197  25.055  28.542  1.00  0.00     0.031 A 
ATOM     48  C   UNL A   1      44.179  30.253  31.947  1.00  0.00     0.049 A 
ATOM     49  C   UNL A   1      43.472  25.376  29.266  1.00  0.00     0.074 A 
ATOM     50  C   UNL A   1      45.372  30.412  32.630  1.00  0.00     0.029 A 
ATOM     51  N   UNL A   1      44.225  29.003  31.347  1.00  0.00    -0.354 N 
ATOM     52  N   UNL A   1      43.776  26.456  29.946  1.00  0.00    -0.248 NA
ATOM     53  C   UNL A   1      44.536  24.365  29.229  1.00  0.00     0.031 C 
ATOM     54  C   UNL A   1      46.166  29.289  32.389  1.00  0.00     0.029 A 
ATOM     55  C   UNL A   1      45.438  28.395  31.619  1.00  0.00     0.049 A 
ATOM     56  H   UNL A   1      43.502  28.608  30.808  1.00  0.00     0.167 HD
ATOM     57  C   UNL A   1      45.065  26.252  30.425  1.00  0.00     0.074 A 
ATOM     58  C   UNL A   1      45.474  24.935  29.976  1.00  0.00     0.031 C 
ATOM     59  C   UNL A   1      45.837  27.085  31.162  1.00  0.00     0.031 A 
BRANCH  46  60
ATOM     60  C   UNL A   1      43.208  32.495  32.574  1.00  0.00    -0.014 A 
ATOM     61  C   UNL A   1      42.835  32.596  33.928  1.00  0.00     0.010 A 
ATOM     62  C   UNL A   1      43.583  33.660  31.882  1.00  0.00     0.010 A 
ATOM     63  C   UNL A   1      42.805  33.838  34.568  1.00  0.00     0.020 A 
ATOM     64  C   UNL A   1      43.581  34.902  32.526  1.00  0.00     0.020 A 
ATOM     65  C   UNL A   1      43.169  34.985  33.858  1.00  0.00     0.054 A 
BRANCH  65  66
ATOM     66  S   UNL A   1      43.101  36.593  34.697  1.00  0.00     0.124 S 
ATOM     67  O   UNL A   1      44.172  36.474  35.682  1.00  0.00    -0.237 OA
ATOM     68  O   UNL A   1      43.345  37.534  33.606  1.00  0.00    -0.237 OA
ATOM     69  O   UNL A   1      41.747  36.633  35.248  1.00  0.00    -0.744 OA
ENDBRANCH  65  66
ENDBRANCH  46  60
BRANCH  47  70
ATOM     70  C   UNL A   1      41.978  23.743  27.870  1.00  0.00    -0.014 A 
ATOM     71  C   UNL A   1      41.360  22.686  28.564  1.00  0.00     0.010 A 
ATOM     72  C   UNL A   1      42.481  23.510  26.579  1.00  0.00     0.010 A 
ATOM     73  C   UNL A   1      41.312  21.403  28.011  1.00  0.00     0.020 A 
ATOM     74  C   UNL A   1      42.404  22.235  26.007  1.00  0.00     0.020 A 
ATOM     75  C   UNL A   1      41.852  21.183  26.743  1.00  0.00     0.054 A 
BRANCH  75  76
ATOM     76  S   UNL A   1      41.845  19.496  26.075  1.00  0.00     0.124 S 
ATOM     77  O   UNL A   1      42.336  18.723  27.213  1.00  0.00    -0.237 OA
ATOM     78  O   UNL A   1      40.439  19.293  25.735  1.00  0.00    -0.237 OA
ATOM     79  O   UNL A   1      42.753  19.576  24.933  1.00  0.00    -0.744 OA
ENDBRANCH  75  76
ENDBRANCH  47  70
BRANCH  59  80
ATOM     80  C   UNL A   1      47.221  26.624  31.540  1.00  0.00    -0.014 A 
ATOM     81  C   UNL A   1      48.287  26.809  30.641  1.00  0.00     0.010 A 
ATOM     82  C   UNL A   1      47.433  25.880  32.714  1.00  0.00     0.010 A 
ATOM     83  C   UNL A   1      49.530  26.221  30.887  1.00  0.00     0.020 A 
ATOM     84  C   UNL A   1      48.684  25.315  32.977  1.00  0.00     0.020 A 
ATOM     85  C   UNL A   1      49.716  25.465  32.047  1.00  0.00     0.054 A 
BRANCH  85  86
ATOM     86  S   UNL A   1      51.321  24.667  32.323  1.00  0.00     0.124 S 
ATOM     87  O   UNL A   1      51.036  23.277  31.978  1.00  0.00    -0.237 OA
ATOM     88  O   UNL A   1      52.198  25.379  31.396  1.00  0.00    -0.237 OA
ATOM     89  O   UNL A   1      51.589  24.917  33.737  1.00  0.00    -0.744 OA
ENDBRANCH  85  86
ENDBRANCH  59  80
ENDBRANCH  33  34
ENDBRANCH  25  28
ENDBRANCH  23  24
ENDBRANCH   1  23
TORSDOF 16
ENDMDL
MODEL 3
REMARK VINA RESULT:     -11.0      4.257     10.316
REMARK SMILES CCCC[C@H]1C(=S)c2cc(C(=O)NCCCNC(=O)c3ccc(-c4c5nc(c(-c6ccc(S(=O)(=O)[O-])cc6)c6ccc([nH]6)c(-c6ccc(S(=O)(=O)[O-])cc6)c6nc(c(-c7ccc(S(=O)(=O)[O-])cc7)c7ccc4[nH]7)C=C6)C=C5)cc3)ccc2N=C1C
REMARK SMILES IDX 15 1 14 2 13 3 11 4 12 5 10 7 5 8 6 9 84 10 7 11 8 12 83 13
REMARK SMILES IDX 85 14 9 15 82 16 81 17 80 18 4 19 3 20 2 21 1 22 16 23 17 24
REMARK SMILES IDX 18 25 19 27 20 28 21 29 79 30 22 31 78 32 23 33 24 34 25 35
REMARK SMILES IDX 72 36 26 37 77 38 71 39 73 40 27 41 76 42 70 43 69 44 28 46
REMARK SMILES IDX 58 47 39 48 57 49 40 50 43 51 56 52 74 53 41 54 42 55 55 57
REMARK SMILES IDX 75 58 44 59 29 60 30 61 38 62 31 63 37 64 32 65 33 66 34 67
REMARK SMILES IDX 35 68 36 69 59 70 60 71 68 72 61 73 67 74 62 75 63 76 64 77
REMARK SMILES IDX 65 78 66 79 45 80 46 81 54 82 47 83 53 84 48 85 49 86 50 87
REMARK SMILES IDX 51 88 52 89
REMARK H PARENT 13 6 17 26 73 45 43 56
REMARK Flexibility Score: inf
ROOT
ATOM      1  C   UNL A   1      38.481  23.473  26.315  1.00  0.00     0.042 C 
ENDROOT
BRANCH   1   2
ATOM      2  C   UNL A   1      37.998  22.143  25.744  1.00  0.00     0.118 C 
BRANCH   2   3
ATOM      3  N   UNL A   1      37.534  22.298  24.379  1.00  0.00    -0.352 N 
ATOM      4  C   UNL A   1      36.436  22.889  23.818  1.00  0.00     0.251 C 
ATOM      5  O   UNL A   1      36.362  22.852  22.588  1.00  0.00    -0.269 OA
ATOM      6  H   UNL A   1      38.138  21.891  23.715  1.00  0.00     0.163 HD
BRANCH   4   7
ATOM      7  C   UNL A   1      35.368  23.602  24.582  1.00  0.00     0.040 A 
ATOM      8  C   UNL A   1      32.724  27.820  25.110  1.00  0.00     0.075 C 
ATOM      9  C   UNL A   1      33.445  26.878  24.147  1.00  0.00     0.033 C 
ATOM     10  C   UNL A   1      32.126  27.079  26.298  1.00  0.00     0.024 C 
ATOM     11  S   UNL A   1      33.499  27.236  22.496  1.00  0.00    -0.083 S 
ATOM     12  C   UNL A   1      33.985  25.621  24.722  1.00  0.00     0.016 A 
ATOM     13  N   UNL A   1      32.460  25.878  26.648  1.00  0.00    -0.257 NA
ATOM     14  C   UNL A   1      31.117  27.789  27.165  1.00  0.00     0.062 C 
ATOM     15  C   UNL A   1      34.983  24.862  24.087  1.00  0.00     0.025 A 
ATOM     16  C   UNL A   1      33.407  25.166  25.906  1.00  0.00     0.071 A 
ATOM     17  C   UNL A   1      33.757  23.899  26.374  1.00  0.00     0.030 A 
ATOM     18  C   UNL A   1      34.699  23.112  25.702  1.00  0.00     0.016 A 
BRANCH   8  19
ATOM     19  C   UNL A   1      33.646  28.943  25.632  1.00  0.00     0.015 C 
BRANCH  19  20
ATOM     20  C   UNL A   1      34.415  28.649  26.931  1.00  0.00     0.001 C 
BRANCH  20  21
ATOM     21  C   UNL A   1      35.354  29.748  27.439  1.00  0.00    -0.003 C 
ATOM     22  C   UNL A   1      34.644  31.035  27.822  1.00  0.00     0.004 C 
ENDBRANCH  20  21
ENDBRANCH  19  20
ENDBRANCH   8  19
ENDBRANCH   4   7
ENDBRANCH   2   3
ENDBRANCH   1   2
BRANCH   1  23
ATOM     23  C   UNL A   1      39.902  23.402  26.868  1.00  0.00     0.118 C 
BRANCH  23  24
ATOM     24  N   UNL A   1      40.869  24.031  25.976  1.00  0.00    -0.352 N 
ATOM     25  C   UNL A   1      41.458  25.272  26.047  1.00  0.00     0.251 C 
ATOM     26  H   UNL A   1      41.143  23.484  25.205  1.00  0.00     0.163 HD
ATOM     27  O   UNL A   1      42.075  25.706  25.084  1.00  0.00    -0.269 OA
BRANCH  25  28
ATOM     28  C   UNL A   1      41.327  26.082  27.278  1.00  0.00     0.039 A 
ATOM     29  C   UNL A   1      40.462  25.687  28.301  1.00  0.00     0.014 A 
ATOM     30  C   UNL A   1      42.088  27.246  27.415  1.00  0.00     0.014 A 
ATOM     31  C   UNL A   1      40.235  26.534  29.378  1.00  0.00     0.010 A 
ATOM     32  C   UNL A   1      41.923  28.055  28.544  1.00  0.00     0.010 A 
ATOM     33  C   UNL A   1      40.963  27.728  29.514  1.00  0.00    -0.014 A 
BRANCH  33  34
ATOM     34  C   UNL A   1      40.704  28.612  30.680  1.00  0.00     0.031 A 
ATOM     35  C   UNL A   1      41.593  28.563  31.892  1.00  0.00     0.074 A 
ATOM     36  C   UNL A   1      39.695  29.504  30.615  1.00  0.00     0.049 A 
ATOM     37  N   UNL A   1      41.532  29.283  32.983  1.00  0.00    -0.248 NA
ATOM     38  C   UNL A   1      42.695  27.585  31.884  1.00  0.00     0.031 C 
ATOM     39  C   UNL A   1      38.782  29.656  29.479  1.00  0.00     0.029 A 
ATOM     40  N   UNL A   1      39.286  30.471  31.499  1.00  0.00    -0.354 N 
ATOM     41  C   UNL A   1      42.571  28.839  33.794  1.00  0.00     0.074 A 
ATOM     42  C   UNL A   1      43.228  27.764  33.086  1.00  0.00     0.031 C 
ATOM     43  C   UNL A   1      37.968  30.696  29.706  1.00  0.00     0.029 A 
ATOM     44  C   UNL A   1      38.245  31.239  31.032  1.00  0.00     0.049 A 
ATOM     45  H   UNL A   1      39.701  30.603  32.383  1.00  0.00     0.167 HD
ATOM     46  C   UNL A   1      42.948  29.299  35.010  1.00  0.00     0.031 A 
ATOM     47  C   UNL A   1      37.577  32.260  31.603  1.00  0.00     0.031 A 
ATOM     48  C   UNL A   1      42.294  30.381  35.698  1.00  0.00     0.049 A 
ATOM     49  C   UNL A   1      37.983  32.720  32.973  1.00  0.00     0.074 A 
ATOM     50  C   UNL A   1      42.613  30.928  36.929  1.00  0.00     0.029 A 
ATOM     51  N   UNL A   1      41.199  31.087  35.219  1.00  0.00    -0.354 N 
ATOM     52  N   UNL A   1      38.969  32.286  33.722  1.00  0.00    -0.248 NA
ATOM     53  C   UNL A   1      37.192  33.798  33.580  1.00  0.00     0.031 C 
ATOM     54  C   UNL A   1      41.673  31.917  37.223  1.00  0.00     0.029 A 
ATOM     55  C   UNL A   1      40.813  32.042  36.143  1.00  0.00     0.049 A 
ATOM     56  H   UNL A   1      40.762  30.930  34.350  1.00  0.00     0.167 HD
ATOM     57  C   UNL A   1      38.922  33.044  34.886  1.00  0.00     0.074 A 
ATOM     58  C   UNL A   1      37.825  33.979  34.733  1.00  0.00     0.031 C 
ATOM     59  C   UNL A   1      39.714  32.964  35.982  1.00  0.00     0.031 A 
BRANCH  46  60
ATOM     60  C   UNL A   1      44.123  28.645  35.692  1.00  0.00    -0.014 A 
ATOM     61  C   UNL A   1      43.902  27.632  36.644  1.00  0.00     0.010 A 
ATOM     62  C   UNL A   1      45.433  29.112  35.484  1.00  0.00     0.010 A 
ATOM     63  C   UNL A   1      44.961  27.119  37.397  1.00  0.00     0.020 A 
ATOM     64  C   UNL A   1      46.501  28.581  36.215  1.00  0.00     0.020 A 
ATOM     65  C   UNL A   1      46.254  27.605  37.184  1.00  0.00     0.054 A 
BRANCH  65  66
ATOM     66  S   UNL A   1      47.614  26.946  38.188  1.00  0.00     0.124 S 
ATOM     67  O   UNL A   1      47.913  25.685  37.514  1.00  0.00    -0.237 OA
ATOM     68  O   UNL A   1      48.634  27.985  38.067  1.00  0.00    -0.237 OA
ATOM     69  O   UNL A   1      47.025  26.819  39.520  1.00  0.00    -0.744 OA
ENDBRANCH  65  66
ENDBRANCH  46  60
BRANCH  47  70
ATOM     70  C   UNL A   1      36.467  32.908  30.849  1.00  0.00    -0.014 A 
ATOM     71  C   UNL A   1      36.749  33.774  29.776  1.00  0.00     0.010 A 
ATOM     72  C   UNL A   1      35.134  32.749  31.265  1.00  0.00     0.010 A 
ATOM     73  C   UNL A   1      35.733  34.524  29.180  1.00  0.00     0.020 A 
ATOM     74  C   UNL A   1      34.108  33.474  30.647  1.00  0.00     0.020 A 
ATOM     75  C   UNL A   1      34.420  34.382  29.633  1.00  0.00     0.054 A 
BRANCH  75  76
ATOM     76  S   UNL A   1      33.127  35.419  28.895  1.00  0.00     0.124 S 
ATOM     77  O   UNL A   1      32.400  34.451  28.078  1.00  0.00    -0.237 OA
ATOM     78  O   UNL A   1      32.412  35.920  30.065  1.00  0.00    -0.237 OA
ATOM     79  O   UNL A   1      33.880  36.426  28.150  1.00  0.00    -0.744 OA
ENDBRANCH  75  76
ENDBRANCH  47  70
BRANCH  59  80
ATOM     80  C   UNL A   1      39.438  33.902  37.129  1.00  0.00    -0.014 A 
ATOM     81  C   UNL A   1      39.894  35.232  37.067  1.00  0.00     0.010 A 
ATOM     82  C   UNL A   1      38.862  33.428  38.321  1.00  0.00     0.010 A 
ATOM     83  C   UNL A   1      39.820  36.059  38.190  1.00  0.00     0.020 A 
ATOM     84  C   UNL A   1      38.760  34.262  39.437  1.00  0.00     0.020 A 
ATOM     85  C   UNL A   1      39.265  35.563  39.372  1.00  0.00     0.054 A 
BRANCH  85  86
ATOM     86  S   UNL A   1      39.224  36.635  40.835  1.00  0.00     0.124 S 
ATOM     87  O   UNL A   1      40.558  36.441  41.396  1.00  0.00    -0.237 OA
ATOM     88  O   UNL A   1      38.968  37.954  40.260  1.00  0.00    -0.237 OA
ATOM     89  O   UNL A   1      38.127  36.088  41.630  1.00  0.00    -0.744 OA
ENDBRANCH  85  86
ENDBRANCH  59  80
ENDBRANCH  33  34
ENDBRANCH  25  28
ENDBRANCH  23  24
ENDBRANCH   1  23
TORSDOF 16
ENDMDL
