MODEL 1
REMARK VINA RESULT:     -12.0      0.000      0.000
REMARK SMILES O=C(NCCCNC(=O)[C@@]1(Cc2cn3ccccc3n2)CCC[NH2+]C1)c1ccc(-c2c3nc(c(-c4ccc(S(=O)(=O)[O-])cc4)c4ccc([nH]4)c(-c4ccc(S(=O)(=O)[O-])cc4)c4nc(c(-c5ccc(S(=O)(=O)[O-])cc5)c5ccc2[nH]5)C=C4)C=C3)cc1
REMARK SMILES IDX 4 1 3 2 1 3 2 4 26 6 27 7 85 8 28 9 84 10 29 11 30 12 31 13
REMARK SMILES IDX 78 14 32 15 83 16 77 17 79 18 33 19 82 20 76 21 75 22 34 24
REMARK SMILES IDX 64 25 45 26 63 27 46 28 49 29 62 30 80 31 47 32 48 33 61 35
REMARK SMILES IDX 81 36 50 37 35 38 36 39 44 40 37 41 43 42 38 43 39 44 40 45
REMARK SMILES IDX 41 46 42 47 65 48 66 49 74 50 67 51 73 52 68 53 69 54 70 55
REMARK SMILES IDX 71 56 72 57 51 58 52 59 60 60 53 61 59 62 54 63 55 64 56 65
REMARK SMILES IDX 57 66 58 67 5 68 6 69 7 70 8 71 9 73 10 74 21 75 25 76 22 77
REMARK SMILES IDX 24 78 23 79 11 82 12 83 13 84 20 85 14 86 19 87 15 88 18 89
REMARK SMILES IDX 16 90 17 91
REMARK H PARENT 3 5 79 23 49 34 7 72 24 80 24 81
REMARK Flexibility Score: inf
ROOT
ATOM      1  C   UNL A   1      35.597  31.415  28.186  1.00  0.00     0.118 C 
ENDROOT
BRANCH   1   2
ATOM      2  N   UNL A   1      35.498  30.920  29.554  1.00  0.00    -0.352 N 
ATOM      3  O   UNL A   1      36.006  29.705  31.377  1.00  0.00    -0.269 OA
ATOM      4  C   UNL A   1      36.383  30.192  30.313  1.00  0.00     0.251 C 
ATOM      5  H   UNL A   1      34.655  31.144  30.011  1.00  0.00     0.163 HD
BRANCH   4   6
ATOM      6  C   UNL A   1      37.771  29.970  29.849  1.00  0.00     0.039 A 
ATOM      7  C   UNL A   1      38.081  29.976  28.491  1.00  0.00     0.014 A 
ATOM      8  C   UNL A   1      38.789  29.771  30.788  1.00  0.00     0.014 A 
ATOM      9  C   UNL A   1      39.341  29.581  28.065  1.00  0.00     0.010 A 
ATOM     10  C   UNL A   1      40.093  29.497  30.358  1.00  0.00     0.010 A 
ATOM     11  C   UNL A   1      40.371  29.349  28.991  1.00  0.00    -0.014 A 
BRANCH  11  12
ATOM     12  C   UNL A   1      41.725  28.992  28.487  1.00  0.00     0.031 A 
ATOM     13  C   UNL A   1      42.851  29.992  28.493  1.00  0.00     0.074 A 
ATOM     14  C   UNL A   1      41.950  27.726  28.077  1.00  0.00     0.049 A 
ATOM     15  N   UNL A   1      44.105  29.817  28.157  1.00  0.00    -0.248 NA
ATOM     16  C   UNL A   1      42.535  31.364  28.921  1.00  0.00     0.031 C 
ATOM     17  C   UNL A   1      40.937  26.667  28.016  1.00  0.00     0.029 A 
ATOM     18  N   UNL A   1      43.102  27.103  27.673  1.00  0.00    -0.354 N 
ATOM     19  C   UNL A   1      44.717  31.058  28.300  1.00  0.00     0.074 A 
ATOM     20  C   UNL A   1      43.693  31.982  28.734  1.00  0.00     0.031 C 
ATOM     21  C   UNL A   1      41.528  25.512  27.676  1.00  0.00     0.029 A 
ATOM     22  C   UNL A   1      42.941  25.760  27.425  1.00  0.00     0.049 A 
ATOM     23  H   UNL A   1      43.962  27.571  27.572  1.00  0.00     0.167 HD
ATOM     24  C   UNL A   1      46.014  31.395  28.091  1.00  0.00     0.031 A 
ATOM     25  C   UNL A   1      43.827  24.826  27.031  1.00  0.00     0.031 A 
ATOM     26  C   UNL A   1      47.033  30.469  27.673  1.00  0.00     0.049 A 
ATOM     27  C   UNL A   1      45.256  25.226  26.810  1.00  0.00     0.074 A 
ATOM     28  C   UNL A   1      48.382  30.708  27.468  1.00  0.00     0.029 A 
ATOM     29  N   UNL A   1      46.821  29.126  27.397  1.00  0.00    -0.354 N 
ATOM     30  N   UNL A   1      45.816  26.400  26.976  1.00  0.00    -0.248 NA
ATOM     31  C   UNL A   1      46.172  24.176  26.349  1.00  0.00     0.031 C 
ATOM     32  C   UNL A   1      48.975  29.521  27.024  1.00  0.00     0.029 A 
ATOM     33  C   UNL A   1      48.007  28.528  27.005  1.00  0.00     0.049 A 
ATOM     34  H   UNL A   1      45.953  28.666  27.468  1.00  0.00     0.167 HD
ATOM     35  C   UNL A   1      47.157  26.224  26.660  1.00  0.00     0.074 A 
ATOM     36  C   UNL A   1      47.325  24.828  26.312  1.00  0.00     0.031 C 
ATOM     37  C   UNL A   1      48.159  27.138  26.659  1.00  0.00     0.031 A 
BRANCH  24  38
ATOM     38  C   UNL A   1      46.398  32.840  28.281  1.00  0.00    -0.014 A 
ATOM     39  C   UNL A   1      46.293  33.773  27.234  1.00  0.00     0.010 A 
ATOM     40  C   UNL A   1      46.834  33.280  29.546  1.00  0.00     0.010 A 
ATOM     41  C   UNL A   1      46.657  35.109  27.436  1.00  0.00     0.020 A 
ATOM     42  C   UNL A   1      47.175  34.619  29.759  1.00  0.00     0.020 A 
ATOM     43  C   UNL A   1      47.102  35.521  28.696  1.00  0.00     0.054 A 
BRANCH  43  44
ATOM     44  S   UNL A   1      47.560  37.261  28.932  1.00  0.00     0.124 S 
ATOM     45  O   UNL A   1      48.110  37.606  27.624  1.00  0.00    -0.237 OA
ATOM     46  O   UNL A   1      46.283  37.888  29.260  1.00  0.00    -0.237 OA
ATOM     47  O   UNL A   1      48.529  37.220  30.025  1.00  0.00    -0.744 OA
ENDBRANCH  43  44
ENDBRANCH  24  38
BRANCH  25  48
ATOM     48  C   UNL A   1      43.379  23.422  26.827  1.00  0.00    -0.014 A 
ATOM     49  C   UNL A   1      43.194  22.911  25.530  1.00  0.00     0.010 A 
ATOM     50  C   UNL A   1      43.161  22.579  27.933  1.00  0.00     0.010 A 
ATOM     51  C   UNL A   1      42.788  21.587  25.344  1.00  0.00     0.020 A 
ATOM     52  C   UNL A   1      42.784  21.247  27.749  1.00  0.00     0.020 A 
ATOM     53  C   UNL A   1      42.587  20.763  26.455  1.00  0.00     0.054 A 
BRANCH  53  54
ATOM     54  S   UNL A   1      42.114  19.031  26.191  1.00  0.00     0.124 S 
ATOM     55  O   UNL A   1      43.066  18.612  25.168  1.00  0.00    -0.237 OA
ATOM     56  O   UNL A   1      42.305  18.445  27.515  1.00  0.00    -0.237 OA
ATOM     57  O   UNL A   1      40.722  19.122  25.753  1.00  0.00    -0.744 OA
ENDBRANCH  53  54
ENDBRANCH  25  48
BRANCH  37  58
ATOM     58  C   UNL A   1      49.535  26.642  26.307  1.00  0.00    -0.014 A 
ATOM     59  C   UNL A   1      50.351  26.012  27.262  1.00  0.00     0.010 A 
ATOM     60  C   UNL A   1      50.007  26.791  24.990  1.00  0.00     0.010 A 
ATOM     61  C   UNL A   1      51.634  25.579  26.918  1.00  0.00     0.020 A 
ATOM     62  C   UNL A   1      51.277  26.335  24.635  1.00  0.00     0.020 A 
ATOM     63  C   UNL A   1      52.091  25.748  25.607  1.00  0.00     0.054 A 
BRANCH  63  64
ATOM     64  S   UNL A   1      53.751  25.159  25.174  1.00  0.00     0.124 S 
ATOM     65  O   UNL A   1      54.563  25.731  26.245  1.00  0.00    -0.237 OA
ATOM     66  O   UNL A   1      53.597  23.707  25.209  1.00  0.00    -0.237 OA
ATOM     67  O   UNL A   1      53.982  25.724  23.847  1.00  0.00    -0.744 OA
ENDBRANCH  63  64
ENDBRANCH  37  58
ENDBRANCH  11  12
ENDBRANCH   4   6
ENDBRANCH   1   2
BRANCH   1  68
ATOM     68  C   UNL A   1      34.397  31.026  27.335  1.00  0.00     0.042 C 
BRANCH  68  69
ATOM     69  C   UNL A   1      34.225  29.523  27.198  1.00  0.00     0.117 C 
BRANCH  69  70
ATOM     70  N   UNL A   1      32.934  29.066  27.699  1.00  0.00    -0.355 N 
ATOM     71  C   UNL A   1      32.026  28.163  27.232  1.00  0.00     0.232 C 
ATOM     72  H   UNL A   1      32.665  29.497  28.543  1.00  0.00     0.163 HD
ATOM     73  O   UNL A   1      31.029  27.994  27.942  1.00  0.00    -0.274 OA
BRANCH  71  74
ATOM     74  C   UNL A   1      32.235  27.385  25.915  1.00  0.00     0.104 C 
ATOM     75  C   UNL A   1      33.498  26.481  26.077  1.00  0.00     0.029 C 
ATOM     76  C   UNL A   1      31.018  26.438  25.741  1.00  0.00     0.277 C 
ATOM     77  C   UNL A   1      33.605  25.389  25.016  1.00  0.00     0.063 C 
ATOM     78  N   UNL A   1      31.154  25.379  24.735  1.00  0.00    -0.345 N 
ATOM     79  C   UNL A   1      32.334  24.552  24.958  1.00  0.00     0.260 C 
ATOM     80  H   UNL A   1      30.326  24.785  24.770  1.00  0.00     0.346 HD
ATOM     81  H   UNL A   1      31.255  25.825  23.824  1.00  0.00     0.346 HD
BRANCH  74  82
ATOM     82  C   UNL A   1      32.508  28.465  24.829  1.00  0.00     0.080 C 
BRANCH  82  83
ATOM     83  C   UNL A   1      31.354  29.091  24.136  1.00  0.00     0.061 A 
ATOM     84  C   UNL A   1      30.703  28.704  22.983  1.00  0.00     0.116 A 
ATOM     85  N   UNL A   1      30.731  30.183  24.699  1.00  0.00    -0.234 NA
ATOM     86  N   UNL A   1      29.753  29.663  22.757  1.00  0.00    -0.307 N 
ATOM     87  C   UNL A   1      29.779  30.515  23.854  1.00  0.00     0.136 A 
ATOM     88  C   UNL A   1      28.900  29.830  21.670  1.00  0.00     0.093 A 
ATOM     89  C   UNL A   1      28.829  31.574  23.875  1.00  0.00     0.048 A 
ATOM     90  C   UNL A   1      28.031  30.856  21.675  1.00  0.00     0.018 A 
ATOM     91  C   UNL A   1      27.994  31.742  22.831  1.00  0.00     0.005 A 
ENDBRANCH  82  83
ENDBRANCH  74  82
ENDBRANCH  71  74
ENDBRANCH  69  70
ENDBRANCH  68  69
ENDBRANCH   1  68
TORSDOF 15
ENDMDL
MODEL 2
REMARK VINA RESULT:     -11.9      3.891      5.847
REMARK SMILES O=C(NCCCNC(=O)[C@@]1(Cc2cn3ccccc3n2)CCC[NH2+]C1)c1ccc(-c2c3nc(c(-c4ccc(S(=O)(=O)[O-])cc4)c4ccc([nH]4)c(-c4ccc(S(=O)(=O)[O-])cc4)c4nc(c(-c5ccc(S(=O)(=O)[O-])cc5)c5ccc2[nH]5)C=C4)C=C3)cc1
REMARK SMILES IDX 4 1 3 2 1 3 2 4 26 6 27 7 85 8 28 9 84 10 29 11 30 12 31 13
REMARK SMILES IDX 78 14 32 15 83 16 77 17 79 18 33 19 82 20 76 21 75 22 34 24
REMARK SMILES IDX 64 25 45 26 63 27 46 28 49 29 62 30 80 31 47 32 48 33 61 35
REMARK SMILES IDX 81 36 50 37 35 38 36 39 44 40 37 41 43 42 38 43 39 44 40 45
REMARK SMILES IDX 41 46 42 47 65 48 66 49 74 50 67 51 73 52 68 53 69 54 70 55
REMARK SMILES IDX 71 56 72 57 51 58 52 59 60 60 53 61 59 62 54 63 55 64 56 65
REMARK SMILES IDX 57 66 58 67 5 68 6 69 7 70 8 71 9 73 10 74 21 75 25 76 22 77
REMARK SMILES IDX 24 78 23 79 11 82 12 83 13 84 20 85 14 86 19 87 15 88 18 89
REMARK SMILES IDX 16 90 17 91
REMARK H PARENT 3 5 79 23 49 34 7 72 24 80 24 81
REMARK Flexibility Score: inf
ROOT
ATOM      1  C   UNL A   1      33.400  28.205  27.248  1.00  0.00     0.118 C 
ENDROOT
BRANCH   1   2
ATOM      2  N   UNL A   1      33.356  29.645  27.475  1.00  0.00    -0.352 N 
ATOM      3  O   UNL A   1      33.966  31.649  28.293  1.00  0.00    -0.269 OA
ATOM      4  C   UNL A   1      34.295  30.500  28.001  1.00  0.00     0.251 C 
ATOM      5  H   UNL A   1      32.513  30.077  27.208  1.00  0.00     0.163 HD
BRANCH   4   6
ATOM      6  C   UNL A   1      35.682  30.045  28.243  1.00  0.00     0.039 A 
ATOM      7  C   UNL A   1      36.066  29.554  29.488  1.00  0.00     0.014 A 
ATOM      8  C   UNL A   1      36.614  30.088  27.200  1.00  0.00     0.014 A 
ATOM      9  C   UNL A   1      37.407  29.309  29.754  1.00  0.00     0.010 A 
ATOM     10  C   UNL A   1      37.944  29.719  27.436  1.00  0.00     0.010 A 
ATOM     11  C   UNL A   1      38.364  29.374  28.729  1.00  0.00    -0.014 A 
BRANCH  11  12
ATOM     12  C   UNL A   1      39.780  29.039  29.045  1.00  0.00     0.031 A 
ATOM     13  C   UNL A   1      40.651  29.987  29.827  1.00  0.00     0.074 A 
ATOM     14  C   UNL A   1      40.260  27.835  28.671  1.00  0.00     0.049 A 
ATOM     15  N   UNL A   1      41.880  29.814  30.246  1.00  0.00    -0.248 NA
ATOM     16  C   UNL A   1      40.081  31.297  30.177  1.00  0.00     0.031 C 
ATOM     17  C   UNL A   1      39.515  26.833  27.901  1.00  0.00     0.029 A 
ATOM     18  N   UNL A   1      41.465  27.231  28.917  1.00  0.00    -0.354 N 
ATOM     19  C   UNL A   1      42.241  30.999  30.878  1.00  0.00     0.074 A 
ATOM     20  C   UNL A   1      41.108  31.892  30.770  1.00  0.00     0.031 C 
ATOM     21  C   UNL A   1      40.249  25.714  27.807  1.00  0.00     0.029 A 
ATOM     22  C   UNL A   1      41.540  25.943  28.443  1.00  0.00     0.049 A 
ATOM     23  H   UNL A   1      42.206  27.676  29.388  1.00  0.00     0.167 HD
ATOM     24  C   UNL A   1      43.408  31.314  31.493  1.00  0.00     0.031 A 
ATOM     25  C   UNL A   1      42.536  25.039  28.504  1.00  0.00     0.031 A 
ATOM     26  C   UNL A   1      44.527  30.417  31.611  1.00  0.00     0.049 A 
ATOM     27  C   UNL A   1      43.815  25.413  29.193  1.00  0.00     0.074 A 
ATOM     28  C   UNL A   1      45.739  30.632  32.247  1.00  0.00     0.029 A 
ATOM     29  N   UNL A   1      44.575  29.133  31.086  1.00  0.00    -0.354 N 
ATOM     30  N   UNL A   1      44.123  26.532  29.805  1.00  0.00    -0.248 NA
ATOM     31  C   UNL A   1      44.880  24.404  29.201  1.00  0.00     0.031 C 
ATOM     32  C   UNL A   1      46.536  29.496  32.065  1.00  0.00     0.029 A 
ATOM     33  C   UNL A   1      45.801  28.552  31.365  1.00  0.00     0.049 A 
ATOM     34  H   UNL A   1      43.846  28.701  30.587  1.00  0.00     0.167 HD
ATOM     35  C   UNL A   1      45.413  26.351  30.290  1.00  0.00     0.074 A 
ATOM     36  C   UNL A   1      45.817  25.011  29.916  1.00  0.00     0.031 C 
ATOM     37  C   UNL A   1      46.191  27.218  30.984  1.00  0.00     0.031 A 
BRANCH  24  38
ATOM     38  C   UNL A   1      43.544  32.703  32.061  1.00  0.00    -0.014 A 
ATOM     39  C   UNL A   1      44.002  33.777  31.276  1.00  0.00     0.010 A 
ATOM     40  C   UNL A   1      43.167  32.946  33.395  1.00  0.00     0.010 A 
ATOM     41  C   UNL A   1      44.121  35.057  31.827  1.00  0.00     0.020 A 
ATOM     42  C   UNL A   1      43.260  34.229  33.943  1.00  0.00     0.020 A 
ATOM     43  C   UNL A   1      43.755  35.273  33.159  1.00  0.00     0.054 A 
BRANCH  43  44
ATOM     44  S   UNL A   1      43.911  36.946  33.846  1.00  0.00     0.124 S 
ATOM     45  O   UNL A   1      42.533  37.243  34.227  1.00  0.00    -0.237 OA
ATOM     46  O   UNL A   1      44.841  36.752  34.955  1.00  0.00    -0.237 OA
ATOM     47  O   UNL A   1      44.433  37.731  32.729  1.00  0.00    -0.744 OA
ENDBRANCH  43  44
ENDBRANCH  24  38
BRANCH  25  48
ATOM     48  C   UNL A   1      42.353  23.695  27.894  1.00  0.00    -0.014 A 
ATOM     49  C   UNL A   1      42.878  23.409  26.622  1.00  0.00     0.010 A 
ATOM     50  C   UNL A   1      41.674  22.684  28.598  1.00  0.00     0.010 A 
ATOM     51  C   UNL A   1      42.716  22.139  26.060  1.00  0.00     0.020 A 
ATOM     52  C   UNL A   1      41.537  21.405  28.053  1.00  0.00     0.020 A 
ATOM     53  C   UNL A   1      42.048  21.145  26.780  1.00  0.00     0.054 A 
BRANCH  53  54
ATOM     54  S   UNL A   1      41.898  19.487  26.057  1.00  0.00     0.124 S 
ATOM     55  O   UNL A   1      40.464  19.399  25.803  1.00  0.00    -0.237 OA
ATOM     56  O   UNL A   1      42.748  19.581  24.873  1.00  0.00    -0.237 OA
ATOM     57  O   UNL A   1      42.404  18.610  27.110  1.00  0.00    -0.744 OA
ENDBRANCH  53  54
ENDBRANCH  25  48
BRANCH  37  58
ATOM     58  C   UNL A   1      47.544  26.725  31.417  1.00  0.00    -0.014 A 
ATOM     59  C   UNL A   1      47.717  26.035  32.629  1.00  0.00     0.010 A 
ATOM     60  C   UNL A   1      48.656  26.939  30.582  1.00  0.00     0.010 A 
ATOM     61  C   UNL A   1      48.987  25.605  33.020  1.00  0.00     0.020 A 
ATOM     62  C   UNL A   1      49.922  26.486  30.957  1.00  0.00     0.020 A 
ATOM     63  C   UNL A   1      50.084  25.838  32.183  1.00  0.00     0.054 A 
BRANCH  63  64
ATOM     64  S   UNL A   1      51.721  25.253  32.699  1.00  0.00     0.124 S 
ATOM     65  O   UNL A   1      52.042  26.174  33.787  1.00  0.00    -0.237 OA
ATOM     66  O   UNL A   1      51.458  23.873  33.100  1.00  0.00    -0.237 OA
ATOM     67  O   UNL A   1      52.535  25.402  31.496  1.00  0.00    -0.744 OA
ENDBRANCH  63  64
ENDBRANCH  37  58
ENDBRANCH  11  12
ENDBRANCH   4   6
ENDBRANCH   1   2
BRANCH   1  68
ATOM     68  C   UNL A   1      32.047  27.635  26.850  1.00  0.00     0.042 C 
BRANCH  68  69
ATOM     69  C   UNL A   1      32.154  26.351  26.044  1.00  0.00     0.117 C 
BRANCH  69  70
ATOM     70  N   UNL A   1      31.657  25.194  26.779  1.00  0.00    -0.355 N 
ATOM     71  C   UNL A   1      32.091  23.906  26.883  1.00  0.00     0.232 C 
ATOM     72  H   UNL A   1      30.845  25.381  27.305  1.00  0.00     0.163 HD
ATOM     73  O   UNL A   1      31.434  23.181  27.637  1.00  0.00    -0.274 OA
BRANCH  71  74
ATOM     74  C   UNL A   1      33.334  23.388  26.127  1.00  0.00     0.104 C 
ATOM     75  C   UNL A   1      34.141  24.623  25.612  1.00  0.00     0.029 C 
ATOM     76  C   UNL A   1      34.231  22.658  27.161  1.00  0.00     0.277 C 
ATOM     77  C   UNL A   1      35.568  24.283  25.187  1.00  0.00     0.063 C 
ATOM     78  N   UNL A   1      35.606  22.367  26.741  1.00  0.00    -0.345 N 
ATOM     79  C   UNL A   1      36.316  23.562  26.300  1.00  0.00     0.260 C 
ATOM     80  H   UNL A   1      36.110  21.957  27.527  1.00  0.00     0.346 HD
ATOM     81  H   UNL A   1      35.561  21.723  25.951  1.00  0.00     0.346 HD
BRANCH  74  82
ATOM     82  C   UNL A   1      32.783  22.589  24.912  1.00  0.00     0.080 C 
BRANCH  82  83
ATOM     83  C   UNL A   1      32.990  21.120  24.869  1.00  0.00     0.061 A 
ATOM     84  C   UNL A   1      32.080  20.096  25.033  1.00  0.00     0.116 A 
ATOM     85  N   UNL A   1      34.232  20.616  24.552  1.00  0.00    -0.234 NA
ATOM     86  N   UNL A   1      32.809  18.940  24.957  1.00  0.00    -0.307 N 
ATOM     87  C   UNL A   1      34.104  19.308  24.616  1.00  0.00     0.136 A 
ATOM     88  C   UNL A   1      32.413  17.624  25.174  1.00  0.00     0.093 A 
ATOM     89  C   UNL A   1      35.047  18.260  24.423  1.00  0.00     0.048 A 
ATOM     90  C   UNL A   1      33.315  16.638  25.030  1.00  0.00     0.018 A 
ATOM     91  C   UNL A   1      34.673  16.981  24.624  1.00  0.00     0.005 A 
ENDBRANCH  82  83
ENDBRANCH  74  82
ENDBRANCH  71  74
ENDBRANCH  69  70
ENDBRANCH  68  69
ENDBRANCH   1  68
TORSDOF 15
ENDMDL
MODEL 3
REMARK VINA RESULT:     -11.8      6.900     12.654
REMARK SMILES O=C(NCCCNC(=O)[C@@]1(Cc2cn3ccccc3n2)CCC[NH2+]C1)c1ccc(-c2c3nc(c(-c4ccc(S(=O)(=O)[O-])cc4)c4ccc([nH]4)c(-c4ccc(S(=O)(=O)[O-])cc4)c4nc(c(-c5ccc(S(=O)(=O)[O-])cc5)c5ccc2[nH]5)C=C4)C=C3)cc1
REMARK SMILES IDX 4 1 3 2 1 3 2 4 26 6 27 7 85 8 28 9 84 10 29 11 30 12 31 13
REMARK SMILES IDX 78 14 32 15 83 16 77 17 79 18 33 19 82 20 76 21 75 22 34 24
REMARK SMILES IDX 64 25 45 26 63 27 46 28 49 29 62 30 80 31 47 32 48 33 61 35
REMARK SMILES IDX 81 36 50 37 35 38 36 39 44 40 37 41 43 42 38 43 39 44 40 45
REMARK SMILES IDX 41 46 42 47 65 48 66 49 74 50 67 51 73 52 68 53 69 54 70 55
REMARK SMILES IDX 71 56 72 57 51 58 52 59 60 60 53 61 59 62 54 63 55 64 56 65
REMARK SMILES IDX 57 66 58 67 5 68 6 69 7 70 8 71 9 73 10 74 21 75 25 76 22 77
REMARK SMILES IDX 24 78 23 79 11 82 12 83 13 84 20 85 14 86 19 87 15 88 18 89
REMARK SMILES IDX 16 90 17 91
REMARK H PARENT 3 5 79 23 49 34 7 72 24 80 24 81
REMARK Flexibility Score: inf
ROOT
ATOM      1  C   UNL A   1      38.579  24.091  26.535  1.00  0.00     0.118 C 
ENDROOT
BRANCH   1   2
ATOM      2  N   UNL A   1      39.950  24.293  26.078  1.00  0.00    -0.352 N 
ATOM      3  O   UNL A   1      41.901  25.356  25.734  1.00  0.00    -0.269 OA
ATOM      4  C   UNL A   1      40.871  25.261  26.399  1.00  0.00     0.251 C 
ATOM      5  H   UNL A   1      40.268  23.623  25.431  1.00  0.00     0.163 HD
BRANCH   4   6
ATOM      6  C   UNL A   1      40.622  26.202  27.514  1.00  0.00     0.039 A 
ATOM      7  C   UNL A   1      41.277  27.430  27.573  1.00  0.00     0.014 A 
ATOM      8  C   UNL A   1      39.700  25.863  28.510  1.00  0.00     0.014 A 
ATOM      9  C   UNL A   1      41.177  28.214  28.714  1.00  0.00     0.010 A 
ATOM     10  C   UNL A   1      39.503  26.717  29.602  1.00  0.00     0.010 A 
ATOM     11  C   UNL A   1      40.278  27.878  29.740  1.00  0.00    -0.014 A 
BRANCH  11  12
ATOM     12  C   UNL A   1      40.156  28.784  30.914  1.00  0.00     0.031 A 
ATOM     13  C   UNL A   1      41.095  28.674  32.087  1.00  0.00     0.074 A 
ATOM     14  C   UNL A   1      39.221  29.756  30.888  1.00  0.00     0.049 A 
ATOM     15  N   UNL A   1      41.167  29.433  33.153  1.00  0.00    -0.248 NA
ATOM     16  C   UNL A   1      42.071  27.573  32.072  1.00  0.00     0.031 C 
ATOM     17  C   UNL A   1      38.246  29.960  29.811  1.00  0.00     0.029 A 
ATOM     18  N   UNL A   1      38.960  30.777  31.764  1.00  0.00    -0.354 N 
ATOM     19  C   UNL A   1      42.169  28.884  33.947  1.00  0.00     0.074 A 
ATOM     20  C   UNL A   1      42.663  27.717  33.250  1.00  0.00     0.031 C 
ATOM     21  C   UNL A   1      37.550  31.080  30.052  1.00  0.00     0.029 A 
ATOM     22  C   UNL A   1      37.974  31.633  31.332  1.00  0.00     0.049 A 
ATOM     23  H   UNL A   1      39.432  30.888  32.621  1.00  0.00     0.167 HD
ATOM     24  C   UNL A   1      42.635  29.314  35.145  1.00  0.00     0.031 A 
ATOM     25  C   UNL A   1      37.459  32.740  31.899  1.00  0.00     0.031 A 
ATOM     26  C   UNL A   1      42.151  30.485  35.829  1.00  0.00     0.049 A 
ATOM     27  C   UNL A   1      37.996  33.195  33.224  1.00  0.00     0.074 A 
ATOM     28  C   UNL A   1      42.584  31.022  37.030  1.00  0.00     0.029 A 
ATOM     29  N   UNL A   1      41.127  31.304  35.373  1.00  0.00    -0.354 N 
ATOM     30  N   UNL A   1      38.961  32.673  33.943  1.00  0.00    -0.248 NA
ATOM     31  C   UNL A   1      37.376  34.387  33.813  1.00  0.00     0.031 C 
ATOM     32  C   UNL A   1      41.791  32.136  37.323  1.00  0.00     0.029 A 
ATOM     33  C   UNL A   1      40.901  32.328  36.277  1.00  0.00     0.049 A 
ATOM     34  H   UNL A   1      40.633  31.174  34.532  1.00  0.00     0.167 HD
ATOM     35  C   UNL A   1      39.077  33.489  35.062  1.00  0.00     0.074 A 
ATOM     36  C   UNL A   1      38.098  34.546  34.913  1.00  0.00     0.031 C 
ATOM     37  C   UNL A   1      39.921  33.372  36.118  1.00  0.00     0.031 A 
BRANCH  24  38
ATOM     38  C   UNL A   1      43.709  28.492  35.812  1.00  0.00    -0.014 A 
ATOM     39  C   UNL A   1      45.074  28.767  35.613  1.00  0.00     0.010 A 
ATOM     40  C   UNL A   1      43.342  27.453  36.687  1.00  0.00     0.010 A 
ATOM     41  C   UNL A   1      46.052  27.989  36.243  1.00  0.00     0.020 A 
ATOM     42  C   UNL A   1      44.316  26.689  37.338  1.00  0.00     0.020 A 
ATOM     43  C   UNL A   1      45.666  26.951  37.096  1.00  0.00     0.054 A 
BRANCH  43  44
ATOM     44  S   UNL A   1      46.955  25.964  37.906  1.00  0.00     0.124 S 
ATOM     45  O   UNL A   1      47.870  26.999  38.382  1.00  0.00    -0.237 OA
ATOM     46  O   UNL A   1      46.213  25.257  38.946  1.00  0.00    -0.237 OA
ATOM     47  O   UNL A   1      47.473  25.121  36.831  1.00  0.00    -0.744 OA
ENDBRANCH  43  44
ENDBRANCH  24  38
BRANCH  25  48
ATOM     48  C   UNL A   1      36.376  33.489  31.207  1.00  0.00    -0.014 A 
ATOM     49  C   UNL A   1      36.493  33.823  29.846  1.00  0.00     0.010 A 
ATOM     50  C   UNL A   1      35.207  33.849  31.903  1.00  0.00     0.010 A 
ATOM     51  C   UNL A   1      35.466  34.515  29.198  1.00  0.00     0.020 A 
ATOM     52  C   UNL A   1      34.166  34.513  31.250  1.00  0.00     0.020 A 
ATOM     53  C   UNL A   1      34.308  34.853  29.904  1.00  0.00     0.054 A 
BRANCH  53  54
ATOM     54  S   UNL A   1      32.963  35.701  29.030  1.00  0.00     0.124 S 
ATOM     55  O   UNL A   1      32.116  36.139  30.133  1.00  0.00    -0.237 OA
ATOM     56  O   UNL A   1      33.669  36.759  28.312  1.00  0.00    -0.237 OA
ATOM     57  O   UNL A   1      32.397  34.654  28.181  1.00  0.00    -0.744 OA
ENDBRANCH  53  54
ENDBRANCH  25  48
BRANCH  37  58
ATOM     58  C   UNL A   1      39.846  34.440  37.173  1.00  0.00    -0.014 A 
ATOM     59  C   UNL A   1      39.055  34.277  38.324  1.00  0.00     0.010 A 
ATOM     60  C   UNL A   1      40.600  35.618  37.018  1.00  0.00     0.010 A 
ATOM     61  C   UNL A   1      38.985  35.293  39.280  1.00  0.00     0.020 A 
ATOM     62  C   UNL A   1      40.554  36.623  37.985  1.00  0.00     0.020 A 
ATOM     63  C   UNL A   1      39.731  36.463  39.102  1.00  0.00     0.054 A 
BRANCH  63  64
ATOM     64  S   UNL A   1      39.642  37.760  40.366  1.00  0.00     0.124 S 
ATOM     65  O   UNL A   1      41.045  38.139  40.509  1.00  0.00    -0.237 OA
ATOM     66  O   UNL A   1      38.781  38.761  39.740  1.00  0.00    -0.237 OA
ATOM     67  O   UNL A   1      39.060  37.079  41.520  1.00  0.00    -0.744 OA
ENDBRANCH  63  64
ENDBRANCH  37  58
ENDBRANCH  11  12
ENDBRANCH   4   6
ENDBRANCH   1   2
BRANCH   1  68
ATOM     68  C   UNL A   1      37.804  23.128  25.649  1.00  0.00     0.042 C 
BRANCH  68  69
ATOM     69  C   UNL A   1      36.313  23.421  25.611  1.00  0.00     0.117 C 
BRANCH  69  70
ATOM     70  N   UNL A   1      35.587  22.729  26.670  1.00  0.00    -0.355 N 
ATOM     71  C   UNL A   1      34.259  22.561  26.926  1.00  0.00     0.232 C 
ATOM     72  H   UNL A   1      36.175  22.298  27.333  1.00  0.00     0.163 HD
ATOM     73  O   UNL A   1      33.989  21.875  27.917  1.00  0.00    -0.274 OA
BRANCH  71  74
ATOM     74  C   UNL A   1      33.160  23.169  26.027  1.00  0.00     0.104 C 
ATOM     75  C   UNL A   1      31.772  22.827  26.656  1.00  0.00     0.029 C 
ATOM     76  C   UNL A   1      33.318  24.711  26.086  1.00  0.00     0.277 C 
ATOM     77  C   UNL A   1      30.627  23.672  26.099  1.00  0.00     0.063 C 
ATOM     78  N   UNL A   1      32.195  25.502  25.571  1.00  0.00    -0.345 N 
ATOM     79  C   UNL A   1      30.934  25.159  26.217  1.00  0.00     0.260 C 
ATOM     80  H   UNL A   1      32.388  26.491  25.733  1.00  0.00     0.346 HD
ATOM     81  H   UNL A   1      32.100  25.299  24.577  1.00  0.00     0.346 HD
BRANCH  74  82
ATOM     82  C   UNL A   1      33.297  22.451  24.654  1.00  0.00     0.080 C 
BRANCH  82  83
ATOM     83  C   UNL A   1      33.338  20.968  24.623  1.00  0.00     0.061 A 
ATOM     84  C   UNL A   1      32.304  20.059  24.547  1.00  0.00     0.116 A 
ATOM     85  N   UNL A   1      34.554  20.320  24.589  1.00  0.00    -0.234 NA
ATOM     86  N   UNL A   1      32.892  18.825  24.613  1.00  0.00    -0.307 N 
ATOM     87  C   UNL A   1      34.265  19.037  24.589  1.00  0.00     0.136 A 
ATOM     88  C   UNL A   1      32.308  17.565  24.699  1.00  0.00     0.093 A 
ATOM     89  C   UNL A   1      35.100  17.884  24.593  1.00  0.00     0.048 A 
ATOM     90  C   UNL A   1      33.100  16.480  24.743  1.00  0.00     0.018 A 
ATOM     91  C   UNL A   1      34.544  16.659  24.671  1.00  0.00     0.005 A 
ENDBRANCH  82  83
ENDBRANCH  74  82
ENDBRANCH  71  74
ENDBRANCH  69  70
ENDBRANCH  68  69
ENDBRANCH   1  68
TORSDOF 15
ENDMDL
