MODEL 1
REMARK VINA RESULT:     -11.1      0.000      0.000
REMARK SMILES COc1ccc(C(=O)N[C@@H](C(=O)NCCCNC(=O)c2ccc(-c3c4nc(c(-c5ccc(S(=O)(=O)[O-])cc5)c5ccc([nH]5)c(-c5ccc(S(=O)(=O)[O-])cc5)c5nc(c(-c6ccc(S(=O)(=O)[O-])cc6)c6ccc3[nH]6)C=C5)C=C4)cc2)C(C)C)cc1O
REMARK SMILES IDX 15 1 14 2 13 3 11 4 12 5 10 7 9 8 7 9 8 10 6 12 3 13 4 14
REMARK SMILES IDX 84 15 5 16 83 17 2 18 1 19 85 20 80 22 81 23 82 24 16 25
REMARK SMILES IDX 17 26 18 27 19 29 20 30 21 31 79 32 22 33 78 34 23 35 24 36
REMARK SMILES IDX 25 37 72 38 26 39 77 40 71 41 73 42 27 43 76 44 70 45 69 46
REMARK SMILES IDX 28 48 58 49 39 50 57 51 40 52 43 53 56 54 74 55 41 56 42 57
REMARK SMILES IDX 55 59 75 60 44 61 29 62 30 63 38 64 31 65 37 66 32 67 33 68
REMARK SMILES IDX 34 69 35 70 36 71 59 72 60 73 68 74 61 75 67 76 62 77 63 78
REMARK SMILES IDX 64 79 65 80 66 81 45 82 46 83 54 84 47 85 53 86 48 87 49 88
REMARK SMILES IDX 50 89 51 90 52 91
REMARK H PARENT 13 6 9 11 85 21 17 28 73 47 43 58
REMARK Flexibility Score: inf
ROOT
ATOM      1  C   UNL A   1      38.203  20.034  25.126  1.00  0.00     0.042 C 
ENDROOT
BRANCH   1   2
ATOM      2  C   UNL A   1      37.025  20.995  25.212  1.00  0.00     0.117 C 
BRANCH   2   3
ATOM      3  N   UNL A   1      37.019  21.921  24.094  1.00  0.00    -0.354 N 
ATOM      4  C   UNL A   1      35.989  22.691  23.628  1.00  0.00     0.242 C 
ATOM      5  O   UNL A   1      36.178  23.357  22.610  1.00  0.00    -0.273 OA
ATOM      6  H   UNL A   1      37.871  22.007  23.609  1.00  0.00     0.163 HD
BRANCH   4   7
ATOM      7  C   UNL A   1      34.674  22.745  24.445  1.00  0.00     0.174 C 
BRANCH   7   8
ATOM      8  N   UNL A   1      33.518  22.707  23.544  1.00  0.00    -0.340 N 
ATOM      9  C   UNL A   1      32.561  21.763  23.262  1.00  0.00     0.252 C 
ATOM     10  O   UNL A   1      31.679  22.085  22.466  1.00  0.00    -0.269 OA
ATOM     11  H   UNL A   1      33.403  23.538  23.029  1.00  0.00     0.164 HD
BRANCH   9  12
ATOM     12  C   UNL A   1      32.560  20.368  23.802  1.00  0.00     0.043 A 
ATOM     13  C   UNL A   1      32.681  17.649  24.632  1.00  0.00     0.160 A 
ATOM     14  C   UNL A   1      32.492  17.983  23.288  1.00  0.00     0.051 A 
ATOM     15  C   UNL A   1      32.749  18.689  25.556  1.00  0.00     0.158 A 
ATOM     16  C   UNL A   1      32.443  19.321  22.875  1.00  0.00     0.018 A 
ATOM     17  C   UNL A   1      32.661  20.024  25.150  1.00  0.00     0.064 A 
BRANCH  13  18
ATOM     18  O   UNL A   1      32.725  16.307  24.873  1.00  0.00    -0.493 OA
ATOM     19  C   UNL A   1      33.990  15.698  25.097  1.00  0.00     0.278 C 
ENDBRANCH  13  18
BRANCH  15  20
ATOM     20  O   UNL A   1      32.861  18.514  26.907  1.00  0.00    -0.504 OA
ATOM     21  H   UNL A   1      33.592  18.045  27.259  1.00  0.00     0.293 HD
ENDBRANCH  15  20
ENDBRANCH   9  12
ENDBRANCH   7   8
BRANCH   7  22
ATOM     22  C   UNL A   1      34.620  23.993  25.368  1.00  0.00     0.015 C 
ATOM     23  C   UNL A   1      34.221  25.286  24.645  1.00  0.00     0.010 C 
ATOM     24  C   UNL A   1      33.640  23.749  26.523  1.00  0.00     0.010 C 
ENDBRANCH   7  22
ENDBRANCH   4   7
ENDBRANCH   2   3
ENDBRANCH   1   2
BRANCH   1  25
ATOM     25  C   UNL A   1      39.304  20.370  26.124  1.00  0.00     0.118 C 
BRANCH  25  26
ATOM     26  N   UNL A   1      40.391  19.400  26.088  1.00  0.00    -0.352 N 
ATOM     27  C   UNL A   1      41.744  19.602  26.138  1.00  0.00     0.251 C 
ATOM     28  H   UNL A   1      40.111  18.459  26.017  1.00  0.00     0.163 HD
ATOM     29  O   UNL A   1      42.501  18.657  25.911  1.00  0.00    -0.269 OA
BRANCH  27  30
ATOM     30  C   UNL A   1      42.291  20.938  26.444  1.00  0.00     0.039 A 
ATOM     31  C   UNL A   1      42.516  21.827  25.390  1.00  0.00     0.014 A 
ATOM     32  C   UNL A   1      42.608  21.311  27.753  1.00  0.00     0.014 A 
ATOM     33  C   UNL A   1      43.022  23.099  25.654  1.00  0.00     0.010 A 
ATOM     34  C   UNL A   1      43.028  22.608  28.025  1.00  0.00     0.010 A 
ATOM     35  C   UNL A   1      43.261  23.509  26.976  1.00  0.00    -0.014 A 
BRANCH  35  36
ATOM     36  C   UNL A   1      43.770  24.871  27.270  1.00  0.00     0.031 A 
ATOM     37  C   UNL A   1      45.212  25.214  27.011  1.00  0.00     0.074 A 
ATOM     38  C   UNL A   1      42.938  25.789  27.801  1.00  0.00     0.049 A 
ATOM     39  N   UNL A   1      45.829  26.357  27.176  1.00  0.00    -0.248 NA
ATOM     40  C   UNL A   1      46.083  24.129  26.528  1.00  0.00     0.031 C 
ATOM     41  C   UNL A   1      41.531  25.560  28.139  1.00  0.00     0.029 A 
ATOM     42  N   UNL A   1      43.152  27.100  28.139  1.00  0.00    -0.354 N 
ATOM     43  C   UNL A   1      47.158  26.122  26.840  1.00  0.00     0.074 A 
ATOM     44  C   UNL A   1      47.270  24.718  26.514  1.00  0.00     0.031 C 
ATOM     45  C   UNL A   1      40.994  26.708  28.584  1.00  0.00     0.029 A 
ATOM     46  C   UNL A   1      42.026  27.740  28.602  1.00  0.00     0.049 A 
ATOM     47  H   UNL A   1      44.028  27.543  28.060  1.00  0.00     0.167 HD
ATOM     48  C   UNL A   1      48.189  26.999  26.788  1.00  0.00     0.031 A 
ATOM     49  C   UNL A   1      41.841  29.018  28.988  1.00  0.00     0.031 A 
ATOM     50  C   UNL A   1      48.066  28.398  27.103  1.00  0.00     0.049 A 
ATOM     51  C   UNL A   1      42.999  29.974  28.923  1.00  0.00     0.074 A 
ATOM     52  C   UNL A   1      49.028  29.388  27.011  1.00  0.00     0.029 A 
ATOM     53  N   UNL A   1      46.913  29.003  27.580  1.00  0.00    -0.354 N 
ATOM     54  N   UNL A   1      44.228  29.754  28.517  1.00  0.00    -0.248 NA
ATOM     55  C   UNL A   1      42.743  31.353  29.357  1.00  0.00     0.031 C 
ATOM     56  C   UNL A   1      48.474  30.579  27.492  1.00  0.00     0.029 A 
ATOM     57  C   UNL A   1      47.148  30.346  27.820  1.00  0.00     0.049 A 
ATOM     58  H   UNL A   1      46.054  28.545  27.727  1.00  0.00     0.167 HD
ATOM     59  C   UNL A   1      44.882  30.977  28.615  1.00  0.00     0.074 A 
ATOM     60  C   UNL A   1      43.911  31.932  29.109  1.00  0.00     0.031 C 
ATOM     61  C   UNL A   1      46.170  31.283  28.317  1.00  0.00     0.031 A 
BRANCH  48  62
ATOM     62  C   UNL A   1      49.542  26.462  26.396  1.00  0.00    -0.014 A 
ATOM     63  C   UNL A   1      50.373  25.815  27.330  1.00  0.00     0.010 A 
ATOM     64  C   UNL A   1      49.984  26.593  25.067  1.00  0.00     0.010 A 
ATOM     65  C   UNL A   1      51.643  25.365  26.957  1.00  0.00     0.020 A 
ATOM     66  C   UNL A   1      51.241  26.116  24.682  1.00  0.00     0.020 A 
ATOM     67  C   UNL A   1      52.071  25.526  25.636  1.00  0.00     0.054 A 
BRANCH  67  68
ATOM     68  S   UNL A   1      53.726  24.937  25.180  1.00  0.00     0.124 S 
ATOM     69  O   UNL A   1      53.952  25.630  23.913  1.00  0.00    -0.237 OA
ATOM     70  O   UNL A   1      54.547  25.392  26.299  1.00  0.00    -0.237 OA
ATOM     71  O   UNL A   1      53.564  23.490  25.076  1.00  0.00    -0.744 OA
ENDBRANCH  67  68
ENDBRANCH  48  62
BRANCH  49  72
ATOM     72  C   UNL A   1      40.491  29.474  29.416  1.00  0.00    -0.014 A 
ATOM     73  C   UNL A   1      40.142  29.472  30.778  1.00  0.00     0.010 A 
ATOM     74  C   UNL A   1      39.559  29.943  28.473  1.00  0.00     0.010 A 
ATOM     75  C   UNL A   1      38.882  29.917  31.188  1.00  0.00     0.020 A 
ATOM     76  C   UNL A   1      38.307  30.414  28.881  1.00  0.00     0.020 A 
ATOM     77  C   UNL A   1      37.975  30.390  30.237  1.00  0.00     0.054 A 
BRANCH  77  78
ATOM     78  S   UNL A   1      36.369  31.019  30.803  1.00  0.00     0.124 S 
ATOM     79  O   UNL A   1      36.694  32.393  31.173  1.00  0.00    -0.237 OA
ATOM     80  O   UNL A   1      35.534  30.863  29.615  1.00  0.00    -0.237 OA
ATOM     81  O   UNL A   1      36.028  30.135  31.915  1.00  0.00    -0.744 OA
ENDBRANCH  77  78
ENDBRANCH  49  72
BRANCH  61  82
ATOM     82  C   UNL A   1      46.596  32.718  28.478  1.00  0.00    -0.014 A 
ATOM     83  C   UNL A   1      46.457  33.646  27.432  1.00  0.00     0.010 A 
ATOM     84  C   UNL A   1      47.090  33.155  29.722  1.00  0.00     0.010 A 
ATOM     85  C   UNL A   1      46.837  34.979  27.614  1.00  0.00     0.020 A 
ATOM     86  C   UNL A   1      47.442  34.493  29.917  1.00  0.00     0.020 A 
ATOM     87  C   UNL A   1      47.326  35.393  28.858  1.00  0.00     0.054 A 
BRANCH  87  88
ATOM     88  S   UNL A   1      47.768  37.137  29.084  1.00  0.00     0.124 S 
ATOM     89  O   UNL A   1      48.530  37.418  27.870  1.00  0.00    -0.237 OA
ATOM     90  O   UNL A   1      46.463  37.790  29.173  1.00  0.00    -0.237 OA
ATOM     91  O   UNL A   1      48.545  37.141  30.321  1.00  0.00    -0.744 OA
ENDBRANCH  87  88
ENDBRANCH  61  82
ENDBRANCH  35  36
ENDBRANCH  27  30
ENDBRANCH  25  26
ENDBRANCH   1  25
TORSDOF 18
ENDMDL
MODEL 2
REMARK VINA RESULT:     -10.9      6.885     12.521
REMARK SMILES COc1ccc(C(=O)N[C@@H](C(=O)NCCCNC(=O)c2ccc(-c3c4nc(c(-c5ccc(S(=O)(=O)[O-])cc5)c5ccc([nH]5)c(-c5ccc(S(=O)(=O)[O-])cc5)c5nc(c(-c6ccc(S(=O)(=O)[O-])cc6)c6ccc3[nH]6)C=C5)C=C4)cc2)C(C)C)cc1O
REMARK SMILES IDX 15 1 14 2 13 3 11 4 12 5 10 7 9 8 7 9 8 10 6 12 3 13 4 14
REMARK SMILES IDX 84 15 5 16 83 17 2 18 1 19 85 20 80 22 81 23 82 24 16 25
REMARK SMILES IDX 17 26 18 27 19 29 20 30 21 31 79 32 22 33 78 34 23 35 24 36
REMARK SMILES IDX 25 37 72 38 26 39 77 40 71 41 73 42 27 43 76 44 70 45 69 46
REMARK SMILES IDX 28 48 58 49 39 50 57 51 40 52 43 53 56 54 74 55 41 56 42 57
REMARK SMILES IDX 55 59 75 60 44 61 29 62 30 63 38 64 31 65 37 66 32 67 33 68
REMARK SMILES IDX 34 69 35 70 36 71 59 72 60 73 68 74 61 75 67 76 62 77 63 78
REMARK SMILES IDX 64 79 65 80 66 81 45 82 46 83 54 84 47 85 53 86 48 87 49 88
REMARK SMILES IDX 50 89 51 90 52 91
REMARK H PARENT 13 6 9 11 85 21 17 28 73 47 43 58
REMARK Flexibility Score: inf
ROOT
ATOM      1  C   UNL A   1      31.750  32.009  26.887  1.00  0.00     0.042 C 
ENDROOT
BRANCH   1   2
ATOM      2  C   UNL A   1      31.983  30.637  26.268  1.00  0.00     0.117 C 
BRANCH   2   3
ATOM      3  N   UNL A   1      31.773  29.580  27.240  1.00  0.00    -0.354 N 
ATOM      4  C   UNL A   1      31.638  28.236  27.025  1.00  0.00     0.242 C 
ATOM      5  O   UNL A   1      31.389  27.516  27.992  1.00  0.00    -0.273 OA
ATOM      6  H   UNL A   1      31.722  29.870  28.180  1.00  0.00     0.163 HD
BRANCH   4   7
ATOM      7  C   UNL A   1      31.883  27.685  25.598  1.00  0.00     0.174 C 
BRANCH   7   8
ATOM      8  N   UNL A   1      30.882  26.664  25.272  1.00  0.00    -0.340 N 
ATOM      9  C   UNL A   1      29.862  26.589  24.357  1.00  0.00     0.252 C 
ATOM     10  O   UNL A   1      29.225  25.536  24.317  1.00  0.00    -0.269 OA
ATOM     11  H   UNL A   1      30.958  25.857  25.832  1.00  0.00     0.164 HD
BRANCH   9  12
ATOM     12  C   UNL A   1      29.439  27.712  23.464  1.00  0.00     0.043 A 
ATOM     13  C   UNL A   1      28.475  29.912  21.937  1.00  0.00     0.160 A 
ATOM     14  C   UNL A   1      27.605  29.133  22.705  1.00  0.00     0.051 A 
ATOM     15  C   UNL A   1      29.817  29.540  21.899  1.00  0.00     0.158 A 
ATOM     16  C   UNL A   1      28.078  28.056  23.466  1.00  0.00     0.018 A 
ATOM     17  C   UNL A   1      30.283  28.441  22.628  1.00  0.00     0.064 A 
BRANCH  13  18
ATOM     18  O   UNL A   1      27.866  30.934  21.269  1.00  0.00    -0.493 OA
ATOM     19  C   UNL A   1      28.083  32.264  21.720  1.00  0.00     0.278 C 
ENDBRANCH  13  18
BRANCH  15  20
ATOM     20  O   UNL A   1      30.768  30.162  21.141  1.00  0.00    -0.504 OA
ATOM     21  H   UNL A   1      31.100  30.999  21.400  1.00  0.00     0.293 HD
ENDBRANCH  15  20
ENDBRANCH   9  12
ENDBRANCH   7   8
BRANCH   7  22
ATOM     22  C   UNL A   1      33.323  27.126  25.436  1.00  0.00     0.015 C 
ATOM     23  C   UNL A   1      33.422  25.926  24.485  1.00  0.00     0.010 C 
ATOM     24  C   UNL A   1      34.262  28.231  24.938  1.00  0.00     0.010 C 
ENDBRANCH   7  22
ENDBRANCH   4   7
ENDBRANCH   2   3
ENDBRANCH   1   2
BRANCH   1  25
ATOM     25  C   UNL A   1      33.043  32.670  27.346  1.00  0.00     0.118 C 
BRANCH  25  26
ATOM     26  N   UNL A   1      32.835  34.050  27.764  1.00  0.00    -0.352 N 
ATOM     27  C   UNL A   1      33.433  34.758  28.772  1.00  0.00     0.251 C 
ATOM     28  H   UNL A   1      32.164  34.549  27.243  1.00  0.00     0.163 HD
ATOM     29  O   UNL A   1      32.984  35.864  29.078  1.00  0.00    -0.269 OA
BRANCH  27  30
ATOM     30  C   UNL A   1      34.591  34.198  29.495  1.00  0.00     0.039 A 
ATOM     31  C   UNL A   1      34.356  33.379  30.603  1.00  0.00     0.014 A 
ATOM     32  C   UNL A   1      35.901  34.493  29.109  1.00  0.00     0.014 A 
ATOM     33  C   UNL A   1      35.434  32.830  31.297  1.00  0.00     0.010 A 
ATOM     34  C   UNL A   1      36.971  33.874  29.745  1.00  0.00     0.010 A 
ATOM     35  C   UNL A   1      36.749  33.053  30.860  1.00  0.00    -0.014 A 
BRANCH  35  36
ATOM     36  C   UNL A   1      37.901  32.447  31.573  1.00  0.00     0.031 A 
ATOM     37  C   UNL A   1      38.319  32.970  32.921  1.00  0.00     0.074 A 
ATOM     38  C   UNL A   1      38.589  31.446  30.989  1.00  0.00     0.049 A 
ATOM     39  N   UNL A   1      39.278  32.548  33.706  1.00  0.00    -0.248 NA
ATOM     40  C   UNL A   1      37.584  34.132  33.446  1.00  0.00     0.031 C 
ATOM     41  C   UNL A   1      38.307  30.885  29.665  1.00  0.00     0.029 A 
ATOM     42  N   UNL A   1      39.659  30.715  31.438  1.00  0.00    -0.354 N 
ATOM     43  C   UNL A   1      39.275  33.405  34.802  1.00  0.00     0.074 A 
ATOM     44  C   UNL A   1      38.257  34.401  34.556  1.00  0.00     0.031 C 
ATOM     45  C   UNL A   1      39.146  29.863  29.433  1.00  0.00     0.029 A 
ATOM     46  C   UNL A   1      40.050  29.723  30.571  1.00  0.00     0.049 A 
ATOM     47  H   UNL A   1      40.106  30.886  32.298  1.00  0.00     0.167 HD
ATOM     48  C   UNL A   1      40.036  33.356  35.921  1.00  0.00     0.031 A 
ATOM     49  C   UNL A   1      41.021  28.795  30.683  1.00  0.00     0.031 A 
ATOM     50  C   UNL A   1      41.040  32.353  36.162  1.00  0.00     0.049 A 
ATOM     51  C   UNL A   1      41.855  28.760  31.933  1.00  0.00     0.074 A 
ATOM     52  C   UNL A   1      41.815  32.167  37.293  1.00  0.00     0.029 A 
ATOM     53  N   UNL A   1      41.414  31.374  35.254  1.00  0.00    -0.354 N 
ATOM     54  N   UNL A   1      41.778  29.523  32.998  1.00  0.00    -0.248 NA
ATOM     55  C   UNL A   1      42.900  27.730  32.001  1.00  0.00     0.031 C 
ATOM     56  C   UNL A   1      42.702  31.114  37.044  1.00  0.00     0.029 A 
ATOM     57  C   UNL A   1      42.433  30.602  35.785  1.00  0.00     0.049 A 
ATOM     58  H   UNL A   1      41.015  31.248  34.363  1.00  0.00     0.167 HD
ATOM     59  C   UNL A   1      42.741  29.043  33.878  1.00  0.00     0.074 A 
ATOM     60  C   UNL A   1      43.381  27.920  33.223  1.00  0.00     0.031 C 
ATOM     61  C   UNL A   1      43.063  29.488  35.118  1.00  0.00     0.031 A 
BRANCH  48  62
ATOM     62  C   UNL A   1      39.824  34.432  36.956  1.00  0.00    -0.014 A 
ATOM     63  C   UNL A   1      40.445  35.690  36.844  1.00  0.00     0.010 A 
ATOM     64  C   UNL A   1      38.978  34.185  38.052  1.00  0.00     0.010 A 
ATOM     65  C   UNL A   1      40.272  36.657  37.839  1.00  0.00     0.020 A 
ATOM     66  C   UNL A   1      38.775  35.161  39.033  1.00  0.00     0.020 A 
ATOM     67  C   UNL A   1      39.443  36.383  38.930  1.00  0.00     0.054 A 
BRANCH  67  68
ATOM     68  S   UNL A   1      39.240  37.654  40.209  1.00  0.00     0.124 S 
ATOM     69  O   UNL A   1      38.262  38.547  39.591  1.00  0.00    -0.237 OA
ATOM     70  O   UNL A   1      38.754  36.885  41.351  1.00  0.00    -0.237 OA
ATOM     71  O   UNL A   1      40.581  38.212  40.361  1.00  0.00    -0.744 OA
ENDBRANCH  67  68
ENDBRANCH  48  62
BRANCH  49  72
ATOM     72  C   UNL A   1      41.215  27.792  29.601  1.00  0.00    -0.014 A 
ATOM     73  C   UNL A   1      40.314  26.722  29.456  1.00  0.00     0.010 A 
ATOM     74  C   UNL A   1      42.280  27.916  28.690  1.00  0.00     0.010 A 
ATOM     75  C   UNL A   1      40.480  25.788  28.431  1.00  0.00     0.020 A 
ATOM     76  C   UNL A   1      42.434  26.999  27.645  1.00  0.00     0.020 A 
ATOM     77  C   UNL A   1      41.537  25.936  27.528  1.00  0.00     0.054 A 
BRANCH  77  78
ATOM     78  S   UNL A   1      41.694  24.743  26.169  1.00  0.00     0.124 S 
ATOM     79  O   UNL A   1      41.782  25.618  25.005  1.00  0.00    -0.237 OA
ATOM     80  O   UNL A   1      42.919  24.028  26.519  1.00  0.00    -0.237 OA
ATOM     81  O   UNL A   1      40.470  23.951  26.265  1.00  0.00    -0.744 OA
ENDBRANCH  77  78
ENDBRANCH  49  72
BRANCH  61  82
ATOM     82  C   UNL A   1      44.130  28.737  35.869  1.00  0.00    -0.014 A 
ATOM     83  C   UNL A   1      43.808  27.686  36.745  1.00  0.00     0.010 A 
ATOM     84  C   UNL A   1      45.483  29.052  35.645  1.00  0.00     0.010 A 
ATOM     85  C   UNL A   1      44.818  26.987  37.412  1.00  0.00     0.020 A 
ATOM     86  C   UNL A   1      46.497  28.335  36.285  1.00  0.00     0.020 A 
ATOM     87  C   UNL A   1      46.157  27.316  37.175  1.00  0.00     0.054 A 
BRANCH  87  88
ATOM     88  S   UNL A   1      47.450  26.364  38.017  1.00  0.00     0.124 S 
ATOM     89  O   UNL A   1      46.912  25.007  37.966  1.00  0.00    -0.237 OA
ATOM     90  O   UNL A   1      48.624  26.606  37.179  1.00  0.00    -0.237 OA
ATOM     91  O   UNL A   1      47.511  26.961  39.349  1.00  0.00    -0.744 OA
ENDBRANCH  87  88
ENDBRANCH  61  82
ENDBRANCH  35  36
ENDBRANCH  27  30
ENDBRANCH  25  26
ENDBRANCH   1  25
TORSDOF 18
ENDMDL
MODEL 3
REMARK VINA RESULT:     -10.8      5.916     11.202
REMARK SMILES COc1ccc(C(=O)N[C@@H](C(=O)NCCCNC(=O)c2ccc(-c3c4nc(c(-c5ccc(S(=O)(=O)[O-])cc5)c5ccc([nH]5)c(-c5ccc(S(=O)(=O)[O-])cc5)c5nc(c(-c6ccc(S(=O)(=O)[O-])cc6)c6ccc3[nH]6)C=C5)C=C4)cc2)C(C)C)cc1O
REMARK SMILES IDX 15 1 14 2 13 3 11 4 12 5 10 7 9 8 7 9 8 10 6 12 3 13 4 14
REMARK SMILES IDX 84 15 5 16 83 17 2 18 1 19 85 20 80 22 81 23 82 24 16 25
REMARK SMILES IDX 17 26 18 27 19 29 20 30 21 31 79 32 22 33 78 34 23 35 24 36
REMARK SMILES IDX 25 37 72 38 26 39 77 40 71 41 73 42 27 43 76 44 70 45 69 46
REMARK SMILES IDX 28 48 58 49 39 50 57 51 40 52 43 53 56 54 74 55 41 56 42 57
REMARK SMILES IDX 55 59 75 60 44 61 29 62 30 63 38 64 31 65 37 66 32 67 33 68
REMARK SMILES IDX 34 69 35 70 36 71 59 72 60 73 68 74 61 75 67 76 62 77 63 78
REMARK SMILES IDX 64 79 65 80 66 81 45 82 46 83 54 84 47 85 53 86 48 87 49 88
REMARK SMILES IDX 50 89 51 90 52 91
REMARK H PARENT 13 6 9 11 85 21 17 28 73 47 43 58
REMARK Flexibility Score: inf
ROOT
ATOM      1  C   UNL A   1      33.634  28.666  25.192  1.00  0.00     0.042 C 
ENDROOT
BRANCH   1   2
ATOM      2  C   UNL A   1      33.694  27.161  24.966  1.00  0.00     0.117 C 
BRANCH   2   3
ATOM      3  N   UNL A   1      32.847  26.454  25.910  1.00  0.00    -0.354 N 
ATOM      4  C   UNL A   1      31.571  25.994  25.733  1.00  0.00     0.242 C 
ATOM      5  O   UNL A   1      31.001  25.483  26.697  1.00  0.00    -0.273 OA
ATOM      6  H   UNL A   1      33.245  26.283  26.793  1.00  0.00     0.163 HD
BRANCH   4   7
ATOM      7  C   UNL A   1      30.944  26.068  24.319  1.00  0.00     0.174 C 
BRANCH   7   8
ATOM      8  N   UNL A   1      29.483  25.990  24.409  1.00  0.00    -0.340 N 
ATOM      9  C   UNL A   1      28.457  26.768  23.933  1.00  0.00     0.252 C 
ATOM     10  O   UNL A   1      27.311  26.378  24.157  1.00  0.00    -0.269 OA
ATOM     11  H   UNL A   1      29.169  25.211  24.923  1.00  0.00     0.164 HD
BRANCH   9  12
ATOM     12  C   UNL A   1      28.639  28.075  23.227  1.00  0.00     0.043 A 
ATOM     13  C   UNL A   1      28.840  30.657  22.050  1.00  0.00     0.160 A 
ATOM     14  C   UNL A   1      27.630  30.202  22.582  1.00  0.00     0.051 A 
ATOM     15  C   UNL A   1      29.925  29.785  22.064  1.00  0.00     0.158 A 
ATOM     16  C   UNL A   1      27.531  28.934  23.171  1.00  0.00     0.018 A 
ATOM     17  C   UNL A   1      29.816  28.505  22.617  1.00  0.00     0.064 A 
BRANCH  13  18
ATOM     18  O   UNL A   1      28.780  31.918  21.529  1.00  0.00    -0.493 OA
ATOM     19  C   UNL A   1      27.944  32.149  20.403  1.00  0.00     0.278 C 
ENDBRANCH  13  18
BRANCH  15  20
ATOM     20  O   UNL A   1      31.147  30.066  21.520  1.00  0.00    -0.504 OA
ATOM     21  H   UNL A   1      31.917  30.021  22.051  1.00  0.00     0.293 HD
ENDBRANCH  15  20
ENDBRANCH   9  12
ENDBRANCH   7   8
BRANCH   7  22
ATOM     22  C   UNL A   1      31.504  24.964  23.382  1.00  0.00     0.015 C 
ATOM     23  C   UNL A   1      30.578  23.751  23.226  1.00  0.00     0.010 C 
ATOM     24  C   UNL A   1      31.790  25.549  21.993  1.00  0.00     0.010 C 
ENDBRANCH   7  22
ENDBRANCH   4   7
ENDBRANCH   2   3
ENDBRANCH   1   2
BRANCH   1  25
ATOM     25  C   UNL A   1      34.269  29.084  26.513  1.00  0.00     0.118 C 
BRANCH  25  26
ATOM     26  N   UNL A   1      33.916  30.448  26.883  1.00  0.00    -0.352 N 
ATOM     27  C   UNL A   1      34.487  31.276  27.812  1.00  0.00     0.251 C 
ATOM     28  H   UNL A   1      33.154  30.832  26.393  1.00  0.00     0.163 HD
ATOM     29  O   UNL A   1      33.923  32.333  28.101  1.00  0.00    -0.269 OA
BRANCH  27  30
ATOM     30  C   UNL A   1      35.753  30.903  28.472  1.00  0.00     0.039 A 
ATOM     31  C   UNL A   1      35.765  29.791  29.317  1.00  0.00     0.014 A 
ATOM     32  C   UNL A   1      36.918  31.652  28.285  1.00  0.00     0.014 A 
ATOM     33  C   UNL A   1      36.952  29.411  29.944  1.00  0.00     0.010 A 
ATOM     34  C   UNL A   1      38.119  31.222  28.838  1.00  0.00     0.010 A 
ATOM     35  C   UNL A   1      38.144  30.110  29.691  1.00  0.00    -0.014 A 
BRANCH  35  36
ATOM     36  C   UNL A   1      39.418  29.695  30.329  1.00  0.00     0.031 A 
ATOM     37  C   UNL A   1      39.900  30.381  31.579  1.00  0.00     0.074 A 
ATOM     38  C   UNL A   1      40.155  28.720  29.762  1.00  0.00     0.049 A 
ATOM     39  N   UNL A   1      40.969  30.135  32.293  1.00  0.00    -0.248 NA
ATOM     40  C   UNL A   1      39.092  31.506  32.079  1.00  0.00     0.031 C 
ATOM     41  C   UNL A   1      39.814  28.012  28.525  1.00  0.00     0.029 A 
ATOM     42  N   UNL A   1      41.338  28.148  30.156  1.00  0.00    -0.354 N 
ATOM     43  C   UNL A   1      40.974  31.085  33.308  1.00  0.00     0.074 A 
ATOM     44  C   UNL A   1      39.832  31.944  33.088  1.00  0.00     0.031 C 
ATOM     45  C   UNL A   1      40.737  27.064  28.293  1.00  0.00     0.029 A 
ATOM     46  C   UNL A   1      41.754  27.125  29.338  1.00  0.00     0.049 A 
ATOM     47  H   UNL A   1      41.842  28.443  30.948  1.00  0.00     0.167 HD
ATOM     48  C   UNL A   1      41.837  31.220  34.343  1.00  0.00     0.031 A 
ATOM     49  C   UNL A   1      42.829  26.316  29.425  1.00  0.00     0.031 A 
ATOM     50  C   UNL A   1      42.965  30.353  34.560  1.00  0.00     0.049 A 
ATOM     51  C   UNL A   1      43.776  26.484  30.581  1.00  0.00     0.074 A 
ATOM     52  C   UNL A   1      43.859  30.354  35.616  1.00  0.00     0.029 A 
ATOM     53  N   UNL A   1      43.359  29.337  33.703  1.00  0.00    -0.354 N 
ATOM     54  N   UNL A   1      43.714  27.331  31.582  1.00  0.00    -0.248 NA
ATOM     55  C   UNL A   1      44.931  25.578  30.625  1.00  0.00     0.031 C 
ATOM     56  C   UNL A   1      44.830  29.379  35.365  1.00  0.00     0.029 A 
ATOM     57  C   UNL A   1      44.504  28.726  34.187  1.00  0.00     0.049 A 
ATOM     58  H   UNL A   1      42.895  29.088  32.872  1.00  0.00     0.167 HD
ATOM     59  C   UNL A   1      44.804  27.037  32.393  1.00  0.00     0.074 A 
ATOM     60  C   UNL A   1      45.500  25.929  31.771  1.00  0.00     0.031 C 
ATOM     61  C   UNL A   1      45.188  27.627  33.552  1.00  0.00     0.031 A 
BRANCH  48  62
ATOM     62  C   UNL A   1      41.605  32.360  35.301  1.00  0.00    -0.014 A 
ATOM     63  C   UNL A   1      40.753  32.222  36.413  1.00  0.00     0.010 A 
ATOM     64  C   UNL A   1      42.260  33.587  35.094  1.00  0.00     0.010 A 
ATOM     65  C   UNL A   1      40.515  33.306  37.263  1.00  0.00     0.020 A 
ATOM     66  C   UNL A   1      42.050  34.665  35.960  1.00  0.00     0.020 A 
ATOM     67  C   UNL A   1      41.160  34.523  37.026  1.00  0.00     0.054 A 
BRANCH  67  68
ATOM     68  S   UNL A   1      40.829  35.915  38.141  1.00  0.00     0.124 S 
ATOM     69  O   UNL A   1      42.102  36.634  38.110  1.00  0.00    -0.237 OA
ATOM     70  O   UNL A   1      39.711  36.591  37.489  1.00  0.00    -0.237 OA
ATOM     71  O   UNL A   1      40.510  35.273  39.414  1.00  0.00    -0.744 OA
ENDBRANCH  67  68
ENDBRANCH  48  62
BRANCH  49  72
ATOM     72  C   UNL A   1      43.031  25.243  28.415  1.00  0.00    -0.014 A 
ATOM     73  C   UNL A   1      43.884  25.455  27.317  1.00  0.00     0.010 A 
ATOM     74  C   UNL A   1      42.401  23.993  28.559  1.00  0.00     0.010 A 
ATOM     75  C   UNL A   1      44.093  24.444  26.376  1.00  0.00     0.020 A 
ATOM     76  C   UNL A   1      42.628  22.970  27.633  1.00  0.00     0.020 A 
ATOM     77  C   UNL A   1      43.468  23.206  26.543  1.00  0.00     0.054 A 
BRANCH  77  78
ATOM     78  S   UNL A   1      43.804  21.890  25.339  1.00  0.00     0.124 S 
ATOM     79  O   UNL A   1      43.574  22.573  24.070  1.00  0.00    -0.237 OA
ATOM     80  O   UNL A   1      45.194  21.545  25.630  1.00  0.00    -0.237 OA
ATOM     81  O   UNL A   1      42.830  20.857  25.679  1.00  0.00    -0.744 OA
ENDBRANCH  77  78
ENDBRANCH  49  72
BRANCH  61  82
ATOM     82  C   UNL A   1      46.399  27.062  34.248  1.00  0.00    -0.014 A 
ATOM     83  C   UNL A   1      47.687  27.572  34.007  1.00  0.00     0.010 A 
ATOM     84  C   UNL A   1      46.233  26.042  35.204  1.00  0.00     0.010 A 
ATOM     85  C   UNL A   1      48.792  27.048  34.684  1.00  0.00     0.020 A 
ATOM     86  C   UNL A   1      47.330  25.538  35.904  1.00  0.00     0.020 A 
ATOM     87  C   UNL A   1      48.605  26.034  35.630  1.00  0.00     0.054 A 
BRANCH  87  88
ATOM     88  S   UNL A   1      50.048  25.403  36.528  1.00  0.00     0.124 S 
ATOM     89  O   UNL A   1      49.482  25.100  37.840  1.00  0.00    -0.237 OA
ATOM     90  O   UNL A   1      50.442  24.244  35.729  1.00  0.00    -0.237 OA
ATOM     91  O   UNL A   1      50.990  26.520  36.500  1.00  0.00    -0.744 OA
ENDBRANCH  87  88
ENDBRANCH  61  82
ENDBRANCH  35  36
ENDBRANCH  27  30
ENDBRANCH  25  26
ENDBRANCH   1  25
TORSDOF 18
ENDMDL
