MODEL 1
REMARK VINA RESULT:     -11.5      0.000      0.000
REMARK SMILES CC(=O)N1CCC[C@@H](Cc2nccnc2C(=O)NCCCNC(=O)c2ccc(-c3c4nc(c(-c5ccc(S(=O)(=O)[O-])cc5)c5ccc([nH]5)c(-c5ccc(S(=O)(=O)[O-])cc5)c5nc(c(-c6ccc(S(=O)(=O)[O-])cc6)c6ccc3[nH]6)C=C5)C=C4)cc2)C1
REMARK SMILES IDX 20 1 19 2 18 3 16 4 17 5 15 7 10 8 11 9 12 10 14 11 13 12
REMARK SMILES IDX 9 13 8 14 4 15 5 16 85 17 6 18 7 19 2 20 1 21 3 22 21 23
REMARK SMILES IDX 22 24 23 25 24 27 25 28 26 29 84 30 27 31 83 32 28 33 29 34
REMARK SMILES IDX 30 35 77 36 31 37 82 38 76 39 78 40 32 41 81 42 75 43 74 44
REMARK SMILES IDX 33 46 63 47 44 48 62 49 45 50 48 51 61 52 79 53 46 54 47 55
REMARK SMILES IDX 60 57 80 58 49 59 34 60 35 61 43 62 36 63 42 64 37 65 38 66
REMARK SMILES IDX 39 67 40 68 41 69 64 70 65 71 73 72 66 73 72 74 67 75 68 76
REMARK SMILES IDX 69 77 70 78 71 79 50 80 51 81 59 82 52 83 58 84 53 85 54 86
REMARK SMILES IDX 55 87 56 88 57 89
REMARK H PARENT 18 6 22 26 78 45 48 56
REMARK Flexibility Score: inf
ROOT
ATOM      1  C   UNL A   1      37.983  23.702  25.661  1.00  0.00     0.042 C 
ENDROOT
BRANCH   1   2
ATOM      2  C   UNL A   1      37.297  22.453  25.084  1.00  0.00     0.118 C 
BRANCH   2   3
ATOM      3  N   UNL A   1      36.438  22.830  23.974  1.00  0.00    -0.351 N 
ATOM      4  C   UNL A   1      35.115  23.161  23.799  1.00  0.00     0.271 C 
ATOM      5  O   UNL A   1      34.807  23.353  22.614  1.00  0.00    -0.267 OA
ATOM      6  H   UNL A   1      36.933  22.854  23.124  1.00  0.00     0.163 HD
BRANCH   4   7
ATOM      7  C   UNL A   1      34.039  23.388  24.837  1.00  0.00     0.149 A 
ATOM      8  C   UNL A   1      33.361  22.464  25.645  1.00  0.00     0.072 A 
ATOM      9  N   UNL A   1      32.269  22.828  26.391  1.00  0.00    -0.257 NA
ATOM     10  C   UNL A   1      31.848  24.103  26.288  1.00  0.00     0.131 A 
ATOM     11  N   UNL A   1      33.604  24.691  24.793  1.00  0.00    -0.248 NA
ATOM     12  C   UNL A   1      32.509  25.019  25.506  1.00  0.00     0.132 A 
BRANCH   8  13
ATOM     13  C   UNL A   1      33.712  21.030  25.839  1.00  0.00     0.064 C 
BRANCH  13  14
ATOM     14  C   UNL A   1      33.452  20.037  24.706  1.00  0.00     0.015 C 
ATOM     15  N   UNL A   1      33.084  17.731  24.044  1.00  0.00    -0.343 N 
ATOM     16  C   UNL A   1      32.131  18.091  22.993  1.00  0.00     0.119 C 
ATOM     17  C   UNL A   1      33.101  18.629  25.199  1.00  0.00     0.123 C 
ATOM     18  C   UNL A   1      32.355  19.523  22.507  1.00  0.00     0.022 C 
ATOM     19  C   UNL A   1      32.415  20.511  23.677  1.00  0.00     0.007 C 
BRANCH  15  20
ATOM     20  C   UNL A   1      33.979  16.695  23.822  1.00  0.00     0.219 C 
ATOM     21  C   UNL A   1      34.667  16.105  25.027  1.00  0.00     0.114 C 
ATOM     22  O   UNL A   1      34.216  16.250  22.701  1.00  0.00    -0.275 OA
ENDBRANCH  15  20
ENDBRANCH  13  14
ENDBRANCH   8  13
ENDBRANCH   4   7
ENDBRANCH   2   3
ENDBRANCH   1   2
BRANCH   1  23
ATOM     23  C   UNL A   1      38.990  23.417  26.768  1.00  0.00     0.118 C 
BRANCH  23  24
ATOM     24  N   UNL A   1      40.355  23.523  26.280  1.00  0.00    -0.352 N 
ATOM     25  C   UNL A   1      41.265  24.542  26.419  1.00  0.00     0.251 C 
ATOM     26  H   UNL A   1      40.677  22.744  25.770  1.00  0.00     0.163 HD
ATOM     27  O   UNL A   1      42.256  24.549  25.679  1.00  0.00    -0.269 OA
BRANCH  25  28
ATOM     28  C   UNL A   1      41.094  25.623  27.423  1.00  0.00     0.039 A 
ATOM     29  C   UNL A   1      41.992  26.698  27.423  1.00  0.00     0.014 A 
ATOM     30  C   UNL A   1      40.121  25.550  28.423  1.00  0.00     0.014 A 
ATOM     31  C   UNL A   1      41.897  27.703  28.397  1.00  0.00     0.010 A 
ATOM     32  C   UNL A   1      39.973  26.592  29.340  1.00  0.00     0.010 A 
ATOM     33  C   UNL A   1      40.876  27.666  29.358  1.00  0.00    -0.014 A 
BRANCH  33  34
ATOM     34  C   UNL A   1      40.768  28.683  30.440  1.00  0.00     0.031 A 
ATOM     35  C   UNL A   1      41.670  28.583  31.646  1.00  0.00     0.074 A 
ATOM     36  C   UNL A   1      39.826  29.645  30.388  1.00  0.00     0.049 A 
ATOM     37  N   UNL A   1      41.637  29.258  32.766  1.00  0.00    -0.248 NA
ATOM     38  C   UNL A   1      42.732  27.562  31.595  1.00  0.00     0.031 C 
ATOM     39  C   UNL A   1      38.879  29.851  29.291  1.00  0.00     0.029 A 
ATOM     40  N   UNL A   1      39.499  30.624  31.296  1.00  0.00    -0.354 N 
ATOM     41  C   UNL A   1      42.638  28.716  33.566  1.00  0.00     0.074 A 
ATOM     42  C   UNL A   1      43.238  27.633  32.817  1.00  0.00     0.031 C 
ATOM     43  C   UNL A   1      38.087  30.897  29.583  1.00  0.00     0.029 A 
ATOM     44  C   UNL A   1      38.438  31.409  30.904  1.00  0.00     0.049 A 
ATOM     45  H   UNL A   1      39.978  30.752  32.146  1.00  0.00     0.167 HD
ATOM     46  C   UNL A   1      43.032  29.089  34.807  1.00  0.00     0.031 A 
ATOM     47  C   UNL A   1      37.808  32.415  31.543  1.00  0.00     0.031 A 
ATOM     48  C   UNL A   1      42.465  30.192  35.535  1.00  0.00     0.049 A 
ATOM     49  C   UNL A   1      38.276  32.827  32.914  1.00  0.00     0.074 A 
ATOM     50  C   UNL A   1      42.831  30.683  36.776  1.00  0.00     0.029 A 
ATOM     51  N   UNL A   1      41.421  30.984  35.082  1.00  0.00    -0.354 N 
ATOM     52  N   UNL A   1      39.242  32.318  33.642  1.00  0.00    -0.248 NA
ATOM     53  C   UNL A   1      37.575  33.954  33.546  1.00  0.00     0.031 C 
ATOM     54  C   UNL A   1      41.986  31.752  37.088  1.00  0.00     0.029 A 
ATOM     55  C   UNL A   1      41.126  31.955  36.021  1.00  0.00     0.049 A 
ATOM     56  H   UNL A   1      40.959  30.870  34.221  1.00  0.00     0.167 HD
ATOM     57  C   UNL A   1      39.285  33.085  34.802  1.00  0.00     0.074 A 
ATOM     58  C   UNL A   1      38.254  34.094  34.678  1.00  0.00     0.031 C 
ATOM     59  C   UNL A   1      40.108  32.965  35.873  1.00  0.00     0.031 A 
BRANCH  46  60
ATOM     60  C   UNL A   1      44.132  28.289  35.458  1.00  0.00    -0.014 A 
ATOM     61  C   UNL A   1      45.483  28.642  35.296  1.00  0.00     0.010 A 
ATOM     62  C   UNL A   1      43.805  27.185  36.266  1.00  0.00     0.010 A 
ATOM     63  C   UNL A   1      46.490  27.874  35.887  1.00  0.00     0.020 A 
ATOM     64  C   UNL A   1      44.809  26.432  36.883  1.00  0.00     0.020 A 
ATOM     65  C   UNL A   1      46.147  26.770  36.671  1.00  0.00     0.054 A 
BRANCH  65  66
ATOM     66  S   UNL A   1      47.473  25.794  37.434  1.00  0.00     0.124 S 
ATOM     67  O   UNL A   1      47.103  25.841  38.848  1.00  0.00    -0.237 OA
ATOM     68  O   UNL A   1      47.325  24.491  36.791  1.00  0.00    -0.237 OA
ATOM     69  O   UNL A   1      48.686  26.526  37.085  1.00  0.00    -0.744 OA
ENDBRANCH  65  66
ENDBRANCH  46  60
BRANCH  47  70
ATOM     70  C   UNL A   1      36.674  33.120  30.884  1.00  0.00    -0.014 A 
ATOM     71  C   UNL A   1      35.361  32.949  31.358  1.00  0.00     0.010 A 
ATOM     72  C   UNL A   1      36.897  33.974  29.789  1.00  0.00     0.010 A 
ATOM     73  C   UNL A   1      34.292  33.599  30.736  1.00  0.00     0.020 A 
ATOM     74  C   UNL A   1      35.833  34.647  29.180  1.00  0.00     0.020 A 
ATOM     75  C   UNL A   1      34.533  34.444  29.650  1.00  0.00     0.054 A 
BRANCH  75  76
ATOM     76  S   UNL A   1      33.131  35.302  28.882  1.00  0.00     0.124 S 
ATOM     77  O   UNL A   1      32.382  35.761  30.049  1.00  0.00    -0.237 OA
ATOM     78  O   UNL A   1      33.788  36.350  28.105  1.00  0.00    -0.237 OA
ATOM     79  O   UNL A   1      32.479  34.262  28.092  1.00  0.00    -0.744 OA
ENDBRANCH  75  76
ENDBRANCH  47  70
BRANCH  59  80
ATOM     80  C   UNL A   1      39.972  33.979  36.977  1.00  0.00    -0.014 A 
ATOM     81  C   UNL A   1      40.507  35.272  36.850  1.00  0.00     0.010 A 
ATOM     82  C   UNL A   1      39.222  33.652  38.122  1.00  0.00     0.010 A 
ATOM     83  C   UNL A   1      40.311  36.217  37.861  1.00  0.00     0.020 A 
ATOM     84  C   UNL A   1      39.005  34.602  39.124  1.00  0.00     0.020 A 
ATOM     85  C   UNL A   1      39.558  35.876  38.990  1.00  0.00     0.054 A 
BRANCH  85  86
ATOM     86  S   UNL A   1      39.259  37.140  40.257  1.00  0.00     0.124 S 
ATOM     87  O   UNL A   1      40.612  37.422  40.731  1.00  0.00    -0.237 OA
ATOM     88  O   UNL A   1      38.622  38.214  39.498  1.00  0.00    -0.237 OA
ATOM     89  O   UNL A   1      38.390  36.467  41.220  1.00  0.00    -0.744 OA
ENDBRANCH  85  86
ENDBRANCH  59  80
ENDBRANCH  33  34
ENDBRANCH  25  28
ENDBRANCH  23  24
ENDBRANCH   1  23
TORSDOF 16
ENDMDL
MODEL 2
REMARK VINA RESULT:     -11.1      2.867      8.339
REMARK SMILES CC(=O)N1CCC[C@@H](Cc2nccnc2C(=O)NCCCNC(=O)c2ccc(-c3c4nc(c(-c5ccc(S(=O)(=O)[O-])cc5)c5ccc([nH]5)c(-c5ccc(S(=O)(=O)[O-])cc5)c5nc(c(-c6ccc(S(=O)(=O)[O-])cc6)c6ccc3[nH]6)C=C5)C=C4)cc2)C1
REMARK SMILES IDX 20 1 19 2 18 3 16 4 17 5 15 7 10 8 11 9 12 10 14 11 13 12
REMARK SMILES IDX 9 13 8 14 4 15 5 16 85 17 6 18 7 19 2 20 1 21 3 22 21 23
REMARK SMILES IDX 22 24 23 25 24 27 25 28 26 29 84 30 27 31 83 32 28 33 29 34
REMARK SMILES IDX 30 35 77 36 31 37 82 38 76 39 78 40 32 41 81 42 75 43 74 44
REMARK SMILES IDX 33 46 63 47 44 48 62 49 45 50 48 51 61 52 79 53 46 54 47 55
REMARK SMILES IDX 60 57 80 58 49 59 34 60 35 61 43 62 36 63 42 64 37 65 38 66
REMARK SMILES IDX 39 67 40 68 41 69 64 70 65 71 73 72 66 73 72 74 67 75 68 76
REMARK SMILES IDX 69 77 70 78 71 79 50 80 51 81 59 82 52 83 58 84 53 85 54 86
REMARK SMILES IDX 55 87 56 88 57 89
REMARK H PARENT 18 6 22 26 78 45 48 56
REMARK Flexibility Score: inf
ROOT
ATOM      1  C   UNL A   1      33.286  27.942  26.882  1.00  0.00     0.042 C 
ENDROOT
BRANCH   1   2
ATOM      2  C   UNL A   1      31.788  28.232  27.077  1.00  0.00     0.118 C 
BRANCH   2   3
ATOM      3  N   UNL A   1      31.034  26.992  27.026  1.00  0.00    -0.351 N 
ATOM      4  C   UNL A   1      30.508  26.178  26.050  1.00  0.00     0.271 C 
ATOM      5  O   UNL A   1      29.863  25.221  26.501  1.00  0.00    -0.267 OA
ATOM      6  H   UNL A   1      30.851  26.641  27.927  1.00  0.00     0.163 HD
BRANCH   4   7
ATOM      7  C   UNL A   1      30.673  26.254  24.549  1.00  0.00     0.149 A 
ATOM      8  C   UNL A   1      31.236  25.328  23.658  1.00  0.00     0.072 A 
ATOM      9  N   UNL A   1      31.485  25.652  22.348  1.00  0.00    -0.257 NA
ATOM     10  C   UNL A   1      31.201  26.909  21.958  1.00  0.00     0.131 A 
ATOM     11  N   UNL A   1      30.356  27.514  24.100  1.00  0.00    -0.248 NA
ATOM     12  C   UNL A   1      30.641  27.822  22.819  1.00  0.00     0.132 A 
BRANCH   8  13
ATOM     13  C   UNL A   1      31.607  23.919  23.961  1.00  0.00     0.064 C 
BRANCH  13  14
ATOM     14  C   UNL A   1      33.009  23.610  24.486  1.00  0.00     0.015 C 
ATOM     15  N   UNL A   1      35.005  22.239  24.324  1.00  0.00    -0.343 N 
ATOM     16  C   UNL A   1      35.904  23.351  24.634  1.00  0.00     0.119 C 
ATOM     17  C   UNL A   1      33.779  22.610  23.617  1.00  0.00     0.123 C 
ATOM     18  C   UNL A   1      35.183  24.442  25.426  1.00  0.00     0.022 C 
ATOM     19  C   UNL A   1      33.871  24.854  24.751  1.00  0.00     0.007 C 
BRANCH  15  20
ATOM     20  C   UNL A   1      35.285  20.978  24.830  1.00  0.00     0.219 C 
ATOM     21  C   UNL A   1      34.123  20.038  25.030  1.00  0.00     0.114 C 
ATOM     22  O   UNL A   1      36.425  20.612  25.108  1.00  0.00    -0.275 OA
ENDBRANCH  15  20
ENDBRANCH  13  14
ENDBRANCH   8  13
ENDBRANCH   4   7
ENDBRANCH   2   3
ENDBRANCH   1   2
BRANCH   1  23
ATOM     23  C   UNL A   1      34.033  28.988  26.064  1.00  0.00     0.118 C 
BRANCH  23  24
ATOM     24  N   UNL A   1      33.696  30.334  26.494  1.00  0.00    -0.352 N 
ATOM     25  C   UNL A   1      34.232  31.098  27.502  1.00  0.00     0.251 C 
ATOM     26  H   UNL A   1      32.972  30.765  25.986  1.00  0.00     0.163 HD
ATOM     27  O   UNL A   1      33.602  32.091  27.885  1.00  0.00    -0.269 OA
BRANCH  25  28
ATOM     28  C   UNL A   1      35.533  30.766  28.139  1.00  0.00     0.039 A 
ATOM     29  C   UNL A   1      35.605  29.666  29.004  1.00  0.00     0.014 A 
ATOM     30  C   UNL A   1      36.661  31.574  27.971  1.00  0.00     0.014 A 
ATOM     31  C   UNL A   1      36.801  29.364  29.670  1.00  0.00     0.010 A 
ATOM     32  C   UNL A   1      37.873  31.224  28.568  1.00  0.00     0.010 A 
ATOM     33  C   UNL A   1      37.952  30.133  29.447  1.00  0.00    -0.014 A 
BRANCH  33  34
ATOM     34  C   UNL A   1      39.229  29.879  30.171  1.00  0.00     0.031 A 
ATOM     35  C   UNL A   1      40.156  28.795  29.682  1.00  0.00     0.074 A 
ATOM     36  C   UNL A   1      39.526  30.556  31.298  1.00  0.00     0.049 A 
ATOM     37  N   UNL A   1      41.229  28.302  30.246  1.00  0.00    -0.248 NA
ATOM     38  C   UNL A   1      39.810  28.157  28.399  1.00  0.00     0.031 C 
ATOM     39  C   UNL A   1      38.714  31.620  31.891  1.00  0.00     0.029 A 
ATOM     40  N   UNL A   1      40.592  30.434  32.156  1.00  0.00    -0.354 N 
ATOM     41  C   UNL A   1      41.657  27.273  29.414  1.00  0.00     0.074 A 
ATOM     42  C   UNL A   1      40.710  27.188  28.325  1.00  0.00     0.031 C 
ATOM     43  C   UNL A   1      39.316  32.061  33.009  1.00  0.00     0.029 A 
ATOM     44  C   UNL A   1      40.532  31.286  33.237  1.00  0.00     0.049 A 
ATOM     45  H   UNL A   1      41.329  29.799  32.013  1.00  0.00     0.167 HD
ATOM     46  C   UNL A   1      42.746  26.476  29.537  1.00  0.00     0.031 A 
ATOM     47  C   UNL A   1      41.352  31.415  34.298  1.00  0.00     0.031 A 
ATOM     48  C   UNL A   1      43.711  26.587  30.597  1.00  0.00     0.049 A 
ATOM     49  C   UNL A   1      42.568  30.532  34.405  1.00  0.00     0.074 A 
ATOM     50  C   UNL A   1      44.875  25.862  30.782  1.00  0.00     0.029 A 
ATOM     51  N   UNL A   1      43.631  27.490  31.647  1.00  0.00    -0.354 N 
ATOM     52  N   UNL A   1      42.969  29.582  33.593  1.00  0.00    -0.248 NA
ATOM     53  C   UNL A   1      43.445  30.743  35.565  1.00  0.00     0.031 C 
ATOM     54  C   UNL A   1      45.483  26.305  31.960  1.00  0.00     0.029 A 
ATOM     55  C   UNL A   1      44.721  27.337  32.484  1.00  0.00     0.049 A 
ATOM     56  H   UNL A   1      42.906  28.143  31.776  1.00  0.00     0.167 HD
ATOM     57  C   UNL A   1      44.162  29.107  34.129  1.00  0.00     0.074 A 
ATOM     58  C   UNL A   1      44.421  29.876  35.328  1.00  0.00     0.031 C 
ATOM     59  C   UNL A   1      44.973  28.124  33.664  1.00  0.00     0.031 A 
BRANCH  46  60
ATOM     60  C   UNL A   1      42.946  25.405  28.495  1.00  0.00    -0.014 A 
ATOM     61  C   UNL A   1      42.364  24.133  28.637  1.00  0.00     0.010 A 
ATOM     62  C   UNL A   1      43.706  25.685  27.345  1.00  0.00     0.010 A 
ATOM     63  C   UNL A   1      42.581  23.144  27.673  1.00  0.00     0.020 A 
ATOM     64  C   UNL A   1      43.901  24.708  26.364  1.00  0.00     0.020 A 
ATOM     65  C   UNL A   1      43.354  23.436  26.546  1.00  0.00     0.054 A 
BRANCH  65  66
ATOM     66  S   UNL A   1      43.614  22.138  25.306  1.00  0.00     0.124 S 
ATOM     67  O   UNL A   1      43.411  22.871  24.058  1.00  0.00    -0.237 OA
ATOM     68  O   UNL A   1      44.988  21.713  25.566  1.00  0.00    -0.237 OA
ATOM     69  O   UNL A   1      42.589  21.148  25.619  1.00  0.00    -0.744 OA
ENDBRANCH  65  66
ENDBRANCH  46  60
BRANCH  47  70
ATOM     70  C   UNL A   1      41.063  32.438  35.342  1.00  0.00    -0.014 A 
ATOM     71  C   UNL A   1      41.486  33.768  35.169  1.00  0.00     0.010 A 
ATOM     72  C   UNL A   1      40.354  32.094  36.506  1.00  0.00     0.010 A 
ATOM     73  C   UNL A   1      41.226  34.728  36.151  1.00  0.00     0.020 A 
ATOM     74  C   UNL A   1      40.069  33.058  37.479  1.00  0.00     0.020 A 
ATOM     75  C   UNL A   1      40.520  34.368  37.301  1.00  0.00     0.054 A 
BRANCH  75  76
ATOM     76  S   UNL A   1      40.167  35.641  38.544  1.00  0.00     0.124 S 
ATOM     77  O   UNL A   1      39.890  36.808  37.710  1.00  0.00    -0.237 OA
ATOM     78  O   UNL A   1      39.016  35.084  39.251  1.00  0.00    -0.237 OA
ATOM     79  O   UNL A   1      41.398  35.712  39.326  1.00  0.00    -0.744 OA
ENDBRANCH  75  76
ENDBRANCH  47  70
BRANCH  59  80
ATOM     80  C   UNL A   1      46.246  27.853  34.419  1.00  0.00    -0.014 A 
ATOM     81  C   UNL A   1      47.426  28.566  34.141  1.00  0.00     0.010 A 
ATOM     82  C   UNL A   1      46.235  26.928  35.479  1.00  0.00     0.010 A 
ATOM     83  C   UNL A   1      48.577  28.344  34.899  1.00  0.00     0.020 A 
ATOM     84  C   UNL A   1      47.379  26.720  36.254  1.00  0.00     0.020 A 
ATOM     85  C   UNL A   1      48.546  27.424  35.953  1.00  0.00     0.054 A 
BRANCH  85  86
ATOM     86  S   UNL A   1      50.034  27.202  36.967  1.00  0.00     0.124 S 
ATOM     87  O   UNL A   1      50.274  25.766  36.844  1.00  0.00    -0.237 OA
ATOM     88  O   UNL A   1      51.010  28.062  36.301  1.00  0.00    -0.237 OA
ATOM     89  O   UNL A   1      49.620  27.652  38.294  1.00  0.00    -0.744 OA
ENDBRANCH  85  86
ENDBRANCH  59  80
ENDBRANCH  33  34
ENDBRANCH  25  28
ENDBRANCH  23  24
ENDBRANCH   1  23
TORSDOF 16
ENDMDL
MODEL 3
REMARK VINA RESULT:     -11.1      1.845      3.666
REMARK SMILES CC(=O)N1CCC[C@@H](Cc2nccnc2C(=O)NCCCNC(=O)c2ccc(-c3c4nc(c(-c5ccc(S(=O)(=O)[O-])cc5)c5ccc([nH]5)c(-c5ccc(S(=O)(=O)[O-])cc5)c5nc(c(-c6ccc(S(=O)(=O)[O-])cc6)c6ccc3[nH]6)C=C5)C=C4)cc2)C1
REMARK SMILES IDX 20 1 19 2 18 3 16 4 17 5 15 7 10 8 11 9 12 10 14 11 13 12
REMARK SMILES IDX 9 13 8 14 4 15 5 16 85 17 6 18 7 19 2 20 1 21 3 22 21 23
REMARK SMILES IDX 22 24 23 25 24 27 25 28 26 29 84 30 27 31 83 32 28 33 29 34
REMARK SMILES IDX 30 35 77 36 31 37 82 38 76 39 78 40 32 41 81 42 75 43 74 44
REMARK SMILES IDX 33 46 63 47 44 48 62 49 45 50 48 51 61 52 79 53 46 54 47 55
REMARK SMILES IDX 60 57 80 58 49 59 34 60 35 61 43 62 36 63 42 64 37 65 38 66
REMARK SMILES IDX 39 67 40 68 41 69 64 70 65 71 73 72 66 73 72 74 67 75 68 76
REMARK SMILES IDX 69 77 70 78 71 79 50 80 51 81 59 82 52 83 58 84 53 85 54 86
REMARK SMILES IDX 55 87 56 88 57 89
REMARK H PARENT 18 6 22 26 78 45 48 56
REMARK Flexibility Score: inf
ROOT
ATOM      1  C   UNL A   1      39.551  22.370  26.627  1.00  0.00     0.042 C 
ENDROOT
BRANCH   1   2
ATOM      2  C   UNL A   1      38.454  23.410  26.342  1.00  0.00     0.118 C 
BRANCH   2   3
ATOM      3  N   UNL A   1      37.804  23.108  25.078  1.00  0.00    -0.351 N 
ATOM      4  C   UNL A   1      36.529  22.822  24.650  1.00  0.00     0.271 C 
ATOM      5  O   UNL A   1      36.461  22.560  23.441  1.00  0.00    -0.267 OA
ATOM      6  H   UNL A   1      38.445  23.108  24.331  1.00  0.00     0.163 HD
BRANCH   4   7
ATOM      7  C   UNL A   1      35.230  22.859  25.423  1.00  0.00     0.149 A 
ATOM      8  C   UNL A   1      34.305  23.902  25.578  1.00  0.00     0.072 A 
ATOM      9  N   UNL A   1      33.277  23.822  26.483  1.00  0.00    -0.257 NA
ATOM     10  C   UNL A   1      33.211  22.715  27.246  1.00  0.00     0.131 A 
ATOM     11  N   UNL A   1      35.102  21.726  26.191  1.00  0.00    -0.248 NA
ATOM     12  C   UNL A   1      34.106  21.683  27.098  1.00  0.00     0.132 A 
BRANCH   8  13
ATOM     13  C   UNL A   1      34.271  25.178  24.812  1.00  0.00     0.064 C 
BRANCH  13  14
ATOM     14  C   UNL A   1      33.029  26.066  24.894  1.00  0.00     0.015 C 
ATOM     15  N   UNL A   1      32.117  28.289  25.238  1.00  0.00    -0.343 N 
ATOM     16  C   UNL A   1      31.045  28.099  24.260  1.00  0.00     0.119 C 
ATOM     17  C   UNL A   1      33.354  27.563  24.952  1.00  0.00     0.123 C 
ATOM     18  C   UNL A   1      30.721  26.616  24.074  1.00  0.00     0.022 C 
ATOM     19  C   UNL A   1      31.985  25.794  23.802  1.00  0.00     0.007 C 
BRANCH  15  20
ATOM     20  C   UNL A   1      31.855  28.994  26.403  1.00  0.00     0.219 C 
ATOM     21  C   UNL A   1      31.560  28.192  27.646  1.00  0.00     0.114 C 
ATOM     22  O   UNL A   1      31.863  30.222  26.454  1.00  0.00    -0.275 OA
ENDBRANCH  15  20
ENDBRANCH  13  14
ENDBRANCH   8  13
ENDBRANCH   4   7
ENDBRANCH   2   3
ENDBRANCH   1   2
BRANCH   1  23
ATOM     23  C   UNL A   1      40.858  22.955  27.147  1.00  0.00     0.118 C 
BRANCH  23  24
ATOM     24  N   UNL A   1      41.543  23.716  26.116  1.00  0.00    -0.352 N 
ATOM     25  C   UNL A   1      41.790  25.065  26.034  1.00  0.00     0.251 C 
ATOM     26  H   UNL A   1      41.882  23.184  25.361  1.00  0.00     0.163 HD
ATOM     27  O   UNL A   1      42.123  25.535  24.939  1.00  0.00    -0.269 OA
BRANCH  25  28
ATOM     28  C   UNL A   1      41.668  25.964  27.210  1.00  0.00     0.039 A 
ATOM     29  C   UNL A   1      40.537  25.860  28.030  1.00  0.00     0.014 A 
ATOM     30  C   UNL A   1      42.603  26.971  27.466  1.00  0.00     0.014 A 
ATOM     31  C   UNL A   1      40.360  26.736  29.110  1.00  0.00     0.010 A 
ATOM     32  C   UNL A   1      42.469  27.787  28.590  1.00  0.00     0.010 A 
ATOM     33  C   UNL A   1      41.333  27.701  29.409  1.00  0.00    -0.014 A 
BRANCH  33  34
ATOM     34  C   UNL A   1      41.163  28.684  30.515  1.00  0.00     0.031 A 
ATOM     35  C   UNL A   1      42.051  28.594  31.731  1.00  0.00     0.074 A 
ATOM     36  C   UNL A   1      40.178  29.603  30.472  1.00  0.00     0.049 A 
ATOM     37  N   UNL A   1      41.972  29.239  32.867  1.00  0.00    -0.248 NA
ATOM     38  C   UNL A   1      43.159  27.624  31.671  1.00  0.00     0.031 C 
ATOM     39  C   UNL A   1      39.239  29.793  29.366  1.00  0.00     0.029 A 
ATOM     40  N   UNL A   1      39.794  30.542  31.398  1.00  0.00    -0.354 N 
ATOM     41  C   UNL A   1      42.985  28.722  33.668  1.00  0.00     0.074 A 
ATOM     42  C   UNL A   1      43.644  27.687  32.902  1.00  0.00     0.031 C 
ATOM     43  C   UNL A   1      38.396  30.794  29.672  1.00  0.00     0.029 A 
ATOM     44  C   UNL A   1      38.704  31.288  31.010  1.00  0.00     0.049 A 
ATOM     45  H   UNL A   1      40.254  30.671  32.259  1.00  0.00     0.167 HD
ATOM     46  C   UNL A   1      43.344  29.081  34.924  1.00  0.00     0.031 A 
ATOM     47  C   UNL A   1      38.020  32.248  31.664  1.00  0.00     0.031 A 
ATOM     48  C   UNL A   1      42.717  30.138  35.671  1.00  0.00     0.049 A 
ATOM     49  C   UNL A   1      38.449  32.646  33.051  1.00  0.00     0.074 A 
ATOM     50  C   UNL A   1      43.041  30.614  36.929  1.00  0.00     0.029 A 
ATOM     51  N   UNL A   1      41.644  30.893  35.222  1.00  0.00    -0.354 N 
ATOM     52  N   UNL A   1      39.426  32.163  33.781  1.00  0.00    -0.248 NA
ATOM     53  C   UNL A   1      37.688  33.723  33.701  1.00  0.00     0.031 C 
ATOM     54  C   UNL A   1      42.144  31.635  37.255  1.00  0.00     0.029 A 
ATOM     55  C   UNL A   1      41.291  31.826  36.180  1.00  0.00     0.049 A 
ATOM     56  H   UNL A   1      41.200  30.781  34.351  1.00  0.00     0.167 HD
ATOM     57  C   UNL A   1      39.417  32.901  34.961  1.00  0.00     0.074 A 
ATOM     58  C   UNL A   1      38.343  33.865  34.846  1.00  0.00     0.031 C 
ATOM     59  C   UNL A   1      40.230  32.792  36.041  1.00  0.00     0.031 A 
BRANCH  46  60
ATOM     60  C   UNL A   1      44.470  28.316  35.573  1.00  0.00    -0.014 A 
ATOM     61  C   UNL A   1      45.791  28.795  35.538  1.00  0.00     0.010 A 
ATOM     62  C   UNL A   1      44.196  27.113  36.249  1.00  0.00     0.010 A 
ATOM     63  C   UNL A   1      46.825  28.060  36.123  1.00  0.00     0.020 A 
ATOM     64  C   UNL A   1      45.224  26.389  36.860  1.00  0.00     0.020 A 
ATOM     65  C   UNL A   1      46.536  26.858  36.775  1.00  0.00     0.054 A 
BRANCH  65  66
ATOM     66  S   UNL A   1      47.896  25.927  37.533  1.00  0.00     0.124 S 
ATOM     67  O   UNL A   1      48.726  25.611  36.372  1.00  0.00    -0.237 OA
ATOM     68  O   UNL A   1      48.468  26.894  38.467  1.00  0.00    -0.237 OA
ATOM     69  O   UNL A   1      47.232  24.784  38.151  1.00  0.00    -0.744 OA
ENDBRANCH  65  66
ENDBRANCH  46  60
BRANCH  47  70
ATOM     70  C   UNL A   1      36.864  32.917  31.005  1.00  0.00    -0.014 A 
ATOM     71  C   UNL A   1      37.078  33.888  30.011  1.00  0.00     0.010 A 
ATOM     72  C   UNL A   1      35.544  32.581  31.357  1.00  0.00     0.010 A 
ATOM     73  C   UNL A   1      35.997  34.527  29.398  1.00  0.00     0.020 A 
ATOM     74  C   UNL A   1      34.458  33.199  30.727  1.00  0.00     0.020 A 
ATOM     75  C   UNL A   1      34.692  34.179  29.760  1.00  0.00     0.054 A 
BRANCH  75  76
ATOM     76  S   UNL A   1      33.306  35.000  28.925  1.00  0.00     0.124 S 
ATOM     77  O   UNL A   1      32.865  33.969  27.988  1.00  0.00    -0.237 OA
ATOM     78  O   UNL A   1      32.392  35.279  30.029  1.00  0.00    -0.237 OA
ATOM     79  O   UNL A   1      33.918  36.177  28.314  1.00  0.00    -0.744 OA
ENDBRANCH  75  76
ENDBRANCH  47  70
BRANCH  59  80
ATOM     80  C   UNL A   1      40.032  33.769  37.167  1.00  0.00    -0.014 A 
ATOM     81  C   UNL A   1      40.777  34.959  37.241  1.00  0.00     0.010 A 
ATOM     82  C   UNL A   1      39.024  33.528  38.119  1.00  0.00     0.010 A 
ATOM     83  C   UNL A   1      40.528  35.883  38.259  1.00  0.00     0.020 A 
ATOM     84  C   UNL A   1      38.758  34.461  39.125  1.00  0.00     0.020 A 
ATOM     85  C   UNL A   1      39.518  35.629  39.193  1.00  0.00     0.054 A 
BRANCH  85  86
ATOM     86  S   UNL A   1      39.168  36.874  40.466  1.00  0.00     0.124 S 
ATOM     87  O   UNL A   1      40.511  37.281  40.871  1.00  0.00    -0.237 OA
ATOM     88  O   UNL A   1      38.402  37.879  39.731  1.00  0.00    -0.237 OA
ATOM     89  O   UNL A   1      38.409  36.136  41.473  1.00  0.00    -0.744 OA
ENDBRANCH  85  86
ENDBRANCH  59  80
ENDBRANCH  33  34
ENDBRANCH  25  28
ENDBRANCH  23  24
ENDBRANCH   1  23
TORSDOF 16
ENDMDL
