MODEL 1
REMARK VINA RESULT:     -11.7      0.000      0.000
REMARK SMILES COc1ccc(S(=O)(=O)N[C@H]2C=C[C@@H](C(=O)NCCCNC(=O)c3ccc(-c4c5nc(c(-c6ccc(S(=O)(=O)[O-])cc6)c6ccc([nH]6)c(-c6ccc(S(=O)(=O)[O-])cc6)c6nc(c(-c7ccc(S(=O)(=O)[O-])cc7)c7ccc4[nH]7)C=C6)C=C5)cc3)C2)cc1
REMARK SMILES IDX 18 1 17 2 15 3 16 4 14 6 11 7 12 8 84 9 13 10 10 11 7 13
REMARK SMILES IDX 8 14 9 15 6 16 3 17 4 18 86 19 5 20 85 21 2 22 1 23 19 24
REMARK SMILES IDX 20 25 21 26 22 27 23 29 24 30 25 31 83 32 26 33 82 34 27 35
REMARK SMILES IDX 28 36 29 37 76 38 30 39 81 40 75 41 77 42 31 43 80 44 74 45
REMARK SMILES IDX 73 46 32 48 62 49 43 50 61 51 44 52 47 53 60 54 78 55 45 56
REMARK SMILES IDX 46 57 59 59 79 60 48 61 33 62 34 63 42 64 35 65 41 66 36 67
REMARK SMILES IDX 37 68 38 69 39 70 40 71 63 72 64 73 72 74 65 75 71 76 66 77
REMARK SMILES IDX 67 78 68 79 69 80 70 81 49 82 50 83 58 84 51 85 57 86 52 87
REMARK SMILES IDX 53 88 54 89 55 90 56 91
REMARK H PARENT 17 5 10 12 21 28 77 47 47 58
REMARK Flexibility Score: inf
ROOT
ATOM      1  C   UNL A   1      38.093  22.247  25.777  1.00  0.00     0.117 C 
ENDROOT
BRANCH   1   2
ATOM      2  N   UNL A   1      37.398  22.505  24.528  1.00  0.00    -0.356 N 
ATOM      3  C   UNL A   1      36.215  23.134  24.295  1.00  0.00     0.226 C 
ATOM      4  O   UNL A   1      35.863  23.259  23.118  1.00  0.00    -0.274 OA
ATOM      5  H   UNL A   1      37.856  22.171  23.723  1.00  0.00     0.163 HD
BRANCH   3   6
ATOM      6  C   UNL A   1      35.325  23.684  25.416  1.00  0.00     0.103 C 
ATOM      7  C   UNL A   1      33.036  24.254  26.008  1.00  0.00     0.093 C 
ATOM      8  C   UNL A   1      33.435  22.947  26.601  1.00  0.00    -0.011 C 
ATOM      9  C   UNL A   1      34.122  24.516  24.958  1.00  0.00     0.042 C 
ATOM     10  C   UNL A   1      34.705  22.643  26.301  1.00  0.00    -0.016 C 
BRANCH   7  11
ATOM     11  N   UNL A   1      31.705  24.352  25.444  1.00  0.00    -0.204 NA
ATOM     12  H   UNL A   1      31.822  24.087  24.465  1.00  0.00     0.142 HD
BRANCH  11  13
ATOM     13  S   UNL A   1      30.690  25.670  25.398  1.00  0.00     0.241 S 
ATOM     14  O   UNL A   1      29.744  25.560  26.484  1.00  0.00    -0.207 OA
ATOM     15  O   UNL A   1      30.260  25.771  24.023  1.00  0.00    -0.207 OA
BRANCH  13  16
ATOM     16  C   UNL A   1      31.704  27.083  25.715  1.00  0.00     0.082 A 
ATOM     17  C   UNL A   1      33.410  29.214  26.300  1.00  0.00     0.118 A 
ATOM     18  C   UNL A   1      32.743  28.541  27.329  1.00  0.00     0.048 A 
ATOM     19  C   UNL A   1      33.210  28.817  24.974  1.00  0.00     0.048 A 
ATOM     20  C   UNL A   1      31.895  27.474  27.043  1.00  0.00     0.025 A 
ATOM     21  C   UNL A   1      32.348  27.757  24.677  1.00  0.00     0.025 A 
BRANCH  17  22
ATOM     22  O   UNL A   1      34.231  30.225  26.718  1.00  0.00    -0.497 OA
ATOM     23  C   UNL A   1      33.666  31.180  27.606  1.00  0.00     0.278 C 
ENDBRANCH  17  22
ENDBRANCH  13  16
ENDBRANCH  11  13
ENDBRANCH   7  11
ENDBRANCH   3   6
ENDBRANCH   1   2
BRANCH   1  24
ATOM     24  C   UNL A   1      38.533  23.534  26.465  1.00  0.00     0.042 C 
BRANCH  24  25
ATOM     25  C   UNL A   1      39.982  23.512  26.925  1.00  0.00     0.118 C 
BRANCH  25  26
ATOM     26  N   UNL A   1      40.860  24.221  26.003  1.00  0.00    -0.352 N 
ATOM     27  C   UNL A   1      41.328  25.511  26.003  1.00  0.00     0.251 C 
ATOM     28  H   UNL A   1      41.174  23.678  25.245  1.00  0.00     0.163 HD
ATOM     29  O   UNL A   1      41.860  25.940  24.980  1.00  0.00    -0.269 OA
BRANCH  27  30
ATOM     30  C   UNL A   1      41.216  26.389  27.193  1.00  0.00     0.039 A 
ATOM     31  C   UNL A   1      40.268  26.071  28.174  1.00  0.00     0.014 A 
ATOM     32  C   UNL A   1      41.955  27.567  27.315  1.00  0.00     0.014 A 
ATOM     33  C   UNL A   1      40.085  26.913  29.275  1.00  0.00     0.010 A 
ATOM     34  C   UNL A   1      41.846  28.351  28.461  1.00  0.00     0.010 A 
ATOM     35  C   UNL A   1      40.884  28.055  29.435  1.00  0.00    -0.014 A 
BRANCH  35  36
ATOM     36  C   UNL A   1      40.682  28.993  30.569  1.00  0.00     0.031 A 
ATOM     37  C   UNL A   1      41.548  28.883  31.798  1.00  0.00     0.074 A 
ATOM     38  C   UNL A   1      39.687  29.899  30.528  1.00  0.00     0.049 A 
ATOM     39  N   UNL A   1      41.478  29.548  32.924  1.00  0.00    -0.248 NA
ATOM     40  C   UNL A   1      42.610  27.863  31.772  1.00  0.00     0.031 C 
ATOM     41  C   UNL A   1      38.741  30.073  29.424  1.00  0.00     0.029 A 
ATOM     42  N   UNL A   1      39.302  30.842  31.448  1.00  0.00    -0.354 N 
ATOM     43  C   UNL A   1      42.450  28.995  33.751  1.00  0.00     0.074 A 
ATOM     44  C   UNL A   1      43.068  27.915  33.013  1.00  0.00     0.031 C 
ATOM     45  C   UNL A   1      37.903  31.079  29.720  1.00  0.00     0.029 A 
ATOM     46  C   UNL A   1      38.234  31.603  31.042  1.00  0.00     0.049 A 
ATOM     47  H   UNL A   1      39.750  30.961  32.317  1.00  0.00     0.167 HD
ATOM     48  C   UNL A   1      42.812  29.361  35.004  1.00  0.00     0.031 A 
ATOM     49  C   UNL A   1      37.596  32.615  31.660  1.00  0.00     0.031 A 
ATOM     50  C   UNL A   1      42.231  30.462  35.721  1.00  0.00     0.049 A 
ATOM     51  C   UNL A   1      38.074  33.070  33.009  1.00  0.00     0.074 A 
ATOM     52  C   UNL A   1      42.561  30.952  36.973  1.00  0.00     0.029 A 
ATOM     53  N   UNL A   1      41.204  31.260  35.237  1.00  0.00    -0.354 N 
ATOM     54  N   UNL A   1      39.022  32.562  33.760  1.00  0.00    -0.248 NA
ATOM     55  C   UNL A   1      37.414  34.251  33.582  1.00  0.00     0.031 C 
ATOM     56  C   UNL A   1      41.722  32.039  37.252  1.00  0.00     0.029 A 
ATOM     57  C   UNL A   1      40.893  32.244  36.160  1.00  0.00     0.049 A 
ATOM     58  H   UNL A   1      40.762  31.144  34.365  1.00  0.00     0.167 HD
ATOM     59  C   UNL A   1      39.087  33.373  34.886  1.00  0.00     0.074 A 
ATOM     60  C   UNL A   1      38.092  34.413  34.711  1.00  0.00     0.031 C 
ATOM     61  C   UNL A   1      39.900  33.269  35.967  1.00  0.00     0.031 A 
BRANCH  48  62
ATOM     62  C   UNL A   1      43.889  28.543  35.667  1.00  0.00    -0.014 A 
ATOM     63  C   UNL A   1      43.567  27.462  36.509  1.00  0.00     0.010 A 
ATOM     64  C   UNL A   1      45.240  28.881  35.474  1.00  0.00     0.010 A 
ATOM     65  C   UNL A   1      44.570  26.781  37.202  1.00  0.00     0.020 A 
ATOM     66  C   UNL A   1      46.249  28.184  36.144  1.00  0.00     0.020 A 
ATOM     67  C   UNL A   1      45.906  27.157  37.028  1.00  0.00     0.054 A 
BRANCH  67  68
ATOM     68  S   UNL A   1      47.193  26.286  37.961  1.00  0.00     0.124 S 
ATOM     69  O   UNL A   1      47.439  27.210  39.066  1.00  0.00    -0.237 OA
ATOM     70  O   UNL A   1      46.541  25.031  38.327  1.00  0.00    -0.237 OA
ATOM     71  O   UNL A   1      48.286  26.158  37.000  1.00  0.00    -0.744 OA
ENDBRANCH  67  68
ENDBRANCH  48  62
BRANCH  49  72
ATOM     72  C   UNL A   1      36.470  33.296  30.969  1.00  0.00    -0.014 A 
ATOM     73  C   UNL A   1      35.251  33.499  31.638  1.00  0.00     0.010 A 
ATOM     74  C   UNL A   1      36.633  33.799  29.666  1.00  0.00     0.010 A 
ATOM     75  C   UNL A   1      34.210  34.194  31.015  1.00  0.00     0.020 A 
ATOM     76  C   UNL A   1      35.601  34.511  29.048  1.00  0.00     0.020 A 
ATOM     77  C   UNL A   1      34.394  34.700  29.725  1.00  0.00     0.054 A 
BRANCH  77  78
ATOM     78  S   UNL A   1      33.065  35.678  28.968  1.00  0.00     0.124 S 
ATOM     79  O   UNL A   1      32.427  34.698  28.095  1.00  0.00    -0.237 OA
ATOM     80  O   UNL A   1      32.280  36.100  30.126  1.00  0.00    -0.237 OA
ATOM     81  O   UNL A   1      33.781  36.754  28.287  1.00  0.00    -0.744 OA
ENDBRANCH  77  78
ENDBRANCH  49  72
BRANCH  61  82
ATOM     82  C   UNL A   1      39.767  34.327  37.027  1.00  0.00    -0.014 A 
ATOM     83  C   UNL A   1      39.022  34.093  38.196  1.00  0.00     0.010 A 
ATOM     84  C   UNL A   1      40.421  35.560  36.860  1.00  0.00     0.010 A 
ATOM     85  C   UNL A   1      38.902  35.092  39.165  1.00  0.00     0.020 A 
ATOM     86  C   UNL A   1      40.319  36.553  37.836  1.00  0.00     0.020 A 
ATOM     87  C   UNL A   1      39.545  36.320  38.975  1.00  0.00     0.054 A 
BRANCH  87  88
ATOM     88  S   UNL A   1      39.398  37.598  40.254  1.00  0.00     0.124 S 
ATOM     89  O   UNL A   1      38.453  38.529  39.642  1.00  0.00    -0.237 OA
ATOM     90  O   UNL A   1      38.892  36.853  41.404  1.00  0.00    -0.237 OA
ATOM     91  O   UNL A   1      40.764  38.098  40.397  1.00  0.00    -0.744 OA
ENDBRANCH  87  88
ENDBRANCH  61  82
ENDBRANCH  35  36
ENDBRANCH  27  30
ENDBRANCH  25  26
ENDBRANCH  24  25
ENDBRANCH   1  24
TORSDOF 17
ENDMDL
MODEL 2
REMARK VINA RESULT:     -11.5      0.978      8.301
REMARK SMILES COc1ccc(S(=O)(=O)N[C@H]2C=C[C@@H](C(=O)NCCCNC(=O)c3ccc(-c4c5nc(c(-c6ccc(S(=O)(=O)[O-])cc6)c6ccc([nH]6)c(-c6ccc(S(=O)(=O)[O-])cc6)c6nc(c(-c7ccc(S(=O)(=O)[O-])cc7)c7ccc4[nH]7)C=C6)C=C5)cc3)C2)cc1
REMARK SMILES IDX 18 1 17 2 15 3 16 4 14 6 11 7 12 8 84 9 13 10 10 11 7 13
REMARK SMILES IDX 8 14 9 15 6 16 3 17 4 18 86 19 5 20 85 21 2 22 1 23 19 24
REMARK SMILES IDX 20 25 21 26 22 27 23 29 24 30 25 31 83 32 26 33 82 34 27 35
REMARK SMILES IDX 28 36 29 37 76 38 30 39 81 40 75 41 77 42 31 43 80 44 74 45
REMARK SMILES IDX 73 46 32 48 62 49 43 50 61 51 44 52 47 53 60 54 78 55 45 56
REMARK SMILES IDX 46 57 59 59 79 60 48 61 33 62 34 63 42 64 35 65 41 66 36 67
REMARK SMILES IDX 37 68 38 69 39 70 40 71 63 72 64 73 72 74 65 75 71 76 66 77
REMARK SMILES IDX 67 78 68 79 69 80 70 81 49 82 50 83 58 84 51 85 57 86 52 87
REMARK SMILES IDX 53 88 54 89 55 90 56 91
REMARK H PARENT 17 5 10 12 21 28 77 47 47 58
REMARK Flexibility Score: inf
ROOT
ATOM      1  C   UNL A   1      37.676  22.508  25.478  1.00  0.00     0.117 C 
ENDROOT
BRANCH   1   2
ATOM      2  N   UNL A   1      36.535  21.929  26.166  1.00  0.00    -0.356 N 
ATOM      3  C   UNL A   1      35.203  22.123  25.973  1.00  0.00     0.226 C 
ATOM      4  O   UNL A   1      34.428  21.467  26.676  1.00  0.00    -0.274 OA
ATOM      5  H   UNL A   1      36.763  21.297  26.885  1.00  0.00     0.163 HD
BRANCH   3   6
ATOM      6  C   UNL A   1      34.642  23.104  24.936  1.00  0.00     0.103 C 
ATOM      7  C   UNL A   1      32.763  24.561  24.423  1.00  0.00     0.093 C 
ATOM      8  C   UNL A   1      33.928  25.342  24.926  1.00  0.00    -0.011 C 
ATOM      9  C   UNL A   1      33.116  23.116  24.796  1.00  0.00     0.042 C 
ATOM     10  C   UNL A   1      34.976  24.546  25.182  1.00  0.00    -0.016 C 
BRANCH   7  11
ATOM     11  N   UNL A   1      31.450  24.938  24.906  1.00  0.00    -0.204 NA
ATOM     12  H   UNL A   1      30.853  24.147  24.666  1.00  0.00     0.142 HD
BRANCH  11  13
ATOM     13  S   UNL A   1      30.543  26.276  24.512  1.00  0.00     0.241 S 
ATOM     14  O   UNL A   1      29.195  26.075  24.990  1.00  0.00    -0.207 OA
ATOM     15  O   UNL A   1      30.825  26.530  23.118  1.00  0.00    -0.207 OA
BRANCH  13  16
ATOM     16  C   UNL A   1      31.234  27.625  25.421  1.00  0.00     0.082 A 
ATOM     17  C   UNL A   1      32.183  29.840  26.832  1.00  0.00     0.118 A 
ATOM     18  C   UNL A   1      31.908  29.939  25.464  1.00  0.00     0.048 A 
ATOM     19  C   UNL A   1      31.987  28.620  27.487  1.00  0.00     0.048 A 
ATOM     20  C   UNL A   1      31.429  28.839  24.757  1.00  0.00     0.025 A 
ATOM     21  C   UNL A   1      31.522  27.506  26.782  1.00  0.00     0.025 A 
BRANCH  17  22
ATOM     22  O   UNL A   1      32.623  30.999  27.410  1.00  0.00    -0.497 OA
ATOM     23  C   UNL A   1      34.028  31.141  27.567  1.00  0.00     0.278 C 
ENDBRANCH  17  22
ENDBRANCH  13  16
ENDBRANCH  11  13
ENDBRANCH   7  11
ENDBRANCH   3   6
ENDBRANCH   1   2
BRANCH   1  24
ATOM     24  C   UNL A   1      38.982  22.261  26.224  1.00  0.00     0.042 C 
BRANCH  24  25
ATOM     25  C   UNL A   1      39.546  23.506  26.890  1.00  0.00     0.118 C 
BRANCH  25  26
ATOM     26  N   UNL A   1      40.518  24.186  26.043  1.00  0.00    -0.352 N 
ATOM     27  C   UNL A   1      41.007  25.468  26.070  1.00  0.00     0.251 C 
ATOM     28  H   UNL A   1      40.890  23.627  25.325  1.00  0.00     0.163 HD
ATOM     29  O   UNL A   1      41.639  25.873  25.095  1.00  0.00    -0.269 OA
BRANCH  27  30
ATOM     30  C   UNL A   1      40.802  26.365  27.233  1.00  0.00     0.039 A 
ATOM     31  C   UNL A   1      41.451  27.606  27.246  1.00  0.00     0.014 A 
ATOM     32  C   UNL A   1      40.065  25.969  28.351  1.00  0.00     0.014 A 
ATOM     33  C   UNL A   1      41.339  28.449  28.356  1.00  0.00     0.010 A 
ATOM     34  C   UNL A   1      39.868  26.850  29.412  1.00  0.00     0.010 A 
ATOM     35  C   UNL A   1      40.533  28.083  29.445  1.00  0.00    -0.014 A 
BRANCH  35  36
ATOM     36  C   UNL A   1      40.430  28.934  30.657  1.00  0.00     0.031 A 
ATOM     37  C   UNL A   1      39.355  29.987  30.747  1.00  0.00     0.074 A 
ATOM     38  C   UNL A   1      41.333  28.810  31.649  1.00  0.00     0.049 A 
ATOM     39  N   UNL A   1      39.149  30.883  31.678  1.00  0.00    -0.248 NA
ATOM     40  C   UNL A   1      38.411  30.067  29.620  1.00  0.00     0.031 C 
ATOM     41  C   UNL A   1      42.455  27.871  31.664  1.00  0.00     0.029 A 
ATOM     42  N   UNL A   1      41.450  29.487  32.837  1.00  0.00    -0.354 N 
ATOM     43  C   UNL A   1      38.087  31.660  31.227  1.00  0.00     0.074 A 
ATOM     44  C   UNL A   1      37.718  31.154  29.923  1.00  0.00     0.031 C 
ATOM     45  C   UNL A   1      43.131  28.014  32.816  1.00  0.00     0.029 A 
ATOM     46  C   UNL A   1      42.506  29.069  33.607  1.00  0.00     0.049 A 
ATOM     47  H   UNL A   1      40.834  30.205  33.111  1.00  0.00     0.167 HD
ATOM     48  C   UNL A   1      37.459  32.689  31.847  1.00  0.00     0.031 A 
ATOM     49  C   UNL A   1      42.923  29.483  34.819  1.00  0.00     0.031 A 
ATOM     50  C   UNL A   1      37.793  33.163  33.161  1.00  0.00     0.049 A 
ATOM     51  C   UNL A   1      42.156  30.559  35.532  1.00  0.00     0.074 A 
ATOM     52  C   UNL A   1      37.186  34.161  33.902  1.00  0.00     0.029 A 
ATOM     53  N   UNL A   1      38.821  32.653  33.941  1.00  0.00    -0.354 N 
ATOM     54  N   UNL A   1      41.127  31.254  35.107  1.00  0.00    -0.248 NA
ATOM     55  C   UNL A   1      42.588  30.887  36.897  1.00  0.00     0.031 C 
ATOM     56  C   UNL A   1      37.858  34.266  35.127  1.00  0.00     0.029 A 
ATOM     57  C   UNL A   1      38.862  33.310  35.159  1.00  0.00     0.049 A 
ATOM     58  H   UNL A   1      39.432  31.931  33.669  1.00  0.00     0.167 HD
ATOM     59  C   UNL A   1      40.776  32.089  36.161  1.00  0.00     0.074 A 
ATOM     60  C   UNL A   1      41.694  31.802  37.247  1.00  0.00     0.031 C 
ATOM     61  C   UNL A   1      39.781  33.010  36.225  1.00  0.00     0.031 A 
BRANCH  48  62
ATOM     62  C   UNL A   1      36.348  33.364  31.085  1.00  0.00    -0.014 A 
ATOM     63  C   UNL A   1      36.560  33.876  29.792  1.00  0.00     0.010 A 
ATOM     64  C   UNL A   1      35.086  33.520  31.685  1.00  0.00     0.010 A 
ATOM     65  C   UNL A   1      35.554  34.595  29.141  1.00  0.00     0.020 A 
ATOM     66  C   UNL A   1      34.068  34.215  31.025  1.00  0.00     0.020 A 
ATOM     67  C   UNL A   1      34.319  34.775  29.770  1.00  0.00     0.054 A 
BRANCH  67  68
ATOM     68  S   UNL A   1      33.035  35.740  28.927  1.00  0.00     0.124 S 
ATOM     69  O   UNL A   1      33.833  36.713  28.185  1.00  0.00    -0.237 OA
ATOM     70  O   UNL A   1      32.353  34.737  28.113  1.00  0.00    -0.237 OA
ATOM     71  O   UNL A   1      32.243  36.289  30.025  1.00  0.00    -0.744 OA
ENDBRANCH  67  68
ENDBRANCH  48  62
BRANCH  49  72
ATOM     72  C   UNL A   1      44.099  28.826  35.448  1.00  0.00    -0.014 A 
ATOM     73  C   UNL A   1      45.385  29.364  35.274  1.00  0.00     0.010 A 
ATOM     74  C   UNL A   1      43.930  27.700  36.272  1.00  0.00     0.010 A 
ATOM     75  C   UNL A   1      46.486  28.787  35.914  1.00  0.00     0.020 A 
ATOM     76  C   UNL A   1      45.025  27.131  36.929  1.00  0.00     0.020 A 
ATOM     77  C   UNL A   1      46.297  27.677  36.742  1.00  0.00     0.054 A 
BRANCH  77  78
ATOM     78  S   UNL A   1      47.724  26.997  37.635  1.00  0.00     0.124 S 
ATOM     79  O   UNL A   1      47.147  26.687  38.939  1.00  0.00    -0.237 OA
ATOM     80  O   UNL A   1      48.094  25.845  36.817  1.00  0.00    -0.237 OA
ATOM     81  O   UNL A   1      48.688  28.095  37.620  1.00  0.00    -0.744 OA
ENDBRANCH  77  78
ENDBRANCH  49  72
BRANCH  61  82
ATOM     82  C   UNL A   1      39.616  33.747  37.525  1.00  0.00    -0.014 A 
ATOM     83  C   UNL A   1      40.132  35.044  37.695  1.00  0.00     0.010 A 
ATOM     84  C   UNL A   1      38.909  33.141  38.579  1.00  0.00     0.010 A 
ATOM     85  C   UNL A   1      39.976  35.708  38.914  1.00  0.00     0.020 A 
ATOM     86  C   UNL A   1      38.734  33.812  39.791  1.00  0.00     0.020 A 
ATOM     87  C   UNL A   1      39.284  35.085  39.957  1.00  0.00     0.054 A 
BRANCH  87  88
ATOM     88  S   UNL A   1      39.070  35.971  41.525  1.00  0.00     0.124 S 
ATOM     89  O   UNL A   1      37.741  35.531  41.942  1.00  0.00    -0.237 OA
ATOM     90  O   UNL A   1      40.180  35.474  42.335  1.00  0.00    -0.237 OA
ATOM     91  O   UNL A   1      39.170  37.378  41.141  1.00  0.00    -0.744 OA
ENDBRANCH  87  88
ENDBRANCH  61  82
ENDBRANCH  35  36
ENDBRANCH  27  30
ENDBRANCH  25  26
ENDBRANCH  24  25
ENDBRANCH   1  24
TORSDOF 17
ENDMDL
MODEL 3
REMARK VINA RESULT:     -11.3      1.466      2.005
REMARK SMILES COc1ccc(S(=O)(=O)N[C@H]2C=C[C@@H](C(=O)NCCCNC(=O)c3ccc(-c4c5nc(c(-c6ccc(S(=O)(=O)[O-])cc6)c6ccc([nH]6)c(-c6ccc(S(=O)(=O)[O-])cc6)c6nc(c(-c7ccc(S(=O)(=O)[O-])cc7)c7ccc4[nH]7)C=C6)C=C5)cc3)C2)cc1
REMARK SMILES IDX 18 1 17 2 15 3 16 4 14 6 11 7 12 8 84 9 13 10 10 11 7 13
REMARK SMILES IDX 8 14 9 15 6 16 3 17 4 18 86 19 5 20 85 21 2 22 1 23 19 24
REMARK SMILES IDX 20 25 21 26 22 27 23 29 24 30 25 31 83 32 26 33 82 34 27 35
REMARK SMILES IDX 28 36 29 37 76 38 30 39 81 40 75 41 77 42 31 43 80 44 74 45
REMARK SMILES IDX 73 46 32 48 62 49 43 50 61 51 44 52 47 53 60 54 78 55 45 56
REMARK SMILES IDX 46 57 59 59 79 60 48 61 33 62 34 63 42 64 35 65 41 66 36 67
REMARK SMILES IDX 37 68 38 69 39 70 40 71 63 72 64 73 72 74 65 75 71 76 66 77
REMARK SMILES IDX 67 78 68 79 69 80 70 81 49 82 50 83 58 84 51 85 57 86 52 87
REMARK SMILES IDX 53 88 54 89 55 90 56 91
REMARK H PARENT 17 5 10 12 21 28 77 47 47 58
REMARK Flexibility Score: inf
ROOT
ATOM      1  C   UNL A   1      37.990  23.022  26.047  1.00  0.00     0.117 C 
ENDROOT
BRANCH   1   2
ATOM      2  N   UNL A   1      37.759  22.987  24.613  1.00  0.00    -0.356 N 
ATOM      3  C   UNL A   1      36.605  23.114  23.907  1.00  0.00     0.226 C 
ATOM      4  O   UNL A   1      36.689  23.088  22.674  1.00  0.00    -0.274 OA
ATOM      5  H   UNL A   1      38.567  22.848  24.068  1.00  0.00     0.163 HD
BRANCH   3   6
ATOM      6  C   UNL A   1      35.233  23.289  24.570  1.00  0.00     0.103 C 
ATOM      7  C   UNL A   1      33.203  24.628  24.563  1.00  0.00     0.093 C 
ATOM      8  C   UNL A   1      32.995  23.332  23.858  1.00  0.00    -0.011 C 
ATOM      9  C   UNL A   1      34.729  24.733  24.674  1.00  0.00     0.042 C 
ATOM     10  C   UNL A   1      34.103  22.579  23.885  1.00  0.00    -0.016 C 
BRANCH   7  11
ATOM     11  N   UNL A   1      32.623  25.813  23.964  1.00  0.00    -0.204 NA
ATOM     12  H   UNL A   1      32.821  25.720  22.968  1.00  0.00     0.142 HD
BRANCH  11  13
ATOM     13  S   UNL A   1      32.943  27.411  24.301  1.00  0.00     0.241 S 
ATOM     14  O   UNL A   1      34.072  27.832  23.505  1.00  0.00    -0.207 OA
ATOM     15  O   UNL A   1      32.954  27.501  25.743  1.00  0.00    -0.207 OA
BRANCH  13  16
ATOM     16  C   UNL A   1      31.533  28.323  23.749  1.00  0.00     0.082 A 
ATOM     17  C   UNL A   1      29.406  29.899  22.863  1.00  0.00     0.118 A 
ATOM     18  C   UNL A   1      30.032  30.181  24.081  1.00  0.00     0.048 A 
ATOM     19  C   UNL A   1      29.847  28.817  22.094  1.00  0.00     0.048 A 
ATOM     20  C   UNL A   1      31.098  29.401  24.526  1.00  0.00     0.025 A 
ATOM     21  C   UNL A   1      30.905  28.020  22.541  1.00  0.00     0.025 A 
BRANCH  17  22
ATOM     22  O   UNL A   1      28.392  30.756  22.533  1.00  0.00    -0.497 OA
ATOM     23  C   UNL A   1      27.755  31.434  23.606  1.00  0.00     0.278 C 
ENDBRANCH  17  22
ENDBRANCH  13  16
ENDBRANCH  11  13
ENDBRANCH   7  11
ENDBRANCH   3   6
ENDBRANCH   1   2
BRANCH   1  24
ATOM     24  C   UNL A   1      39.274  22.301  26.439  1.00  0.00     0.042 C 
BRANCH  24  25
ATOM     25  C   UNL A   1      40.281  23.195  27.146  1.00  0.00     0.118 C 
BRANCH  25  26
ATOM     26  N   UNL A   1      41.148  23.894  26.205  1.00  0.00    -0.352 N 
ATOM     27  C   UNL A   1      41.493  25.218  26.097  1.00  0.00     0.251 C 
ATOM     28  H   UNL A   1      41.559  23.313  25.527  1.00  0.00     0.163 HD
ATOM     29  O   UNL A   1      42.049  25.595  25.067  1.00  0.00    -0.269 OA
BRANCH  27  30
ATOM     30  C   UNL A   1      41.224  26.192  27.182  1.00  0.00     0.039 A 
ATOM     31  C   UNL A   1      41.926  27.403  27.186  1.00  0.00     0.014 A 
ATOM     32  C   UNL A   1      40.367  25.897  28.245  1.00  0.00     0.014 A 
ATOM     33  C   UNL A   1      41.751  28.317  28.230  1.00  0.00     0.010 A 
ATOM     34  C   UNL A   1      40.114  26.849  29.230  1.00  0.00     0.010 A 
ATOM     35  C   UNL A   1      40.831  28.053  29.256  1.00  0.00    -0.014 A 
BRANCH  35  36
ATOM     36  C   UNL A   1      40.656  28.981  30.401  1.00  0.00     0.031 A 
ATOM     37  C   UNL A   1      41.544  28.854  31.613  1.00  0.00     0.074 A 
ATOM     38  C   UNL A   1      39.665  29.893  30.387  1.00  0.00     0.049 A 
ATOM     39  N   UNL A   1      41.498  29.509  32.746  1.00  0.00    -0.248 NA
ATOM     40  C   UNL A   1      42.599  27.829  31.557  1.00  0.00     0.031 C 
ATOM     41  C   UNL A   1      38.700  30.083  29.303  1.00  0.00     0.029 A 
ATOM     42  N   UNL A   1      39.303  30.829  31.324  1.00  0.00    -0.354 N 
ATOM     43  C   UNL A   1      42.482  28.943  33.550  1.00  0.00     0.074 A 
ATOM     44  C   UNL A   1      43.080  27.866  32.790  1.00  0.00     0.031 C 
ATOM     45  C   UNL A   1      37.873  31.091  29.624  1.00  0.00     0.029 A 
ATOM     46  C   UNL A   1      38.232  31.600  30.945  1.00  0.00     0.049 A 
ATOM     47  H   UNL A   1      39.767  30.937  32.185  1.00  0.00     0.167 HD
ATOM     48  C   UNL A   1      42.869  29.295  34.800  1.00  0.00     0.031 A 
ATOM     49  C   UNL A   1      37.611  32.609  31.584  1.00  0.00     0.031 A 
ATOM     50  C   UNL A   1      42.308  30.392  35.538  1.00  0.00     0.049 A 
ATOM     51  C   UNL A   1      38.117  33.049  32.928  1.00  0.00     0.074 A 
ATOM     52  C   UNL A   1      42.664  30.868  36.788  1.00  0.00     0.029 A 
ATOM     53  N   UNL A   1      41.277  31.200  35.080  1.00  0.00    -0.354 N 
ATOM     54  N   UNL A   1      39.076  32.528  33.656  1.00  0.00    -0.248 NA
ATOM     55  C   UNL A   1      37.475  34.227  33.524  1.00  0.00     0.031 C 
ATOM     56  C   UNL A   1      41.836  31.957  37.093  1.00  0.00     0.029 A 
ATOM     57  C   UNL A   1      40.989  32.177  36.018  1.00  0.00     0.049 A 
ATOM     58  H   UNL A   1      40.818  31.095  34.216  1.00  0.00     0.167 HD
ATOM     59  C   UNL A   1      39.166  33.329  34.789  1.00  0.00     0.074 A 
ATOM     60  C   UNL A   1      38.174  34.375  34.642  1.00  0.00     0.031 C 
ATOM     61  C   UNL A   1      39.999  33.209  35.854  1.00  0.00     0.031 A 
BRANCH  48  62
ATOM     62  C   UNL A   1      43.954  28.464  35.434  1.00  0.00    -0.014 A 
ATOM     63  C   UNL A   1      43.669  27.586  36.497  1.00  0.00     0.010 A 
ATOM     64  C   UNL A   1      45.281  28.590  34.987  1.00  0.00     0.010 A 
ATOM     65  C   UNL A   1      44.701  26.904  37.147  1.00  0.00     0.020 A 
ATOM     66  C   UNL A   1      46.312  27.888  35.617  1.00  0.00     0.020 A 
ATOM     67  C   UNL A   1      46.019  27.072  36.714  1.00  0.00     0.054 A 
BRANCH  67  68
ATOM     68  S   UNL A   1      47.350  26.207  37.590  1.00  0.00     0.124 S 
ATOM     69  O   UNL A   1      48.540  26.810  36.996  1.00  0.00    -0.237 OA
ATOM     70  O   UNL A   1      47.103  26.553  38.987  1.00  0.00    -0.237 OA
ATOM     71  O   UNL A   1      47.127  24.803  37.252  1.00  0.00    -0.744 OA
ENDBRANCH  67  68
ENDBRANCH  48  62
BRANCH  49  72
ATOM     72  C   UNL A   1      36.477  33.303  30.921  1.00  0.00    -0.014 A 
ATOM     73  C   UNL A   1      35.275  33.516  31.617  1.00  0.00     0.010 A 
ATOM     74  C   UNL A   1      36.615  33.808  29.616  1.00  0.00     0.010 A 
ATOM     75  C   UNL A   1      34.227  34.223  31.020  1.00  0.00     0.020 A 
ATOM     76  C   UNL A   1      35.576  34.532  29.023  1.00  0.00     0.020 A 
ATOM     77  C   UNL A   1      34.387  34.731  29.728  1.00  0.00     0.054 A 
BRANCH  77  78
ATOM     78  S   UNL A   1      33.050  35.724  29.004  1.00  0.00     0.124 S 
ATOM     79  O   UNL A   1      33.789  36.800  28.353  1.00  0.00    -0.237 OA
ATOM     80  O   UNL A   1      32.395  34.773  28.108  1.00  0.00    -0.237 OA
ATOM     81  O   UNL A   1      32.256  36.120  30.165  1.00  0.00    -0.744 OA
ENDBRANCH  77  78
ENDBRANCH  49  72
BRANCH  61  82
ATOM     82  C   UNL A   1      39.891  34.257  36.926  1.00  0.00    -0.014 A 
ATOM     83  C   UNL A   1      39.068  34.065  38.050  1.00  0.00     0.010 A 
ATOM     84  C   UNL A   1      40.647  35.438  36.818  1.00  0.00     0.010 A 
ATOM     85  C   UNL A   1      38.974  35.055  39.030  1.00  0.00     0.020 A 
ATOM     86  C   UNL A   1      40.570  36.421  37.806  1.00  0.00     0.020 A 
ATOM     87  C   UNL A   1      39.720  36.231  38.899  1.00  0.00     0.054 A 
BRANCH  87  88
ATOM     88  S   UNL A   1      39.605  37.497  40.193  1.00  0.00     0.124 S 
ATOM     89  O   UNL A   1      40.662  38.426  39.802  1.00  0.00    -0.237 OA
ATOM     90  O   UNL A   1      38.240  37.996  40.040  1.00  0.00    -0.237 OA
ATOM     91  O   UNL A   1      39.853  36.751  41.425  1.00  0.00    -0.744 OA
ENDBRANCH  87  88
ENDBRANCH  61  82
ENDBRANCH  35  36
ENDBRANCH  27  30
ENDBRANCH  25  26
ENDBRANCH  24  25
ENDBRANCH   1  24
TORSDOF 17
ENDMDL
