MODEL 1
REMARK VINA RESULT:     -11.8      0.000      0.000
REMARK SMILES Cc1cc2c(c(C)c1Cl)C=C(C(=O)NCCCNC(=O)c1ccc(-c3c4nc(c(-c5ccc(S(=O)(=O)[O-])cc5)c5ccc([nH]5)c(-c5ccc(S(=O)(=O)[O-])cc5)c5nc(c(-c6ccc(S(=O)(=O)[O-])cc6)c6ccc3[nH]6)C=C5)C=C4)cc1)[C@@H](C(F)(F)F)O2
REMARK SMILES IDX 17 1 16 2 15 3 14 4 12 5 13 6 11 8 1 9 2 10 3 11 8 12 4 13
REMARK SMILES IDX 6 14 9 15 5 16 86 17 7 18 10 19 81 20 82 21 83 22 84 23
REMARK SMILES IDX 85 24 18 25 19 26 20 28 21 29 22 30 80 31 23 32 79 33 24 34
REMARK SMILES IDX 25 35 26 36 73 37 27 38 78 39 72 40 74 41 28 42 77 43 71 44
REMARK SMILES IDX 70 45 29 47 59 48 40 49 58 50 41 51 44 52 57 53 75 54 42 55
REMARK SMILES IDX 43 56 56 58 76 59 45 60 30 61 31 62 39 63 32 64 38 65 33 66
REMARK SMILES IDX 34 67 35 68 36 69 37 70 60 71 61 72 69 73 62 74 68 75 63 76
REMARK SMILES IDX 64 77 65 78 66 79 67 80 46 81 47 82 55 83 48 84 54 85 49 86
REMARK SMILES IDX 50 87 51 88 52 89 53 90
REMARK H PARENT 14 7 18 27 74 46 44 57
REMARK Flexibility Score: inf
ROOT
ATOM      1  C   UNL A   1      33.873  28.491  26.343  1.00  0.00     0.118 C 
ENDROOT
BRANCH   1   2
ATOM      2  C   UNL A   1      33.688  28.428  24.832  1.00  0.00     0.042 C 
BRANCH   2   3
ATOM      3  C   UNL A   1      33.057  27.119  24.387  1.00  0.00     0.118 C 
BRANCH   3   4
ATOM      4  N   UNL A   1      32.188  26.557  25.412  1.00  0.00    -0.352 N 
ATOM      5  C   UNL A   1      31.999  25.356  26.004  1.00  0.00     0.251 C 
ATOM      6  O   UNL A   1      31.118  25.330  26.870  1.00  0.00    -0.270 OA
ATOM      7  H   UNL A   1      31.571  27.235  25.770  1.00  0.00     0.163 HD
BRANCH   5   8
ATOM      8  C   UNL A   1      32.768  24.116  25.693  1.00  0.00     0.067 C 
ATOM      9  C   UNL A   1      37.094  19.343  24.805  1.00  0.00     0.046 C 
ATOM     10  C   UNL A   1      36.372  20.624  25.125  1.00  0.00    -0.028 A 
ATOM     11  C   UNL A   1      34.978  20.634  25.049  1.00  0.00     0.052 A 
ATOM     12  C   UNL A   1      37.043  21.801  25.513  1.00  0.00     0.047 A 
ATOM     13  C   UNL A   1      34.267  21.795  25.327  1.00  0.00     0.128 A 
ATOM     14  C   UNL A   1      36.329  22.989  25.811  1.00  0.00    -0.021 A 
ATOM     15  Cl  UNL A   1      38.778  21.759  25.625  1.00  0.00    -0.084 Cl
ATOM     16  C   UNL A   1      34.917  22.973  25.709  1.00  0.00     0.022 A 
ATOM     17  O   UNL A   1      32.911  21.680  25.237  1.00  0.00    -0.475 OA
ATOM     18  C   UNL A   1      37.030  24.259  26.232  1.00  0.00     0.047 C 
ATOM     19  C   UNL A   1      34.075  24.134  26.019  1.00  0.00     0.026 C 
ATOM     20  C   UNL A   1      32.176  22.911  25.030  1.00  0.00     0.314 C 
BRANCH  20  21
ATOM     21  C   UNL A   1      31.941  23.118  23.521  1.00  0.00     0.429 C 
ATOM     22  F   UNL A   1      32.831  24.010  23.018  1.00  0.00    -0.167 F 
ATOM     23  F   UNL A   1      32.096  21.978  22.805  1.00  0.00    -0.167 F 
ATOM     24  F   UNL A   1      30.702  23.583  23.244  1.00  0.00    -0.167 F 
ENDBRANCH  20  21
ENDBRANCH   5   8
ENDBRANCH   3   4
ENDBRANCH   2   3
ENDBRANCH   1   2
BRANCH   1  25
ATOM     25  N   UNL A   1      33.751  29.858  26.847  1.00  0.00    -0.352 N 
ATOM     26  C   UNL A   1      34.530  30.538  27.747  1.00  0.00     0.251 C 
ATOM     27  H   UNL A   1      32.993  30.368  26.483  1.00  0.00     0.163 HD
ATOM     28  O   UNL A   1      34.101  31.568  28.265  1.00  0.00    -0.269 OA
BRANCH  26  29
ATOM     29  C   UNL A   1      35.873  30.033  28.089  1.00  0.00     0.039 A 
ATOM     30  C   UNL A   1      36.909  30.144  27.160  1.00  0.00     0.014 A 
ATOM     31  C   UNL A   1      36.098  29.428  29.328  1.00  0.00     0.014 A 
ATOM     32  C   UNL A   1      38.188  29.703  27.502  1.00  0.00     0.010 A 
ATOM     33  C   UNL A   1      37.388  29.087  29.705  1.00  0.00     0.010 A 
ATOM     34  C   UNL A   1      38.442  29.202  28.789  1.00  0.00    -0.014 A 
BRANCH  34  35
ATOM     35  C   UNL A   1      39.796  28.755  29.196  1.00  0.00     0.031 A 
ATOM     36  C   UNL A   1      40.681  29.682  29.984  1.00  0.00     0.074 A 
ATOM     37  C   UNL A   1      40.245  27.548  28.803  1.00  0.00     0.049 A 
ATOM     38  N   UNL A   1      41.912  29.501  30.384  1.00  0.00    -0.248 NA
ATOM     39  C   UNL A   1      40.118  30.995  30.346  1.00  0.00     0.031 C 
ATOM     40  C   UNL A   1      39.489  26.581  28.004  1.00  0.00     0.029 A 
ATOM     41  N   UNL A   1      41.447  26.927  29.025  1.00  0.00    -0.354 N 
ATOM     42  C   UNL A   1      42.273  30.679  31.030  1.00  0.00     0.074 A 
ATOM     43  C   UNL A   1      41.159  31.590  30.909  1.00  0.00     0.031 C 
ATOM     44  C   UNL A   1      40.228  25.472  27.842  1.00  0.00     0.029 A 
ATOM     45  C   UNL A   1      41.524  25.666  28.484  1.00  0.00     0.049 A 
ATOM     46  H   UNL A   1      42.185  27.345  29.525  1.00  0.00     0.167 HD
ATOM     47  C   UNL A   1      43.419  30.965  31.691  1.00  0.00     0.031 A 
ATOM     48  C   UNL A   1      42.526  24.766  28.505  1.00  0.00     0.031 A 
ATOM     49  C   UNL A   1      44.518  30.047  31.816  1.00  0.00     0.049 A 
ATOM     50  C   UNL A   1      43.799  25.112  29.224  1.00  0.00     0.074 A 
ATOM     51  C   UNL A   1      45.706  30.217  32.502  1.00  0.00     0.029 A 
ATOM     52  N   UNL A   1      44.562  28.785  31.241  1.00  0.00    -0.354 N 
ATOM     53  N   UNL A   1      44.103  26.211  29.874  1.00  0.00    -0.248 NA
ATOM     54  C   UNL A   1      44.862  24.098  29.217  1.00  0.00     0.031 C 
ATOM     55  C   UNL A   1      46.492  29.080  32.296  1.00  0.00     0.029 A 
ATOM     56  C   UNL A   1      45.769  28.175  31.534  1.00  0.00     0.049 A 
ATOM     57  H   UNL A   1      43.841  28.383  30.705  1.00  0.00     0.167 HD
ATOM     58  C   UNL A   1      45.386  26.013  30.372  1.00  0.00     0.074 A 
ATOM     59  C   UNL A   1      45.793  24.684  29.960  1.00  0.00     0.031 C 
ATOM     60  C   UNL A   1      46.159  26.855  31.103  1.00  0.00     0.031 A 
BRANCH  47  61
ATOM     61  C   UNL A   1      43.532  32.325  32.327  1.00  0.00    -0.014 A 
ATOM     62  C   UNL A   1      44.095  33.408  31.627  1.00  0.00     0.010 A 
ATOM     63  C   UNL A   1      43.050  32.532  33.632  1.00  0.00     0.010 A 
ATOM     64  C   UNL A   1      44.219  34.659  32.235  1.00  0.00     0.020 A 
ATOM     65  C   UNL A   1      43.142  33.791  34.233  1.00  0.00     0.020 A 
ATOM     66  C   UNL A   1      43.743  34.843  33.537  1.00  0.00     0.054 A 
BRANCH  66  67
ATOM     67  S   UNL A   1      43.906  36.482  34.295  1.00  0.00     0.124 S 
ATOM     68  O   UNL A   1      44.453  36.152  35.609  1.00  0.00    -0.237 OA
ATOM     69  O   UNL A   1      44.824  37.162  33.386  1.00  0.00    -0.237 OA
ATOM     70  O   UNL A   1      42.540  36.999  34.303  1.00  0.00    -0.744 OA
ENDBRANCH  66  67
ENDBRANCH  47  61
BRANCH  48  71
ATOM     71  C   UNL A   1      42.336  23.441  27.855  1.00  0.00    -0.014 A 
ATOM     72  C   UNL A   1      42.862  23.197  26.575  1.00  0.00     0.010 A 
ATOM     73  C   UNL A   1      41.683  22.395  28.536  1.00  0.00     0.010 A 
ATOM     74  C   UNL A   1      42.745  21.933  25.989  1.00  0.00     0.020 A 
ATOM     75  C   UNL A   1      41.586  21.124  27.963  1.00  0.00     0.020 A 
ATOM     76  C   UNL A   1      42.116  20.901  26.691  1.00  0.00     0.054 A 
BRANCH  76  77
ATOM     77  S   UNL A   1      42.055  19.250  25.942  1.00  0.00     0.124 S 
ATOM     78  O   UNL A   1      42.891  19.420  24.759  1.00  0.00    -0.237 OA
ATOM     79  O   UNL A   1      42.614  18.408  26.998  1.00  0.00    -0.237 OA
ATOM     80  O   UNL A   1      40.632  19.045  25.681  1.00  0.00    -0.744 OA
ENDBRANCH  76  77
ENDBRANCH  48  71
BRANCH  60  81
ATOM     81  C   UNL A   1      47.521  26.368  31.515  1.00  0.00    -0.014 A 
ATOM     82  C   UNL A   1      47.725  25.759  32.765  1.00  0.00     0.010 A 
ATOM     83  C   UNL A   1      48.591  26.443  30.603  1.00  0.00     0.010 A 
ATOM     84  C   UNL A   1      48.981  25.251  33.105  1.00  0.00     0.020 A 
ATOM     85  C   UNL A   1      49.840  25.909  30.929  1.00  0.00     0.020 A 
ATOM     86  C   UNL A   1      50.028  25.324  32.182  1.00  0.00     0.054 A 
BRANCH  86  87
ATOM     87  S   UNL A   1      51.630  24.601  32.628  1.00  0.00     0.124 S 
ATOM     88  O   UNL A   1      51.477  23.220  32.176  1.00  0.00    -0.237 OA
ATOM     89  O   UNL A   1      52.571  25.412  31.860  1.00  0.00    -0.237 OA
ATOM     90  O   UNL A   1      51.701  24.777  34.076  1.00  0.00    -0.744 OA
ENDBRANCH  86  87
ENDBRANCH  60  81
ENDBRANCH  34  35
ENDBRANCH  26  29
ENDBRANCH   1  25
TORSDOF 14
ENDMDL
MODEL 2
REMARK VINA RESULT:     -11.7      3.000      9.438
REMARK SMILES Cc1cc2c(c(C)c1Cl)C=C(C(=O)NCCCNC(=O)c1ccc(-c3c4nc(c(-c5ccc(S(=O)(=O)[O-])cc5)c5ccc([nH]5)c(-c5ccc(S(=O)(=O)[O-])cc5)c5nc(c(-c6ccc(S(=O)(=O)[O-])cc6)c6ccc3[nH]6)C=C5)C=C4)cc1)[C@@H](C(F)(F)F)O2
REMARK SMILES IDX 17 1 16 2 15 3 14 4 12 5 13 6 11 8 1 9 2 10 3 11 8 12 4 13
REMARK SMILES IDX 6 14 9 15 5 16 86 17 7 18 10 19 81 20 82 21 83 22 84 23
REMARK SMILES IDX 85 24 18 25 19 26 20 28 21 29 22 30 80 31 23 32 79 33 24 34
REMARK SMILES IDX 25 35 26 36 73 37 27 38 78 39 72 40 74 41 28 42 77 43 71 44
REMARK SMILES IDX 70 45 29 47 59 48 40 49 58 50 41 51 44 52 57 53 75 54 42 55
REMARK SMILES IDX 43 56 56 58 76 59 45 60 30 61 31 62 39 63 32 64 38 65 33 66
REMARK SMILES IDX 34 67 35 68 36 69 37 70 60 71 61 72 69 73 62 74 68 75 63 76
REMARK SMILES IDX 64 77 65 78 66 79 67 80 46 81 47 82 55 83 48 84 54 85 49 86
REMARK SMILES IDX 50 87 51 88 52 89 53 90
REMARK H PARENT 14 7 18 27 74 46 44 57
REMARK Flexibility Score: inf
ROOT
ATOM      1  C   UNL A   1      36.351  23.997  25.561  1.00  0.00     0.118 C 
ENDROOT
BRANCH   1   2
ATOM      2  C   UNL A   1      35.131  23.819  26.456  1.00  0.00     0.042 C 
BRANCH   2   3
ATOM      3  C   UNL A   1      33.898  23.409  25.667  1.00  0.00     0.118 C 
BRANCH   3   4
ATOM      4  N   UNL A   1      34.044  23.686  24.245  1.00  0.00    -0.352 N 
ATOM      5  C   UNL A   1      33.714  24.679  23.389  1.00  0.00     0.251 C 
ATOM      6  O   UNL A   1      34.053  24.495  22.215  1.00  0.00    -0.270 OA
ATOM      7  H   UNL A   1      34.506  22.951  23.782  1.00  0.00     0.163 HD
BRANCH   5   8
ATOM      8  C   UNL A   1      33.006  25.937  23.765  1.00  0.00     0.067 C 
ATOM      9  C   UNL A   1      30.947  31.657  26.074  1.00  0.00     0.046 C 
ATOM     10  C   UNL A   1      31.701  30.399  25.741  1.00  0.00    -0.028 A 
ATOM     11  C   UNL A   1      31.202  29.576  24.729  1.00  0.00     0.052 A 
ATOM     12  C   UNL A   1      32.895  30.029  26.394  1.00  0.00     0.047 A 
ATOM     13  C   UNL A   1      31.859  28.399  24.392  1.00  0.00     0.128 A 
ATOM     14  C   UNL A   1      33.581  28.837  26.050  1.00  0.00    -0.021 A 
ATOM     15  Cl  UNL A   1      33.512  31.081  27.633  1.00  0.00    -0.084 Cl
ATOM     16  C   UNL A   1      33.042  28.015  25.031  1.00  0.00     0.022 A 
ATOM     17  O   UNL A   1      31.288  27.687  23.378  1.00  0.00    -0.475 OA
ATOM     18  C   UNL A   1      34.863  28.426  26.736  1.00  0.00     0.047 C 
ATOM     19  C   UNL A   1      33.680  26.775  24.576  1.00  0.00     0.026 C 
ATOM     20  C   UNL A   1      31.617  26.277  23.321  1.00  0.00     0.314 C 
BRANCH  20  21
ATOM     21  C   UNL A   1      30.538  25.470  24.070  1.00  0.00     0.429 C 
ATOM     22  F   UNL A   1      30.273  24.310  23.419  1.00  0.00    -0.167 F 
ATOM     23  F   UNL A   1      30.917  25.127  25.325  1.00  0.00    -0.167 F 
ATOM     24  F   UNL A   1      29.371  26.143  24.189  1.00  0.00    -0.167 F 
ENDBRANCH  20  21
ENDBRANCH   5   8
ENDBRANCH   3   4
ENDBRANCH   2   3
ENDBRANCH   1   2
BRANCH   1  25
ATOM     25  N   UNL A   1      37.322  22.921  25.750  1.00  0.00    -0.352 N 
ATOM     26  C   UNL A   1      38.632  22.978  26.150  1.00  0.00     0.251 C 
ATOM     27  H   UNL A   1      36.983  22.018  25.561  1.00  0.00     0.163 HD
ATOM     28  O   UNL A   1      39.366  22.008  25.965  1.00  0.00    -0.269 OA
BRANCH  26  29
ATOM     29  C   UNL A   1      39.154  24.196  26.797  1.00  0.00     0.039 A 
ATOM     30  C   UNL A   1      39.922  25.097  26.057  1.00  0.00     0.014 A 
ATOM     31  C   UNL A   1      38.899  24.433  28.150  1.00  0.00     0.014 A 
ATOM     32  C   UNL A   1      40.380  26.267  26.661  1.00  0.00     0.010 A 
ATOM     33  C   UNL A   1      39.264  25.644  28.719  1.00  0.00     0.010 A 
ATOM     34  C   UNL A   1      40.025  26.564  27.987  1.00  0.00    -0.014 A 
BRANCH  34  35
ATOM     35  C   UNL A   1      40.467  27.815  28.649  1.00  0.00     0.031 A 
ATOM     36  C   UNL A   1      41.866  27.914  29.194  1.00  0.00     0.074 A 
ATOM     37  C   UNL A   1      39.595  28.827  28.812  1.00  0.00     0.049 A 
ATOM     38  N   UNL A   1      42.424  28.896  29.854  1.00  0.00    -0.248 NA
ATOM     39  C   UNL A   1      42.744  26.748  28.996  1.00  0.00     0.031 C 
ATOM     40  C   UNL A   1      38.202  28.827  28.358  1.00  0.00     0.029 A 
ATOM     41  N   UNL A   1      39.751  30.055  29.402  1.00  0.00    -0.354 N 
ATOM     42  C   UNL A   1      43.708  28.459  30.159  1.00  0.00     0.074 A 
ATOM     43  C   UNL A   1      43.824  27.103  29.676  1.00  0.00     0.031 C 
ATOM     44  C   UNL A   1      37.647  30.015  28.647  1.00  0.00     0.029 A 
ATOM     45  C   UNL A   1      38.626  30.841  29.345  1.00  0.00     0.049 A 
ATOM     46  H   UNL A   1      40.591  30.345  29.827  1.00  0.00     0.167 HD
ATOM     47  C   UNL A   1      44.712  29.138  30.763  1.00  0.00     0.031 A 
ATOM     48  C   UNL A   1      38.408  32.089  29.802  1.00  0.00     0.031 A 
ATOM     49  C   UNL A   1      44.591  30.492  31.231  1.00  0.00     0.049 A 
ATOM     50  C   UNL A   1      39.528  32.817  30.490  1.00  0.00     0.074 A 
ATOM     51  C   UNL A   1      45.558  31.289  31.814  1.00  0.00     0.029 A 
ATOM     52  N   UNL A   1      43.429  31.248  31.167  1.00  0.00    -0.354 N 
ATOM     53  N   UNL A   1      40.753  32.408  30.724  1.00  0.00    -0.248 NA
ATOM     54  C   UNL A   1      39.240  34.175  30.971  1.00  0.00     0.031 C 
ATOM     55  C   UNL A   1      44.966  32.509  32.154  1.00  0.00     0.029 A 
ATOM     56  C   UNL A   1      43.647  32.495  31.726  1.00  0.00     0.049 A 
ATOM     57  H   UNL A   1      42.577  30.942  30.780  1.00  0.00     0.167 HD
ATOM     58  C   UNL A   1      41.389  33.466  31.364  1.00  0.00     0.074 A 
ATOM     59  C   UNL A   1      40.418  34.537  31.464  1.00  0.00     0.031 C 
ATOM     60  C   UNL A   1      42.662  33.544  31.826  1.00  0.00     0.031 A 
BRANCH  47  61
ATOM     61  C   UNL A   1      46.023  28.420  30.945  1.00  0.00    -0.014 A 
ATOM     62  C   UNL A   1      46.273  27.649  32.096  1.00  0.00     0.010 A 
ATOM     63  C   UNL A   1      47.010  28.497  29.948  1.00  0.00     0.010 A 
ATOM     64  C   UNL A   1      47.503  27.009  32.267  1.00  0.00     0.020 A 
ATOM     65  C   UNL A   1      48.231  27.832  30.100  1.00  0.00     0.020 A 
ATOM     66  C   UNL A   1      48.475  27.106  31.268  1.00  0.00     0.054 A 
BRANCH  66  67
ATOM     67  S   UNL A   1      50.057  26.252  31.513  1.00  0.00     0.124 S 
ATOM     68  O   UNL A   1      49.647  25.075  32.275  1.00  0.00    -0.237 OA
ATOM     69  O   UNL A   1      50.494  25.994  30.145  1.00  0.00    -0.237 OA
ATOM     70  O   UNL A   1      50.864  27.220  32.252  1.00  0.00    -0.744 OA
ENDBRANCH  66  67
ENDBRANCH  47  61
BRANCH  48  71
ATOM     71  C   UNL A   1      37.084  32.732  29.579  1.00  0.00    -0.014 A 
ATOM     72  C   UNL A   1      36.109  32.715  30.592  1.00  0.00     0.010 A 
ATOM     73  C   UNL A   1      36.812  33.418  28.381  1.00  0.00     0.010 A 
ATOM     74  C   UNL A   1      34.890  33.375  30.413  1.00  0.00     0.020 A 
ATOM     75  C   UNL A   1      35.604  34.100  28.209  1.00  0.00     0.020 A 
ATOM     76  C   UNL A   1      34.649  34.072  29.226  1.00  0.00     0.054 A 
BRANCH  76  77
ATOM     77  S   UNL A   1      33.094  34.992  29.056  1.00  0.00     0.124 S 
ATOM     78  O   UNL A   1      33.560  36.300  28.608  1.00  0.00    -0.237 OA
ATOM     79  O   UNL A   1      32.372  34.202  28.062  1.00  0.00    -0.237 OA
ATOM     80  O   UNL A   1      32.526  34.955  30.402  1.00  0.00    -0.744 OA
ENDBRANCH  76  77
ENDBRANCH  48  71
BRANCH  60  81
ATOM     81  C   UNL A   1      43.087  34.830  32.478  1.00  0.00    -0.014 A 
ATOM     82  C   UNL A   1      43.772  35.819  31.751  1.00  0.00     0.010 A 
ATOM     83  C   UNL A   1      42.721  35.089  33.813  1.00  0.00     0.010 A 
ATOM     84  C   UNL A   1      44.100  37.037  32.352  1.00  0.00     0.020 A 
ATOM     85  C   UNL A   1      43.021  36.316  34.407  1.00  0.00     0.020 A 
ATOM     86  C   UNL A   1      43.717  37.279  33.674  1.00  0.00     0.054 A 
BRANCH  86  87
ATOM     87  S   UNL A   1      44.102  38.892  34.407  1.00  0.00     0.124 S 
ATOM     88  O   UNL A   1      43.027  39.730  33.882  1.00  0.00    -0.237 OA
ATOM     89  O   UNL A   1      44.039  38.614  35.840  1.00  0.00    -0.237 OA
ATOM     90  O   UNL A   1      45.436  39.198  33.895  1.00  0.00    -0.744 OA
ENDBRANCH  86  87
ENDBRANCH  60  81
ENDBRANCH  34  35
ENDBRANCH  26  29
ENDBRANCH   1  25
TORSDOF 14
ENDMDL
MODEL 3
REMARK VINA RESULT:     -11.3      4.338     10.152
REMARK SMILES Cc1cc2c(c(C)c1Cl)C=C(C(=O)NCCCNC(=O)c1ccc(-c3c4nc(c(-c5ccc(S(=O)(=O)[O-])cc5)c5ccc([nH]5)c(-c5ccc(S(=O)(=O)[O-])cc5)c5nc(c(-c6ccc(S(=O)(=O)[O-])cc6)c6ccc3[nH]6)C=C5)C=C4)cc1)[C@@H](C(F)(F)F)O2
REMARK SMILES IDX 17 1 16 2 15 3 14 4 12 5 13 6 11 8 1 9 2 10 3 11 8 12 4 13
REMARK SMILES IDX 6 14 9 15 5 16 86 17 7 18 10 19 81 20 82 21 83 22 84 23
REMARK SMILES IDX 85 24 18 25 19 26 20 28 21 29 22 30 80 31 23 32 79 33 24 34
REMARK SMILES IDX 25 35 26 36 73 37 27 38 78 39 72 40 74 41 28 42 77 43 71 44
REMARK SMILES IDX 70 45 29 47 59 48 40 49 58 50 41 51 44 52 57 53 75 54 42 55
REMARK SMILES IDX 43 56 56 58 76 59 45 60 30 61 31 62 39 63 32 64 38 65 33 66
REMARK SMILES IDX 34 67 35 68 36 69 37 70 60 71 61 72 69 73 62 74 68 75 63 76
REMARK SMILES IDX 64 77 65 78 66 79 67 80 46 81 47 82 55 83 48 84 54 85 49 86
REMARK SMILES IDX 50 87 51 88 52 89 53 90
REMARK H PARENT 14 7 18 27 74 46 44 57
REMARK Flexibility Score: inf
ROOT
ATOM      1  C   UNL A   1      38.407  24.466  26.151  1.00  0.00     0.118 C 
ENDROOT
BRANCH   1   2
ATOM      2  C   UNL A   1      37.520  23.321  26.621  1.00  0.00     0.042 C 
BRANCH   2   3
ATOM      3  C   UNL A   1      37.652  22.093  25.735  1.00  0.00     0.118 C 
BRANCH   3   4
ATOM      4  N   UNL A   1      37.418  22.406  24.332  1.00  0.00    -0.352 N 
ATOM      5  C   UNL A   1      36.374  22.787  23.561  1.00  0.00     0.251 C 
ATOM      6  O   UNL A   1      36.638  22.957  22.366  1.00  0.00    -0.270 OA
ATOM      7  H   UNL A   1      38.242  22.315  23.802  1.00  0.00     0.163 HD
BRANCH   5   8
ATOM      8  C   UNL A   1      34.984  23.014  24.051  1.00  0.00     0.067 C 
ATOM      9  C   UNL A   1      29.313  25.179  26.385  1.00  0.00     0.046 C 
ATOM     10  C   UNL A   1      30.732  25.003  25.917  1.00  0.00    -0.028 A 
ATOM     11  C   UNL A   1      31.070  23.818  25.259  1.00  0.00     0.052 A 
ATOM     12  C   UNL A   1      31.723  25.988  26.100  1.00  0.00     0.047 A 
ATOM     13  C   UNL A   1      32.370  23.605  24.817  1.00  0.00     0.128 A 
ATOM     14  C   UNL A   1      33.050  25.788  25.641  1.00  0.00    -0.021 A 
ATOM     15  Cl  UNL A   1      31.275  27.466  26.898  1.00  0.00    -0.084 Cl
ATOM     16  C   UNL A   1      33.366  24.570  24.993  1.00  0.00     0.022 A 
ATOM     17  O   UNL A   1      32.576  22.420  24.174  1.00  0.00    -0.475 OA
ATOM     18  C   UNL A   1      34.125  26.834  25.825  1.00  0.00     0.047 C 
ATOM     19  C   UNL A   1      34.698  24.267  24.455  1.00  0.00     0.026 C 
ATOM     20  C   UNL A   1      33.943  21.941  24.138  1.00  0.00     0.314 C 
BRANCH  20  21
ATOM     21  C   UNL A   1      34.179  20.978  25.318  1.00  0.00     0.429 C 
ATOM     22  F   UNL A   1      33.052  20.272  25.589  1.00  0.00    -0.167 F 
ATOM     23  F   UNL A   1      35.150  20.067  25.066  1.00  0.00    -0.167 F 
ATOM     24  F   UNL A   1      34.535  21.621  26.453  1.00  0.00    -0.167 F 
ENDBRANCH  20  21
ENDBRANCH   5   8
ENDBRANCH   3   4
ENDBRANCH   2   3
ENDBRANCH   1   2
BRANCH   1  25
ATOM     25  N   UNL A   1      39.817  24.080  26.118  1.00  0.00    -0.352 N 
ATOM     26  C   UNL A   1      40.913  24.699  26.661  1.00  0.00     0.251 C 
ATOM     27  H   UNL A   1      40.007  23.247  25.631  1.00  0.00     0.163 HD
ATOM     28  O   UNL A   1      42.039  24.386  26.278  1.00  0.00    -0.269 OA
BRANCH  26  29
ATOM     29  C   UNL A   1      40.737  25.735  27.696  1.00  0.00     0.039 A 
ATOM     30  C   UNL A   1      39.719  25.599  28.643  1.00  0.00     0.014 A 
ATOM     31  C   UNL A   1      41.571  26.855  27.714  1.00  0.00     0.014 A 
ATOM     32  C   UNL A   1      39.582  26.560  29.645  1.00  0.00     0.010 A 
ATOM     33  C   UNL A   1      41.501  27.751  28.770  1.00  0.00     0.010 A 
ATOM     34  C   UNL A   1      40.493  27.624  29.734  1.00  0.00    -0.014 A 
BRANCH  34  35
ATOM     35  C   UNL A   1      40.395  28.644  30.806  1.00  0.00     0.031 A 
ATOM     36  C   UNL A   1      41.316  28.567  31.993  1.00  0.00     0.074 A 
ATOM     37  C   UNL A   1      39.442  29.592  30.738  1.00  0.00     0.049 A 
ATOM     38  N   UNL A   1      41.350  29.325  33.058  1.00  0.00    -0.248 NA
ATOM     39  C   UNL A   1      42.309  27.479  31.999  1.00  0.00     0.031 C 
ATOM     40  C   UNL A   1      38.469  29.741  29.653  1.00  0.00     0.029 A 
ATOM     41  N   UNL A   1      39.136  30.614  31.599  1.00  0.00    -0.354 N 
ATOM     42  C   UNL A   1      42.355  28.797  33.861  1.00  0.00     0.074 A 
ATOM     43  C   UNL A   1      42.858  27.618  33.196  1.00  0.00     0.031 C 
ATOM     44  C   UNL A   1      37.706  30.818  29.893  1.00  0.00     0.029 A 
ATOM     45  C   UNL A   1      38.102  31.409  31.167  1.00  0.00     0.049 A 
ATOM     46  H   UNL A   1      39.613  30.764  32.448  1.00  0.00     0.167 HD
ATOM     47  C   UNL A   1      42.837  29.270  35.034  1.00  0.00     0.031 A 
ATOM     48  C   UNL A   1      37.538  32.493  31.732  1.00  0.00     0.031 A 
ATOM     49  C   UNL A   1      42.338  30.452  35.683  1.00  0.00     0.049 A 
ATOM     50  C   UNL A   1      38.072  32.989  33.047  1.00  0.00     0.074 A 
ATOM     51  C   UNL A   1      42.785  31.045  36.849  1.00  0.00     0.029 A 
ATOM     52  N   UNL A   1      41.280  31.220  35.219  1.00  0.00    -0.354 N 
ATOM     53  N   UNL A   1      39.058  32.508  33.767  1.00  0.00    -0.248 NA
ATOM     54  C   UNL A   1      37.423  34.173  33.623  1.00  0.00     0.031 C 
ATOM     55  C   UNL A   1      41.960  32.141  37.121  1.00  0.00     0.029 A 
ATOM     56  C   UNL A   1      41.040  32.268  36.091  1.00  0.00     0.049 A 
ATOM     57  H   UNL A   1      40.776  31.046  34.392  1.00  0.00     0.167 HD
ATOM     58  C   UNL A   1      39.161  33.344  34.873  1.00  0.00     0.074 A 
ATOM     59  C   UNL A   1      38.148  34.368  34.717  1.00  0.00     0.031 C 
ATOM     60  C   UNL A   1      40.017  33.271  35.923  1.00  0.00     0.031 A 
BRANCH  47  61
ATOM     61  C   UNL A   1      43.961  28.505  35.682  1.00  0.00    -0.014 A 
ATOM     62  C   UNL A   1      45.305  28.811  35.397  1.00  0.00     0.010 A 
ATOM     63  C   UNL A   1      43.675  27.482  36.603  1.00  0.00     0.010 A 
ATOM     64  C   UNL A   1      46.339  28.078  35.983  1.00  0.00     0.020 A 
ATOM     65  C   UNL A   1      44.707  26.767  37.217  1.00  0.00     0.020 A 
ATOM     66  C   UNL A   1      46.034  27.059  36.889  1.00  0.00     0.054 A 
BRANCH  66  67
ATOM     67  S   UNL A   1      47.399  26.133  37.643  1.00  0.00     0.124 S 
ATOM     68  O   UNL A   1      47.001  26.105  39.049  1.00  0.00    -0.237 OA
ATOM     69  O   UNL A   1      47.337  24.852  36.947  1.00  0.00    -0.237 OA
ATOM     70  O   UNL A   1      48.576  26.946  37.347  1.00  0.00    -0.744 OA
ENDBRANCH  66  67
ENDBRANCH  47  61
BRANCH  48  71
ATOM     71  C   UNL A   1      36.433  33.198  31.027  1.00  0.00    -0.014 A 
ATOM     72  C   UNL A   1      35.163  33.299  31.623  1.00  0.00     0.010 A 
ATOM     73  C   UNL A   1      36.657  33.825  29.787  1.00  0.00     0.010 A 
ATOM     74  C   UNL A   1      34.141  34.017  30.996  1.00  0.00     0.020 A 
ATOM     75  C   UNL A   1      35.645  34.564  29.169  1.00  0.00     0.020 A 
ATOM     76  C   UNL A   1      34.391  34.655  29.777  1.00  0.00     0.054 A 
BRANCH  76  77
ATOM     77  S   UNL A   1      33.073  35.651  29.029  1.00  0.00     0.124 S 
ATOM     78  O   UNL A   1      32.424  34.686  28.147  1.00  0.00    -0.237 OA
ATOM     79  O   UNL A   1      32.296  36.066  30.194  1.00  0.00    -0.237 OA
ATOM     80  O   UNL A   1      33.797  36.728  28.356  1.00  0.00    -0.744 OA
ENDBRANCH  76  77
ENDBRANCH  48  71
BRANCH  60  81
ATOM     81  C   UNL A   1      39.905  34.327  36.987  1.00  0.00    -0.014 A 
ATOM     82  C   UNL A   1      40.512  35.584  36.826  1.00  0.00     0.010 A 
ATOM     83  C   UNL A   1      39.108  34.089  38.123  1.00  0.00     0.010 A 
ATOM     84  C   UNL A   1      40.341  36.579  37.792  1.00  0.00     0.020 A 
ATOM     85  C   UNL A   1      38.911  35.091  39.076  1.00  0.00     0.020 A 
ATOM     86  C   UNL A   1      39.537  36.327  38.907  1.00  0.00     0.054 A 
BRANCH  86  87
ATOM     87  S   UNL A   1      39.285  37.658  40.112  1.00  0.00     0.124 S 
ATOM     88  O   UNL A   1      38.963  36.912  41.327  1.00  0.00    -0.237 OA
ATOM     89  O   UNL A   1      40.580  38.335  40.116  1.00  0.00    -0.237 OA
ATOM     90  O   UNL A   1      38.183  38.435  39.549  1.00  0.00    -0.744 OA
ENDBRANCH  86  87
ENDBRANCH  60  81
ENDBRANCH  34  35
ENDBRANCH  26  29
ENDBRANCH   1  25
TORSDOF 14
ENDMDL
