MODEL 1
REMARK VINA RESULT:     -11.4      0.000      0.000
REMARK SMILES C[C@@H]1[C@@H](C(=O)NCCCNC(=O)c2ccc(-c3c4nc(c(-c5ccc(S(=O)(=O)[O-])cc5)c5ccc([nH]5)c(-c5ccc(S(=O)(=O)[O-])cc5)c5nc(c(-c6ccc(S(=O)(=O)[O-])cc6)c6ccc3[nH]6)C=C5)C=C4)cc2)CC[N@@H+]1C[C@H]1Cc2ccccc2O1
REMARK SMILES IDX 8 1 7 2 6 3 4 4 5 5 3 7 1 8 2 9 75 10 73 11 74 12 76 14
REMARK SMILES IDX 77 15 78 16 85 17 79 18 84 19 80 20 83 21 81 22 82 23 9 24
REMARK SMILES IDX 10 25 11 26 12 28 13 29 14 30 72 31 15 32 71 33 16 34 17 35
REMARK SMILES IDX 18 36 65 37 19 38 70 39 64 40 66 41 20 42 69 43 63 44 62 45
REMARK SMILES IDX 21 47 51 48 32 49 50 50 33 51 36 52 49 53 67 54 34 55 35 56
REMARK SMILES IDX 48 58 68 59 37 60 22 61 23 62 31 63 24 64 30 65 25 66 26 67
REMARK SMILES IDX 27 68 28 69 29 70 52 71 53 72 61 73 54 74 60 75 55 76 56 77
REMARK SMILES IDX 57 78 58 79 59 80 38 81 39 82 47 83 40 84 46 85 41 86 42 87
REMARK SMILES IDX 43 88 44 89 45 90
REMARK H PARENT 6 6 75 13 10 27 66 46 36 57
REMARK Flexibility Score: inf
ROOT
ATOM      1  C   UNL A   1      33.357  28.056  25.169  1.00  0.00     0.042 C 
ENDROOT
BRANCH   1   2
ATOM      2  C   UNL A   1      31.872  27.722  25.138  1.00  0.00     0.117 C 
BRANCH   2   3
ATOM      3  N   UNL A   1      31.212  28.183  23.927  1.00  0.00    -0.356 N 
ATOM      4  C   UNL A   1      30.834  27.565  22.782  1.00  0.00     0.229 C 
ATOM      5  O   UNL A   1      30.186  28.261  21.987  1.00  0.00    -0.275 OA
ATOM      6  H   UNL A   1      30.994  29.143  23.944  1.00  0.00     0.163 HD
BRANCH   4   7
ATOM      7  C   UNL A   1      31.218  26.147  22.366  1.00  0.00     0.142 C 
ATOM      8  C   UNL A   1      30.528  23.900  23.282  1.00  0.00     0.076 C 
ATOM      9  C   UNL A   1      31.469  25.096  23.455  1.00  0.00     0.193 C 
ATOM     10  N   UNL A   1      32.902  24.800  23.363  1.00  0.00    -0.329 N 
ATOM     11  C   UNL A   1      32.455  26.124  21.481  1.00  0.00     0.081 C 
ATOM     12  C   UNL A   1      33.564  25.630  22.380  1.00  0.00     0.263 C 
ATOM     13  H   UNL A   1      33.201  25.076  24.299  1.00  0.00     0.348 HD
BRANCH  10  14
ATOM     14  C   UNL A   1      33.476  23.505  23.691  1.00  0.00     0.308 C 
BRANCH  14  15
ATOM     15  C   UNL A   1      34.996  23.455  23.938  1.00  0.00     0.232 C 
ATOM     16  C   UNL A   1      35.475  24.245  25.161  1.00  0.00     0.090 C 
ATOM     17  O   UNL A   1      35.439  22.075  24.120  1.00  0.00    -0.484 OA
ATOM     18  C   UNL A   1      36.705  23.478  25.441  1.00  0.00    -0.002 A 
ATOM     19  C   UNL A   1      36.598  22.231  24.844  1.00  0.00     0.123 A 
ATOM     20  C   UNL A   1      37.809  23.828  26.194  1.00  0.00     0.007 A 
ATOM     21  C   UNL A   1      37.581  21.278  24.980  1.00  0.00     0.047 A 
ATOM     22  C   UNL A   1      38.832  22.890  26.320  1.00  0.00     0.001 A 
ATOM     23  C   UNL A   1      38.718  21.623  25.719  1.00  0.00     0.004 A 
ENDBRANCH  14  15
ENDBRANCH  10  14
ENDBRANCH   4   7
ENDBRANCH   2   3
ENDBRANCH   1   2
BRANCH   1  24
ATOM     24  C   UNL A   1      33.936  28.241  26.563  1.00  0.00     0.118 C 
BRANCH  24  25
ATOM     25  N   UNL A   1      33.744  29.587  27.078  1.00  0.00    -0.352 N 
ATOM     26  C   UNL A   1      34.553  30.382  27.854  1.00  0.00     0.251 C 
ATOM     27  H   UNL A   1      32.886  30.001  26.827  1.00  0.00     0.163 HD
ATOM     28  O   UNL A   1      34.087  31.421  28.316  1.00  0.00    -0.269 OA
BRANCH  26  29
ATOM     29  C   UNL A   1      35.957  30.008  28.158  1.00  0.00     0.039 A 
ATOM     30  C   UNL A   1      36.257  29.514  29.433  1.00  0.00     0.014 A 
ATOM     31  C   UNL A   1      36.989  30.190  27.235  1.00  0.00     0.014 A 
ATOM     32  C   UNL A   1      37.572  29.158  29.757  1.00  0.00     0.010 A 
ATOM     33  C   UNL A   1      38.276  29.742  27.523  1.00  0.00     0.010 A 
ATOM     34  C   UNL A   1      38.588  29.242  28.795  1.00  0.00    -0.014 A 
BRANCH  34  35
ATOM     35  C   UNL A   1      39.991  28.856  29.106  1.00  0.00     0.031 A 
ATOM     36  C   UNL A   1      40.916  29.847  29.764  1.00  0.00     0.074 A 
ATOM     37  C   UNL A   1      40.451  27.640  28.747  1.00  0.00     0.049 A 
ATOM     38  N   UNL A   1      42.191  29.732  30.038  1.00  0.00    -0.248 NA
ATOM     39  C   UNL A   1      40.341  31.151  30.134  1.00  0.00     0.031 C 
ATOM     40  C   UNL A   1      39.672  26.602  28.070  1.00  0.00     0.029 A 
ATOM     41  N   UNL A   1      41.694  27.076  28.897  1.00  0.00    -0.354 N 
ATOM     42  C   UNL A   1      42.574  30.954  30.582  1.00  0.00     0.074 A 
ATOM     43  C   UNL A   1      41.410  31.811  30.556  1.00  0.00     0.031 C 
ATOM     44  C   UNL A   1      40.444  25.517  27.893  1.00  0.00     0.029 A 
ATOM     45  C   UNL A   1      41.782  25.795  28.405  1.00  0.00     0.049 A 
ATOM     46  H   UNL A   1      42.451  27.544  29.319  1.00  0.00     0.167 HD
ATOM     47  C   UNL A   1      43.778  31.325  31.080  1.00  0.00     0.031 A 
ATOM     48  C   UNL A   1      42.822  24.939  28.368  1.00  0.00     0.031 A 
ATOM     49  C   UNL A   1      44.925  30.461  31.138  1.00  0.00     0.049 A 
ATOM     50  C   UNL A   1      44.145  25.365  28.944  1.00  0.00     0.074 A 
ATOM     51  C   UNL A   1      46.174  30.723  31.675  1.00  0.00     0.029 A 
ATOM     52  N   UNL A   1      44.962  29.164  30.652  1.00  0.00    -0.354 N 
ATOM     53  N   UNL A   1      44.471  26.509  29.495  1.00  0.00    -0.248 NA
ATOM     54  C   UNL A   1      45.233  24.379  28.904  1.00  0.00     0.031 C 
ATOM     55  C   UNL A   1      46.978  29.594  31.481  1.00  0.00     0.029 A 
ATOM     56  C   UNL A   1      46.215  28.614  30.865  1.00  0.00     0.049 A 
ATOM     57  H   UNL A   1      44.209  28.701  30.218  1.00  0.00     0.167 HD
ATOM     58  C   UNL A   1      45.798  26.373  29.889  1.00  0.00     0.074 A 
ATOM     59  C   UNL A   1      46.207  25.032  29.525  1.00  0.00     0.031 C 
ATOM     60  C   UNL A   1      46.603  27.278  30.499  1.00  0.00     0.031 A 
BRANCH  47  61
ATOM     61  C   UNL A   1      43.908  32.731  31.606  1.00  0.00    -0.014 A 
ATOM     62  C   UNL A   1      44.333  33.781  30.771  1.00  0.00     0.010 A 
ATOM     63  C   UNL A   1      43.578  33.012  32.944  1.00  0.00     0.010 A 
ATOM     64  C   UNL A   1      44.473  35.076  31.278  1.00  0.00     0.020 A 
ATOM     65  C   UNL A   1      43.690  34.311  33.447  1.00  0.00     0.020 A 
ATOM     66  C   UNL A   1      44.157  35.330  32.616  1.00  0.00     0.054 A 
BRANCH  66  67
ATOM     67  S   UNL A   1      44.338  37.023  33.245  1.00  0.00     0.124 S 
ATOM     68  O   UNL A   1      45.595  36.935  33.982  1.00  0.00    -0.237 OA
ATOM     69  O   UNL A   1      44.382  37.819  32.021  1.00  0.00    -0.237 OA
ATOM     70  O   UNL A   1      43.146  37.214  34.068  1.00  0.00    -0.744 OA
ENDBRANCH  66  67
ENDBRANCH  47  61
BRANCH  48  71
ATOM     71  C   UNL A   1      42.646  23.582  27.784  1.00  0.00    -0.014 A 
ATOM     72  C   UNL A   1      43.079  23.312  26.474  1.00  0.00     0.010 A 
ATOM     73  C   UNL A   1      42.062  22.549  28.540  1.00  0.00     0.010 A 
ATOM     74  C   UNL A   1      42.918  22.036  25.924  1.00  0.00     0.020 A 
ATOM     75  C   UNL A   1      41.922  21.266  28.001  1.00  0.00     0.020 A 
ATOM     76  C   UNL A   1      42.342  21.021  26.692  1.00  0.00     0.054 A 
BRANCH  76  77
ATOM     77  S   UNL A   1      42.195  19.358  25.979  1.00  0.00     0.124 S 
ATOM     78  O   UNL A   1      42.739  18.523  27.045  1.00  0.00    -0.237 OA
ATOM     79  O   UNL A   1      40.757  19.238  25.750  1.00  0.00    -0.237 OA
ATOM     80  O   UNL A   1      43.007  19.437  24.767  1.00  0.00    -0.744 OA
ENDBRANCH  76  77
ENDBRANCH  48  71
BRANCH  60  81
ATOM     81  C   UNL A   1      48.000  26.837  30.841  1.00  0.00    -0.014 A 
ATOM     82  C   UNL A   1      49.076  27.099  29.978  1.00  0.00     0.010 A 
ATOM     83  C   UNL A   1      48.243  26.202  32.073  1.00  0.00     0.010 A 
ATOM     84  C   UNL A   1      50.371  26.709  30.327  1.00  0.00     0.020 A 
ATOM     85  C   UNL A   1      49.540  25.831  32.436  1.00  0.00     0.020 A 
ATOM     86  C   UNL A   1      50.595  26.076  31.554  1.00  0.00     0.054 A 
BRANCH  86  87
ATOM     87  S   UNL A   1      52.291  25.620  32.009  1.00  0.00     0.124 S 
ATOM     88  O   UNL A   1      52.144  24.208  32.349  1.00  0.00    -0.237 OA
ATOM     89  O   UNL A   1      53.038  25.897  30.784  1.00  0.00    -0.237 OA
ATOM     90  O   UNL A   1      52.598  26.505  33.131  1.00  0.00    -0.744 OA
ENDBRANCH  86  87
ENDBRANCH  60  81
ENDBRANCH  34  35
ENDBRANCH  26  29
ENDBRANCH  24  25
ENDBRANCH   1  24
TORSDOF 15
ENDMDL
MODEL 2
REMARK VINA RESULT:     -11.0      2.778      3.419
REMARK SMILES C[C@@H]1[C@@H](C(=O)NCCCNC(=O)c2ccc(-c3c4nc(c(-c5ccc(S(=O)(=O)[O-])cc5)c5ccc([nH]5)c(-c5ccc(S(=O)(=O)[O-])cc5)c5nc(c(-c6ccc(S(=O)(=O)[O-])cc6)c6ccc3[nH]6)C=C5)C=C4)cc2)CC[N@@H+]1C[C@H]1Cc2ccccc2O1
REMARK SMILES IDX 8 1 7 2 6 3 4 4 5 5 3 7 1 8 2 9 75 10 73 11 74 12 76 14
REMARK SMILES IDX 77 15 78 16 85 17 79 18 84 19 80 20 83 21 81 22 82 23 9 24
REMARK SMILES IDX 10 25 11 26 12 28 13 29 14 30 72 31 15 32 71 33 16 34 17 35
REMARK SMILES IDX 18 36 65 37 19 38 70 39 64 40 66 41 20 42 69 43 63 44 62 45
REMARK SMILES IDX 21 47 51 48 32 49 50 50 33 51 36 52 49 53 67 54 34 55 35 56
REMARK SMILES IDX 48 58 68 59 37 60 22 61 23 62 31 63 24 64 30 65 25 66 26 67
REMARK SMILES IDX 27 68 28 69 29 70 52 71 53 72 61 73 54 74 60 75 55 76 56 77
REMARK SMILES IDX 57 78 58 79 59 80 38 81 39 82 47 83 40 84 46 85 41 86 42 87
REMARK SMILES IDX 43 88 44 89 45 90
REMARK H PARENT 6 6 75 13 10 27 66 46 36 57
REMARK Flexibility Score: inf
ROOT
ATOM      1  C   UNL A   1      33.138  27.693  26.880  1.00  0.00     0.042 C 
ENDROOT
BRANCH   1   2
ATOM      2  C   UNL A   1      32.782  26.414  26.135  1.00  0.00     0.117 C 
BRANCH   2   3
ATOM      3  N   UNL A   1      31.474  25.892  26.497  1.00  0.00    -0.356 N 
ATOM      4  C   UNL A   1      30.813  24.748  26.195  1.00  0.00     0.229 C 
ATOM      5  O   UNL A   1      29.732  24.584  26.778  1.00  0.00    -0.275 OA
ATOM      6  H   UNL A   1      30.963  26.495  27.084  1.00  0.00     0.163 HD
BRANCH   4   7
ATOM      7  C   UNL A   1      31.241  23.722  25.149  1.00  0.00     0.142 C 
ATOM      8  C   UNL A   1      32.579  21.593  25.356  1.00  0.00     0.076 C 
ATOM      9  C   UNL A   1      32.649  23.117  25.234  1.00  0.00     0.193 C 
ATOM     10  N   UNL A   1      33.347  23.632  24.052  1.00  0.00    -0.329 N 
ATOM     11  C   UNL A   1      31.111  24.259  23.732  1.00  0.00     0.081 C 
ATOM     12  C   UNL A   1      32.527  24.557  23.300  1.00  0.00     0.263 C 
ATOM     13  H   UNL A   1      34.109  24.140  24.501  1.00  0.00     0.348 HD
BRANCH  10  14
ATOM     14  C   UNL A   1      34.399  22.904  23.362  1.00  0.00     0.308 C 
BRANCH  14  15
ATOM     15  C   UNL A   1      35.843  23.132  23.847  1.00  0.00     0.232 C 
ATOM     16  C   UNL A   1      35.980  24.100  25.028  1.00  0.00     0.090 C 
ATOM     17  O   UNL A   1      36.450  21.868  24.258  1.00  0.00    -0.484 OA
ATOM     18  C   UNL A   1      37.243  23.579  25.585  1.00  0.00    -0.002 A 
ATOM     19  C   UNL A   1      37.429  22.282  25.131  1.00  0.00     0.123 A 
ATOM     20  C   UNL A   1      38.134  24.177  26.455  1.00  0.00     0.007 A 
ATOM     21  C   UNL A   1      38.506  21.525  25.531  1.00  0.00     0.047 A 
ATOM     22  C   UNL A   1      39.249  23.440  26.849  1.00  0.00     0.001 A 
ATOM     23  C   UNL A   1      39.432  22.121  26.393  1.00  0.00     0.004 A 
ENDBRANCH  14  15
ENDBRANCH  10  14
ENDBRANCH   4   7
ENDBRANCH   2   3
ENDBRANCH   1   2
BRANCH   1  24
ATOM     24  C   UNL A   1      33.973  28.680  26.080  1.00  0.00     0.118 C 
BRANCH  24  25
ATOM     25  N   UNL A   1      33.730  30.062  26.459  1.00  0.00    -0.352 N 
ATOM     26  C   UNL A   1      34.338  30.865  27.394  1.00  0.00     0.251 C 
ATOM     27  H   UNL A   1      33.004  30.500  25.957  1.00  0.00     0.163 HD
ATOM     28  O   UNL A   1      33.827  31.951  27.657  1.00  0.00    -0.269 OA
BRANCH  26  29
ATOM     29  C   UNL A   1      35.574  30.444  28.099  1.00  0.00     0.039 A 
ATOM     30  C   UNL A   1      36.811  30.836  27.574  1.00  0.00     0.014 A 
ATOM     31  C   UNL A   1      35.540  29.624  29.229  1.00  0.00     0.014 A 
ATOM     32  C   UNL A   1      37.998  30.451  28.209  1.00  0.00     0.010 A 
ATOM     33  C   UNL A   1      36.715  29.326  29.916  1.00  0.00     0.010 A 
ATOM     34  C   UNL A   1      37.959  29.717  29.403  1.00  0.00    -0.014 A 
BRANCH  34  35
ATOM     35  C   UNL A   1      39.203  29.307  30.108  1.00  0.00     0.031 A 
ATOM     36  C   UNL A   1      39.632  30.029  31.359  1.00  0.00     0.074 A 
ATOM     37  C   UNL A   1      39.978  28.329  29.596  1.00  0.00     0.049 A 
ATOM     38  N   UNL A   1      40.722  29.879  32.068  1.00  0.00    -0.248 NA
ATOM     39  C   UNL A   1      38.732  31.080  31.864  1.00  0.00     0.031 C 
ATOM     40  C   UNL A   1      39.698  27.577  28.371  1.00  0.00     0.029 A 
ATOM     41  N   UNL A   1      41.166  27.805  30.041  1.00  0.00    -0.354 N 
ATOM     42  C   UNL A   1      40.652  30.832  33.079  1.00  0.00     0.074 A 
ATOM     43  C   UNL A   1      39.437  31.587  32.865  1.00  0.00     0.031 C 
ATOM     44  C   UNL A   1      40.669  26.668  28.181  1.00  0.00     0.029 A 
ATOM     45  C   UNL A   1      41.659  26.799  29.245  1.00  0.00     0.049 A 
ATOM     46  H   UNL A   1      41.621  28.120  30.856  1.00  0.00     0.167 HD
ATOM     47  C   UNL A   1      41.508  31.049  34.107  1.00  0.00     0.031 A 
ATOM     48  C   UNL A   1      42.783  26.064  29.356  1.00  0.00     0.031 A 
ATOM     49  C   UNL A   1      42.697  30.276  34.340  1.00  0.00     0.049 A 
ATOM     50  C   UNL A   1      43.709  26.308  30.516  1.00  0.00     0.074 A 
ATOM     51  C   UNL A   1      43.600  30.379  35.384  1.00  0.00     0.029 A 
ATOM     52  N   UNL A   1      43.145  29.250  33.522  1.00  0.00    -0.354 N 
ATOM     53  N   UNL A   1      43.600  27.184  31.485  1.00  0.00    -0.248 NA
ATOM     54  C   UNL A   1      44.902  25.455  30.602  1.00  0.00     0.031 C 
ATOM     55  C   UNL A   1      44.614  29.437  35.179  1.00  0.00     0.029 A 
ATOM     56  C   UNL A   1      44.317  28.717  34.031  1.00  0.00     0.049 A 
ATOM     57  H   UNL A   1      42.696  28.945  32.701  1.00  0.00     0.167 HD
ATOM     58  C   UNL A   1      44.698  26.973  32.310  1.00  0.00     0.074 A 
ATOM     59  C   UNL A   1      45.451  25.878  31.733  1.00  0.00     0.031 C 
ATOM     60  C   UNL A   1      45.051  27.626  33.445  1.00  0.00     0.031 A 
BRANCH  47  61
ATOM     61  C   UNL A   1      41.179  32.169  35.059  1.00  0.00    -0.014 A 
ATOM     62  C   UNL A   1      41.650  33.475  34.832  1.00  0.00     0.010 A 
ATOM     63  C   UNL A   1      40.370  31.919  36.182  1.00  0.00     0.010 A 
ATOM     64  C   UNL A   1      41.358  34.500  35.737  1.00  0.00     0.020 A 
ATOM     65  C   UNL A   1      40.053  32.947  37.074  1.00  0.00     0.020 A 
ATOM     66  C   UNL A   1      40.567  34.227  36.856  1.00  0.00     0.054 A 
BRANCH  66  67
ATOM     67  S   UNL A   1      40.194  35.577  38.009  1.00  0.00     0.124 S 
ATOM     68  O   UNL A   1      39.876  36.671  37.095  1.00  0.00    -0.237 OA
ATOM     69  O   UNL A   1      39.066  35.049  38.772  1.00  0.00    -0.237 OA
ATOM     70  O   UNL A   1      41.434  35.738  38.765  1.00  0.00    -0.744 OA
ENDBRANCH  66  67
ENDBRANCH  47  61
BRANCH  48  71
ATOM     71  C   UNL A   1      43.081  25.008  28.350  1.00  0.00    -0.014 A 
ATOM     72  C   UNL A   1      42.613  23.696  28.540  1.00  0.00     0.010 A 
ATOM     73  C   UNL A   1      43.816  25.312  27.191  1.00  0.00     0.010 A 
ATOM     74  C   UNL A   1      42.888  22.702  27.595  1.00  0.00     0.020 A 
ATOM     75  C   UNL A   1      44.072  24.327  26.232  1.00  0.00     0.020 A 
ATOM     76  C   UNL A   1      43.615  23.025  26.446  1.00  0.00     0.054 A 
BRANCH  76  77
ATOM     77  S   UNL A   1      43.912  21.734  25.205  1.00  0.00     0.124 S 
ATOM     78  O   UNL A   1      42.865  20.767  25.518  1.00  0.00    -0.237 OA
ATOM     79  O   UNL A   1      43.749  22.460  23.948  1.00  0.00    -0.237 OA
ATOM     80  O   UNL A   1      45.276  21.296  25.491  1.00  0.00    -0.744 OA
ENDBRANCH  76  77
ENDBRANCH  48  71
BRANCH  60  81
ATOM     81  C   UNL A   1      46.288  27.154  34.157  1.00  0.00    -0.014 A 
ATOM     82  C   UNL A   1      47.543  27.728  33.891  1.00  0.00     0.010 A 
ATOM     83  C   UNL A   1      46.181  26.160  35.147  1.00  0.00     0.010 A 
ATOM     84  C   UNL A   1      48.676  27.297  34.585  1.00  0.00     0.020 A 
ATOM     85  C   UNL A   1      47.308  25.743  35.859  1.00  0.00     0.020 A 
ATOM     86  C   UNL A   1      48.552  26.306  35.564  1.00  0.00     0.054 A 
BRANCH  86  87
ATOM     87  S   UNL A   1      50.028  25.794  36.485  1.00  0.00     0.124 S 
ATOM     88  O   UNL A   1      49.516  24.688  37.288  1.00  0.00    -0.237 OA
ATOM     89  O   UNL A   1      50.959  25.421  35.422  1.00  0.00    -0.237 OA
ATOM     90  O   UNL A   1      50.400  26.991  37.236  1.00  0.00    -0.744 OA
ENDBRANCH  86  87
ENDBRANCH  60  81
ENDBRANCH  34  35
ENDBRANCH  26  29
ENDBRANCH  24  25
ENDBRANCH   1  24
TORSDOF 15
ENDMDL
MODEL 3
REMARK VINA RESULT:     -10.9      1.912      2.446
REMARK SMILES C[C@@H]1[C@@H](C(=O)NCCCNC(=O)c2ccc(-c3c4nc(c(-c5ccc(S(=O)(=O)[O-])cc5)c5ccc([nH]5)c(-c5ccc(S(=O)(=O)[O-])cc5)c5nc(c(-c6ccc(S(=O)(=O)[O-])cc6)c6ccc3[nH]6)C=C5)C=C4)cc2)CC[N@@H+]1C[C@H]1Cc2ccccc2O1
REMARK SMILES IDX 8 1 7 2 6 3 4 4 5 5 3 7 1 8 2 9 75 10 73 11 74 12 76 14
REMARK SMILES IDX 77 15 78 16 85 17 79 18 84 19 80 20 83 21 81 22 82 23 9 24
REMARK SMILES IDX 10 25 11 26 12 28 13 29 14 30 72 31 15 32 71 33 16 34 17 35
REMARK SMILES IDX 18 36 65 37 19 38 70 39 64 40 66 41 20 42 69 43 63 44 62 45
REMARK SMILES IDX 21 47 51 48 32 49 50 50 33 51 36 52 49 53 67 54 34 55 35 56
REMARK SMILES IDX 48 58 68 59 37 60 22 61 23 62 31 63 24 64 30 65 25 66 26 67
REMARK SMILES IDX 27 68 28 69 29 70 52 71 53 72 61 73 54 74 60 75 55 76 56 77
REMARK SMILES IDX 57 78 58 79 59 80 38 81 39 82 47 83 40 84 46 85 41 86 42 87
REMARK SMILES IDX 43 88 44 89 45 90
REMARK H PARENT 6 6 75 13 10 27 66 46 36 57
REMARK Flexibility Score: inf
ROOT
ATOM      1  C   UNL A   1      34.077  27.781  25.870  1.00  0.00     0.042 C 
ENDROOT
BRANCH   1   2
ATOM      2  C   UNL A   1      33.314  28.214  24.626  1.00  0.00     0.117 C 
BRANCH   2   3
ATOM      3  N   UNL A   1      33.727  27.500  23.429  1.00  0.00    -0.356 N 
ATOM      4  C   UNL A   1      33.313  26.351  22.842  1.00  0.00     0.229 C 
ATOM      5  O   UNL A   1      33.832  26.092  21.747  1.00  0.00    -0.275 OA
ATOM      6  H   UNL A   1      34.461  27.944  22.945  1.00  0.00     0.163 HD
BRANCH   4   7
ATOM      7  C   UNL A   1      32.354  25.334  23.455  1.00  0.00     0.142 C 
ATOM      8  C   UNL A   1      31.797  24.811  25.859  1.00  0.00     0.076 C 
ATOM      9  C   UNL A   1      32.786  24.572  24.715  1.00  0.00     0.193 C 
ATOM     10  N   UNL A   1      32.932  23.180  24.277  1.00  0.00    -0.329 N 
ATOM     11  C   UNL A   1      31.934  24.267  22.455  1.00  0.00     0.081 C 
ATOM     12  C   UNL A   1      32.712  23.035  22.854  1.00  0.00     0.263 C 
ATOM     13  H   UNL A   1      33.919  23.030  24.486  1.00  0.00     0.348 HD
BRANCH  10  14
ATOM     14  C   UNL A   1      32.697  22.038  25.145  1.00  0.00     0.308 C 
BRANCH  14  15
ATOM     15  C   UNL A   1      32.954  20.640  24.549  1.00  0.00     0.232 C 
ATOM     16  C   UNL A   1      34.399  20.142  24.679  1.00  0.00     0.090 C 
ATOM     17  O   UNL A   1      32.100  19.645  25.190  1.00  0.00    -0.484 OA
ATOM     18  C   UNL A   1      34.127  18.692  24.644  1.00  0.00    -0.002 A 
ATOM     19  C   UNL A   1      32.799  18.479  24.984  1.00  0.00     0.123 A 
ATOM     20  C   UNL A   1      34.985  17.641  24.380  1.00  0.00     0.007 A 
ATOM     21  C   UNL A   1      32.274  17.211  25.084  1.00  0.00     0.047 A 
ATOM     22  C   UNL A   1      34.466  16.349  24.445  1.00  0.00     0.001 A 
ATOM     23  C   UNL A   1      33.120  16.135  24.797  1.00  0.00     0.004 A 
ENDBRANCH  14  15
ENDBRANCH  10  14
ENDBRANCH   4   7
ENDBRANCH   2   3
ENDBRANCH   1   2
BRANCH   1  24
ATOM     24  C   UNL A   1      33.421  28.172  27.184  1.00  0.00     0.118 C 
BRANCH  24  25
ATOM     25  N   UNL A   1      33.284  29.610  27.342  1.00  0.00    -0.352 N 
ATOM     26  C   UNL A   1      34.142  30.548  27.864  1.00  0.00     0.251 C 
ATOM     27  H   UNL A   1      32.430  29.976  27.016  1.00  0.00     0.163 HD
ATOM     28  O   UNL A   1      33.721  31.687  28.055  1.00  0.00    -0.269 OA
BRANCH  26  29
ATOM     29  C   UNL A   1      35.544  30.215  28.216  1.00  0.00     0.039 A 
ATOM     30  C   UNL A   1      35.837  29.860  29.538  1.00  0.00     0.014 A 
ATOM     31  C   UNL A   1      36.582  30.304  27.286  1.00  0.00     0.014 A 
ATOM     32  C   UNL A   1      37.151  29.547  29.907  1.00  0.00     0.010 A 
ATOM     33  C   UNL A   1      37.869  29.895  27.629  1.00  0.00     0.010 A 
ATOM     34  C   UNL A   1      38.174  29.533  28.948  1.00  0.00    -0.014 A 
BRANCH  34  35
ATOM     35  C   UNL A   1      39.576  29.189  29.308  1.00  0.00     0.031 A 
ATOM     36  C   UNL A   1      40.446  30.204  30.004  1.00  0.00     0.074 A 
ATOM     37  C   UNL A   1      40.087  27.991  28.960  1.00  0.00     0.049 A 
ATOM     38  N   UNL A   1      41.712  30.127  30.324  1.00  0.00    -0.248 NA
ATOM     39  C   UNL A   1      39.817  31.488  30.360  1.00  0.00     0.031 C 
ATOM     40  C   UNL A   1      39.365  26.933  28.250  1.00  0.00     0.029 A 
ATOM     41  N   UNL A   1      41.340  27.464  29.152  1.00  0.00    -0.354 N 
ATOM     42  C   UNL A   1      42.037  31.357  30.889  1.00  0.00     0.074 A 
ATOM     43  C   UNL A   1      40.848  32.178  30.824  1.00  0.00     0.031 C 
ATOM     44  C   UNL A   1      40.177  25.874  28.095  1.00  0.00     0.029 A 
ATOM     45  C   UNL A   1      41.486  26.190  28.657  1.00  0.00     0.049 A 
ATOM     46  H   UNL A   1      42.066  27.953  29.604  1.00  0.00     0.167 HD
ATOM     47  C   UNL A   1      43.210  31.762  31.432  1.00  0.00     0.031 A 
ATOM     48  C   UNL A   1      42.553  25.367  28.654  1.00  0.00     0.031 A 
ATOM     49  C   UNL A   1      44.381  30.933  31.527  1.00  0.00     0.049 A 
ATOM     50  C   UNL A   1      43.840  25.830  29.280  1.00  0.00     0.074 A 
ATOM     51  C   UNL A   1      45.601  31.230  32.110  1.00  0.00     0.029 A 
ATOM     52  N   UNL A   1      44.476  29.641  31.036  1.00  0.00    -0.354 N 
ATOM     53  N   UNL A   1      44.110  26.980  29.848  1.00  0.00    -0.248 NA
ATOM     54  C   UNL A   1      44.959  24.879  29.274  1.00  0.00     0.031 C 
ATOM     55  C   UNL A   1      46.446  30.129  31.940  1.00  0.00     0.029 A 
ATOM     56  C   UNL A   1      45.737  29.130  31.292  1.00  0.00     0.049 A 
ATOM     57  H   UNL A   1      43.754  29.158  30.572  1.00  0.00     0.167 HD
ATOM     58  C   UNL A   1      45.425  26.883  30.289  1.00  0.00     0.074 A 
ATOM     59  C   UNL A   1      45.889  25.557  29.933  1.00  0.00     0.031 C 
ATOM     60  C   UNL A   1      46.179  27.808  30.932  1.00  0.00     0.031 A 
BRANCH  47  61
ATOM     61  C   UNL A   1      43.277  33.168  31.969  1.00  0.00    -0.014 A 
ATOM     62  C   UNL A   1      43.720  34.232  31.162  1.00  0.00     0.010 A 
ATOM     63  C   UNL A   1      42.870  33.433  33.289  1.00  0.00     0.010 A 
ATOM     64  C   UNL A   1      43.800  35.527  31.681  1.00  0.00     0.020 A 
ATOM     65  C   UNL A   1      42.923  34.732  33.802  1.00  0.00     0.020 A 
ATOM     66  C   UNL A   1      43.408  35.767  33.001  1.00  0.00     0.054 A 
BRANCH  66  67
ATOM     67  S   UNL A   1      43.513  37.460  33.645  1.00  0.00     0.124 S 
ATOM     68  O   UNL A   1      43.590  38.244  32.416  1.00  0.00    -0.237 OA
ATOM     69  O   UNL A   1      42.269  37.596  34.399  1.00  0.00    -0.237 OA
ATOM     70  O   UNL A   1      44.730  37.447  34.454  1.00  0.00    -0.744 OA
ENDBRANCH  66  67
ENDBRANCH  47  61
BRANCH  48  71
ATOM     71  C   UNL A   1      42.440  24.008  28.057  1.00  0.00    -0.014 A 
ATOM     72  C   UNL A   1      42.270  22.883  28.882  1.00  0.00     0.010 A 
ATOM     73  C   UNL A   1      42.482  23.835  26.662  1.00  0.00     0.010 A 
ATOM     74  C   UNL A   1      42.160  21.606  28.324  1.00  0.00     0.020 A 
ATOM     75  C   UNL A   1      42.348  22.561  26.099  1.00  0.00     0.020 A 
ATOM     76  C   UNL A   1      42.198  21.453  26.936  1.00  0.00     0.054 A 
BRANCH  76  77
ATOM     77  S   UNL A   1      41.996  19.793  26.230  1.00  0.00     0.124 S 
ATOM     78  O   UNL A   1      42.354  18.939  27.358  1.00  0.00    -0.237 OA
ATOM     79  O   UNL A   1      40.586  19.781  25.848  1.00  0.00    -0.237 OA
ATOM     80  O   UNL A   1      42.936  19.784  25.112  1.00  0.00    -0.744 OA
ENDBRANCH  76  77
ENDBRANCH  48  71
BRANCH  60  81
ATOM     81  C   UNL A   1      47.576  27.408  31.323  1.00  0.00    -0.014 A 
ATOM     82  C   UNL A   1      47.835  26.787  32.556  1.00  0.00     0.010 A 
ATOM     83  C   UNL A   1      48.633  27.608  30.416  1.00  0.00     0.010 A 
ATOM     84  C   UNL A   1      49.135  26.395  32.888  1.00  0.00     0.020 A 
ATOM     85  C   UNL A   1      49.929  27.198  30.735  1.00  0.00     0.020 A 
ATOM     86  C   UNL A   1      50.174  26.604  31.976  1.00  0.00     0.054 A 
BRANCH  86  87
ATOM     87  S   UNL A   1      51.845  26.046  32.408  1.00  0.00     0.124 S 
ATOM     88  O   UNL A   1      51.755  25.916  33.859  1.00  0.00    -0.237 OA
ATOM     89  O   UNL A   1      51.966  24.790  31.670  1.00  0.00    -0.237 OA
ATOM     90  O   UNL A   1      52.705  27.126  31.930  1.00  0.00    -0.744 OA
ENDBRANCH  86  87
ENDBRANCH  60  81
ENDBRANCH  34  35
ENDBRANCH  26  29
ENDBRANCH  24  25
ENDBRANCH   1  24
TORSDOF 15
ENDMDL
