MODEL 1
REMARK VINA RESULT:     -11.2      0.000      0.000
REMARK SMILES Cc1cc(C)c(C(=O)N[C@H](C(=O)NCCCNC(=O)c2ccc(-c3c4nc(c(-c5ccc(S(=O)(=O)[O-])cc5)c5ccc([nH]5)c(-c5ccc(S(=O)(=O)[O-])cc5)c5nc(c(-c6ccc(S(=O)(=O)[O-])cc6)c6ccc3[nH]6)C=C5)C=C4)cc2)C(C)C)c(=O)[nH]1
REMARK SMILES IDX 15 1 14 2 13 3 11 4 12 5 10 7 9 8 7 9 8 10 6 12 1 13 2 14
REMARK SMILES IDX 3 15 85 16 4 17 83 18 5 20 84 21 80 22 81 23 82 24 16 25
REMARK SMILES IDX 17 26 18 27 19 29 20 30 21 31 79 32 22 33 78 34 23 35 24 36
REMARK SMILES IDX 25 37 72 38 26 39 77 40 71 41 73 42 27 43 76 44 70 45 69 46
REMARK SMILES IDX 28 48 58 49 39 50 57 51 40 52 43 53 56 54 74 55 41 56 42 57
REMARK SMILES IDX 55 59 75 60 44 61 29 62 30 63 38 64 31 65 37 66 32 67 33 68
REMARK SMILES IDX 34 69 35 70 36 71 59 72 60 73 68 74 61 75 67 76 62 77 63 78
REMARK SMILES IDX 64 79 65 80 66 81 45 82 46 83 54 84 47 85 53 86 48 87 49 88
REMARK SMILES IDX 50 89 51 90 52 91
REMARK H PARENT 13 6 9 11 85 19 17 28 73 47 43 58
REMARK Flexibility Score: inf
ROOT
ATOM      1  C   UNL A   1      32.890  27.962  27.218  1.00  0.00     0.042 C 
ENDROOT
BRANCH   1   2
ATOM      2  C   UNL A   1      31.442  27.879  26.753  1.00  0.00     0.117 C 
BRANCH   2   3
ATOM      3  N   UNL A   1      30.920  26.535  26.892  1.00  0.00    -0.354 N 
ATOM      4  C   UNL A   1      31.054  25.380  26.205  1.00  0.00     0.242 C 
ATOM      5  O   UNL A   1      30.269  24.494  26.578  1.00  0.00    -0.273 OA
ATOM      6  H   UNL A   1      30.327  26.441  27.672  1.00  0.00     0.163 HD
BRANCH   4   7
ATOM      7  C   UNL A   1      32.132  25.072  25.112  1.00  0.00     0.174 C 
BRANCH   7   8
ATOM      8  N   UNL A   1      31.842  23.662  24.767  1.00  0.00    -0.340 N 
ATOM      9  C   UNL A   1      32.453  22.494  25.112  1.00  0.00     0.257 C 
ATOM     10  O   UNL A   1      31.750  21.479  25.130  1.00  0.00    -0.269 OA
ATOM     11  H   UNL A   1      31.061  23.546  24.180  1.00  0.00     0.164 HD
BRANCH   9  12
ATOM     12  C   UNL A   1      33.930  22.384  25.279  1.00  0.00     0.107 A 
ATOM     13  C   UNL A   1      38.241  22.283  25.729  1.00  0.00     0.064 C 
ATOM     14  C   UNL A   1      36.759  22.316  25.527  1.00  0.00     0.015 A 
ATOM     15  C   UNL A   1      36.184  22.503  24.333  1.00  0.00     0.025 A 
ATOM     16  N   UNL A   1      35.958  22.072  26.612  1.00  0.00    -0.326 N 
ATOM     17  C   UNL A   1      34.733  22.574  24.198  1.00  0.00    -0.031 A 
ATOM     18  C   UNL A   1      34.589  21.955  26.552  1.00  0.00     0.261 A 
ATOM     19  H   UNL A   1      36.391  21.975  27.490  1.00  0.00     0.169 HD
ATOM     20  C   UNL A   1      34.283  22.894  22.792  1.00  0.00     0.045 C 
ATOM     21  O   UNL A   1      33.988  21.487  27.513  1.00  0.00    -0.269 OA
ENDBRANCH   9  12
ENDBRANCH   7   8
BRANCH   7  22
ATOM     22  C   UNL A   1      32.194  25.990  23.872  1.00  0.00     0.015 C 
ATOM     23  C   UNL A   1      33.656  26.412  23.610  1.00  0.00     0.010 C 
ATOM     24  C   UNL A   1      31.677  25.347  22.579  1.00  0.00     0.010 C 
ENDBRANCH   7  22
ENDBRANCH   4   7
ENDBRANCH   2   3
ENDBRANCH   1   2
BRANCH   1  25
ATOM     25  C   UNL A   1      33.731  28.976  26.455  1.00  0.00     0.118 C 
BRANCH  25  26
ATOM     26  N   UNL A   1      33.694  30.303  27.054  1.00  0.00    -0.352 N 
ATOM     27  C   UNL A   1      34.572  30.889  27.935  1.00  0.00     0.251 C 
ATOM     28  H   UNL A   1      32.927  30.862  26.791  1.00  0.00     0.163 HD
ATOM     29  O   UNL A   1      34.276  31.950  28.481  1.00  0.00    -0.269 OA
BRANCH  27  30
ATOM     30  C   UNL A   1      35.857  30.225  28.240  1.00  0.00     0.039 A 
ATOM     31  C   UNL A   1      36.873  30.227  27.282  1.00  0.00     0.014 A 
ATOM     32  C   UNL A   1      36.063  29.622  29.483  1.00  0.00     0.014 A 
ATOM     33  C   UNL A   1      38.128  29.704  27.605  1.00  0.00     0.010 A 
ATOM     34  C   UNL A   1      37.335  29.189  29.834  1.00  0.00     0.010 A 
ATOM     35  C   UNL A   1      38.381  29.223  28.900  1.00  0.00    -0.014 A 
BRANCH  35  36
ATOM     36  C   UNL A   1      39.721  28.736  29.313  1.00  0.00     0.031 A 
ATOM     37  C   UNL A   1      40.614  29.623  30.134  1.00  0.00     0.074 A 
ATOM     38  C   UNL A   1      40.165  27.539  28.883  1.00  0.00     0.049 A 
ATOM     39  N   UNL A   1      41.865  29.448  30.477  1.00  0.00    -0.248 NA
ATOM     40  C   UNL A   1      40.030  30.887  30.610  1.00  0.00     0.031 C 
ATOM     41  C   UNL A   1      39.400  26.588  28.074  1.00  0.00     0.029 A 
ATOM     42  N   UNL A   1      41.374  26.918  29.071  1.00  0.00    -0.354 N 
ATOM     43  C   UNL A   1      42.221  30.588  31.189  1.00  0.00     0.074 A 
ATOM     44  C   UNL A   1      41.074  31.470  31.177  1.00  0.00     0.031 C 
ATOM     45  C   UNL A   1      40.142  25.487  27.873  1.00  0.00     0.029 A 
ATOM     46  C   UNL A   1      41.450  25.674  28.492  1.00  0.00     0.049 A 
ATOM     47  H   UNL A   1      42.117  27.325  29.572  1.00  0.00     0.167 HD
ATOM     48  C   UNL A   1      43.388  30.867  31.818  1.00  0.00     0.031 A 
ATOM     49  C   UNL A   1      42.460  24.783  28.461  1.00  0.00     0.031 A 
ATOM     50  C   UNL A   1      44.527  29.989  31.827  1.00  0.00     0.049 A 
ATOM     51  C   UNL A   1      43.758  25.125  29.135  1.00  0.00     0.074 A 
ATOM     52  C   UNL A   1      45.759  30.177  32.429  1.00  0.00     0.029 A 
ATOM     53  N   UNL A   1      44.567  28.745  31.213  1.00  0.00    -0.354 N 
ATOM     54  N   UNL A   1      44.087  26.218  29.781  1.00  0.00    -0.248 NA
ATOM     55  C   UNL A   1      44.818  24.111  29.076  1.00  0.00     0.031 C 
ATOM     56  C   UNL A   1      46.555  29.058  32.152  1.00  0.00     0.029 A 
ATOM     57  C   UNL A   1      45.802  28.153  31.422  1.00  0.00     0.049 A 
ATOM     58  H   UNL A   1      43.827  28.343  30.704  1.00  0.00     0.167 HD
ATOM     59  C   UNL A   1      45.386  26.012  30.234  1.00  0.00     0.074 A 
ATOM     60  C   UNL A   1      45.777  24.688  29.789  1.00  0.00     0.031 C 
ATOM     61  C   UNL A   1      46.178  26.840  30.960  1.00  0.00     0.031 A 
BRANCH  48  62
ATOM     62  C   UNL A   1      43.470  32.187  32.537  1.00  0.00    -0.014 A 
ATOM     63  C   UNL A   1      43.940  33.339  31.877  1.00  0.00     0.010 A 
ATOM     64  C   UNL A   1      43.106  32.278  33.892  1.00  0.00     0.010 A 
ATOM     65  C   UNL A   1      44.108  34.538  32.574  1.00  0.00     0.020 A 
ATOM     66  C   UNL A   1      43.243  33.485  34.587  1.00  0.00     0.020 A 
ATOM     67  C   UNL A   1      43.768  34.599  33.929  1.00  0.00     0.054 A 
BRANCH  67  68
ATOM     68  S   UNL A   1      44.019  36.161  34.817  1.00  0.00     0.124 S 
ATOM     69  O   UNL A   1      42.922  36.977  34.302  1.00  0.00    -0.237 OA
ATOM     70  O   UNL A   1      43.900  35.759  36.216  1.00  0.00    -0.237 OA
ATOM     71  O   UNL A   1      45.355  36.583  34.405  1.00  0.00    -0.744 OA
ENDBRANCH  67  68
ENDBRANCH  48  62
BRANCH  49  72
ATOM     72  C   UNL A   1      42.246  23.461  27.817  1.00  0.00    -0.014 A 
ATOM     73  C   UNL A   1      42.836  23.189  26.570  1.00  0.00     0.010 A 
ATOM     74  C   UNL A   1      41.523  22.445  28.469  1.00  0.00     0.010 A 
ATOM     75  C   UNL A   1      42.720  21.923  25.991  1.00  0.00     0.020 A 
ATOM     76  C   UNL A   1      41.421  21.171  27.903  1.00  0.00     0.020 A 
ATOM     77  C   UNL A   1      42.024  20.917  26.668  1.00  0.00     0.054 A 
BRANCH  77  78
ATOM     78  S   UNL A   1      41.983  19.252  25.947  1.00  0.00     0.124 S 
ATOM     79  O   UNL A   1      40.563  19.079  25.657  1.00  0.00    -0.237 OA
ATOM     80  O   UNL A   1      42.855  19.394  24.783  1.00  0.00    -0.237 OA
ATOM     81  O   UNL A   1      42.514  18.405  27.011  1.00  0.00    -0.744 OA
ENDBRANCH  77  78
ENDBRANCH  49  72
BRANCH  61  82
ATOM     82  C   UNL A   1      47.536  26.323  31.348  1.00  0.00    -0.014 A 
ATOM     83  C   UNL A   1      47.737  25.635  32.558  1.00  0.00     0.010 A 
ATOM     84  C   UNL A   1      48.619  26.500  30.470  1.00  0.00     0.010 A 
ATOM     85  C   UNL A   1      49.009  25.168  32.900  1.00  0.00     0.020 A 
ATOM     86  C   UNL A   1      49.887  26.013  30.796  1.00  0.00     0.020 A 
ATOM     87  C   UNL A   1      50.077  25.364  32.018  1.00  0.00     0.054 A 
BRANCH  87  88
ATOM     88  S   UNL A   1      51.714  24.731  32.474  1.00  0.00     0.124 S 
ATOM     89  O   UNL A   1      51.534  23.290  32.325  1.00  0.00    -0.237 OA
ATOM     90  O   UNL A   1      52.588  25.362  31.487  1.00  0.00    -0.237 OA
ATOM     91  O   UNL A   1      51.897  25.199  33.846  1.00  0.00    -0.744 OA
ENDBRANCH  87  88
ENDBRANCH  61  82
ENDBRANCH  35  36
ENDBRANCH  27  30
ENDBRANCH  25  26
ENDBRANCH   1  25
TORSDOF 16
ENDMDL
MODEL 2
REMARK VINA RESULT:     -11.1      1.290      1.865
REMARK SMILES Cc1cc(C)c(C(=O)N[C@H](C(=O)NCCCNC(=O)c2ccc(-c3c4nc(c(-c5ccc(S(=O)(=O)[O-])cc5)c5ccc([nH]5)c(-c5ccc(S(=O)(=O)[O-])cc5)c5nc(c(-c6ccc(S(=O)(=O)[O-])cc6)c6ccc3[nH]6)C=C5)C=C4)cc2)C(C)C)c(=O)[nH]1
REMARK SMILES IDX 15 1 14 2 13 3 11 4 12 5 10 7 9 8 7 9 8 10 6 12 1 13 2 14
REMARK SMILES IDX 3 15 85 16 4 17 83 18 5 20 84 21 80 22 81 23 82 24 16 25
REMARK SMILES IDX 17 26 18 27 19 29 20 30 21 31 79 32 22 33 78 34 23 35 24 36
REMARK SMILES IDX 25 37 72 38 26 39 77 40 71 41 73 42 27 43 76 44 70 45 69 46
REMARK SMILES IDX 28 48 58 49 39 50 57 51 40 52 43 53 56 54 74 55 41 56 42 57
REMARK SMILES IDX 55 59 75 60 44 61 29 62 30 63 38 64 31 65 37 66 32 67 33 68
REMARK SMILES IDX 34 69 35 70 36 71 59 72 60 73 68 74 61 75 67 76 62 77 63 78
REMARK SMILES IDX 64 79 65 80 66 81 45 82 46 83 54 84 47 85 53 86 48 87 49 88
REMARK SMILES IDX 50 89 51 90 52 91
REMARK H PARENT 13 6 9 11 85 19 17 28 73 47 43 58
REMARK Flexibility Score: inf
ROOT
ATOM      1  C   UNL A   1      33.003  28.804  25.087  1.00  0.00     0.042 C 
ENDROOT
BRANCH   1   2
ATOM      2  C   UNL A   1      33.612  27.818  24.099  1.00  0.00     0.117 C 
BRANCH   2   3
ATOM      3  N   UNL A   1      32.586  27.098  23.373  1.00  0.00    -0.354 N 
ATOM      4  C   UNL A   1      32.144  25.822  23.351  1.00  0.00     0.242 C 
ATOM      5  O   UNL A   1      31.348  25.595  22.427  1.00  0.00    -0.273 OA
ATOM      6  H   UNL A   1      32.094  27.677  22.746  1.00  0.00     0.163 HD
BRANCH   4   7
ATOM      7  C   UNL A   1      32.470  24.711  24.405  1.00  0.00     0.174 C 
BRANCH   7   8
ATOM      8  N   UNL A   1      33.852  24.323  24.042  1.00  0.00    -0.340 N 
ATOM      9  C   UNL A   1      34.396  23.132  23.667  1.00  0.00     0.257 C 
ATOM     10  O   UNL A   1      35.399  23.177  22.947  1.00  0.00    -0.269 OA
ATOM     11  H   UNL A   1      34.498  25.065  24.078  1.00  0.00     0.164 HD
BRANCH   9  12
ATOM     12  C   UNL A   1      33.939  21.831  24.234  1.00  0.00     0.107 A 
ATOM     13  C   UNL A   1      32.684  17.949  25.698  1.00  0.00     0.064 C 
ATOM     14  C   UNL A   1      33.079  19.291  25.167  1.00  0.00     0.015 A 
ATOM     15  C   UNL A   1      32.440  19.898  24.160  1.00  0.00     0.025 A 
ATOM     16  N   UNL A   1      34.098  19.955  25.796  1.00  0.00    -0.326 N 
ATOM     17  C   UNL A   1      32.894  21.187  23.648  1.00  0.00    -0.031 A 
ATOM     18  C   UNL A   1      34.487  21.239  25.493  1.00  0.00     0.261 A 
ATOM     19  H   UNL A   1      34.584  19.483  26.509  1.00  0.00     0.169 HD
ATOM     20  C   UNL A   1      32.110  21.657  22.445  1.00  0.00     0.045 C 
ATOM     21  O   UNL A   1      35.226  21.837  26.269  1.00  0.00    -0.269 OA
ENDBRANCH   9  12
ENDBRANCH   7   8
BRANCH   7  22
ATOM     22  C   UNL A   1      32.321  25.063  25.902  1.00  0.00     0.015 C 
ATOM     23  C   UNL A   1      31.000  25.829  26.127  1.00  0.00     0.010 C 
ATOM     24  C   UNL A   1      32.298  23.850  26.840  1.00  0.00     0.010 C 
ENDBRANCH   7  22
ENDBRANCH   4   7
ENDBRANCH   2   3
ENDBRANCH   1   2
BRANCH   1  25
ATOM     25  C   UNL A   1      33.717  28.858  26.431  1.00  0.00     0.118 C 
BRANCH  25  26
ATOM     26  N   UNL A   1      33.643  30.172  27.055  1.00  0.00    -0.352 N 
ATOM     27  C   UNL A   1      34.511  30.772  27.936  1.00  0.00     0.251 C 
ATOM     28  H   UNL A   1      32.854  30.708  26.812  1.00  0.00     0.163 HD
ATOM     29  O   UNL A   1      34.186  31.811  28.505  1.00  0.00    -0.269 OA
BRANCH  27  30
ATOM     30  C   UNL A   1      35.822  30.148  28.213  1.00  0.00     0.039 A 
ATOM     31  C   UNL A   1      36.827  30.209  27.246  1.00  0.00     0.014 A 
ATOM     32  C   UNL A   1      36.062  29.523  29.439  1.00  0.00     0.014 A 
ATOM     33  C   UNL A   1      38.104  29.724  27.545  1.00  0.00     0.010 A 
ATOM     34  C   UNL A   1      37.353  29.128  29.768  1.00  0.00     0.010 A 
ATOM     35  C   UNL A   1      38.387  29.222  28.826  1.00  0.00    -0.014 A 
BRANCH  35  36
ATOM     36  C   UNL A   1      39.747  28.774  29.214  1.00  0.00     0.031 A 
ATOM     37  C   UNL A   1      40.640  29.697  29.996  1.00  0.00     0.074 A 
ATOM     38  C   UNL A   1      40.208  27.579  28.796  1.00  0.00     0.049 A 
ATOM     39  N   UNL A   1      41.902  29.558  30.311  1.00  0.00    -0.248 NA
ATOM     40  C   UNL A   1      40.038  30.956  30.462  1.00  0.00     0.031 C 
ATOM     41  C   UNL A   1      39.447  26.595  28.024  1.00  0.00     0.029 A 
ATOM     42  N   UNL A   1      41.436  26.989  28.966  1.00  0.00    -0.354 N 
ATOM     43  C   UNL A   1      42.248  30.718  30.992  1.00  0.00     0.074 A 
ATOM     44  C   UNL A   1      41.082  31.574  30.992  1.00  0.00     0.031 C 
ATOM     45  C   UNL A   1      40.209  25.508  27.826  1.00  0.00     0.029 A 
ATOM     46  C   UNL A   1      41.527  25.736  28.408  1.00  0.00     0.049 A 
ATOM     47  H   UNL A   1      42.181  27.423  29.441  1.00  0.00     0.167 HD
ATOM     48  C   UNL A   1      43.424  31.037  31.586  1.00  0.00     0.031 A 
ATOM     49  C   UNL A   1      42.557  24.869  28.369  1.00  0.00     0.031 A 
ATOM     50  C   UNL A   1      44.583  30.185  31.584  1.00  0.00     0.049 A 
ATOM     51  C   UNL A   1      43.862  25.253  29.004  1.00  0.00     0.074 A 
ATOM     52  C   UNL A   1      45.824  30.414  32.151  1.00  0.00     0.029 A 
ATOM     53  N   UNL A   1      44.637  28.931  30.993  1.00  0.00    -0.354 N 
ATOM     54  N   UNL A   1      44.182  26.366  29.622  1.00  0.00    -0.248 NA
ATOM     55  C   UNL A   1      44.944  24.263  28.938  1.00  0.00     0.031 C 
ATOM     56  C   UNL A   1      46.639  29.308  31.876  1.00  0.00     0.029 A 
ATOM     57  C   UNL A   1      45.890  28.371  31.182  1.00  0.00     0.049 A 
ATOM     58  H   UNL A   1      43.894  28.502  30.510  1.00  0.00     0.167 HD
ATOM     59  C   UNL A   1      45.495  26.199  30.046  1.00  0.00     0.074 A 
ATOM     60  C   UNL A   1      45.906  24.875  29.617  1.00  0.00     0.031 C 
ATOM     61  C   UNL A   1      46.285  27.059  30.736  1.00  0.00     0.031 A 
BRANCH  48  62
ATOM     62  C   UNL A   1      43.493  32.372  32.279  1.00  0.00    -0.014 A 
ATOM     63  C   UNL A   1      43.932  33.519  31.589  1.00  0.00     0.010 A 
ATOM     64  C   UNL A   1      43.146  32.483  33.637  1.00  0.00     0.010 A 
ATOM     65  C   UNL A   1      44.088  34.734  32.260  1.00  0.00     0.020 A 
ATOM     66  C   UNL A   1      43.271  33.706  34.305  1.00  0.00     0.020 A 
ATOM     67  C   UNL A   1      43.767  34.816  33.618  1.00  0.00     0.054 A 
BRANCH  67  68
ATOM     68  S   UNL A   1      44.002  36.400  34.472  1.00  0.00     0.124 S 
ATOM     69  O   UNL A   1      44.928  37.088  33.576  1.00  0.00    -0.237 OA
ATOM     70  O   UNL A   1      42.649  36.945  34.517  1.00  0.00    -0.237 OA
ATOM     71  O   UNL A   1      44.558  36.015  35.767  1.00  0.00    -0.744 OA
ENDBRANCH  67  68
ENDBRANCH  48  62
BRANCH  49  72
ATOM     72  C   UNL A   1      42.358  23.529  27.756  1.00  0.00    -0.014 A 
ATOM     73  C   UNL A   1      42.874  23.266  26.475  1.00  0.00     0.010 A 
ATOM     74  C   UNL A   1      41.725  22.493  28.466  1.00  0.00     0.010 A 
ATOM     75  C   UNL A   1      42.775  21.988  25.919  1.00  0.00     0.020 A 
ATOM     76  C   UNL A   1      41.642  21.208  27.923  1.00  0.00     0.020 A 
ATOM     77  C   UNL A   1      42.171  20.963  26.653  1.00  0.00     0.054 A 
BRANCH  77  78
ATOM     78  S   UNL A   1      42.154  19.288  25.954  1.00  0.00     0.124 S 
ATOM     79  O   UNL A   1      40.735  19.083  25.686  1.00  0.00    -0.237 OA
ATOM     80  O   UNL A   1      43.008  19.431  24.777  1.00  0.00    -0.237 OA
ATOM     81  O   UNL A   1      42.717  18.466  27.023  1.00  0.00    -0.744 OA
ENDBRANCH  77  78
ENDBRANCH  49  72
BRANCH  61  82
ATOM     82  C   UNL A   1      47.664  26.580  31.100  1.00  0.00    -0.014 A 
ATOM     83  C   UNL A   1      48.773  26.854  30.280  1.00  0.00     0.010 A 
ATOM     84  C   UNL A   1      47.855  25.874  32.301  1.00  0.00     0.010 A 
ATOM     85  C   UNL A   1      50.043  26.394  30.636  1.00  0.00     0.020 A 
ATOM     86  C   UNL A   1      49.127  25.434  32.673  1.00  0.00     0.020 A 
ATOM     87  C   UNL A   1      50.211  25.683  31.829  1.00  0.00     0.054 A 
BRANCH  87  88
ATOM     88  S   UNL A   1      51.873  25.114  32.281  1.00  0.00     0.124 S 
ATOM     89  O   UNL A   1      51.689  23.668  32.352  1.00  0.00    -0.237 OA
ATOM     90  O   UNL A   1      52.689  25.591  31.166  1.00  0.00    -0.237 OA
ATOM     91  O   UNL A   1      52.130  25.775  33.559  1.00  0.00    -0.744 OA
ENDBRANCH  87  88
ENDBRANCH  61  82
ENDBRANCH  35  36
ENDBRANCH  27  30
ENDBRANCH  25  26
ENDBRANCH   1  25
TORSDOF 16
ENDMDL
MODEL 3
REMARK VINA RESULT:     -10.3      4.097     10.239
REMARK SMILES Cc1cc(C)c(C(=O)N[C@H](C(=O)NCCCNC(=O)c2ccc(-c3c4nc(c(-c5ccc(S(=O)(=O)[O-])cc5)c5ccc([nH]5)c(-c5ccc(S(=O)(=O)[O-])cc5)c5nc(c(-c6ccc(S(=O)(=O)[O-])cc6)c6ccc3[nH]6)C=C5)C=C4)cc2)C(C)C)c(=O)[nH]1
REMARK SMILES IDX 15 1 14 2 13 3 11 4 12 5 10 7 9 8 7 9 8 10 6 12 1 13 2 14
REMARK SMILES IDX 3 15 85 16 4 17 83 18 5 20 84 21 80 22 81 23 82 24 16 25
REMARK SMILES IDX 17 26 18 27 19 29 20 30 21 31 79 32 22 33 78 34 23 35 24 36
REMARK SMILES IDX 25 37 72 38 26 39 77 40 71 41 73 42 27 43 76 44 70 45 69 46
REMARK SMILES IDX 28 48 58 49 39 50 57 51 40 52 43 53 56 54 74 55 41 56 42 57
REMARK SMILES IDX 55 59 75 60 44 61 29 62 30 63 38 64 31 65 37 66 32 67 33 68
REMARK SMILES IDX 34 69 35 70 36 71 59 72 60 73 68 74 61 75 67 76 62 77 63 78
REMARK SMILES IDX 64 79 65 80 66 81 45 82 46 83 54 84 47 85 53 86 48 87 49 88
REMARK SMILES IDX 50 89 51 90 52 91
REMARK H PARENT 13 6 9 11 85 19 17 28 73 47 43 58
REMARK Flexibility Score: inf
ROOT
ATOM      1  C   UNL A   1      38.254  23.758  26.290  1.00  0.00     0.042 C 
ENDROOT
BRANCH   1   2
ATOM      2  C   UNL A   1      37.871  22.466  25.579  1.00  0.00     0.117 C 
BRANCH   2   3
ATOM      3  N   UNL A   1      37.460  22.718  24.213  1.00  0.00    -0.354 N 
ATOM      4  C   UNL A   1      36.306  23.078  23.611  1.00  0.00     0.242 C 
ATOM      5  O   UNL A   1      36.355  23.004  22.373  1.00  0.00    -0.273 OA
ATOM      6  H   UNL A   1      38.197  22.599  23.570  1.00  0.00     0.163 HD
BRANCH   4   7
ATOM      7  C   UNL A   1      35.028  23.641  24.320  1.00  0.00     0.174 C 
BRANCH   7   8
ATOM      8  N   UNL A   1      34.274  24.233  23.193  1.00  0.00    -0.340 N 
ATOM      9  C   UNL A   1      33.725  25.467  23.009  1.00  0.00     0.257 C 
ATOM     10  O   UNL A   1      33.618  25.864  21.845  1.00  0.00    -0.269 OA
ATOM     11  H   UNL A   1      34.145  23.621  22.433  1.00  0.00     0.164 HD
BRANCH   9  12
ATOM     12  C   UNL A   1      33.106  26.239  24.124  1.00  0.00     0.107 A 
ATOM     13  C   UNL A   1      31.363  28.322  27.502  1.00  0.00     0.064 C 
ATOM     14  C   UNL A   1      31.926  27.577  26.333  1.00  0.00     0.015 A 
ATOM     15  C   UNL A   1      31.365  26.471  25.828  1.00  0.00     0.025 A 
ATOM     16  N   UNL A   1      33.028  28.100  25.711  1.00  0.00    -0.326 N 
ATOM     17  C   UNL A   1      31.981  25.756  24.716  1.00  0.00    -0.031 A 
ATOM     18  C   UNL A   1      33.580  27.589  24.559  1.00  0.00     0.261 A 
ATOM     19  H   UNL A   1      33.453  28.890  26.113  1.00  0.00     0.169 HD
ATOM     20  C   UNL A   1      31.257  24.478  24.360  1.00  0.00     0.045 C 
ATOM     21  O   UNL A   1      34.396  28.264  23.939  1.00  0.00    -0.269 OA
ENDBRANCH   9  12
ENDBRANCH   7   8
BRANCH   7  22
ATOM     22  C   UNL A   1      34.176  22.668  25.164  1.00  0.00     0.015 C 
ATOM     23  C   UNL A   1      34.452  21.215  24.719  1.00  0.00     0.010 C 
ATOM     24  C   UNL A   1      34.447  22.731  26.672  1.00  0.00     0.010 C 
ENDBRANCH   7  22
ENDBRANCH   4   7
ENDBRANCH   2   3
ENDBRANCH   1   2
BRANCH   1  25
ATOM     25  C   UNL A   1      39.651  23.744  26.894  1.00  0.00     0.118 C 
BRANCH  25  26
ATOM     26  N   UNL A   1      40.657  24.296  25.998  1.00  0.00    -0.352 N 
ATOM     27  C   UNL A   1      41.195  25.561  25.960  1.00  0.00     0.251 C 
ATOM     28  H   UNL A   1      41.003  23.672  25.319  1.00  0.00     0.163 HD
ATOM     29  O   UNL A   1      41.896  25.901  25.010  1.00  0.00    -0.269 OA
BRANCH  27  30
ATOM     30  C   UNL A   1      40.902  26.515  27.050  1.00  0.00     0.039 A 
ATOM     31  C   UNL A   1      40.143  26.092  28.144  1.00  0.00     0.014 A 
ATOM     32  C   UNL A   1      41.399  27.819  27.001  1.00  0.00     0.014 A 
ATOM     33  C   UNL A   1      39.960  26.952  29.231  1.00  0.00     0.010 A 
ATOM     34  C   UNL A   1      41.296  28.637  28.119  1.00  0.00     0.010 A 
ATOM     35  C   UNL A   1      40.575  28.214  29.245  1.00  0.00    -0.014 A 
BRANCH  35  36
ATOM     36  C   UNL A   1      40.477  29.126  30.412  1.00  0.00     0.031 A 
ATOM     37  C   UNL A   1      41.411  28.947  31.577  1.00  0.00     0.074 A 
ATOM     38  C   UNL A   1      39.504  30.056  30.462  1.00  0.00     0.049 A 
ATOM     39  N   UNL A   1      41.401  29.537  32.744  1.00  0.00    -0.248 NA
ATOM     40  C   UNL A   1      42.481  27.949  31.416  1.00  0.00     0.031 C 
ATOM     41  C   UNL A   1      38.529  30.325  29.403  1.00  0.00     0.029 A 
ATOM     42  N   UNL A   1      39.175  30.949  31.451  1.00  0.00    -0.354 N 
ATOM     43  C   UNL A   1      42.448  28.969  33.460  1.00  0.00     0.074 A 
ATOM     44  C   UNL A   1      43.031  27.947  32.619  1.00  0.00     0.031 C 
ATOM     45  C   UNL A   1      37.742  31.345  29.781  1.00  0.00     0.029 A 
ATOM     46  C   UNL A   1      38.119  31.767  31.126  1.00  0.00     0.049 A 
ATOM     47  H   UNL A   1      39.650  30.999  32.311  1.00  0.00     0.167 HD
ATOM     48  C   UNL A   1      42.900  29.283  34.698  1.00  0.00     0.031 A 
ATOM     49  C   UNL A   1      37.521  32.745  31.832  1.00  0.00     0.031 A 
ATOM     50  C   UNL A   1      42.318  30.299  35.534  1.00  0.00     0.049 A 
ATOM     51  C   UNL A   1      38.015  33.057  33.215  1.00  0.00     0.074 A 
ATOM     52  C   UNL A   1      42.696  30.694  36.805  1.00  0.00     0.029 A 
ATOM     53  N   UNL A   1      41.239  31.093  35.172  1.00  0.00    -0.354 N 
ATOM     54  N   UNL A   1      38.989  32.492  33.888  1.00  0.00    -0.248 NA
ATOM     55  C   UNL A   1      37.330  34.140  33.932  1.00  0.00     0.031 C 
ATOM     56  C   UNL A   1      41.824  31.707  37.224  1.00  0.00     0.029 A 
ATOM     57  C   UNL A   1      40.936  31.976  36.194  1.00  0.00     0.049 A 
ATOM     58  H   UNL A   1      40.759  31.035  34.315  1.00  0.00     0.167 HD
ATOM     59  C   UNL A   1      39.054  33.171  35.100  1.00  0.00     0.074 A 
ATOM     60  C   UNL A   1      38.023  34.191  35.062  1.00  0.00     0.031 C 
ATOM     61  C   UNL A   1      39.897  32.975  36.144  1.00  0.00     0.031 A 
BRANCH  48  62
ATOM     62  C   UNL A   1      44.083  28.501  35.206  1.00  0.00    -0.014 A 
ATOM     63  C   UNL A   1      45.383  29.039  35.141  1.00  0.00     0.010 A 
ATOM     64  C   UNL A   1      43.905  27.207  35.726  1.00  0.00     0.010 A 
ATOM     65  C   UNL A   1      46.487  28.273  35.522  1.00  0.00     0.020 A 
ATOM     66  C   UNL A   1      45.005  26.448  36.138  1.00  0.00     0.020 A 
ATOM     67  C   UNL A   1      46.291  26.977  36.008  1.00  0.00     0.054 A 
BRANCH  67  68
ATOM     68  S   UNL A   1      47.744  25.995  36.473  1.00  0.00     0.124 S 
ATOM     69  O   UNL A   1      47.216  24.634  36.411  1.00  0.00    -0.237 OA
ATOM     70  O   UNL A   1      48.711  26.341  35.435  1.00  0.00    -0.237 OA
ATOM     71  O   UNL A   1      48.072  26.475  37.812  1.00  0.00    -0.744 OA
ENDBRANCH  67  68
ENDBRANCH  48  62
BRANCH  49  72
ATOM     72  C   UNL A   1      36.429  33.535  31.203  1.00  0.00    -0.014 A 
ATOM     73  C   UNL A   1      36.648  34.161  29.964  1.00  0.00     0.010 A 
ATOM     74  C   UNL A   1      35.154  33.606  31.791  1.00  0.00     0.010 A 
ATOM     75  C   UNL A   1      35.609  34.833  29.315  1.00  0.00     0.020 A 
ATOM     76  C   UNL A   1      34.106  34.260  31.137  1.00  0.00     0.020 A 
ATOM     77  C   UNL A   1      34.340  34.867  29.901  1.00  0.00     0.054 A 
BRANCH  77  78
ATOM     78  S   UNL A   1      32.981  35.650  28.986  1.00  0.00     0.124 S 
ATOM     79  O   UNL A   1      32.397  34.517  28.277  1.00  0.00    -0.237 OA
ATOM     80  O   UNL A   1      32.167  36.216  30.059  1.00  0.00    -0.237 OA
ATOM     81  O   UNL A   1      33.658  36.636  28.146  1.00  0.00    -0.744 OA
ENDBRANCH  77  78
ENDBRANCH  49  72
BRANCH  61  82
ATOM     82  C   UNL A   1      39.762  33.905  37.318  1.00  0.00    -0.014 A 
ATOM     83  C   UNL A   1      40.260  35.220  37.270  1.00  0.00     0.010 A 
ATOM     84  C   UNL A   1      39.095  33.465  38.475  1.00  0.00     0.010 A 
ATOM     85  C   UNL A   1      40.127  36.064  38.375  1.00  0.00     0.020 A 
ATOM     86  C   UNL A   1      38.939  34.314  39.572  1.00  0.00     0.020 A 
ATOM     87  C   UNL A   1      39.471  35.604  39.521  1.00  0.00     0.054 A 
BRANCH  87  88
ATOM     88  S   UNL A   1      39.292  36.725  40.935  1.00  0.00     0.124 S 
ATOM     89  O   UNL A   1      40.677  36.891  41.367  1.00  0.00    -0.237 OA
ATOM     90  O   UNL A   1      38.676  37.905  40.334  1.00  0.00    -0.237 OA
ATOM     91  O   UNL A   1      38.435  35.985  41.859  1.00  0.00    -0.744 OA
ENDBRANCH  87  88
ENDBRANCH  61  82
ENDBRANCH  35  36
ENDBRANCH  27  30
ENDBRANCH  25  26
ENDBRANCH   1  25
TORSDOF 16
ENDMDL
