MODEL 1
REMARK VINA RESULT:     -12.2      0.000      0.000
REMARK SMILES CC[C@](C)(NC(=O)N(C)Cc1cccc(C)c1)C(=O)NCCCNC(=O)c1ccc(-c2c3nc(c(-c4ccc(S(=O)(=O)[O-])cc4)c4ccc([nH]4)c(-c4ccc(S(=O)(=O)[O-])cc4)c4nc(c(-c5ccc(S(=O)(=O)[O-])cc5)c5ccc2[nH]5)C=C4)C=C3)cc1
REMARK SMILES IDX 21 1 20 2 18 3 19 4 3 6 4 7 2 8 1 9 5 10 6 11 7 13 8 14 9 15
REMARK SMILES IDX 10 16 11 17 12 18 17 19 13 20 15 21 14 22 16 23 22 24 23 25
REMARK SMILES IDX 24 26 25 27 26 29 27 30 28 31 86 32 29 33 85 34 30 35 31 36
REMARK SMILES IDX 32 37 79 38 33 39 84 40 78 41 80 42 34 43 83 44 77 45 76 46
REMARK SMILES IDX 35 48 65 49 46 50 64 51 47 52 50 53 63 54 81 55 48 56 49 57
REMARK SMILES IDX 62 59 82 60 51 61 36 62 37 63 45 64 38 65 44 66 39 67 40 68
REMARK SMILES IDX 41 69 42 70 43 71 66 72 67 73 75 74 68 75 74 76 69 77 70 78
REMARK SMILES IDX 71 79 72 80 73 81 52 82 53 83 61 84 54 85 60 86 55 87 56 88
REMARK SMILES IDX 57 89 58 90 59 91
REMARK H PARENT 20 5 5 12 24 28 80 47 50 58
REMARK Flexibility Score: inf
ROOT
ATOM      1  C   UNL A   1      32.625  29.685  25.755  1.00  0.00     0.117 C 
ENDROOT
BRANCH   1   2
ATOM      2  N   UNL A   1      32.368  29.726  24.321  1.00  0.00    -0.354 N 
ATOM      3  C   UNL A   1      32.108  28.770  23.382  1.00  0.00     0.245 C 
ATOM      4  O   UNL A   1      31.715  29.185  22.281  1.00  0.00    -0.272 OA
ATOM      5  H   UNL A   1      32.388  30.638  23.951  1.00  0.00     0.163 HD
BRANCH   3   6
ATOM      6  C   UNL A   1      32.174  27.227  23.652  1.00  0.00     0.117 C 
ATOM      7  C   UNL A   1      33.628  26.759  23.883  1.00  0.00     0.045 C 
BRANCH   6   8
ATOM      8  C   UNL A   1      31.670  26.430  22.401  1.00  0.00     0.035 C 
ATOM      9  C   UNL A   1      32.659  25.449  21.778  1.00  0.00     0.007 C 
ENDBRANCH   6   8
BRANCH   6  10
ATOM     10  N   UNL A   1      31.303  26.844  24.796  1.00  0.00    -0.324 N 
ATOM     11  C   UNL A   1      31.097  25.727  25.534  1.00  0.00     0.318 C 
ATOM     12  H   UNL A   1      30.733  27.590  25.092  1.00  0.00     0.166 HD
ATOM     13  O   UNL A   1      30.325  25.834  26.490  1.00  0.00    -0.249 OA
BRANCH  11  14
ATOM     14  N   UNL A   1      31.821  24.593  25.312  1.00  0.00    -0.324 N 
ATOM     15  C   UNL A   1      31.285  23.520  24.490  1.00  0.00     0.149 C 
BRANCH  14  16
ATOM     16  C   UNL A   1      32.771  24.196  26.365  1.00  0.00     0.156 C 
BRANCH  16  17
ATOM     17  C   UNL A   1      33.831  23.221  25.908  1.00  0.00    -0.028 A 
ATOM     18  C   UNL A   1      33.856  21.913  26.412  1.00  0.00     0.005 A 
ATOM     19  C   UNL A   1      34.760  23.585  24.925  1.00  0.00     0.009 A 
ATOM     20  C   UNL A   1      34.697  20.961  25.841  1.00  0.00     0.001 A 
ATOM     21  C   UNL A   1      35.543  22.621  24.289  1.00  0.00    -0.051 A 
ATOM     22  C   UNL A   1      35.487  21.302  24.744  1.00  0.00     0.003 A 
ATOM     23  C   UNL A   1      36.404  23.028  23.132  1.00  0.00     0.044 C 
ENDBRANCH  16  17
ENDBRANCH  14  16
ENDBRANCH  11  14
ENDBRANCH   6  10
ENDBRANCH   3   6
ENDBRANCH   1   2
BRANCH   1  24
ATOM     24  C   UNL A   1      34.040  29.289  26.133  1.00  0.00     0.042 C 
BRANCH  24  25
ATOM     25  C   UNL A   1      34.372  29.537  27.598  1.00  0.00     0.118 C 
BRANCH  25  26
ATOM     26  N   UNL A   1      35.099  30.796  27.749  1.00  0.00    -0.352 N 
ATOM     27  C   UNL A   1      36.417  31.010  28.101  1.00  0.00     0.251 C 
ATOM     28  H   UNL A   1      34.572  31.610  27.574  1.00  0.00     0.163 HD
ATOM     29  O   UNL A   1      36.866  32.113  28.329  1.00  0.00    -0.269 OA
BRANCH  27  30
ATOM     30  C   UNL A   1      37.292  29.826  28.097  1.00  0.00     0.039 A 
ATOM     31  C   UNL A   1      37.279  29.028  29.246  1.00  0.00     0.014 A 
ATOM     32  C   UNL A   1      38.278  29.697  27.123  1.00  0.00     0.014 A 
ATOM     33  C   UNL A   1      38.365  28.202  29.507  1.00  0.00     0.010 A 
ATOM     34  C   UNL A   1      39.387  28.928  27.419  1.00  0.00     0.010 A 
ATOM     35  C   UNL A   1      39.451  28.225  28.633  1.00  0.00    -0.014 A 
BRANCH  35  36
ATOM     36  C   UNL A   1      40.730  27.608  28.954  1.00  0.00     0.031 A 
ATOM     37  C   UNL A   1      40.962  26.178  28.640  1.00  0.00     0.074 A 
ATOM     38  C   UNL A   1      41.743  28.355  29.449  1.00  0.00     0.049 A 
ATOM     39  N   UNL A   1      41.905  25.466  29.161  1.00  0.00    -0.248 NA
ATOM     40  C   UNL A   1      40.096  25.401  27.755  1.00  0.00     0.031 C 
ATOM     41  C   UNL A   1      43.142  27.945  29.529  1.00  0.00     0.029 A 
ATOM     42  N   UNL A   1      41.724  29.577  30.127  1.00  0.00    -0.354 N 
ATOM     43  C   UNL A   1      42.014  24.323  28.407  1.00  0.00     0.074 A 
ATOM     44  C   UNL A   1      40.765  24.244  27.689  1.00  0.00     0.031 C 
ATOM     45  C   UNL A   1      43.785  28.734  30.399  1.00  0.00     0.029 A 
ATOM     46  C   UNL A   1      42.766  29.521  31.064  1.00  0.00     0.049 A 
ATOM     47  H   UNL A   1      41.103  30.326  29.977  1.00  0.00     0.167 HD
ATOM     48  C   UNL A   1      43.218  23.684  28.336  1.00  0.00     0.031 A 
ATOM     49  C   UNL A   1      42.608  29.558  32.418  1.00  0.00     0.031 A 
ATOM     50  C   UNL A   1      44.182  24.221  29.306  1.00  0.00     0.049 A 
ATOM     51  C   UNL A   1      43.231  28.347  33.090  1.00  0.00     0.074 A 
ATOM     52  C   UNL A   1      45.378  24.910  29.185  1.00  0.00     0.029 A 
ATOM     53  N   UNL A   1      43.840  24.271  30.658  1.00  0.00    -0.354 N 
ATOM     54  N   UNL A   1      43.477  27.228  32.462  1.00  0.00    -0.248 NA
ATOM     55  C   UNL A   1      43.656  28.294  34.484  1.00  0.00     0.031 C 
ATOM     56  C   UNL A   1      45.714  25.435  30.466  1.00  0.00     0.029 A 
ATOM     57  C   UNL A   1      44.745  25.032  31.371  1.00  0.00     0.049 A 
ATOM     58  H   UNL A   1      43.056  23.823  31.052  1.00  0.00     0.167 HD
ATOM     59  C   UNL A   1      44.153  26.366  33.280  1.00  0.00     0.074 A 
ATOM     60  C   UNL A   1      44.206  27.065  34.553  1.00  0.00     0.031 C 
ATOM     61  C   UNL A   1      44.628  25.167  32.824  1.00  0.00     0.031 A 
BRANCH  48  62
ATOM     62  C   UNL A   1      43.612  22.726  27.217  1.00  0.00    -0.014 A 
ATOM     63  C   UNL A   1      42.846  21.564  26.978  1.00  0.00     0.010 A 
ATOM     64  C   UNL A   1      44.774  22.856  26.430  1.00  0.00     0.010 A 
ATOM     65  C   UNL A   1      43.235  20.587  26.041  1.00  0.00     0.020 A 
ATOM     66  C   UNL A   1      45.162  21.906  25.474  1.00  0.00     0.020 A 
ATOM     67  C   UNL A   1      44.399  20.764  25.295  1.00  0.00     0.054 A 
BRANCH  67  68
ATOM     68  S   UNL A   1      44.922  19.496  24.110  1.00  0.00     0.124 S 
ATOM     69  O   UNL A   1      44.161  18.330  24.548  1.00  0.00    -0.237 OA
ATOM     70  O   UNL A   1      44.522  20.071  22.829  1.00  0.00    -0.237 OA
ATOM     71  O   UNL A   1      46.367  19.403  24.319  1.00  0.00    -0.744 OA
ENDBRANCH  67  68
ENDBRANCH  48  62
BRANCH  49  72
ATOM     72  C   UNL A   1      41.412  30.315  32.872  1.00  0.00    -0.014 A 
ATOM     73  C   UNL A   1      40.220  29.577  33.053  1.00  0.00     0.010 A 
ATOM     74  C   UNL A   1      41.554  31.546  33.534  1.00  0.00     0.010 A 
ATOM     75  C   UNL A   1      39.273  29.973  34.001  1.00  0.00     0.020 A 
ATOM     76  C   UNL A   1      40.601  31.947  34.484  1.00  0.00     0.020 A 
ATOM     77  C   UNL A   1      39.501  31.125  34.753  1.00  0.00     0.054 A 
BRANCH  77  78
ATOM     78  S   UNL A   1      38.456  31.402  36.217  1.00  0.00     0.124 S 
ATOM     79  O   UNL A   1      37.307  32.102  35.652  1.00  0.00    -0.237 OA
ATOM     80  O   UNL A   1      38.195  30.036  36.673  1.00  0.00    -0.237 OA
ATOM     81  O   UNL A   1      39.309  32.196  37.095  1.00  0.00    -0.744 OA
ENDBRANCH  77  78
ENDBRANCH  49  72
BRANCH  61  82
ATOM     82  C   UNL A   1      45.119  24.013  33.672  1.00  0.00    -0.014 A 
ATOM     83  C   UNL A   1      44.370  22.861  33.956  1.00  0.00     0.010 A 
ATOM     84  C   UNL A   1      46.475  24.004  34.091  1.00  0.00     0.010 A 
ATOM     85  C   UNL A   1      44.931  21.777  34.649  1.00  0.00     0.020 A 
ATOM     86  C   UNL A   1      47.056  22.914  34.743  1.00  0.00     0.020 A 
ATOM     87  C   UNL A   1      46.271  21.807  35.033  1.00  0.00     0.054 A 
BRANCH  87  88
ATOM     88  S   UNL A   1      47.008  20.357  35.827  1.00  0.00     0.124 S 
ATOM     89  O   UNL A   1      48.207  20.924  36.437  1.00  0.00    -0.237 OA
ATOM     90  O   UNL A   1      45.967  19.936  36.764  1.00  0.00    -0.237 OA
ATOM     91  O   UNL A   1      47.242  19.438  34.717  1.00  0.00    -0.744 OA
ENDBRANCH  87  88
ENDBRANCH  61  82
ENDBRANCH  35  36
ENDBRANCH  27  30
ENDBRANCH  25  26
ENDBRANCH  24  25
ENDBRANCH   1  24
TORSDOF 18
ENDMDL
MODEL 2
REMARK VINA RESULT:     -12.2      5.035     11.550
REMARK SMILES CC[C@](C)(NC(=O)N(C)Cc1cccc(C)c1)C(=O)NCCCNC(=O)c1ccc(-c2c3nc(c(-c4ccc(S(=O)(=O)[O-])cc4)c4ccc([nH]4)c(-c4ccc(S(=O)(=O)[O-])cc4)c4nc(c(-c5ccc(S(=O)(=O)[O-])cc5)c5ccc2[nH]5)C=C4)C=C3)cc1
REMARK SMILES IDX 21 1 20 2 18 3 19 4 3 6 4 7 2 8 1 9 5 10 6 11 7 13 8 14 9 15
REMARK SMILES IDX 10 16 11 17 12 18 17 19 13 20 15 21 14 22 16 23 22 24 23 25
REMARK SMILES IDX 24 26 25 27 26 29 27 30 28 31 86 32 29 33 85 34 30 35 31 36
REMARK SMILES IDX 32 37 79 38 33 39 84 40 78 41 80 42 34 43 83 44 77 45 76 46
REMARK SMILES IDX 35 48 65 49 46 50 64 51 47 52 50 53 63 54 81 55 48 56 49 57
REMARK SMILES IDX 62 59 82 60 51 61 36 62 37 63 45 64 38 65 44 66 39 67 40 68
REMARK SMILES IDX 41 69 42 70 43 71 66 72 67 73 75 74 68 75 74 76 69 77 70 78
REMARK SMILES IDX 71 79 72 80 73 81 52 82 53 83 61 84 54 85 60 86 55 87 56 88
REMARK SMILES IDX 57 89 58 90 59 91
REMARK H PARENT 20 5 5 12 24 28 80 47 50 58
REMARK Flexibility Score: inf
ROOT
ATOM      1  C   UNL A   1      36.885  21.317  25.560  1.00  0.00     0.117 C 
ENDROOT
BRANCH   1   2
ATOM      2  N   UNL A   1      35.808  21.567  26.508  1.00  0.00    -0.354 N 
ATOM      3  C   UNL A   1      34.447  21.486  26.432  1.00  0.00     0.245 C 
ATOM      4  O   UNL A   1      33.839  21.556  27.510  1.00  0.00    -0.272 OA
ATOM      5  H   UNL A   1      36.130  21.856  27.393  1.00  0.00     0.163 HD
BRANCH   3   6
ATOM      6  C   UNL A   1      33.653  21.208  25.109  1.00  0.00     0.117 C 
ATOM      7  C   UNL A   1      32.134  21.394  25.316  1.00  0.00     0.045 C 
BRANCH   6   8
ATOM      8  C   UNL A   1      33.837  19.717  24.663  1.00  0.00     0.035 C 
ATOM      9  C   UNL A   1      32.560  18.901  24.479  1.00  0.00     0.007 C 
ENDBRANCH   6   8
BRANCH   6  10
ATOM     10  N   UNL A   1      34.148  22.062  23.996  1.00  0.00    -0.324 N 
ATOM     11  C   UNL A   1      34.100  23.378  23.681  1.00  0.00     0.318 C 
ATOM     12  H   UNL A   1      34.630  21.538  23.316  1.00  0.00     0.166 HD
ATOM     13  O   UNL A   1      34.727  23.726  22.677  1.00  0.00    -0.249 OA
BRANCH  11  14
ATOM     14  N   UNL A   1      33.513  24.281  24.515  1.00  0.00    -0.324 N 
ATOM     15  C   UNL A   1      34.120  24.616  25.793  1.00  0.00     0.149 C 
BRANCH  14  16
ATOM     16  C   UNL A   1      32.046  24.399  24.439  1.00  0.00     0.156 C 
BRANCH  16  17
ATOM     17  C   UNL A   1      31.556  25.748  23.967  1.00  0.00    -0.028 A 
ATOM     18  C   UNL A   1      32.420  26.620  23.291  1.00  0.00     0.005 A 
ATOM     19  C   UNL A   1      30.215  26.119  24.135  1.00  0.00     0.009 A 
ATOM     20  C   UNL A   1      31.918  27.765  22.677  1.00  0.00     0.001 A 
ATOM     21  C   UNL A   1      29.686  27.216  23.454  1.00  0.00    -0.051 A 
ATOM     22  C   UNL A   1      30.548  28.023  22.707  1.00  0.00     0.003 A 
ATOM     23  C   UNL A   1      28.214  27.482  23.532  1.00  0.00     0.044 C 
ENDBRANCH  16  17
ENDBRANCH  14  16
ENDBRANCH  11  14
ENDBRANCH   6  10
ENDBRANCH   3   6
ENDBRANCH   1   2
BRANCH   1  24
ATOM     24  C   UNL A   1      37.530  22.568  24.993  1.00  0.00     0.042 C 
BRANCH  24  25
ATOM     25  C   UNL A   1      37.866  23.614  26.048  1.00  0.00     0.118 C 
BRANCH  25  26
ATOM     26  N   UNL A   1      39.074  23.231  26.778  1.00  0.00    -0.352 N 
ATOM     27  C   UNL A   1      39.953  24.022  27.490  1.00  0.00     0.251 C 
ATOM     28  H   UNL A   1      39.291  22.271  26.758  1.00  0.00     0.163 HD
ATOM     29  O   UNL A   1      41.000  23.604  27.937  1.00  0.00    -0.269 OA
BRANCH  27  30
ATOM     30  C   UNL A   1      39.513  25.399  27.769  1.00  0.00     0.039 A 
ATOM     31  C   UNL A   1      39.911  26.385  26.860  1.00  0.00     0.014 A 
ATOM     32  C   UNL A   1      38.986  25.718  29.018  1.00  0.00     0.014 A 
ATOM     33  C   UNL A   1      39.941  27.711  27.273  1.00  0.00     0.010 A 
ATOM     34  C   UNL A   1      39.083  27.028  29.448  1.00  0.00     0.010 A 
ATOM     35  C   UNL A   1      39.610  28.010  28.593  1.00  0.00    -0.014 A 
BRANCH  35  36
ATOM     36  C   UNL A   1      39.863  29.314  29.191  1.00  0.00     0.031 A 
ATOM     37  C   UNL A   1      38.856  30.395  29.066  1.00  0.00     0.074 A 
ATOM     38  C   UNL A   1      40.970  29.517  29.941  1.00  0.00     0.049 A 
ATOM     39  N   UNL A   1      39.108  31.646  29.264  1.00  0.00    -0.248 NA
ATOM     40  C   UNL A   1      37.479  30.162  28.633  1.00  0.00     0.031 C 
ATOM     41  C   UNL A   1      41.198  30.652  30.831  1.00  0.00     0.029 A 
ATOM     42  N   UNL A   1      42.193  28.840  29.959  1.00  0.00    -0.354 N 
ATOM     43  C   UNL A   1      37.900  32.289  29.383  1.00  0.00     0.074 A 
ATOM     44  C   UNL A   1      36.948  31.378  28.797  1.00  0.00     0.031 C 
ATOM     45  C   UNL A   1      42.505  30.743  31.106  1.00  0.00     0.029 A 
ATOM     46  C   UNL A   1      43.173  29.809  30.221  1.00  0.00     0.049 A 
ATOM     47  H   UNL A   1      42.337  27.877  29.815  1.00  0.00     0.167 HD
ATOM     48  C   UNL A   1      37.823  33.428  30.131  1.00  0.00     0.031 A 
ATOM     49  C   UNL A   1      44.173  30.167  29.365  1.00  0.00     0.031 A 
ATOM     50  C   UNL A   1      39.152  33.925  30.513  1.00  0.00     0.049 A 
ATOM     51  C   UNL A   1      44.154  31.656  29.070  1.00  0.00     0.074 A 
ATOM     52  C   UNL A   1      39.812  34.060  31.723  1.00  0.00     0.029 A 
ATOM     53  N   UNL A   1      40.105  34.166  29.522  1.00  0.00    -0.354 N 
ATOM     54  N   UNL A   1      43.096  32.404  29.233  1.00  0.00    -0.248 NA
ATOM     55  C   UNL A   1      45.302  32.429  28.609  1.00  0.00     0.031 C 
ATOM     56  C   UNL A   1      41.186  34.314  31.449  1.00  0.00     0.029 A 
ATOM     57  C   UNL A   1      41.354  34.373  30.075  1.00  0.00     0.049 A 
ATOM     58  H   UNL A   1      39.913  34.186  28.556  1.00  0.00     0.167 HD
ATOM     59  C   UNL A   1      43.406  33.717  29.012  1.00  0.00     0.074 A 
ATOM     60  C   UNL A   1      44.795  33.677  28.583  1.00  0.00     0.031 C 
ATOM     61  C   UNL A   1      42.498  34.716  29.229  1.00  0.00     0.031 A 
BRANCH  48  62
ATOM     62  C   UNL A   1      36.531  33.969  30.731  1.00  0.00    -0.014 A 
ATOM     63  C   UNL A   1      35.382  34.116  29.924  1.00  0.00     0.010 A 
ATOM     64  C   UNL A   1      36.404  34.445  32.052  1.00  0.00     0.010 A 
ATOM     65  C   UNL A   1      34.202  34.723  30.396  1.00  0.00     0.020 A 
ATOM     66  C   UNL A   1      35.229  35.029  32.547  1.00  0.00     0.020 A 
ATOM     67  C   UNL A   1      34.136  35.183  31.710  1.00  0.00     0.054 A 
BRANCH  67  68
ATOM     68  S   UNL A   1      32.633  35.993  32.316  1.00  0.00     0.124 S 
ATOM     69  O   UNL A   1      32.197  36.752  31.147  1.00  0.00    -0.237 OA
ATOM     70  O   UNL A   1      31.788  34.863  32.690  1.00  0.00    -0.237 OA
ATOM     71  O   UNL A   1      33.106  36.806  33.436  1.00  0.00    -0.744 OA
ENDBRANCH  67  68
ENDBRANCH  48  62
BRANCH  49  72
ATOM     72  C   UNL A   1      44.611  29.080  28.451  1.00  0.00    -0.014 A 
ATOM     73  C   UNL A   1      44.034  29.058  27.162  1.00  0.00     0.010 A 
ATOM     74  C   UNL A   1      45.837  28.425  28.656  1.00  0.00     0.010 A 
ATOM     75  C   UNL A   1      44.743  28.547  26.072  1.00  0.00     0.020 A 
ATOM     76  C   UNL A   1      46.549  27.907  27.562  1.00  0.00     0.020 A 
ATOM     77  C   UNL A   1      46.022  28.029  26.271  1.00  0.00     0.054 A 
BRANCH  77  78
ATOM     78  S   UNL A   1      47.053  27.726  24.802  1.00  0.00     0.124 S 
ATOM     79  O   UNL A   1      46.542  28.710  23.854  1.00  0.00    -0.237 OA
ATOM     80  O   UNL A   1      48.400  27.987  25.311  1.00  0.00    -0.237 OA
ATOM     81  O   UNL A   1      46.773  26.331  24.476  1.00  0.00    -0.744 OA
ENDBRANCH  77  78
ENDBRANCH  49  72
BRANCH  61  82
ATOM     82  C   UNL A   1      42.608  36.150  28.754  1.00  0.00    -0.014 A 
ATOM     83  C   UNL A   1      43.371  37.142  29.388  1.00  0.00     0.010 A 
ATOM     84  C   UNL A   1      42.033  36.497  27.504  1.00  0.00     0.010 A 
ATOM     85  C   UNL A   1      43.524  38.418  28.825  1.00  0.00     0.020 A 
ATOM     86  C   UNL A   1      42.214  37.751  26.913  1.00  0.00     0.020 A 
ATOM     87  C   UNL A   1      42.950  38.713  27.589  1.00  0.00     0.054 A 
BRANCH  87  88
ATOM     88  S   UNL A   1      43.248  40.327  26.826  1.00  0.00     0.124 S 
ATOM     89  O   UNL A   1      44.302  40.015  25.864  1.00  0.00    -0.237 OA
ATOM     90  O   UNL A   1      41.948  40.658  26.245  1.00  0.00    -0.237 OA
ATOM     91  O   UNL A   1      43.651  41.170  27.948  1.00  0.00    -0.744 OA
ENDBRANCH  87  88
ENDBRANCH  61  82
ENDBRANCH  35  36
ENDBRANCH  27  30
ENDBRANCH  25  26
ENDBRANCH  24  25
ENDBRANCH   1  24
TORSDOF 18
ENDMDL
MODEL 3
REMARK VINA RESULT:     -12.2      1.278      1.895
REMARK SMILES CC[C@](C)(NC(=O)N(C)Cc1cccc(C)c1)C(=O)NCCCNC(=O)c1ccc(-c2c3nc(c(-c4ccc(S(=O)(=O)[O-])cc4)c4ccc([nH]4)c(-c4ccc(S(=O)(=O)[O-])cc4)c4nc(c(-c5ccc(S(=O)(=O)[O-])cc5)c5ccc2[nH]5)C=C4)C=C3)cc1
REMARK SMILES IDX 21 1 20 2 18 3 19 4 3 6 4 7 2 8 1 9 5 10 6 11 7 13 8 14 9 15
REMARK SMILES IDX 10 16 11 17 12 18 17 19 13 20 15 21 14 22 16 23 22 24 23 25
REMARK SMILES IDX 24 26 25 27 26 29 27 30 28 31 86 32 29 33 85 34 30 35 31 36
REMARK SMILES IDX 32 37 79 38 33 39 84 40 78 41 80 42 34 43 83 44 77 45 76 46
REMARK SMILES IDX 35 48 65 49 46 50 64 51 47 52 50 53 63 54 81 55 48 56 49 57
REMARK SMILES IDX 62 59 82 60 51 61 36 62 37 63 45 64 38 65 44 66 39 67 40 68
REMARK SMILES IDX 41 69 42 70 43 71 66 72 67 73 75 74 68 75 74 76 69 77 70 78
REMARK SMILES IDX 71 79 72 80 73 81 52 82 53 83 61 84 54 85 60 86 55 87 56 88
REMARK SMILES IDX 57 89 58 90 59 91
REMARK H PARENT 20 5 5 12 24 28 80 47 50 58
REMARK Flexibility Score: inf
ROOT
ATOM      1  C   UNL A   1      32.622  28.235  27.179  1.00  0.00     0.117 C 
ENDROOT
BRANCH   1   2
ATOM      2  N   UNL A   1      32.268  28.676  25.837  1.00  0.00    -0.354 N 
ATOM      3  C   UNL A   1      32.147  28.037  24.636  1.00  0.00     0.245 C 
ATOM      4  O   UNL A   1      31.604  28.686  23.729  1.00  0.00    -0.272 OA
ATOM      5  H   UNL A   1      32.075  29.640  25.784  1.00  0.00     0.163 HD
BRANCH   3   6
ATOM      6  C   UNL A   1      32.546  26.542  24.389  1.00  0.00     0.117 C 
ATOM      7  C   UNL A   1      31.508  25.575  25.001  1.00  0.00     0.045 C 
BRANCH   6   8
ATOM      8  C   UNL A   1      33.901  26.211  25.103  1.00  0.00     0.035 C 
ATOM      9  C   UNL A   1      33.899  25.004  26.037  1.00  0.00     0.007 C 
ENDBRANCH   6   8
BRANCH   6  10
ATOM     10  N   UNL A   1      32.737  26.268  22.939  1.00  0.00    -0.324 N 
ATOM     11  C   UNL A   1      33.081  25.197  22.185  1.00  0.00     0.318 C 
ATOM     12  H   UNL A   1      32.572  27.068  22.388  1.00  0.00     0.166 HD
ATOM     13  O   UNL A   1      33.045  25.351  20.962  1.00  0.00    -0.249 OA
BRANCH  11  14
ATOM     14  N   UNL A   1      33.309  23.979  22.754  1.00  0.00    -0.324 N 
ATOM     15  C   UNL A   1      34.649  23.416  22.790  1.00  0.00     0.149 C 
BRANCH  14  16
ATOM     16  C   UNL A   1      32.197  23.014  22.724  1.00  0.00     0.156 C 
BRANCH  16  17
ATOM     17  C   UNL A   1      32.481  21.718  23.447  1.00  0.00    -0.028 A 
ATOM     18  C   UNL A   1      32.649  21.704  24.839  1.00  0.00     0.005 A 
ATOM     19  C   UNL A   1      32.510  20.503  22.750  1.00  0.00     0.009 A 
ATOM     20  C   UNL A   1      32.702  20.493  25.524  1.00  0.00     0.001 A 
ATOM     21  C   UNL A   1      32.476  19.286  23.432  1.00  0.00    -0.051 A 
ATOM     22  C   UNL A   1      32.551  19.295  24.826  1.00  0.00     0.003 A 
ATOM     23  C   UNL A   1      32.344  18.015  22.650  1.00  0.00     0.044 C 
ENDBRANCH  16  17
ENDBRANCH  14  16
ENDBRANCH  11  14
ENDBRANCH   6  10
ENDBRANCH   3   6
ENDBRANCH   1   2
BRANCH   1  24
ATOM     24  C   UNL A   1      33.815  28.951  27.785  1.00  0.00     0.042 C 
BRANCH  24  25
ATOM     25  C   UNL A   1      34.696  29.647  26.756  1.00  0.00     0.118 C 
BRANCH  25  26
ATOM     26  N   UNL A   1      35.313  30.838  27.338  1.00  0.00    -0.352 N 
ATOM     27  C   UNL A   1      36.485  30.954  28.060  1.00  0.00     0.251 C 
ATOM     28  H   UNL A   1      34.823  31.680  27.194  1.00  0.00     0.163 HD
ATOM     29  O   UNL A   1      36.820  31.981  28.610  1.00  0.00    -0.269 OA
BRANCH  27  30
ATOM     30  C   UNL A   1      37.372  29.778  28.055  1.00  0.00     0.039 A 
ATOM     31  C   UNL A   1      37.337  28.957  29.186  1.00  0.00     0.014 A 
ATOM     32  C   UNL A   1      38.383  29.678  27.103  1.00  0.00     0.014 A 
ATOM     33  C   UNL A   1      38.424  28.136  29.459  1.00  0.00     0.010 A 
ATOM     34  C   UNL A   1      39.491  28.913  27.412  1.00  0.00     0.010 A 
ATOM     35  C   UNL A   1      39.531  28.187  28.614  1.00  0.00    -0.014 A 
BRANCH  35  36
ATOM     36  C   UNL A   1      40.808  27.575  28.954  1.00  0.00     0.031 A 
ATOM     37  C   UNL A   1      41.057  26.150  28.629  1.00  0.00     0.074 A 
ATOM     38  C   UNL A   1      41.805  28.323  29.479  1.00  0.00     0.049 A 
ATOM     39  N   UNL A   1      41.994  25.438  29.162  1.00  0.00    -0.248 NA
ATOM     40  C   UNL A   1      40.215  25.377  27.717  1.00  0.00     0.031 C 
ATOM     41  C   UNL A   1      43.204  27.922  29.584  1.00  0.00     0.029 A 
ATOM     42  N   UNL A   1      41.762  29.537  30.171  1.00  0.00    -0.354 N 
ATOM     43  C   UNL A   1      42.127  24.305  28.397  1.00  0.00     0.074 A 
ATOM     44  C   UNL A   1      40.894  24.226  27.653  1.00  0.00     0.031 C 
ATOM     45  C   UNL A   1      43.823  28.705  30.477  1.00  0.00     0.029 A 
ATOM     46  C   UNL A   1      42.785  29.478  31.129  1.00  0.00     0.049 A 
ATOM     47  H   UNL A   1      41.139  30.283  30.016  1.00  0.00     0.167 HD
ATOM     48  C   UNL A   1      43.337  23.676  28.345  1.00  0.00     0.031 A 
ATOM     49  C   UNL A   1      42.597  29.498  32.480  1.00  0.00     0.031 A 
ATOM     50  C   UNL A   1      44.277  24.208  29.341  1.00  0.00     0.049 A 
ATOM     51  C   UNL A   1      43.215  28.283  33.151  1.00  0.00     0.074 A 
ATOM     52  C   UNL A   1      45.469  24.907  29.254  1.00  0.00     0.029 A 
ATOM     53  N   UNL A   1      43.905  24.240  30.687  1.00  0.00    -0.354 N 
ATOM     54  N   UNL A   1      43.483  27.174  32.516  1.00  0.00    -0.248 NA
ATOM     55  C   UNL A   1      43.611  28.217  34.554  1.00  0.00     0.031 C 
ATOM     56  C   UNL A   1      45.774  25.419  30.547  1.00  0.00     0.029 A 
ATOM     57  C   UNL A   1      44.790  25.000  31.427  1.00  0.00     0.049 A 
ATOM     58  H   UNL A   1      43.116  23.782  31.058  1.00  0.00     0.167 HD
ATOM     59  C   UNL A   1      44.147  26.307  33.338  1.00  0.00     0.074 A 
ATOM     60  C   UNL A   1      44.168  26.992  34.620  1.00  0.00     0.031 C 
ATOM     61  C   UNL A   1      44.641  25.117  32.879  1.00  0.00     0.031 A 
BRANCH  48  62
ATOM     62  C   UNL A   1      43.761  22.734  27.224  1.00  0.00    -0.014 A 
ATOM     63  C   UNL A   1      42.909  21.682  26.822  1.00  0.00     0.010 A 
ATOM     64  C   UNL A   1      45.021  22.764  26.593  1.00  0.00     0.010 A 
ATOM     65  C   UNL A   1      43.303  20.712  25.879  1.00  0.00     0.020 A 
ATOM     66  C   UNL A   1      45.420  21.823  25.633  1.00  0.00     0.020 A 
ATOM     67  C   UNL A   1      44.565  20.788  25.292  1.00  0.00     0.054 A 
BRANCH  67  68
ATOM     68  S   UNL A   1      45.091  19.527  24.101  1.00  0.00     0.124 S 
ATOM     69  O   UNL A   1      44.520  20.022  22.852  1.00  0.00    -0.237 OA
ATOM     70  O   UNL A   1      46.546  19.581  24.199  1.00  0.00    -0.237 OA
ATOM     71  O   UNL A   1      44.484  18.297  24.611  1.00  0.00    -0.744 OA
ENDBRANCH  67  68
ENDBRANCH  48  62
BRANCH  49  72
ATOM     72  C   UNL A   1      41.387  30.241  32.917  1.00  0.00    -0.014 A 
ATOM     73  C   UNL A   1      40.227  29.476  33.178  1.00  0.00     0.010 A 
ATOM     74  C   UNL A   1      41.501  31.517  33.493  1.00  0.00     0.010 A 
ATOM     75  C   UNL A   1      39.291  29.900  34.124  1.00  0.00     0.020 A 
ATOM     76  C   UNL A   1      40.558  31.947  34.441  1.00  0.00     0.020 A 
ATOM     77  C   UNL A   1      39.496  31.107  34.794  1.00  0.00     0.054 A 
BRANCH  77  78
ATOM     78  S   UNL A   1      38.479  31.443  36.265  1.00  0.00     0.124 S 
ATOM     79  O   UNL A   1      38.098  30.101  36.694  1.00  0.00    -0.237 OA
ATOM     80  O   UNL A   1      39.424  32.136  37.141  1.00  0.00    -0.237 OA
ATOM     81  O   UNL A   1      37.395  32.270  35.744  1.00  0.00    -0.744 OA
ENDBRANCH  77  78
ENDBRANCH  49  72
BRANCH  61  82
ATOM     82  C   UNL A   1      45.122  23.957  33.724  1.00  0.00    -0.014 A 
ATOM     83  C   UNL A   1      44.352  22.824  34.030  1.00  0.00     0.010 A 
ATOM     84  C   UNL A   1      46.485  23.919  34.116  1.00  0.00     0.010 A 
ATOM     85  C   UNL A   1      44.902  21.730  34.717  1.00  0.00     0.020 A 
ATOM     86  C   UNL A   1      47.054  22.819  34.763  1.00  0.00     0.020 A 
ATOM     87  C   UNL A   1      46.250  21.732  35.075  1.00  0.00     0.054 A 
BRANCH  87  88
ATOM     88  S   UNL A   1      46.969  20.270  35.863  1.00  0.00     0.124 S 
ATOM     89  O   UNL A   1      48.286  20.207  35.237  1.00  0.00    -0.237 OA
ATOM     90  O   UNL A   1      46.965  20.630  37.280  1.00  0.00    -0.237 OA
ATOM     91  O   UNL A   1      46.048  19.196  35.500  1.00  0.00    -0.744 OA
ENDBRANCH  87  88
ENDBRANCH  61  82
ENDBRANCH  35  36
ENDBRANCH  27  30
ENDBRANCH  25  26
ENDBRANCH  24  25
ENDBRANCH   1  24
TORSDOF 18
ENDMDL
