MODEL 1
REMARK VINA RESULT:     -10.7      0.000      0.000
REMARK SMILES Cc1nc(CNC(=O)[C@H]2CCO[C@H]2C)sc1C(=O)NCCCNC(=O)c1ccc(-c2c3nc(c(-c4ccc(S(=O)(=O)[O-])cc4)c4ccc([nH]4)c(-c4ccc(S(=O)(=O)[O-])cc4)c4nc(c(-c5ccc(S(=O)(=O)[O-])cc5)c5ccc2[nH]5)C=C4)C=C3)cc1
REMARK SMILES IDX 21 1 20 2 19 3 17 4 18 5 16 7 1 8 2 9 3 10 4 11 15 12 5 13
REMARK SMILES IDX 6 14 7 15 8 17 9 18 10 19 13 20 11 21 12 22 14 23 22 24
REMARK SMILES IDX 23 25 24 26 25 28 26 29 27 30 85 31 28 32 84 33 29 34 30 35
REMARK SMILES IDX 31 36 78 37 32 38 83 39 77 40 79 41 33 42 82 43 76 44 75 45
REMARK SMILES IDX 34 47 64 48 45 49 63 50 46 51 49 52 62 53 80 54 47 55 48 56
REMARK SMILES IDX 61 58 81 59 50 60 35 61 36 62 44 63 37 64 43 65 38 66 39 67
REMARK SMILES IDX 40 68 41 69 42 70 65 71 66 72 74 73 67 74 73 75 68 76 69 77
REMARK SMILES IDX 70 78 71 79 72 80 51 81 52 82 60 83 53 84 59 85 54 86 55 87
REMARK SMILES IDX 56 88 57 89 58 90
REMARK H PARENT 19 6 6 16 23 27 79 46 49 57
REMARK Flexibility Score: inf
ROOT
ATOM      1  C   UNL A   1      32.804  27.762  25.902  1.00  0.00     0.042 C 
ENDROOT
BRANCH   1   2
ATOM      2  C   UNL A   1      31.673  28.772  25.712  1.00  0.00     0.118 C 
BRANCH   2   3
ATOM      3  N   UNL A   1      31.609  29.216  24.339  1.00  0.00    -0.351 N 
ATOM      4  C   UNL A   1      31.521  28.570  23.133  1.00  0.00     0.263 C 
ATOM      5  O   UNL A   1      31.448  29.352  22.176  1.00  0.00    -0.268 OA
ATOM      6  H   UNL A   1      31.635  30.197  24.249  1.00  0.00     0.163 HD
BRANCH   4   7
ATOM      7  C   UNL A   1      31.467  27.123  22.958  1.00  0.00     0.115 A 
ATOM      8  C   UNL A   1      29.335  26.029  24.040  1.00  0.00     0.068 C 
ATOM      9  C   UNL A   1      30.614  26.073  23.288  1.00  0.00     0.061 A 
ATOM     10  N   UNL A   1      31.059  24.812  22.905  1.00  0.00    -0.244 NA
ATOM     11  C   UNL A   1      32.269  24.862  22.410  1.00  0.00     0.113 A 
ATOM     12  S   UNL A   1      32.887  26.432  22.201  1.00  0.00    -0.111 S 
BRANCH  11  13
ATOM     13  C   UNL A   1      33.079  23.651  22.059  1.00  0.00     0.183 C 
BRANCH  13  14
ATOM     14  N   UNL A   1      34.207  23.552  22.973  1.00  0.00    -0.349 N 
ATOM     15  C   UNL A   1      34.476  22.620  23.928  1.00  0.00     0.226 C 
ATOM     16  H   UNL A   1      34.877  24.268  22.889  1.00  0.00     0.163 HD
ATOM     17  O   UNL A   1      35.487  22.768  24.616  1.00  0.00    -0.275 OA
BRANCH  15  18
ATOM     18  C   UNL A   1      33.569  21.416  24.074  1.00  0.00     0.109 C 
ATOM     19  C   UNL A   1      34.156  20.303  24.921  1.00  0.00     0.044 C 
ATOM     20  C   UNL A   1      32.246  21.671  24.789  1.00  0.00     0.127 C 
ATOM     21  C   UNL A   1      32.931  19.480  25.252  1.00  0.00     0.161 C 
ATOM     22  O   UNL A   1      31.800  20.364  25.225  1.00  0.00    -0.378 OA
ATOM     23  C   UNL A   1      32.319  22.558  26.030  1.00  0.00     0.039 C 
ENDBRANCH  15  18
ENDBRANCH  13  14
ENDBRANCH  11  13
ENDBRANCH   4   7
ENDBRANCH   2   3
ENDBRANCH   1   2
BRANCH   1  24
ATOM     24  C   UNL A   1      33.909  28.244  26.835  1.00  0.00     0.118 C 
BRANCH  24  25
ATOM     25  N   UNL A   1      33.734  29.638  27.205  1.00  0.00    -0.352 N 
ATOM     26  C   UNL A   1      34.548  30.465  27.942  1.00  0.00     0.251 C 
ATOM     27  H   UNL A   1      32.904  30.054  26.878  1.00  0.00     0.163 HD
ATOM     28  O   UNL A   1      34.097  31.533  28.348  1.00  0.00    -0.269 OA
BRANCH  26  29
ATOM     29  C   UNL A   1      35.946  30.086  28.256  1.00  0.00     0.039 A 
ATOM     30  C   UNL A   1      36.261  29.697  29.564  1.00  0.00     0.014 A 
ATOM     31  C   UNL A   1      36.960  30.168  27.298  1.00  0.00     0.014 A 
ATOM     32  C   UNL A   1      37.575  29.348  29.893  1.00  0.00     0.010 A 
ATOM     33  C   UNL A   1      38.253  29.750  27.608  1.00  0.00     0.010 A 
ATOM     34  C   UNL A   1      38.578  29.347  28.912  1.00  0.00    -0.014 A 
BRANCH  34  35
ATOM     35  C   UNL A   1      39.974  28.948  29.230  1.00  0.00     0.031 A 
ATOM     36  C   UNL A   1      40.917  29.938  29.863  1.00  0.00     0.074 A 
ATOM     37  C   UNL A   1      40.414  27.721  28.888  1.00  0.00     0.049 A 
ATOM     38  N   UNL A   1      42.192  29.809  30.131  1.00  0.00    -0.248 NA
ATOM     39  C   UNL A   1      40.360  31.253  30.219  1.00  0.00     0.031 C 
ATOM     40  C   UNL A   1      39.611  26.683  28.238  1.00  0.00     0.029 A 
ATOM     41  N   UNL A   1      41.651  27.143  29.029  1.00  0.00    -0.354 N 
ATOM     42  C   UNL A   1      42.592  31.029  30.662  1.00  0.00     0.074 A 
ATOM     43  C   UNL A   1      41.437  31.899  30.641  1.00  0.00     0.031 C 
ATOM     44  C   UNL A   1      40.371  25.591  28.053  1.00  0.00     0.029 A 
ATOM     45  C   UNL A   1      41.722  25.863  28.533  1.00  0.00     0.049 A 
ATOM     46  H   UNL A   1      42.416  27.602  29.447  1.00  0.00     0.167 HD
ATOM     47  C   UNL A   1      43.808  31.390  31.141  1.00  0.00     0.031 A 
ATOM     48  C   UNL A   1      42.759  25.006  28.461  1.00  0.00     0.031 A 
ATOM     49  C   UNL A   1      44.952  30.516  31.179  1.00  0.00     0.049 A 
ATOM     50  C   UNL A   1      44.097  25.424  29.005  1.00  0.00     0.074 A 
ATOM     51  C   UNL A   1      46.212  30.770  31.692  1.00  0.00     0.029 A 
ATOM     52  N   UNL A   1      44.973  29.219  30.690  1.00  0.00    -0.354 N 
ATOM     53  N   UNL A   1      44.443  26.566  29.548  1.00  0.00    -0.248 NA
ATOM     54  C   UNL A   1      45.182  24.435  28.935  1.00  0.00     0.031 C 
ATOM     55  C   UNL A   1      47.007  29.640  31.476  1.00  0.00     0.029 A 
ATOM     56  C   UNL A   1      46.227  28.665  30.874  1.00  0.00     0.049 A 
ATOM     57  H   UNL A   1      44.207  28.760  30.274  1.00  0.00     0.167 HD
ATOM     58  C   UNL A   1      45.779  26.425  29.905  1.00  0.00     0.074 A 
ATOM     59  C   UNL A   1      46.174  25.084  29.530  1.00  0.00     0.031 C 
ATOM     60  C   UNL A   1      46.604  27.327  30.495  1.00  0.00     0.031 A 
BRANCH  47  61
ATOM     61  C   UNL A   1      43.963  32.795  31.660  1.00  0.00    -0.014 A 
ATOM     62  C   UNL A   1      43.758  33.093  33.019  1.00  0.00     0.010 A 
ATOM     63  C   UNL A   1      44.351  33.826  30.785  1.00  0.00     0.010 A 
ATOM     64  C   UNL A   1      43.892  34.403  33.486  1.00  0.00     0.020 A 
ATOM     65  C   UNL A   1      44.514  35.134  31.253  1.00  0.00     0.020 A 
ATOM     66  C   UNL A   1      44.265  35.417  32.598  1.00  0.00     0.054 A 
BRANCH  66  67
ATOM     67  S   UNL A   1      44.447  37.106  33.233  1.00  0.00     0.124 S 
ATOM     68  O   UNL A   1      45.575  36.963  34.149  1.00  0.00    -0.237 OA
ATOM     69  O   UNL A   1      44.716  37.878  32.022  1.00  0.00    -0.237 OA
ATOM     70  O   UNL A   1      43.160  37.378  33.868  1.00  0.00    -0.744 OA
ENDBRANCH  66  67
ENDBRANCH  47  61
BRANCH  48  71
ATOM     71  C   UNL A   1      42.564  23.658  27.863  1.00  0.00    -0.014 A 
ATOM     72  C   UNL A   1      42.818  23.441  26.497  1.00  0.00     0.010 A 
ATOM     73  C   UNL A   1      42.148  22.577  28.661  1.00  0.00     0.010 A 
ATOM     74  C   UNL A   1      42.647  22.172  25.937  1.00  0.00     0.020 A 
ATOM     75  C   UNL A   1      42.000  21.300  28.111  1.00  0.00     0.020 A 
ATOM     76  C   UNL A   1      42.241  21.108  26.749  1.00  0.00     0.054 A 
BRANCH  76  77
ATOM     77  S   UNL A   1      42.085  19.456  26.014  1.00  0.00     0.124 S 
ATOM     78  O   UNL A   1      42.592  18.601  27.083  1.00  0.00    -0.237 OA
ATOM     79  O   UNL A   1      40.651  19.360  25.752  1.00  0.00    -0.237 OA
ATOM     80  O   UNL A   1      42.924  19.534  24.821  1.00  0.00    -0.744 OA
ENDBRANCH  76  77
ENDBRANCH  48  71
BRANCH  60  81
ATOM     81  C   UNL A   1      48.009  26.884  30.797  1.00  0.00    -0.014 A 
ATOM     82  C   UNL A   1      49.057  27.115  29.889  1.00  0.00     0.010 A 
ATOM     83  C   UNL A   1      48.293  26.282  32.037  1.00  0.00     0.010 A 
ATOM     84  C   UNL A   1      50.361  26.729  30.204  1.00  0.00     0.020 A 
ATOM     85  C   UNL A   1      49.602  25.916  32.365  1.00  0.00     0.020 A 
ATOM     86  C   UNL A   1      50.626  26.131  31.441  1.00  0.00     0.054 A 
BRANCH  86  87
ATOM     87  S   UNL A   1      52.336  25.685  31.850  1.00  0.00     0.124 S 
ATOM     88  O   UNL A   1      53.037  26.003  30.610  1.00  0.00    -0.237 OA
ATOM     89  O   UNL A   1      52.634  26.559  32.982  1.00  0.00    -0.237 OA
ATOM     90  O   UNL A   1      52.254  24.262  32.173  1.00  0.00    -0.744 OA
ENDBRANCH  86  87
ENDBRANCH  60  81
ENDBRANCH  34  35
ENDBRANCH  26  29
ENDBRANCH  24  25
ENDBRANCH   1  24
TORSDOF 16
ENDMDL
MODEL 2
REMARK VINA RESULT:     -10.7      3.317      8.194
REMARK SMILES Cc1nc(CNC(=O)[C@H]2CCO[C@H]2C)sc1C(=O)NCCCNC(=O)c1ccc(-c2c3nc(c(-c4ccc(S(=O)(=O)[O-])cc4)c4ccc([nH]4)c(-c4ccc(S(=O)(=O)[O-])cc4)c4nc(c(-c5ccc(S(=O)(=O)[O-])cc5)c5ccc2[nH]5)C=C4)C=C3)cc1
REMARK SMILES IDX 21 1 20 2 19 3 17 4 18 5 16 7 1 8 2 9 3 10 4 11 15 12 5 13
REMARK SMILES IDX 6 14 7 15 8 17 9 18 10 19 13 20 11 21 12 22 14 23 22 24
REMARK SMILES IDX 23 25 24 26 25 28 26 29 27 30 85 31 28 32 84 33 29 34 30 35
REMARK SMILES IDX 31 36 78 37 32 38 83 39 77 40 79 41 33 42 82 43 76 44 75 45
REMARK SMILES IDX 34 47 64 48 45 49 63 50 46 51 49 52 62 53 80 54 47 55 48 56
REMARK SMILES IDX 61 58 81 59 50 60 35 61 36 62 44 63 37 64 43 65 38 66 39 67
REMARK SMILES IDX 40 68 41 69 42 70 65 71 66 72 74 73 67 74 73 75 68 76 69 77
REMARK SMILES IDX 70 78 71 79 72 80 51 81 52 82 60 83 53 84 59 85 54 86 55 87
REMARK SMILES IDX 56 88 57 89 58 90
REMARK H PARENT 19 6 6 16 23 27 79 46 49 57
REMARK Flexibility Score: inf
ROOT
ATOM      1  C   UNL A   1      37.844  20.055  25.010  1.00  0.00     0.042 C 
ENDROOT
BRANCH   1   2
ATOM      2  C   UNL A   1      36.708  21.063  24.849  1.00  0.00     0.118 C 
BRANCH   2   3
ATOM      3  N   UNL A   1      35.981  21.217  26.088  1.00  0.00    -0.351 N 
ATOM      4  C   UNL A   1      34.675  21.499  26.397  1.00  0.00     0.263 C 
ATOM      5  O   UNL A   1      34.461  21.498  27.615  1.00  0.00    -0.268 OA
ATOM      6  H   UNL A   1      36.546  21.093  26.885  1.00  0.00     0.163 HD
BRANCH   4   7
ATOM      7  C   UNL A   1      33.614  21.733  25.423  1.00  0.00     0.115 A 
ATOM      8  C   UNL A   1      32.949  19.572  24.080  1.00  0.00     0.068 C 
ATOM      9  C   UNL A   1      32.887  20.997  24.490  1.00  0.00     0.061 A 
ATOM     10  N   UNL A   1      31.968  21.733  23.750  1.00  0.00    -0.244 NA
ATOM     11  C   UNL A   1      32.065  23.013  24.003  1.00  0.00     0.113 A 
ATOM     12  S   UNL A   1      33.128  23.408  25.270  1.00  0.00    -0.111 S 
BRANCH  11  13
ATOM     13  C   UNL A   1      31.324  24.073  23.247  1.00  0.00     0.183 C 
BRANCH  13  14
ATOM     14  N   UNL A   1      32.205  24.642  22.239  1.00  0.00    -0.349 N 
ATOM     15  C   UNL A   1      32.834  25.849  22.213  1.00  0.00     0.226 C 
ATOM     16  H   UNL A   1      32.371  24.068  21.457  1.00  0.00     0.163 HD
ATOM     17  O   UNL A   1      33.508  26.132  21.221  1.00  0.00    -0.275 OA
BRANCH  15  18
ATOM     18  C   UNL A   1      32.735  26.771  23.410  1.00  0.00     0.109 C 
ATOM     19  C   UNL A   1      33.658  27.973  23.339  1.00  0.00     0.044 C 
ATOM     20  C   UNL A   1      31.382  27.443  23.614  1.00  0.00     0.127 C 
ATOM     21  C   UNL A   1      33.054  28.894  24.376  1.00  0.00     0.161 C 
ATOM     22  O   UNL A   1      31.656  28.582  24.465  1.00  0.00    -0.378 OA
ATOM     23  C   UNL A   1      30.705  27.976  22.353  1.00  0.00     0.039 C 
ENDBRANCH  15  18
ENDBRANCH  13  14
ENDBRANCH  11  13
ENDBRANCH   4   7
ENDBRANCH   2   3
ENDBRANCH   1   2
BRANCH   1  24
ATOM     24  C   UNL A   1      39.034  20.590  25.800  1.00  0.00     0.118 C 
BRANCH  24  25
ATOM     25  N   UNL A   1      40.077  19.588  25.951  1.00  0.00    -0.352 N 
ATOM     26  C   UNL A   1      41.435  19.741  26.094  1.00  0.00     0.251 C 
ATOM     27  H   UNL A   1      39.761  18.656  25.950  1.00  0.00     0.163 HD
ATOM     28  O   UNL A   1      42.161  18.761  25.957  1.00  0.00    -0.269 OA
BRANCH  26  29
ATOM     29  C   UNL A   1      42.030  21.064  26.403  1.00  0.00     0.039 A 
ATOM     30  C   UNL A   1      42.277  21.395  27.741  1.00  0.00     0.014 A 
ATOM     31  C   UNL A   1      42.290  22.002  25.401  1.00  0.00     0.014 A 
ATOM     32  C   UNL A   1      42.825  22.640  28.064  1.00  0.00     0.010 A 
ATOM     33  C   UNL A   1      42.903  23.213  25.717  1.00  0.00     0.010 A 
ATOM     34  C   UNL A   1      43.166  23.552  27.053  1.00  0.00    -0.014 A 
BRANCH  34  35
ATOM     35  C   UNL A   1      43.780  24.868  27.368  1.00  0.00     0.031 A 
ATOM     36  C   UNL A   1      42.917  26.010  27.838  1.00  0.00     0.074 A 
ATOM     37  C   UNL A   1      45.099  25.057  27.169  1.00  0.00     0.049 A 
ATOM     38  N   UNL A   1      43.251  27.254  28.076  1.00  0.00    -0.248 NA
ATOM     39  C   UNL A   1      41.488  25.723  28.045  1.00  0.00     0.031 C 
ATOM     40  C   UNL A   1      46.037  24.043  26.684  1.00  0.00     0.029 A 
ATOM     41  N   UNL A   1      45.878  26.175  27.338  1.00  0.00    -0.354 N 
ATOM     42  C   UNL A   1      42.073  27.900  28.434  1.00  0.00     0.074 A 
ATOM     43  C   UNL A   1      41.010  26.923  28.344  1.00  0.00     0.031 C 
ATOM     44  C   UNL A   1      47.266  24.579  26.610  1.00  0.00     0.029 A 
ATOM     45  C   UNL A   1      47.198  25.982  27.004  1.00  0.00     0.049 A 
ATOM     46  H   UNL A   1      45.525  27.033  27.667  1.00  0.00     0.167 HD
ATOM     47  C   UNL A   1      41.894  29.187  28.820  1.00  0.00     0.031 A 
ATOM     48  C   UNL A   1      48.237  26.840  27.005  1.00  0.00     0.031 A 
ATOM     49  C   UNL A   1      42.955  30.152  28.927  1.00  0.00     0.049 A 
ATOM     50  C   UNL A   1      48.016  28.262  27.443  1.00  0.00     0.074 A 
ATOM     51  C   UNL A   1      42.884  31.465  29.359  1.00  0.00     0.029 A 
ATOM     52  N   UNL A   1      44.282  29.909  28.605  1.00  0.00    -0.354 N 
ATOM     53  N   UNL A   1      46.903  28.840  27.826  1.00  0.00    -0.248 NA
ATOM     54  C   UNL A   1      49.192  29.142  27.460  1.00  0.00     0.031 C 
ATOM     55  C   UNL A   1      44.161  32.028  29.259  1.00  0.00     0.029 A 
ATOM     56  C   UNL A   1      45.036  31.051  28.813  1.00  0.00     0.049 A 
ATOM     57  H   UNL A   1      44.635  29.050  28.277  1.00  0.00     0.167 HD
ATOM     58  C   UNL A   1      47.249  30.147  28.151  1.00  0.00     0.074 A 
ATOM     59  C   UNL A   1      48.676  30.269  27.934  1.00  0.00     0.031 C 
ATOM     60  C   UNL A   1      46.456  31.154  28.592  1.00  0.00     0.031 A 
BRANCH  47  61
ATOM     61  C   UNL A   1      40.491  29.624  29.152  1.00  0.00    -0.014 A 
ATOM     62  C   UNL A   1      40.120  29.927  30.475  1.00  0.00     0.010 A 
ATOM     63  C   UNL A   1      39.540  29.767  28.125  1.00  0.00     0.010 A 
ATOM     64  C   UNL A   1      38.812  30.320  30.771  1.00  0.00     0.020 A 
ATOM     65  C   UNL A   1      38.237  30.186  28.414  1.00  0.00     0.020 A 
ATOM     66  C   UNL A   1      37.877  30.443  29.739  1.00  0.00     0.054 A 
BRANCH  66  67
ATOM     67  S   UNL A   1      36.191  30.969  30.150  1.00  0.00     0.124 S 
ATOM     68  O   UNL A   1      35.457  30.593  28.944  1.00  0.00    -0.237 OA
ATOM     69  O   UNL A   1      35.888  30.179  31.340  1.00  0.00    -0.237 OA
ATOM     70  O   UNL A   1      36.322  32.406  30.376  1.00  0.00    -0.744 OA
ENDBRANCH  66  67
ENDBRANCH  47  61
BRANCH  48  71
ATOM     71  C   UNL A   1      49.585  26.369  26.588  1.00  0.00    -0.014 A 
ATOM     72  C   UNL A   1      50.446  25.761  27.517  1.00  0.00     0.010 A 
ATOM     73  C   UNL A   1      50.005  26.503  25.252  1.00  0.00     0.010 A 
ATOM     74  C   UNL A   1      51.708  25.307  27.123  1.00  0.00     0.020 A 
ATOM     75  C   UNL A   1      51.256  26.027  24.847  1.00  0.00     0.020 A 
ATOM     76  C   UNL A   1      52.104  25.442  25.789  1.00  0.00     0.054 A 
BRANCH  76  77
ATOM     77  S   UNL A   1      53.721  24.790  25.286  1.00  0.00     0.124 S 
ATOM     78  O   UNL A   1      54.530  25.037  26.475  1.00  0.00    -0.237 OA
ATOM     79  O   UNL A   1      53.424  23.388  25.002  1.00  0.00    -0.237 OA
ATOM     80  O   UNL A   1      54.063  25.595  24.115  1.00  0.00    -0.744 OA
ENDBRANCH  76  77
ENDBRANCH  48  71
BRANCH  60  81
ATOM     81  C   UNL A   1      47.116  32.471  28.898  1.00  0.00    -0.014 A 
ATOM     82  C   UNL A   1      47.219  33.478  27.922  1.00  0.00     0.010 A 
ATOM     83  C   UNL A   1      47.585  32.724  30.201  1.00  0.00     0.010 A 
ATOM     84  C   UNL A   1      47.803  34.707  28.237  1.00  0.00     0.020 A 
ATOM     85  C   UNL A   1      48.147  33.962  30.525  1.00  0.00     0.020 A 
ATOM     86  C   UNL A   1      48.264  34.941  29.536  1.00  0.00     0.054 A 
BRANCH  86  87
ATOM     87  S   UNL A   1      48.972  36.563  29.936  1.00  0.00     0.124 S 
ATOM     88  O   UNL A   1      50.405  36.296  29.862  1.00  0.00    -0.237 OA
ATOM     89  O   UNL A   1      48.437  37.417  28.876  1.00  0.00    -0.237 OA
ATOM     90  O   UNL A   1      48.457  36.846  31.274  1.00  0.00    -0.744 OA
ENDBRANCH  86  87
ENDBRANCH  60  81
ENDBRANCH  34  35
ENDBRANCH  26  29
ENDBRANCH  24  25
ENDBRANCH   1  24
TORSDOF 16
ENDMDL
MODEL 3
REMARK VINA RESULT:     -10.7      3.953      7.093
REMARK SMILES Cc1nc(CNC(=O)[C@H]2CCO[C@H]2C)sc1C(=O)NCCCNC(=O)c1ccc(-c2c3nc(c(-c4ccc(S(=O)(=O)[O-])cc4)c4ccc([nH]4)c(-c4ccc(S(=O)(=O)[O-])cc4)c4nc(c(-c5ccc(S(=O)(=O)[O-])cc5)c5ccc2[nH]5)C=C4)C=C3)cc1
REMARK SMILES IDX 21 1 20 2 19 3 17 4 18 5 16 7 1 8 2 9 3 10 4 11 15 12 5 13
REMARK SMILES IDX 6 14 7 15 8 17 9 18 10 19 13 20 11 21 12 22 14 23 22 24
REMARK SMILES IDX 23 25 24 26 25 28 26 29 27 30 85 31 28 32 84 33 29 34 30 35
REMARK SMILES IDX 31 36 78 37 32 38 83 39 77 40 79 41 33 42 82 43 76 44 75 45
REMARK SMILES IDX 34 47 64 48 45 49 63 50 46 51 49 52 62 53 80 54 47 55 48 56
REMARK SMILES IDX 61 58 81 59 50 60 35 61 36 62 44 63 37 64 43 65 38 66 39 67
REMARK SMILES IDX 40 68 41 69 42 70 65 71 66 72 74 73 67 74 73 75 68 76 69 77
REMARK SMILES IDX 70 78 71 79 72 80 51 81 52 82 60 83 53 84 59 85 54 86 55 87
REMARK SMILES IDX 56 88 57 89 58 90
REMARK H PARENT 19 6 6 16 23 27 79 46 49 57
REMARK Flexibility Score: inf
ROOT
ATOM      1  C   UNL A   1      34.937  33.476  28.008  1.00  0.00     0.042 C 
ENDROOT
BRANCH   1   2
ATOM      2  C   UNL A   1      35.130  34.848  28.654  1.00  0.00     0.118 C 
BRANCH   2   3
ATOM      3  N   UNL A   1      33.856  35.433  29.003  1.00  0.00    -0.351 N 
ATOM      4  C   UNL A   1      33.280  35.823  30.184  1.00  0.00     0.263 C 
ATOM      5  O   UNL A   1      32.160  36.327  30.026  1.00  0.00    -0.268 OA
ATOM      6  H   UNL A   1      33.274  35.583  28.223  1.00  0.00     0.163 HD
BRANCH   4   7
ATOM      7  C   UNL A   1      33.905  35.718  31.498  1.00  0.00     0.115 A 
ATOM      8  C   UNL A   1      33.900  37.985  32.830  1.00  0.00     0.068 C 
ATOM      9  C   UNL A   1      34.163  36.544  32.589  1.00  0.00     0.061 A 
ATOM     10  N   UNL A   1      34.853  35.939  33.633  1.00  0.00    -0.244 NA
ATOM     11  C   UNL A   1      35.231  34.727  33.318  1.00  0.00     0.113 A 
ATOM     12  S   UNL A   1      34.635  34.161  31.830  1.00  0.00    -0.111 S 
BRANCH  11  13
ATOM     13  C   UNL A   1      36.129  33.883  34.171  1.00  0.00     0.183 C 
BRANCH  13  14
ATOM     14  N   UNL A   1      37.510  34.277  33.943  1.00  0.00    -0.349 N 
ATOM     15  C   UNL A   1      38.659  33.568  34.116  1.00  0.00     0.226 C 
ATOM     16  H   UNL A   1      37.634  35.197  33.613  1.00  0.00     0.163 HD
ATOM     17  O   UNL A   1      39.730  34.133  33.892  1.00  0.00    -0.275 OA
BRANCH  15  18
ATOM     18  C   UNL A   1      38.585  32.110  34.518  1.00  0.00     0.109 C 
ATOM     19  C   UNL A   1      39.855  31.329  34.238  1.00  0.00     0.044 C 
ATOM     20  C   UNL A   1      38.393  31.846  36.008  1.00  0.00     0.127 C 
ATOM     21  C   UNL A   1      39.666  30.102  35.103  1.00  0.00     0.161 C 
ATOM     22  O   UNL A   1      38.824  30.478  36.203  1.00  0.00    -0.378 OA
ATOM     23  C   UNL A   1      39.220  32.717  36.951  1.00  0.00     0.039 C 
ENDBRANCH  15  18
ENDBRANCH  13  14
ENDBRANCH  11  13
ENDBRANCH   4   7
ENDBRANCH   2   3
ENDBRANCH   1   2
BRANCH   1  24
ATOM     24  C   UNL A   1      34.395  32.418  28.962  1.00  0.00     0.118 C 
BRANCH  24  25
ATOM     25  N   UNL A   1      33.837  31.281  28.247  1.00  0.00    -0.352 N 
ATOM     26  C   UNL A   1      34.460  30.170  27.732  1.00  0.00     0.251 C 
ATOM     27  H   UNL A   1      32.863  31.314  28.110  1.00  0.00     0.163 HD
ATOM     28  O   UNL A   1      33.843  29.452  26.949  1.00  0.00    -0.269 OA
BRANCH  26  29
ATOM     29  C   UNL A   1      35.856  29.831  28.101  1.00  0.00     0.039 A 
ATOM     30  C   UNL A   1      36.109  29.323  29.381  1.00  0.00     0.014 A 
ATOM     31  C   UNL A   1      36.921  30.065  27.228  1.00  0.00     0.014 A 
ATOM     32  C   UNL A   1      37.418  29.008  29.762  1.00  0.00     0.010 A 
ATOM     33  C   UNL A   1      38.214  29.683  27.581  1.00  0.00     0.010 A 
ATOM     34  C   UNL A   1      38.479  29.162  28.857  1.00  0.00    -0.014 A 
BRANCH  34  35
ATOM     35  C   UNL A   1      39.873  28.803  29.226  1.00  0.00     0.031 A 
ATOM     36  C   UNL A   1      40.748  29.804  29.935  1.00  0.00     0.074 A 
ATOM     37  C   UNL A   1      40.374  27.605  28.866  1.00  0.00     0.049 A 
ATOM     38  N   UNL A   1      42.013  29.712  30.259  1.00  0.00    -0.248 NA
ATOM     39  C   UNL A   1      40.126  31.085  30.307  1.00  0.00     0.031 C 
ATOM     40  C   UNL A   1      39.642  26.561  28.146  1.00  0.00     0.029 A 
ATOM     41  N   UNL A   1      41.625  27.068  29.047  1.00  0.00    -0.354 N 
ATOM     42  C   UNL A   1      42.343  30.927  30.847  1.00  0.00     0.074 A 
ATOM     43  C   UNL A   1      41.158  31.755  30.800  1.00  0.00     0.031 C 
ATOM     44  C   UNL A   1      40.450  25.505  27.961  1.00  0.00     0.029 A 
ATOM     45  C   UNL A   1      41.766  25.809  28.513  1.00  0.00     0.049 A 
ATOM     46  H   UNL A   1      42.352  27.540  29.515  1.00  0.00     0.167 HD
ATOM     47  C   UNL A   1      43.521  31.315  31.395  1.00  0.00     0.031 A 
ATOM     48  C   UNL A   1      42.837  24.992  28.463  1.00  0.00     0.031 A 
ATOM     49  C   UNL A   1      44.693  30.483  31.458  1.00  0.00     0.049 A 
ATOM     50  C   UNL A   1      44.133  25.440  29.082  1.00  0.00     0.074 A 
ATOM     51  C   UNL A   1      45.918  30.765  32.037  1.00  0.00     0.029 A 
ATOM     52  N   UNL A   1      44.786  29.204  30.929  1.00  0.00    -0.354 N 
ATOM     53  N   UNL A   1      44.409  26.575  29.678  1.00  0.00    -0.248 NA
ATOM     54  C   UNL A   1      45.256  24.494  29.031  1.00  0.00     0.031 C 
ATOM     55  C   UNL A   1      46.764  29.672  31.823  1.00  0.00     0.029 A 
ATOM     56  C   UNL A   1      46.051  28.690  31.153  1.00  0.00     0.049 A 
ATOM     57  H   UNL A   1      44.058  28.732  30.462  1.00  0.00     0.167 HD
ATOM     58  C   UNL A   1      45.732  26.470  30.093  1.00  0.00     0.074 A 
ATOM     59  C   UNL A   1      46.194  25.158  29.693  1.00  0.00     0.031 C 
ATOM     60  C   UNL A   1      46.494  27.381  30.749  1.00  0.00     0.031 A 
BRANCH  47  61
ATOM     61  C   UNL A   1      43.599  32.707  31.965  1.00  0.00    -0.014 A 
ATOM     62  C   UNL A   1      44.003  33.795  31.170  1.00  0.00     0.010 A 
ATOM     63  C   UNL A   1      43.233  32.937  33.304  1.00  0.00     0.010 A 
ATOM     64  C   UNL A   1      44.083  35.079  31.715  1.00  0.00     0.020 A 
ATOM     65  C   UNL A   1      43.285  34.225  33.845  1.00  0.00     0.020 A 
ATOM     66  C   UNL A   1      43.728  35.286  33.051  1.00  0.00     0.054 A 
BRANCH  66  67
ATOM     67  S   UNL A   1      43.827  36.965  33.729  1.00  0.00     0.124 S 
ATOM     68  O   UNL A   1      42.619  37.031  34.547  1.00  0.00    -0.237 OA
ATOM     69  O   UNL A   1      45.086  36.940  34.469  1.00  0.00    -0.237 OA
ATOM     70  O   UNL A   1      43.822  37.818  32.543  1.00  0.00    -0.744 OA
ENDBRANCH  66  67
ENDBRANCH  47  61
BRANCH  48  71
ATOM     71  C   UNL A   1      42.721  23.659  27.812  1.00  0.00    -0.014 A 
ATOM     72  C   UNL A   1      43.240  23.448  26.523  1.00  0.00     0.010 A 
ATOM     73  C   UNL A   1      42.114  22.587  28.490  1.00  0.00     0.010 A 
ATOM     74  C   UNL A   1      43.142  22.192  25.917  1.00  0.00     0.020 A 
ATOM     75  C   UNL A   1      42.036  21.323  27.897  1.00  0.00     0.020 A 
ATOM     76  C   UNL A   1      42.542  21.136  26.609  1.00  0.00     0.054 A 
BRANCH  76  77
ATOM     77  S   UNL A   1      42.481  19.500  25.828  1.00  0.00     0.124 S 
ATOM     78  O   UNL A   1      41.065  19.375  25.498  1.00  0.00    -0.237 OA
ATOM     79  O   UNL A   1      43.385  19.657  24.691  1.00  0.00    -0.237 OA
ATOM     80  O   UNL A   1      42.963  18.604  26.877  1.00  0.00    -0.744 OA
ENDBRANCH  76  77
ENDBRANCH  48  71
BRANCH  60  81
ATOM     81  C   UNL A   1      47.900  26.979  31.103  1.00  0.00    -0.014 A 
ATOM     82  C   UNL A   1      48.177  26.254  32.275  1.00  0.00     0.010 A 
ATOM     83  C   UNL A   1      48.950  27.281  30.216  1.00  0.00     0.010 A 
ATOM     84  C   UNL A   1      49.485  25.860  32.567  1.00  0.00     0.020 A 
ATOM     85  C   UNL A   1      50.256  26.867  30.494  1.00  0.00     0.020 A 
ATOM     86  C   UNL A   1      50.516  26.169  31.675  1.00  0.00     0.054 A 
BRANCH  86  87
ATOM     87  S   UNL A   1      52.198  25.601  32.050  1.00  0.00     0.124 S 
ATOM     88  O   UNL A   1      52.911  25.932  30.819  1.00  0.00    -0.237 OA
ATOM     89  O   UNL A   1      52.556  26.404  33.218  1.00  0.00    -0.237 OA
ATOM     90  O   UNL A   1      52.031  24.173  32.310  1.00  0.00    -0.744 OA
ENDBRANCH  86  87
ENDBRANCH  60  81
ENDBRANCH  34  35
ENDBRANCH  26  29
ENDBRANCH  24  25
ENDBRANCH   1  24
TORSDOF 16
ENDMDL
