MODEL 1
REMARK VINA RESULT:     -11.6      0.000      0.000
REMARK SMILES COc1c(C)cc(Br)cc1C(=O)Nc1ccc(O)c(C(=O)NCCCNC(=O)c2ccc(-c3c4nc(c(-c5ccc(S(=O)(=O)[O-])cc5)c5ccc([nH]5)c(-c5ccc(S(=O)(=O)[O-])cc5)c5nc(c(-c6ccc(S(=O)(=O)[O-])cc6)c6ccc3[nH]6)C=C5)C=C4)cc2)c1
REMARK SMILES IDX 24 1 23 2 22 3 20 4 21 5 19 7 14 8 15 9 89 10 16 11 17 12
REMARK SMILES IDX 13 13 11 14 12 15 10 17 3 18 4 19 5 20 6 21 9 22 7 23 8 24
REMARK SMILES IDX 2 25 1 26 18 27 25 29 26 30 27 31 28 33 29 34 30 35 88 36
REMARK SMILES IDX 31 37 87 38 32 39 33 40 34 41 81 42 35 43 86 44 80 45 82 46
REMARK SMILES IDX 36 47 85 48 79 49 78 50 37 52 67 53 48 54 66 55 49 56 52 57
REMARK SMILES IDX 65 58 83 59 50 60 51 61 64 63 84 64 53 65 38 66 39 67 47 68
REMARK SMILES IDX 40 69 46 70 41 71 42 72 43 73 44 74 45 75 68 76 69 77 77 78
REMARK SMILES IDX 70 79 76 80 71 81 72 82 73 83 74 84 75 85 54 86 55 87 63 88
REMARK SMILES IDX 56 89 62 90 57 91 58 92 59 93 60 94 61 95
REMARK H PARENT 22 6 13 16 18 28 26 32 82 51 52 62
REMARK Flexibility Score: inf
ROOT
ATOM      1  C   UNL A   1      35.182  23.336  25.538  1.00  0.00     0.042 C 
ENDROOT
BRANCH   1   2
ATOM      2  C   UNL A   1      34.626  22.440  26.642  1.00  0.00     0.118 C 
BRANCH   2   3
ATOM      3  N   UNL A   1      33.790  21.388  26.093  1.00  0.00    -0.352 N 
ATOM      4  C   UNL A   1      32.496  21.387  25.636  1.00  0.00     0.255 C 
ATOM      5  O   UNL A   1      32.040  20.313  25.237  1.00  0.00    -0.269 OA
ATOM      6  H   UNL A   1      34.234  20.512  26.038  1.00  0.00     0.163 HD
BRANCH   4   7
ATOM      7  C   UNL A   1      31.679  22.616  25.442  1.00  0.00     0.083 A 
ATOM      8  C   UNL A   1      31.155  24.369  23.832  1.00  0.00     0.042 A 
ATOM      9  C   UNL A   1      30.417  25.052  24.792  1.00  0.00     0.030 A 
ATOM     10  C   UNL A   1      31.716  23.127  24.134  1.00  0.00     0.043 A 
ATOM     11  C   UNL A   1      30.278  24.503  26.068  1.00  0.00     0.049 A 
ATOM     12  C   UNL A   1      30.924  23.302  26.397  1.00  0.00     0.128 A 
BRANCH   8  13
ATOM     13  N   UNL A   1      31.422  24.881  22.561  1.00  0.00    -0.322 N 
ATOM     14  C   UNL A   1      31.299  26.151  22.049  1.00  0.00     0.259 C 
ATOM     15  O   UNL A   1      31.417  26.278  20.825  1.00  0.00    -0.269 OA
ATOM     16  H   UNL A   1      31.757  24.214  21.919  1.00  0.00     0.170 HD
BRANCH  14  17
ATOM     17  C   UNL A   1      31.102  27.391  22.870  1.00  0.00     0.083 A 
ATOM     18  C   UNL A   1      32.069  28.001  23.716  1.00  0.00     0.134 A 
ATOM     19  C   UNL A   1      31.717  29.162  24.445  1.00  0.00    -0.007 A 
ATOM     20  C   UNL A   1      32.568  29.854  25.475  1.00  0.00     0.048 C 
ATOM     21  C   UNL A   1      30.488  29.793  24.160  1.00  0.00     0.023 A 
ATOM     22  C   UNL A   1      29.879  28.046  22.629  1.00  0.00     0.033 A 
ATOM     23  C   UNL A   1      29.600  29.257  23.238  1.00  0.00     0.019 A 
ATOM     24  Br  UNL A   1      28.028  30.205  22.786  1.00  0.00    -0.051 Br
BRANCH  18  25
ATOM     25  O   UNL A   1      33.334  27.488  23.611  1.00  0.00    -0.496 OA
ATOM     26  C   UNL A   1      33.879  26.641  24.607  1.00  0.00     0.278 C 
ENDBRANCH  18  25
ENDBRANCH  14  17
ENDBRANCH   8  13
BRANCH  12  27
ATOM     27  O   UNL A   1      30.779  22.828  27.664  1.00  0.00    -0.507 OA
ATOM     28  H   UNL A   1      30.563  21.927  27.804  1.00  0.00     0.293 HD
ENDBRANCH  12  27
ENDBRANCH   4   7
ENDBRANCH   2   3
ENDBRANCH   1   2
BRANCH   1  29
ATOM     29  C   UNL A   1      36.556  23.918  25.832  1.00  0.00     0.118 C 
BRANCH  29  30
ATOM     30  N   UNL A   1      37.594  22.901  25.896  1.00  0.00    -0.352 N 
ATOM     31  C   UNL A   1      38.902  23.002  26.310  1.00  0.00     0.251 C 
ATOM     32  H   UNL A   1      37.318  22.004  25.598  1.00  0.00     0.163 HD
ATOM     33  O   UNL A   1      39.668  22.068  26.099  1.00  0.00    -0.269 OA
BRANCH  31  34
ATOM     34  C   UNL A   1      39.398  24.230  26.981  1.00  0.00     0.039 A 
ATOM     35  C   UNL A   1      40.144  25.148  26.236  1.00  0.00     0.014 A 
ATOM     36  C   UNL A   1      39.169  24.470  28.339  1.00  0.00     0.014 A 
ATOM     37  C   UNL A   1      40.603  26.327  26.833  1.00  0.00     0.010 A 
ATOM     38  C   UNL A   1      39.549  25.685  28.909  1.00  0.00     0.010 A 
ATOM     39  C   UNL A   1      40.280  26.623  28.167  1.00  0.00    -0.014 A 
BRANCH  39  40
ATOM     40  C   UNL A   1      40.708  27.897  28.804  1.00  0.00     0.031 A 
ATOM     41  C   UNL A   1      42.093  28.026  29.387  1.00  0.00     0.074 A 
ATOM     42  C   UNL A   1      39.836  28.920  28.910  1.00  0.00     0.049 A 
ATOM     43  N   UNL A   1      42.627  29.034  30.028  1.00  0.00    -0.248 NA
ATOM     44  C   UNL A   1      42.984  26.862  29.254  1.00  0.00     0.031 C 
ATOM     45  C   UNL A   1      38.455  28.908  28.421  1.00  0.00     0.029 A 
ATOM     46  N   UNL A   1      39.978  30.166  29.469  1.00  0.00    -0.354 N 
ATOM     47  C   UNL A   1      43.905  28.620  30.388  1.00  0.00     0.074 A 
ATOM     48  C   UNL A   1      44.047  27.253  29.940  1.00  0.00     0.031 C 
ATOM     49  C   UNL A   1      37.888  30.099  28.677  1.00  0.00     0.029 A 
ATOM     50  C   UNL A   1      38.846  30.943  29.384  1.00  0.00     0.049 A 
ATOM     51  H   UNL A   1      40.813  30.475  29.890  1.00  0.00     0.167 HD
ATOM     52  C   UNL A   1      44.880  29.320  31.017  1.00  0.00     0.031 A 
ATOM     53  C   UNL A   1      38.601  32.190  29.832  1.00  0.00     0.031 A 
ATOM     54  C   UNL A   1      44.739  30.684  31.454  1.00  0.00     0.049 A 
ATOM     55  C   UNL A   1      39.695  32.944  30.537  1.00  0.00     0.074 A 
ATOM     56  C   UNL A   1      45.686  31.499  32.052  1.00  0.00     0.029 A 
ATOM     57  N   UNL A   1      43.579  31.436  31.342  1.00  0.00    -0.354 N 
ATOM     58  N   UNL A   1      40.918  32.554  30.812  1.00  0.00    -0.248 NA
ATOM     59  C   UNL A   1      39.380  34.307  30.984  1.00  0.00     0.031 C 
ATOM     60  C   UNL A   1      45.081  32.724  32.351  1.00  0.00     0.029 A 
ATOM     61  C   UNL A   1      43.778  32.696  31.881  1.00  0.00     0.049 A 
ATOM     62  H   UNL A   1      42.738  31.120  30.938  1.00  0.00     0.167 HD
ATOM     63  C   UNL A   1      41.527  33.638  31.437  1.00  0.00     0.074 A 
ATOM     64  C   UNL A   1      40.543  34.700  31.487  1.00  0.00     0.031 C 
ATOM     65  C   UNL A   1      42.788  33.743  31.925  1.00  0.00     0.031 A 
BRANCH  52  66
ATOM     66  C   UNL A   1      46.188  28.616  31.278  1.00  0.00    -0.014 A 
ATOM     67  C   UNL A   1      47.252  28.695  30.360  1.00  0.00     0.010 A 
ATOM     68  C   UNL A   1      46.371  27.899  32.473  1.00  0.00     0.010 A 
ATOM     69  C   UNL A   1      48.456  28.034  30.612  1.00  0.00     0.020 A 
ATOM     70  C   UNL A   1      47.586  27.262  32.744  1.00  0.00     0.020 A 
ATOM     71  C   UNL A   1      48.615  27.319  31.802  1.00  0.00     0.054 A 
BRANCH  71  72
ATOM     72  S   UNL A   1      50.197  26.487  32.112  1.00  0.00     0.124 S 
ATOM     73  O   UNL A   1      49.763  25.148  32.501  1.00  0.00    -0.237 OA
ATOM     74  O   UNL A   1      50.865  26.577  30.816  1.00  0.00    -0.237 OA
ATOM     75  O   UNL A   1      50.803  27.280  33.179  1.00  0.00    -0.744 OA
ENDBRANCH  71  72
ENDBRANCH  52  66
BRANCH  53  76
ATOM     76  C   UNL A   1      37.265  32.810  29.610  1.00  0.00    -0.014 A 
ATOM     77  C   UNL A   1      36.324  32.873  30.653  1.00  0.00     0.010 A 
ATOM     78  C   UNL A   1      36.931  33.353  28.356  1.00  0.00     0.010 A 
ATOM     79  C   UNL A   1      35.070  33.454  30.443  1.00  0.00     0.020 A 
ATOM     80  C   UNL A   1      35.689  33.961  28.150  1.00  0.00     0.020 A 
ATOM     81  C   UNL A   1      34.762  33.998  29.193  1.00  0.00     0.054 A 
BRANCH  81  82
ATOM     82  S   UNL A   1      33.150  34.797  28.958  1.00  0.00     0.124 S 
ATOM     83  O   UNL A   1      33.532  36.112  28.456  1.00  0.00    -0.237 OA
ATOM     84  O   UNL A   1      32.499  33.914  27.994  1.00  0.00    -0.237 OA
ATOM     85  O   UNL A   1      32.564  34.782  30.297  1.00  0.00    -0.744 OA
ENDBRANCH  81  82
ENDBRANCH  53  76
BRANCH  65  86
ATOM     86  C   UNL A   1      43.192  35.064  32.523  1.00  0.00    -0.014 A 
ATOM     87  C   UNL A   1      43.744  36.087  31.732  1.00  0.00     0.010 A 
ATOM     88  C   UNL A   1      42.964  35.303  33.892  1.00  0.00     0.010 A 
ATOM     89  C   UNL A   1      44.091  37.314  32.305  1.00  0.00     0.020 A 
ATOM     90  C   UNL A   1      43.283  36.538  34.461  1.00  0.00     0.020 A 
ATOM     91  C   UNL A   1      43.858  37.531  33.667  1.00  0.00     0.054 A 
BRANCH  91  92
ATOM     92  S   UNL A   1      44.279  39.145  34.377  1.00  0.00     0.124 S 
ATOM     93  O   UNL A   1      45.626  39.364  33.858  1.00  0.00    -0.237 OA
ATOM     94  O   UNL A   1      43.244  40.018  33.827  1.00  0.00    -0.237 OA
ATOM     95  O   UNL A   1      44.195  38.923  35.819  1.00  0.00    -0.744 OA
ENDBRANCH  91  92
ENDBRANCH  65  86
ENDBRANCH  39  40
ENDBRANCH  31  34
ENDBRANCH  29  30
ENDBRANCH   1  29
TORSDOF 17
ENDMDL
MODEL 2
REMARK VINA RESULT:     -11.4      3.520      4.300
REMARK SMILES COc1c(C)cc(Br)cc1C(=O)Nc1ccc(O)c(C(=O)NCCCNC(=O)c2ccc(-c3c4nc(c(-c5ccc(S(=O)(=O)[O-])cc5)c5ccc([nH]5)c(-c5ccc(S(=O)(=O)[O-])cc5)c5nc(c(-c6ccc(S(=O)(=O)[O-])cc6)c6ccc3[nH]6)C=C5)C=C4)cc2)c1
REMARK SMILES IDX 24 1 23 2 22 3 20 4 21 5 19 7 14 8 15 9 89 10 16 11 17 12
REMARK SMILES IDX 13 13 11 14 12 15 10 17 3 18 4 19 5 20 6 21 9 22 7 23 8 24
REMARK SMILES IDX 2 25 1 26 18 27 25 29 26 30 27 31 28 33 29 34 30 35 88 36
REMARK SMILES IDX 31 37 87 38 32 39 33 40 34 41 81 42 35 43 86 44 80 45 82 46
REMARK SMILES IDX 36 47 85 48 79 49 78 50 37 52 67 53 48 54 66 55 49 56 52 57
REMARK SMILES IDX 65 58 83 59 50 60 51 61 64 63 84 64 53 65 38 66 39 67 47 68
REMARK SMILES IDX 40 69 46 70 41 71 42 72 43 73 44 74 45 75 68 76 69 77 77 78
REMARK SMILES IDX 70 79 76 80 71 81 72 82 73 83 74 84 75 85 54 86 55 87 63 88
REMARK SMILES IDX 56 89 62 90 57 91 58 92 59 93 60 94 61 95
REMARK H PARENT 22 6 13 16 18 28 26 32 82 51 52 62
REMARK Flexibility Score: inf
ROOT
ATOM      1  C   UNL A   1      37.737  23.189  25.772  1.00  0.00     0.042 C 
ENDROOT
BRANCH   1   2
ATOM      2  C   UNL A   1      36.342  23.736  25.486  1.00  0.00     0.118 C 
BRANCH   2   3
ATOM      3  N   UNL A   1      35.408  23.366  26.533  1.00  0.00    -0.352 N 
ATOM      4  C   UNL A   1      34.072  23.051  26.506  1.00  0.00     0.255 C 
ATOM      5  O   UNL A   1      33.532  22.790  27.583  1.00  0.00    -0.269 OA
ATOM      6  H   UNL A   1      35.808  23.334  27.432  1.00  0.00     0.163 HD
BRANCH   4   7
ATOM      7  C   UNL A   1      33.289  22.847  25.256  1.00  0.00     0.083 A 
ATOM      8  C   UNL A   1      31.307  23.606  24.057  1.00  0.00     0.042 A 
ATOM      9  C   UNL A   1      31.481  22.608  23.105  1.00  0.00     0.030 A 
ATOM     10  C   UNL A   1      32.245  23.770  25.079  1.00  0.00     0.043 A 
ATOM     11  C   UNL A   1      32.577  21.750  23.206  1.00  0.00     0.049 A 
ATOM     12  C   UNL A   1      33.464  21.855  24.287  1.00  0.00     0.128 A 
BRANCH   8  13
ATOM     13  N   UNL A   1      30.197  24.451  24.090  1.00  0.00    -0.322 N 
ATOM     14  C   UNL A   1      30.092  25.805  24.303  1.00  0.00     0.259 C 
ATOM     15  O   UNL A   1      28.957  26.261  24.478  1.00  0.00    -0.269 OA
ATOM     16  H   UNL A   1      29.337  23.997  23.934  1.00  0.00     0.170 HD
BRANCH  14  17
ATOM     17  C   UNL A   1      31.241  26.770  24.268  1.00  0.00     0.083 A 
ATOM     18  C   UNL A   1      32.018  27.111  23.126  1.00  0.00     0.134 A 
ATOM     19  C   UNL A   1      33.088  28.027  23.266  1.00  0.00    -0.007 A 
ATOM     20  C   UNL A   1      34.083  28.397  22.199  1.00  0.00     0.048 C 
ATOM     21  C   UNL A   1      33.228  28.723  24.485  1.00  0.00     0.023 A 
ATOM     22  C   UNL A   1      31.428  27.477  25.471  1.00  0.00     0.033 A 
ATOM     23  C   UNL A   1      32.385  28.473  25.558  1.00  0.00     0.019 A 
ATOM     24  Br  UNL A   1      32.520  29.523  27.124  1.00  0.00    -0.051 Br
BRANCH  18  25
ATOM     25  O   UNL A   1      31.534  26.636  21.936  1.00  0.00    -0.496 OA
ATOM     26  C   UNL A   1      32.259  25.699  21.160  1.00  0.00     0.278 C 
ENDBRANCH  18  25
ENDBRANCH  14  17
ENDBRANCH   8  13
BRANCH  12  27
ATOM     27  O   UNL A   1      34.499  20.974  24.350  1.00  0.00    -0.507 OA
ATOM     28  H   UNL A   1      35.295  21.217  24.781  1.00  0.00     0.293 HD
ENDBRANCH  12  27
ENDBRANCH   4   7
ENDBRANCH   2   3
ENDBRANCH   1   2
BRANCH   1  29
ATOM     29  C   UNL A   1      38.614  24.110  26.608  1.00  0.00     0.118 C 
BRANCH  29  30
ATOM     30  N   UNL A   1      40.002  24.107  26.176  1.00  0.00    -0.352 N 
ATOM     31  C   UNL A   1      41.021  24.979  26.480  1.00  0.00     0.251 C 
ATOM     32  H   UNL A   1      40.250  23.370  25.572  1.00  0.00     0.163 HD
ATOM     33  O   UNL A   1      42.073  24.911  25.852  1.00  0.00    -0.269 OA
BRANCH  31  34
ATOM     34  C   UNL A   1      40.855  26.010  27.536  1.00  0.00     0.039 A 
ATOM     35  C   UNL A   1      39.882  25.814  28.520  1.00  0.00     0.014 A 
ATOM     36  C   UNL A   1      41.620  27.181  27.548  1.00  0.00     0.014 A 
ATOM     37  C   UNL A   1      39.720  26.753  29.544  1.00  0.00     0.010 A 
ATOM     38  C   UNL A   1      41.520  28.072  28.616  1.00  0.00     0.010 A 
ATOM     39  C   UNL A   1      40.562  27.875  29.621  1.00  0.00    -0.014 A 
BRANCH  39  40
ATOM     40  C   UNL A   1      40.445  28.857  30.733  1.00  0.00     0.031 A 
ATOM     41  C   UNL A   1      41.323  28.730  31.952  1.00  0.00     0.074 A 
ATOM     42  C   UNL A   1      39.512  29.828  30.673  1.00  0.00     0.049 A 
ATOM     43  N   UNL A   1      41.329  29.454  33.042  1.00  0.00    -0.248 NA
ATOM     44  C   UNL A   1      42.305  27.633  31.957  1.00  0.00     0.031 C 
ATOM     45  C   UNL A   1      38.574  30.034  29.566  1.00  0.00     0.029 A 
ATOM     46  N   UNL A   1      39.192  30.820  31.566  1.00  0.00    -0.354 N 
ATOM     47  C   UNL A   1      42.298  28.891  33.865  1.00  0.00     0.074 A 
ATOM     48  C   UNL A   1      42.822  27.736  33.172  1.00  0.00     0.031 C 
ATOM     49  C   UNL A   1      37.806  31.103  29.835  1.00  0.00     0.029 A 
ATOM     50  C   UNL A   1      38.163  31.632  31.147  1.00  0.00     0.049 A 
ATOM     51  H   UNL A   1      39.656  30.940  32.427  1.00  0.00     0.167 HD
ATOM     52  C   UNL A   1      42.728  29.308  35.081  1.00  0.00     0.031 A 
ATOM     53  C   UNL A   1      37.568  32.678  31.752  1.00  0.00     0.031 A 
ATOM     54  C   UNL A   1      42.211  30.464  35.766  1.00  0.00     0.049 A 
ATOM     55  C   UNL A   1      38.054  33.116  33.107  1.00  0.00     0.074 A 
ATOM     56  C   UNL A   1      42.617  31.001  36.976  1.00  0.00     0.029 A 
ATOM     57  N   UNL A   1      41.175  31.262  35.302  1.00  0.00    -0.354 N 
ATOM     58  N   UNL A   1      39.015  32.606  33.840  1.00  0.00    -0.248 NA
ATOM     59  C   UNL A   1      37.383  34.275  33.709  1.00  0.00     0.031 C 
ATOM     60  C   UNL A   1      41.790  32.089  37.269  1.00  0.00     0.029 A 
ATOM     61  C   UNL A   1      40.913  32.271  36.213  1.00  0.00     0.049 A 
ATOM     62  H   UNL A   1      40.698  31.130  34.451  1.00  0.00     0.167 HD
ATOM     63  C   UNL A   1      39.083  33.403  34.979  1.00  0.00     0.074 A 
ATOM     64  C   UNL A   1      38.077  34.435  34.829  1.00  0.00     0.031 C 
ATOM     65  C   UNL A   1      39.906  33.290  36.051  1.00  0.00     0.031 A 
BRANCH  52  66
ATOM     66  C   UNL A   1      43.810  28.502  35.754  1.00  0.00    -0.014 A 
ATOM     67  C   UNL A   1      45.170  28.795  35.548  1.00  0.00     0.010 A 
ATOM     68  C   UNL A   1      43.462  27.461  36.635  1.00  0.00     0.010 A 
ATOM     69  C   UNL A   1      46.162  28.036  36.175  1.00  0.00     0.020 A 
ATOM     70  C   UNL A   1      44.452  26.719  37.288  1.00  0.00     0.020 A 
ATOM     71  C   UNL A   1      45.796  27.001  37.039  1.00  0.00     0.054 A 
BRANCH  71  72
ATOM     72  S   UNL A   1      47.106  26.045  37.854  1.00  0.00     0.124 S 
ATOM     73  O   UNL A   1      48.225  26.220  36.931  1.00  0.00    -0.237 OA
ATOM     74  O   UNL A   1      47.243  26.723  39.140  1.00  0.00    -0.237 OA
ATOM     75  O   UNL A   1      46.559  24.693  37.920  1.00  0.00    -0.744 OA
ENDBRANCH  71  72
ENDBRANCH  52  66
BRANCH  53  76
ATOM     76  C   UNL A   1      36.453  33.394  31.072  1.00  0.00    -0.014 A 
ATOM     77  C   UNL A   1      35.228  33.602  31.730  1.00  0.00     0.010 A 
ATOM     78  C   UNL A   1      36.615  33.883  29.762  1.00  0.00     0.010 A 
ATOM     79  C   UNL A   1      34.183  34.273  31.088  1.00  0.00     0.020 A 
ATOM     80  C   UNL A   1      35.583  34.580  29.128  1.00  0.00     0.020 A 
ATOM     81  C   UNL A   1      34.368  34.761  29.792  1.00  0.00     0.054 A 
BRANCH  81  82
ATOM     82  S   UNL A   1      33.018  35.678  29.000  1.00  0.00     0.124 S 
ATOM     83  O   UNL A   1      32.394  34.649  28.175  1.00  0.00    -0.237 OA
ATOM     84  O   UNL A   1      32.234  36.135  30.144  1.00  0.00    -0.237 OA
ATOM     85  O   UNL A   1      33.709  36.737  28.267  1.00  0.00    -0.744 OA
ENDBRANCH  81  82
ENDBRANCH  53  76
BRANCH  65  86
ATOM     86  C   UNL A   1      39.781  34.330  37.133  1.00  0.00    -0.014 A 
ATOM     87  C   UNL A   1      39.053  34.077  38.310  1.00  0.00     0.010 A 
ATOM     88  C   UNL A   1      40.449  35.560  36.991  1.00  0.00     0.010 A 
ATOM     89  C   UNL A   1      38.970  35.049  39.310  1.00  0.00     0.020 A 
ATOM     90  C   UNL A   1      40.392  36.522  38.002  1.00  0.00     0.020 A 
ATOM     91  C   UNL A   1      39.640  36.266  39.149  1.00  0.00     0.054 A 
BRANCH  91  92
ATOM     92  S   UNL A   1      39.549  37.494  40.481  1.00  0.00     0.124 S 
ATOM     93  O   UNL A   1      38.743  38.548  39.869  1.00  0.00    -0.237 OA
ATOM     94  O   UNL A   1      38.899  36.752  41.559  1.00  0.00    -0.237 OA
ATOM     95  O   UNL A   1      40.947  37.843  40.727  1.00  0.00    -0.744 OA
ENDBRANCH  91  92
ENDBRANCH  65  86
ENDBRANCH  39  40
ENDBRANCH  31  34
ENDBRANCH  29  30
ENDBRANCH   1  29
TORSDOF 17
ENDMDL
MODEL 3
REMARK VINA RESULT:     -11.4      3.408      9.342
REMARK SMILES COc1c(C)cc(Br)cc1C(=O)Nc1ccc(O)c(C(=O)NCCCNC(=O)c2ccc(-c3c4nc(c(-c5ccc(S(=O)(=O)[O-])cc5)c5ccc([nH]5)c(-c5ccc(S(=O)(=O)[O-])cc5)c5nc(c(-c6ccc(S(=O)(=O)[O-])cc6)c6ccc3[nH]6)C=C5)C=C4)cc2)c1
REMARK SMILES IDX 24 1 23 2 22 3 20 4 21 5 19 7 14 8 15 9 89 10 16 11 17 12
REMARK SMILES IDX 13 13 11 14 12 15 10 17 3 18 4 19 5 20 6 21 9 22 7 23 8 24
REMARK SMILES IDX 2 25 1 26 18 27 25 29 26 30 27 31 28 33 29 34 30 35 88 36
REMARK SMILES IDX 31 37 87 38 32 39 33 40 34 41 81 42 35 43 86 44 80 45 82 46
REMARK SMILES IDX 36 47 85 48 79 49 78 50 37 52 67 53 48 54 66 55 49 56 52 57
REMARK SMILES IDX 65 58 83 59 50 60 51 61 64 63 84 64 53 65 38 66 39 67 47 68
REMARK SMILES IDX 40 69 46 70 41 71 42 72 43 73 44 74 45 75 68 76 69 77 77 78
REMARK SMILES IDX 70 79 76 80 71 81 72 82 73 83 74 84 75 85 54 86 55 87 63 88
REMARK SMILES IDX 56 89 62 90 57 91 58 92 59 93 60 94 61 95
REMARK H PARENT 22 6 13 16 18 28 26 32 82 51 52 62
REMARK Flexibility Score: inf
ROOT
ATOM      1  C   UNL A   1      33.323  28.361  24.941  1.00  0.00     0.042 C 
ENDROOT
BRANCH   1   2
ATOM      2  C   UNL A   1      31.810  28.416  25.132  1.00  0.00     0.118 C 
BRANCH   2   3
ATOM      3  N   UNL A   1      31.130  28.650  23.871  1.00  0.00    -0.352 N 
ATOM      4  C   UNL A   1      30.999  27.883  22.741  1.00  0.00     0.255 C 
ATOM      5  O   UNL A   1      30.363  28.368  21.802  1.00  0.00    -0.269 OA
ATOM      6  H   UNL A   1      30.677  29.522  23.818  1.00  0.00     0.163 HD
BRANCH   4   7
ATOM      7  C   UNL A   1      31.430  26.462  22.643  1.00  0.00     0.083 A 
ATOM      8  C   UNL A   1      31.198  24.281  23.706  1.00  0.00     0.042 A 
ATOM      9  C   UNL A   1      32.170  23.750  22.865  1.00  0.00     0.030 A 
ATOM     10  C   UNL A   1      30.780  25.604  23.544  1.00  0.00     0.043 A 
ATOM     11  C   UNL A   1      32.749  24.562  21.890  1.00  0.00     0.049 A 
ATOM     12  C   UNL A   1      32.397  25.916  21.793  1.00  0.00     0.128 A 
BRANCH   8  13
ATOM     13  N   UNL A   1      30.629  23.574  24.766  1.00  0.00    -0.322 N 
ATOM     14  C   UNL A   1      31.006  22.405  25.384  1.00  0.00     0.259 C 
ATOM     15  O   UNL A   1      30.198  21.898  26.171  1.00  0.00    -0.269 OA
ATOM     16  H   UNL A   1      29.814  23.984  25.136  1.00  0.00     0.170 HD
BRANCH  14  17
ATOM     17  C   UNL A   1      32.344  21.743  25.225  1.00  0.00     0.083 A 
ATOM     18  C   UNL A   1      33.590  22.247  25.691  1.00  0.00     0.134 A 
ATOM     19  C   UNL A   1      34.771  21.508  25.440  1.00  0.00    -0.007 A 
ATOM     20  C   UNL A   1      36.177  21.953  25.746  1.00  0.00     0.048 C 
ATOM     21  C   UNL A   1      34.656  20.205  24.913  1.00  0.00     0.023 A 
ATOM     22  C   UNL A   1      32.277  20.444  24.687  1.00  0.00     0.033 A 
ATOM     23  C   UNL A   1      33.420  19.672  24.575  1.00  0.00     0.019 A 
ATOM     24  Br  UNL A   1      33.297  17.875  24.001  1.00  0.00    -0.051 Br
BRANCH  18  25
ATOM     25  O   UNL A   1      33.502  23.343  26.507  1.00  0.00    -0.496 OA
ATOM     26  C   UNL A   1      33.869  24.635  26.058  1.00  0.00     0.278 C 
ENDBRANCH  18  25
ENDBRANCH  14  17
ENDBRANCH   8  13
BRANCH  12  27
ATOM     27  O   UNL A   1      33.014  26.669  20.842  1.00  0.00    -0.507 OA
ATOM     28  H   UNL A   1      32.657  27.500  20.599  1.00  0.00     0.293 HD
ENDBRANCH  12  27
ENDBRANCH   4   7
ENDBRANCH   2   3
ENDBRANCH   1   2
BRANCH   1  29
ATOM     29  C   UNL A   1      34.127  28.745  26.175  1.00  0.00     0.118 C 
BRANCH  29  30
ATOM     30  N   UNL A   1      33.857  30.102  26.620  1.00  0.00    -0.352 N 
ATOM     31  C   UNL A   1      34.484  30.853  27.587  1.00  0.00     0.251 C 
ATOM     32  H   UNL A   1      33.112  30.552  26.160  1.00  0.00     0.163 HD
ATOM     33  O   UNL A   1      33.974  31.909  27.947  1.00  0.00    -0.269 OA
BRANCH  31  34
ATOM     34  C   UNL A   1      35.749  30.391  28.213  1.00  0.00     0.039 A 
ATOM     35  C   UNL A   1      36.963  30.759  27.626  1.00  0.00     0.014 A 
ATOM     36  C   UNL A   1      35.753  29.573  29.347  1.00  0.00     0.014 A 
ATOM     37  C   UNL A   1      38.172  30.362  28.208  1.00  0.00     0.010 A 
ATOM     38  C   UNL A   1      36.955  29.253  29.976  1.00  0.00     0.010 A 
ATOM     39  C   UNL A   1      38.180  29.634  29.409  1.00  0.00    -0.014 A 
BRANCH  39  40
ATOM     40  C   UNL A   1      39.454  29.252  30.075  1.00  0.00     0.031 A 
ATOM     41  C   UNL A   1      39.940  30.017  31.280  1.00  0.00     0.074 A 
ATOM     42  C   UNL A   1      40.203  28.254  29.565  1.00  0.00     0.049 A 
ATOM     43  N   UNL A   1      41.048  29.867  31.960  1.00  0.00    -0.248 NA
ATOM     44  C   UNL A   1      39.081  31.108  31.769  1.00  0.00     0.031 C 
ATOM     45  C   UNL A   1      39.863  27.461  28.380  1.00  0.00     0.029 A 
ATOM     46  N   UNL A   1      41.408  27.739  29.972  1.00  0.00    -0.354 N 
ATOM     47  C   UNL A   1      41.027  30.852  32.941  1.00  0.00     0.074 A 
ATOM     48  C   UNL A   1      39.822  31.625  32.737  1.00  0.00     0.031 C 
ATOM     49  C   UNL A   1      40.823  26.543  28.176  1.00  0.00     0.029 A 
ATOM     50  C   UNL A   1      41.865  26.708  29.183  1.00  0.00     0.049 A 
ATOM     51  H   UNL A   1      41.900  28.075  30.756  1.00  0.00     0.167 HD
ATOM     52  C   UNL A   1      41.918  31.081  33.935  1.00  0.00     0.031 A 
ATOM     53  C   UNL A   1      42.999  25.983  29.255  1.00  0.00     0.031 A 
ATOM     54  C   UNL A   1      43.112  30.304  34.143  1.00  0.00     0.049 A 
ATOM     55  C   UNL A   1      43.979  26.263  30.361  1.00  0.00     0.074 A 
ATOM     56  C   UNL A   1      44.051  30.422  35.153  1.00  0.00     0.029 A 
ATOM     57  N   UNL A   1      43.533  29.266  33.325  1.00  0.00    -0.354 N 
ATOM     58  N   UNL A   1      43.908  27.159  31.317  1.00  0.00    -0.248 NA
ATOM     59  C   UNL A   1      45.187  25.427  30.404  1.00  0.00     0.031 C 
ATOM     60  C   UNL A   1      45.067  29.492  34.914  1.00  0.00     0.029 A 
ATOM     61  C   UNL A   1      44.729  28.750  33.794  1.00  0.00     0.049 A 
ATOM     62  H   UNL A   1      43.051  28.943  32.530  1.00  0.00     0.167 HD
ATOM     63  C   UNL A   1      45.048  26.974  32.092  1.00  0.00     0.074 A 
ATOM     64  C   UNL A   1      45.782  25.873  31.502  1.00  0.00     0.031 C 
ATOM     65  C   UNL A   1      45.450  27.655  33.195  1.00  0.00     0.031 A 
BRANCH  52  66
ATOM     66  C   UNL A   1      41.638  32.228  34.875  1.00  0.00    -0.014 A 
ATOM     67  C   UNL A   1      40.900  32.035  36.057  1.00  0.00     0.010 A 
ATOM     68  C   UNL A   1      42.152  33.506  34.592  1.00  0.00     0.010 A 
ATOM     69  C   UNL A   1      40.644  33.108  36.915  1.00  0.00     0.020 A 
ATOM     70  C   UNL A   1      41.925  34.575  35.464  1.00  0.00     0.020 A 
ATOM     71  C   UNL A   1      41.156  34.372  36.612  1.00  0.00     0.054 A 
BRANCH  71  72
ATOM     72  S   UNL A   1      40.825  35.741  37.755  1.00  0.00     0.124 S 
ATOM     73  O   UNL A   1      42.157  36.313  37.935  1.00  0.00    -0.237 OA
ATOM     74  O   UNL A   1      39.884  36.566  37.002  1.00  0.00    -0.237 OA
ATOM     75  O   UNL A   1      40.267  35.082  38.934  1.00  0.00    -0.744 OA
ENDBRANCH  71  72
ENDBRANCH  52  66
BRANCH  53  76
ATOM     76  C   UNL A   1      43.258  24.910  28.256  1.00  0.00    -0.014 A 
ATOM     77  C   UNL A   1      43.945  25.194  27.062  1.00  0.00     0.010 A 
ATOM     78  C   UNL A   1      42.830  23.591  28.498  1.00  0.00     0.010 A 
ATOM     79  C   UNL A   1      44.187  24.186  26.125  1.00  0.00     0.020 A 
ATOM     80  C   UNL A   1      43.095  22.574  27.577  1.00  0.00     0.020 A 
ATOM     81  C   UNL A   1      43.763  22.881  26.390  1.00  0.00     0.054 A 
BRANCH  81  82
ATOM     82  S   UNL A   1      44.137  21.576  25.186  1.00  0.00     0.124 S 
ATOM     83  O   UNL A   1      43.982  22.280  23.917  1.00  0.00    -0.237 OA
ATOM     84  O   UNL A   1      45.503  21.202  25.541  1.00  0.00    -0.237 OA
ATOM     85  O   UNL A   1      43.129  20.556  25.465  1.00  0.00    -0.744 OA
ENDBRANCH  81  82
ENDBRANCH  53  76
BRANCH  65  86
ATOM     86  C   UNL A   1      46.723  27.206  33.860  1.00  0.00    -0.014 A 
ATOM     87  C   UNL A   1      47.965  27.775  33.523  1.00  0.00     0.010 A 
ATOM     88  C   UNL A   1      46.668  26.237  34.880  1.00  0.00     0.010 A 
ATOM     89  C   UNL A   1      49.131  27.358  34.170  1.00  0.00     0.020 A 
ATOM     90  C   UNL A   1      47.828  25.840  35.548  1.00  0.00     0.020 A 
ATOM     91  C   UNL A   1      49.055  26.393  35.179  1.00  0.00     0.054 A 
BRANCH  91  92
ATOM     92  S   UNL A   1      50.578  25.900  36.032  1.00  0.00     0.124 S 
ATOM     93  O   UNL A   1      51.281  27.174  36.159  1.00  0.00    -0.237 OA
ATOM     94  O   UNL A   1      50.077  25.333  37.282  1.00  0.00    -0.237 OA
ATOM     95  O   UNL A   1      51.190  24.938  35.119  1.00  0.00    -0.744 OA
ENDBRANCH  91  92
ENDBRANCH  65  86
ENDBRANCH  39  40
ENDBRANCH  31  34
ENDBRANCH  29  30
ENDBRANCH   1  29
TORSDOF 17
ENDMDL
