MODEL 1
REMARK VINA RESULT:     -10.6      0.000      0.000
REMARK SMILES CC(C)CCNC(=O)[C@@H](C)Oc1ccc(N)cc1C(=O)NCCCNC(=O)c1ccc(-c2c3nc(c(-c4ccc(S(=O)(=O)[O-])cc4)c4ccc([nH]4)c(-c4ccc(S(=O)(=O)[O-])cc4)c4nc(c(-c5ccc(S(=O)(=O)[O-])cc5)c5ccc2[nH]5)C=C4)C=C3)cc1
REMARK SMILES IDX 19 1 20 2 21 3 18 5 12 6 13 7 14 8 17 9 15 10 11 11 9 12
REMARK SMILES IDX 10 13 7 14 6 15 8 17 5 18 4 19 2 20 1 21 3 22 16 23 22 26
REMARK SMILES IDX 23 27 24 28 25 29 26 30 27 32 28 33 29 34 87 35 30 36 86 37
REMARK SMILES IDX 31 38 32 39 33 40 80 41 34 42 85 43 79 44 81 45 35 46 84 47
REMARK SMILES IDX 78 48 77 49 36 51 66 52 47 53 65 54 48 55 51 56 64 57 82 58
REMARK SMILES IDX 49 59 50 60 63 62 83 63 52 64 37 65 38 66 46 67 39 68 45 69
REMARK SMILES IDX 40 70 41 71 42 72 43 73 44 74 67 75 68 76 76 77 69 78 75 79
REMARK SMILES IDX 70 80 71 81 72 82 73 83 74 84 53 85 54 86 62 87 55 88 61 89
REMARK SMILES IDX 56 90 57 91 58 92 59 93 60 94
REMARK H PARENT 21 4 6 16 16 24 16 25 25 31 81 50 51 61
REMARK Flexibility Score: inf
ROOT
ATOM      1  C   UNL A   1      33.647  23.822  26.413  1.00  0.00     0.255 C 
ATOM      2  O   UNL A   1      33.263  23.009  27.259  1.00  0.00    -0.269 OA
ATOM      3  N   UNL A   1      33.134  25.090  26.501  1.00  0.00    -0.352 N 
ATOM      4  H   UNL A   1      32.579  25.237  27.301  1.00  0.00     0.163 HD
ENDROOT
BRANCH   1   5
ATOM      5  C   UNL A   1      34.710  23.397  25.459  1.00  0.00     0.083 A 
ATOM      6  C   UNL A   1      34.555  23.006  24.127  1.00  0.00     0.133 A 
ATOM      7  C   UNL A   1      35.686  22.888  23.313  1.00  0.00     0.049 A 
ATOM      8  C   UNL A   1      36.966  22.900  23.872  1.00  0.00     0.029 A 
ATOM      9  C   UNL A   1      36.010  23.366  26.009  1.00  0.00     0.043 A 
ATOM     10  C   UNL A   1      37.129  23.033  25.245  1.00  0.00     0.032 A 
BRANCH   6  11
ATOM     11  O   UNL A   1      33.343  22.814  23.549  1.00  0.00    -0.480 OA
BRANCH  11  12
ATOM     12  C   UNL A   1      32.851  21.470  23.459  1.00  0.00     0.258 C 
ATOM     13  C   UNL A   1      31.977  21.192  22.231  1.00  0.00     0.064 C 
BRANCH  12  14
ATOM     14  C   UNL A   1      32.445  20.704  24.746  1.00  0.00     0.260 C 
ATOM     15  N   UNL A   1      33.146  19.644  25.240  1.00  0.00    -0.353 N 
ATOM     16  H   UNL A   1      32.979  19.437  26.189  1.00  0.00     0.163 HD
ATOM     17  O   UNL A   1      31.435  21.041  25.376  1.00  0.00    -0.271 OA
BRANCH  15  18
ATOM     18  C   UNL A   1      34.098  18.780  24.579  1.00  0.00     0.116 C 
BRANCH  18  19
ATOM     19  C   UNL A   1      33.557  17.391  24.273  1.00  0.00     0.024 C 
BRANCH  19  20
ATOM     20  C   UNL A   1      33.770  16.356  25.396  1.00  0.00    -0.016 C 
ATOM     21  C   UNL A   1      32.779  15.189  25.326  1.00  0.00     0.007 C 
ATOM     22  C   UNL A   1      35.197  15.814  25.308  1.00  0.00     0.007 C 
ENDBRANCH  19  20
ENDBRANCH  18  19
ENDBRANCH  15  18
ENDBRANCH  12  14
ENDBRANCH  11  12
ENDBRANCH   6  11
BRANCH  10  23
ATOM     23  N   UNL A   1      38.390  22.984  25.821  1.00  0.00    -0.399 N 
ATOM     24  H   UNL A   1      38.992  22.231  25.621  1.00  0.00     0.156 HD
ATOM     25  H   UNL A   1      38.680  23.700  26.429  1.00  0.00     0.156 HD
ENDBRANCH  10  23
ENDBRANCH   1   5
BRANCH   3  26
ATOM     26  C   UNL A   1      33.244  26.261  25.647  1.00  0.00     0.118 C 
BRANCH  26  27
ATOM     27  C   UNL A   1      33.216  27.531  26.498  1.00  0.00     0.042 C 
BRANCH  27  28
ATOM     28  C   UNL A   1      34.107  28.647  25.965  1.00  0.00     0.118 C 
BRANCH  28  29
ATOM     29  N   UNL A   1      33.796  29.916  26.596  1.00  0.00    -0.352 N 
ATOM     30  C   UNL A   1      34.441  30.558  27.625  1.00  0.00     0.251 C 
ATOM     31  H   UNL A   1      33.009  30.384  26.234  1.00  0.00     0.163 HD
ATOM     32  O   UNL A   1      33.861  31.477  28.207  1.00  0.00    -0.269 OA
BRANCH  30  33
ATOM     33  C   UNL A   1      35.809  30.169  28.045  1.00  0.00     0.039 A 
ATOM     34  C   UNL A   1      36.857  30.293  27.125  1.00  0.00     0.014 A 
ATOM     35  C   UNL A   1      36.062  29.610  29.302  1.00  0.00     0.014 A 
ATOM     36  C   UNL A   1      38.150  29.886  27.471  1.00  0.00     0.010 A 
ATOM     37  C   UNL A   1      37.365  29.268  29.670  1.00  0.00     0.010 A 
ATOM     38  C   UNL A   1      38.421  29.384  28.753  1.00  0.00    -0.014 A 
BRANCH  38  39
ATOM     39  C   UNL A   1      39.788  28.943  29.139  1.00  0.00     0.031 A 
ATOM     40  C   UNL A   1      40.717  29.890  29.853  1.00  0.00     0.074 A 
ATOM     41  C   UNL A   1      40.217  27.710  28.806  1.00  0.00     0.049 A 
ATOM     42  N   UNL A   1      41.966  29.715  30.207  1.00  0.00    -0.248 NA
ATOM     43  C   UNL A   1      40.180  31.218  30.196  1.00  0.00     0.031 C 
ATOM     44  C   UNL A   1      39.431  26.703  28.087  1.00  0.00     0.029 A 
ATOM     45  N   UNL A   1      41.425  27.094  29.020  1.00  0.00    -0.354 N 
ATOM     46  C   UNL A   1      42.369  30.913  30.787  1.00  0.00     0.074 A 
ATOM     47  C   UNL A   1      41.245  31.820  30.705  1.00  0.00     0.031 C 
ATOM     48  C   UNL A   1      40.169  25.591  27.940  1.00  0.00     0.029 A 
ATOM     49  C   UNL A   1      41.491  25.816  28.518  1.00  0.00     0.049 A 
ATOM     50  H   UNL A   1      42.174  27.528  29.490  1.00  0.00     0.167 HD
ATOM     51  C   UNL A   1      43.561  31.228  31.350  1.00  0.00     0.031 A 
ATOM     52  C   UNL A   1      42.502  24.925  28.514  1.00  0.00     0.031 A 
ATOM     53  C   UNL A   1      44.671  30.320  31.456  1.00  0.00     0.049 A 
ATOM     54  C   UNL A   1      43.814  25.294  29.149  1.00  0.00     0.074 A 
ATOM     55  C   UNL A   1      45.898  30.526  32.064  1.00  0.00     0.029 A 
ATOM     56  N   UNL A   1      44.691  29.032  30.944  1.00  0.00    -0.354 N 
ATOM     57  N   UNL A   1      44.157  26.416  29.734  1.00  0.00    -0.248 NA
ATOM     58  C   UNL A   1      44.871  24.274  29.126  1.00  0.00     0.031 C 
ATOM     59  C   UNL A   1      46.674  29.375  31.885  1.00  0.00     0.029 A 
ATOM     60  C   UNL A   1      45.915  28.438  31.203  1.00  0.00     0.049 A 
ATOM     61  H   UNL A   1      43.945  28.602  30.465  1.00  0.00     0.167 HD
ATOM     62  C   UNL A   1      45.467  26.232  30.164  1.00  0.00     0.074 A 
ATOM     63  C   UNL A   1      45.847  24.886  29.786  1.00  0.00     0.031 C 
ATOM     64  C   UNL A   1      46.281  27.100  30.812  1.00  0.00     0.031 A 
BRANCH  51  65
ATOM     65  C   UNL A   1      43.725  32.623  31.893  1.00  0.00    -0.014 A 
ATOM     66  C   UNL A   1      43.454  32.913  33.242  1.00  0.00     0.010 A 
ATOM     67  C   UNL A   1      44.186  33.651  31.051  1.00  0.00     0.010 A 
ATOM     68  C   UNL A   1      43.598  34.216  33.729  1.00  0.00     0.020 A 
ATOM     69  C   UNL A   1      44.356  34.950  31.541  1.00  0.00     0.020 A 
ATOM     70  C   UNL A   1      44.040  35.228  32.872  1.00  0.00     0.054 A 
BRANCH  70  71
ATOM     71  S   UNL A   1      44.230  36.908  33.530  1.00  0.00     0.124 S 
ATOM     72  O   UNL A   1      42.843  37.286  33.791  1.00  0.00    -0.237 OA
ATOM     73  O   UNL A   1      45.056  36.699  34.717  1.00  0.00    -0.237 OA
ATOM     74  O   UNL A   1      44.880  37.635  32.444  1.00  0.00    -0.744 OA
ENDBRANCH  70  71
ENDBRANCH  51  65
BRANCH  52  75
ATOM     75  C   UNL A   1      42.307  23.590  27.889  1.00  0.00    -0.014 A 
ATOM     76  C   UNL A   1      42.708  23.360  26.561  1.00  0.00     0.010 A 
ATOM     77  C   UNL A   1      41.739  22.535  28.625  1.00  0.00     0.010 A 
ATOM     78  C   UNL A   1      42.537  22.102  25.977  1.00  0.00     0.020 A 
ATOM     79  C   UNL A   1      41.588  21.268  28.053  1.00  0.00     0.020 A 
ATOM     80  C   UNL A   1      41.978  21.063  26.728  1.00  0.00     0.054 A 
BRANCH  80  81
ATOM     81  S   UNL A   1      41.821  19.419  25.973  1.00  0.00     0.124 S 
ATOM     82  O   UNL A   1      42.269  18.546  27.054  1.00  0.00    -0.237 OA
ATOM     83  O   UNL A   1      40.398  19.351  25.652  1.00  0.00    -0.237 OA
ATOM     84  O   UNL A   1      42.711  19.492  24.816  1.00  0.00    -0.744 OA
ENDBRANCH  80  81
ENDBRANCH  52  75
BRANCH  64  85
ATOM     85  C   UNL A   1      47.661  26.617  31.165  1.00  0.00    -0.014 A 
ATOM     86  C   UNL A   1      48.752  26.864  30.315  1.00  0.00     0.010 A 
ATOM     87  C   UNL A   1      47.876  25.952  32.386  1.00  0.00     0.010 A 
ATOM     88  C   UNL A   1      50.033  26.428  30.666  1.00  0.00     0.020 A 
ATOM     89  C   UNL A   1      49.159  25.534  32.750  1.00  0.00     0.020 A 
ATOM     90  C   UNL A   1      50.227  25.763  31.880  1.00  0.00     0.054 A 
BRANCH  90  91
ATOM     91  S   UNL A   1      51.904  25.243  32.335  1.00  0.00     0.124 S 
ATOM     92  O   UNL A   1      52.098  25.924  33.612  1.00  0.00    -0.237 OA
ATOM     93  O   UNL A   1      51.782  23.788  32.411  1.00  0.00    -0.237 OA
ATOM     94  O   UNL A   1      52.730  25.734  31.235  1.00  0.00    -0.744 OA
ENDBRANCH  90  91
ENDBRANCH  64  85
ENDBRANCH  38  39
ENDBRANCH  30  33
ENDBRANCH  28  29
ENDBRANCH  27  28
ENDBRANCH  26  27
ENDBRANCH   3  26
TORSDOF 20
ENDMDL
MODEL 2
REMARK VINA RESULT:     -10.6      1.589      3.335
REMARK SMILES CC(C)CCNC(=O)[C@@H](C)Oc1ccc(N)cc1C(=O)NCCCNC(=O)c1ccc(-c2c3nc(c(-c4ccc(S(=O)(=O)[O-])cc4)c4ccc([nH]4)c(-c4ccc(S(=O)(=O)[O-])cc4)c4nc(c(-c5ccc(S(=O)(=O)[O-])cc5)c5ccc2[nH]5)C=C4)C=C3)cc1
REMARK SMILES IDX 19 1 20 2 21 3 18 5 12 6 13 7 14 8 17 9 15 10 11 11 9 12
REMARK SMILES IDX 10 13 7 14 6 15 8 17 5 18 4 19 2 20 1 21 3 22 16 23 22 26
REMARK SMILES IDX 23 27 24 28 25 29 26 30 27 32 28 33 29 34 87 35 30 36 86 37
REMARK SMILES IDX 31 38 32 39 33 40 80 41 34 42 85 43 79 44 81 45 35 46 84 47
REMARK SMILES IDX 78 48 77 49 36 51 66 52 47 53 65 54 48 55 51 56 64 57 82 58
REMARK SMILES IDX 49 59 50 60 63 62 83 63 52 64 37 65 38 66 46 67 39 68 45 69
REMARK SMILES IDX 40 70 41 71 42 72 43 73 44 74 67 75 68 76 76 77 69 78 75 79
REMARK SMILES IDX 70 80 71 81 72 82 73 83 74 84 53 85 54 86 62 87 55 88 61 89
REMARK SMILES IDX 56 90 57 91 58 92 59 93 60 94
REMARK H PARENT 21 4 6 16 16 24 16 25 25 31 81 50 51 61
REMARK Flexibility Score: inf
ROOT
ATOM      1  C   UNL A   1      34.060  24.772  23.555  1.00  0.00     0.255 C 
ATOM      2  O   UNL A   1      33.839  24.813  22.341  1.00  0.00    -0.269 OA
ATOM      3  N   UNL A   1      33.824  25.921  24.263  1.00  0.00    -0.352 N 
ATOM      4  H   UNL A   1      33.406  26.636  23.729  1.00  0.00     0.163 HD
ENDROOT
BRANCH   1   5
ATOM      5  C   UNL A   1      34.443  23.463  24.158  1.00  0.00     0.083 A 
ATOM      6  C   UNL A   1      33.610  22.536  24.786  1.00  0.00     0.133 A 
ATOM      7  C   UNL A   1      34.097  21.254  25.061  1.00  0.00     0.049 A 
ATOM      8  C   UNL A   1      35.462  20.977  24.956  1.00  0.00     0.029 A 
ATOM      9  C   UNL A   1      35.824  23.175  24.096  1.00  0.00     0.043 A 
ATOM     10  C   UNL A   1      36.351  21.974  24.574  1.00  0.00     0.032 A 
BRANCH   6  11
ATOM     11  O   UNL A   1      32.308  22.787  25.072  1.00  0.00    -0.480 OA
BRANCH  11  12
ATOM     12  C   UNL A   1      32.000  23.337  26.360  1.00  0.00     0.258 C 
ATOM     13  C   UNL A   1      32.871  22.807  27.505  1.00  0.00     0.064 C 
BRANCH  12  14
ATOM     14  C   UNL A   1      30.529  23.651  26.740  1.00  0.00     0.260 C 
ATOM     15  N   UNL A   1      29.853  24.743  26.282  1.00  0.00    -0.353 N 
ATOM     16  H   UNL A   1      28.871  24.682  26.339  1.00  0.00     0.163 HD
ATOM     17  O   UNL A   1      29.910  22.895  27.499  1.00  0.00    -0.271 OA
BRANCH  15  18
ATOM     18  C   UNL A   1      30.363  25.976  25.726  1.00  0.00     0.116 C 
BRANCH  18  19
ATOM     19  C   UNL A   1      30.220  26.074  24.215  1.00  0.00     0.024 C 
BRANCH  19  20
ATOM     20  C   UNL A   1      29.942  27.495  23.686  1.00  0.00    -0.016 C 
ATOM     21  C   UNL A   1      30.744  27.829  22.423  1.00  0.00     0.007 C 
ATOM     22  C   UNL A   1      28.448  27.631  23.387  1.00  0.00     0.007 C 
ENDBRANCH  19  20
ENDBRANCH  18  19
ENDBRANCH  15  18
ENDBRANCH  12  14
ENDBRANCH  11  12
ENDBRANCH   6  11
BRANCH  10  23
ATOM     23  N   UNL A   1      37.715  21.732  24.525  1.00  0.00    -0.399 N 
ATOM     24  H   UNL A   1      38.065  21.003  23.963  1.00  0.00     0.156 HD
ATOM     25  H   UNL A   1      38.332  22.286  25.053  1.00  0.00     0.156 HD
ENDBRANCH  10  23
ENDBRANCH   1   5
BRANCH   3  26
ATOM     26  C   UNL A   1      34.069  26.298  25.646  1.00  0.00     0.118 C 
BRANCH  26  27
ATOM     27  C   UNL A   1      33.797  27.790  25.836  1.00  0.00     0.042 C 
BRANCH  27  28
ATOM     28  C   UNL A   1      33.479  28.178  27.275  1.00  0.00     0.118 C 
BRANCH  28  29
ATOM     29  N   UNL A   1      33.400  29.619  27.427  1.00  0.00    -0.352 N 
ATOM     30  C   UNL A   1      34.304  30.487  27.988  1.00  0.00     0.251 C 
ATOM     31  H   UNL A   1      32.580  30.034  27.074  1.00  0.00     0.163 HD
ATOM     32  O   UNL A   1      33.931  31.625  28.280  1.00  0.00    -0.269 OA
BRANCH  30  33
ATOM     33  C   UNL A   1      35.707  30.082  28.250  1.00  0.00     0.039 A 
ATOM     34  C   UNL A   1      36.067  29.706  29.549  1.00  0.00     0.014 A 
ATOM     35  C   UNL A   1      36.689  30.146  27.257  1.00  0.00     0.014 A 
ATOM     36  C   UNL A   1      37.394  29.368  29.843  1.00  0.00     0.010 A 
ATOM     37  C   UNL A   1      37.997  29.744  27.534  1.00  0.00     0.010 A 
ATOM     38  C   UNL A   1      38.370  29.369  28.834  1.00  0.00    -0.014 A 
BRANCH  38  39
ATOM     39  C   UNL A   1      39.784  29.018  29.127  1.00  0.00     0.031 A 
ATOM     40  C   UNL A   1      40.709  30.038  29.739  1.00  0.00     0.074 A 
ATOM     41  C   UNL A   1      40.257  27.799  28.799  1.00  0.00     0.049 A 
ATOM     42  N   UNL A   1      41.989  29.944  30.002  1.00  0.00    -0.248 NA
ATOM     43  C   UNL A   1      40.125  31.345  30.082  1.00  0.00     0.031 C 
ATOM     44  C   UNL A   1      39.478  26.727  28.174  1.00  0.00     0.029 A 
ATOM     45  N   UNL A   1      41.511  27.258  28.940  1.00  0.00    -0.354 N 
ATOM     46  C   UNL A   1      42.366  31.181  30.513  1.00  0.00     0.074 A 
ATOM     47  C   UNL A   1      41.188  32.021  30.490  1.00  0.00     0.031 C 
ATOM     48  C   UNL A   1      40.266  25.652  28.005  1.00  0.00     0.029 A 
ATOM     49  C   UNL A   1      41.612  25.969  28.473  1.00  0.00     0.049 A 
ATOM     50  H   UNL A   1      42.267  27.747  29.337  1.00  0.00     0.167 HD
ATOM     51  C   UNL A   1      43.576  31.580  30.974  1.00  0.00     0.031 A 
ATOM     52  C   UNL A   1      42.669  25.134  28.418  1.00  0.00     0.031 A 
ATOM     53  C   UNL A   1      44.741  30.737  31.021  1.00  0.00     0.049 A 
ATOM     54  C   UNL A   1      44.001  25.596  28.940  1.00  0.00     0.074 A 
ATOM     55  C   UNL A   1      45.996  31.030  31.528  1.00  0.00     0.029 A 
ATOM     56  N   UNL A   1      44.796  29.435  30.549  1.00  0.00    -0.354 N 
ATOM     57  N   UNL A   1      44.323  26.754  29.463  1.00  0.00    -0.248 NA
ATOM     58  C   UNL A   1      45.111  24.635  28.867  1.00  0.00     0.031 C 
ATOM     59  C   UNL A   1      46.821  29.918  31.324  1.00  0.00     0.029 A 
ATOM     60  C   UNL A   1      46.068  28.918  30.731  1.00  0.00     0.049 A 
ATOM     61  H   UNL A   1      44.042  28.949  30.142  1.00  0.00     0.167 HD
ATOM     62  C   UNL A   1      45.669  26.657  29.797  1.00  0.00     0.074 A 
ATOM     63  C   UNL A   1      46.096  25.321  29.431  1.00  0.00     0.031 C 
ATOM     64  C   UNL A   1      46.479  27.590  30.354  1.00  0.00     0.031 A 
BRANCH  51  65
ATOM     65  C   UNL A   1      43.700  32.999  31.461  1.00  0.00    -0.014 A 
ATOM     66  C   UNL A   1      43.524  33.319  32.819  1.00  0.00     0.010 A 
ATOM     67  C   UNL A   1      44.029  34.023  30.553  1.00  0.00     0.010 A 
ATOM     68  C   UNL A   1      43.630  34.644  33.254  1.00  0.00     0.020 A 
ATOM     69  C   UNL A   1      44.160  35.345  30.989  1.00  0.00     0.020 A 
ATOM     70  C   UNL A   1      43.939  35.650  32.334  1.00  0.00     0.054 A 
BRANCH  70  71
ATOM     71  S   UNL A   1      44.081  37.359  32.925  1.00  0.00     0.124 S 
ATOM     72  O   UNL A   1      44.048  38.112  31.673  1.00  0.00    -0.237 OA
ATOM     73  O   UNL A   1      42.903  37.506  33.776  1.00  0.00    -0.237 OA
ATOM     74  O   UNL A   1      45.360  37.377  33.629  1.00  0.00    -0.744 OA
ENDBRANCH  70  71
ENDBRANCH  51  65
BRANCH  52  75
ATOM     75  C   UNL A   1      42.504  23.770  27.850  1.00  0.00    -0.014 A 
ATOM     76  C   UNL A   1      42.119  22.698  28.674  1.00  0.00     0.010 A 
ATOM     77  C   UNL A   1      42.710  23.540  26.478  1.00  0.00     0.010 A 
ATOM     78  C   UNL A   1      41.951  21.418  28.138  1.00  0.00     0.020 A 
ATOM     79  C   UNL A   1      42.522  22.266  25.933  1.00  0.00     0.020 A 
ATOM     80  C   UNL A   1      42.153  21.211  26.770  1.00  0.00     0.054 A 
BRANCH  80  81
ATOM     81  S   UNL A   1      41.870  19.555  26.081  1.00  0.00     0.124 S 
ATOM     82  O   UNL A   1      40.440  19.587  25.793  1.00  0.00    -0.237 OA
ATOM     83  O   UNL A   1      42.751  19.540  24.915  1.00  0.00    -0.237 OA
ATOM     84  O   UNL A   1      42.272  18.663  27.167  1.00  0.00    -0.744 OA
ENDBRANCH  80  81
ENDBRANCH  52  75
BRANCH  64  85
ATOM     85  C   UNL A   1      47.907  27.195  30.615  1.00  0.00    -0.014 A 
ATOM     86  C   UNL A   1      48.899  27.387  29.638  1.00  0.00     0.010 A 
ATOM     87  C   UNL A   1      48.268  26.672  31.870  1.00  0.00     0.010 A 
ATOM     88  C   UNL A   1      50.226  27.035  29.902  1.00  0.00     0.020 A 
ATOM     89  C   UNL A   1      49.597  26.340  32.145  1.00  0.00     0.020 A 
ATOM     90  C   UNL A   1      50.566  26.512  31.153  1.00  0.00     0.054 A 
BRANCH  90  91
ATOM     91  S   UNL A   1      52.300  26.101  31.489  1.00  0.00     0.124 S 
ATOM     92  O   UNL A   1      52.880  26.112  30.149  1.00  0.00    -0.237 OA
ATOM     93  O   UNL A   1      52.726  27.189  32.368  1.00  0.00    -0.237 OA
ATOM     94  O   UNL A   1      52.228  24.788  32.126  1.00  0.00    -0.744 OA
ENDBRANCH  90  91
ENDBRANCH  64  85
ENDBRANCH  38  39
ENDBRANCH  30  33
ENDBRANCH  28  29
ENDBRANCH  27  28
ENDBRANCH  26  27
ENDBRANCH   3  26
TORSDOF 20
ENDMDL
MODEL 3
REMARK VINA RESULT:     -10.3      3.129      4.961
REMARK SMILES CC(C)CCNC(=O)[C@@H](C)Oc1ccc(N)cc1C(=O)NCCCNC(=O)c1ccc(-c2c3nc(c(-c4ccc(S(=O)(=O)[O-])cc4)c4ccc([nH]4)c(-c4ccc(S(=O)(=O)[O-])cc4)c4nc(c(-c5ccc(S(=O)(=O)[O-])cc5)c5ccc2[nH]5)C=C4)C=C3)cc1
REMARK SMILES IDX 19 1 20 2 21 3 18 5 12 6 13 7 14 8 17 9 15 10 11 11 9 12
REMARK SMILES IDX 10 13 7 14 6 15 8 17 5 18 4 19 2 20 1 21 3 22 16 23 22 26
REMARK SMILES IDX 23 27 24 28 25 29 26 30 27 32 28 33 29 34 87 35 30 36 86 37
REMARK SMILES IDX 31 38 32 39 33 40 80 41 34 42 85 43 79 44 81 45 35 46 84 47
REMARK SMILES IDX 78 48 77 49 36 51 66 52 47 53 65 54 48 55 51 56 64 57 82 58
REMARK SMILES IDX 49 59 50 60 63 62 83 63 52 64 37 65 38 66 46 67 39 68 45 69
REMARK SMILES IDX 40 70 41 71 42 72 43 73 44 74 67 75 68 76 76 77 69 78 75 79
REMARK SMILES IDX 70 80 71 81 72 82 73 83 74 84 53 85 54 86 62 87 55 88 61 89
REMARK SMILES IDX 56 90 57 91 58 92 59 93 60 94
REMARK H PARENT 21 4 6 16 16 24 16 25 25 31 81 50 51 61
REMARK Flexibility Score: inf
ROOT
ATOM      1  C   UNL A   1      31.737  24.897  26.511  1.00  0.00     0.255 C 
ATOM      2  O   UNL A   1      31.146  23.996  27.114  1.00  0.00    -0.269 OA
ATOM      3  N   UNL A   1      31.492  26.179  26.929  1.00  0.00    -0.352 N 
ATOM      4  H   UNL A   1      30.936  26.231  27.741  1.00  0.00     0.163 HD
ENDROOT
BRANCH   1   5
ATOM      5  C   UNL A   1      32.740  24.514  25.478  1.00  0.00     0.083 A 
ATOM      6  C   UNL A   1      32.554  24.433  24.096  1.00  0.00     0.133 A 
ATOM      7  C   UNL A   1      33.669  24.307  23.262  1.00  0.00     0.049 A 
ATOM      8  C   UNL A   1      34.923  24.003  23.797  1.00  0.00     0.029 A 
ATOM      9  C   UNL A   1      34.007  24.167  25.995  1.00  0.00     0.043 A 
ATOM     10  C   UNL A   1      35.076  23.824  25.166  1.00  0.00     0.032 A 
BRANCH   6  11
ATOM     11  O   UNL A   1      31.339  24.557  23.505  1.00  0.00    -0.480 OA
BRANCH  11  12
ATOM     12  C   UNL A   1      30.787  25.875  23.380  1.00  0.00     0.258 C 
ATOM     13  C   UNL A   1      29.359  26.022  23.916  1.00  0.00     0.064 C 
BRANCH  12  14
ATOM     14  C   UNL A   1      31.117  26.740  22.134  1.00  0.00     0.260 C 
ATOM     15  N   UNL A   1      30.915  28.087  22.083  1.00  0.00    -0.353 N 
ATOM     16  H   UNL A   1      31.423  28.561  21.385  1.00  0.00     0.163 HD
ATOM     17  O   UNL A   1      31.583  26.211  21.118  1.00  0.00    -0.271 OA
BRANCH  15  18
ATOM     18  C   UNL A   1      30.065  28.923  22.901  1.00  0.00     0.116 C 
BRANCH  18  19
ATOM     19  C   UNL A   1      29.318  29.992  22.118  1.00  0.00     0.024 C 
BRANCH  19  20
ATOM     20  C   UNL A   1      27.835  30.158  22.508  1.00  0.00    -0.016 C 
ATOM     21  C   UNL A   1      27.225  28.878  23.089  1.00  0.00     0.007 C 
ATOM     22  C   UNL A   1      27.715  31.287  23.532  1.00  0.00     0.007 C 
ENDBRANCH  19  20
ENDBRANCH  18  19
ENDBRANCH  15  18
ENDBRANCH  12  14
ENDBRANCH  11  12
ENDBRANCH   6  11
BRANCH  10  23
ATOM     23  N   UNL A   1      36.301  23.460  25.705  1.00  0.00    -0.399 N 
ATOM     24  H   UNL A   1      36.612  23.876  26.541  1.00  0.00     0.156 HD
ATOM     25  H   UNL A   1      36.857  22.789  25.251  1.00  0.00     0.156 HD
ENDBRANCH  10  23
ENDBRANCH   1   5
BRANCH   3  26
ATOM     26  C   UNL A   1      31.890  27.479  26.413  1.00  0.00     0.118 C 
BRANCH  26  27
ATOM     27  C   UNL A   1      33.269  27.856  26.957  1.00  0.00     0.042 C 
BRANCH  27  28
ATOM     28  C   UNL A   1      34.021  28.851  26.082  1.00  0.00     0.118 C 
BRANCH  28  29
ATOM     29  N   UNL A   1      33.760  30.217  26.495  1.00  0.00    -0.352 N 
ATOM     30  C   UNL A   1      34.334  30.947  27.507  1.00  0.00     0.251 C 
ATOM     31  H   UNL A   1      33.072  30.691  25.973  1.00  0.00     0.163 HD
ATOM     32  O   UNL A   1      33.780  31.981  27.882  1.00  0.00    -0.269 OA
BRANCH  30  33
ATOM     33  C   UNL A   1      35.598  30.514  28.154  1.00  0.00     0.039 A 
ATOM     34  C   UNL A   1      35.527  29.743  29.320  1.00  0.00     0.014 A 
ATOM     35  C   UNL A   1      36.847  30.922  27.676  1.00  0.00     0.014 A 
ATOM     36  C   UNL A   1      36.698  29.361  29.984  1.00  0.00     0.010 A 
ATOM     37  C   UNL A   1      38.017  30.484  28.300  1.00  0.00     0.010 A 
ATOM     38  C   UNL A   1      37.956  29.715  29.472  1.00  0.00    -0.014 A 
BRANCH  38  39
ATOM     39  C   UNL A   1      39.212  29.322  30.165  1.00  0.00     0.031 A 
ATOM     40  C   UNL A   1      39.657  30.057  31.404  1.00  0.00     0.074 A 
ATOM     41  C   UNL A   1      39.982  28.340  29.659  1.00  0.00     0.049 A 
ATOM     42  N   UNL A   1      40.753  29.909  32.106  1.00  0.00    -0.248 NA
ATOM     43  C   UNL A   1      38.763  31.112  31.910  1.00  0.00     0.031 C 
ATOM     44  C   UNL A   1      39.685  27.568  28.449  1.00  0.00     0.029 A 
ATOM     45  N   UNL A   1      41.179  27.826  30.093  1.00  0.00    -0.354 N 
ATOM     46  C   UNL A   1      40.692  30.864  33.114  1.00  0.00     0.074 A 
ATOM     47  C   UNL A   1      39.470  31.611  32.913  1.00  0.00     0.031 C 
ATOM     48  C   UNL A   1      40.661  26.666  28.252  1.00  0.00     0.029 A 
ATOM     49  C   UNL A   1      41.670  26.820  29.295  1.00  0.00     0.049 A 
ATOM     50  H   UNL A   1      41.641  28.148  30.900  1.00  0.00     0.167 HD
ATOM     51  C   UNL A   1      41.565  31.093  34.125  1.00  0.00     0.031 A 
ATOM     52  C   UNL A   1      42.809  26.105  29.385  1.00  0.00     0.031 A 
ATOM     53  C   UNL A   1      42.768  30.334  34.342  1.00  0.00     0.049 A 
ATOM     54  C   UNL A   1      43.761  26.372  30.518  1.00  0.00     0.074 A 
ATOM     55  C   UNL A   1      43.684  30.448  35.374  1.00  0.00     0.029 A 
ATOM     56  N   UNL A   1      43.222  29.317  33.517  1.00  0.00    -0.354 N 
ATOM     57  N   UNL A   1      43.660  27.248  31.488  1.00  0.00    -0.248 NA
ATOM     58  C   UNL A   1      44.977  25.548  30.570  1.00  0.00     0.031 C 
ATOM     59  C   UNL A   1      44.713  29.527  35.150  1.00  0.00     0.029 A 
ATOM     60  C   UNL A   1      44.415  28.810  34.003  1.00  0.00     0.049 A 
ATOM     61  H   UNL A   1      42.764  29.002  32.704  1.00  0.00     0.167 HD
ATOM     62  C   UNL A   1      44.792  27.072  32.276  1.00  0.00     0.074 A 
ATOM     63  C   UNL A   1      45.554  25.994  31.678  1.00  0.00     0.031 C 
ATOM     64  C   UNL A   1      45.167  27.743  33.391  1.00  0.00     0.031 A 
BRANCH  51  65
ATOM     65  C   UNL A   1      41.249  32.217  35.074  1.00  0.00    -0.014 A 
ATOM     66  C   UNL A   1      41.758  33.511  34.863  1.00  0.00     0.010 A 
ATOM     67  C   UNL A   1      40.406  31.986  36.177  1.00  0.00     0.010 A 
ATOM     68  C   UNL A   1      41.466  34.543  35.761  1.00  0.00     0.020 A 
ATOM     69  C   UNL A   1      40.092  33.021  37.063  1.00  0.00     0.020 A 
ATOM     70  C   UNL A   1      40.641  34.288  36.861  1.00  0.00     0.054 A 
BRANCH  70  71
ATOM     71  S   UNL A   1      40.269  35.646  38.005  1.00  0.00     0.124 S 
ATOM     72  O   UNL A   1      41.565  35.862  38.645  1.00  0.00    -0.237 OA
ATOM     73  O   UNL A   1      39.827  36.712  37.109  1.00  0.00    -0.237 OA
ATOM     74  O   UNL A   1      39.231  35.094  38.871  1.00  0.00    -0.744 OA
ENDBRANCH  70  71
ENDBRANCH  51  65
BRANCH  52  75
ATOM     75  C   UNL A   1      43.107  25.060  28.369  1.00  0.00    -0.014 A 
ATOM     76  C   UNL A   1      42.716  23.727  28.584  1.00  0.00     0.010 A 
ATOM     77  C   UNL A   1      43.764  25.397  27.172  1.00  0.00     0.010 A 
ATOM     78  C   UNL A   1      42.984  22.747  27.624  1.00  0.00     0.020 A 
ATOM     79  C   UNL A   1      44.014  24.425  26.199  1.00  0.00     0.020 A 
ATOM     80  C   UNL A   1      43.632  23.103  26.437  1.00  0.00     0.054 A 
BRANCH  80  81
ATOM     81  S   UNL A   1      43.916  21.829  25.175  1.00  0.00     0.124 S 
ATOM     82  O   UNL A   1      43.723  22.580  23.938  1.00  0.00    -0.237 OA
ATOM     83  O   UNL A   1      45.287  21.406  25.452  1.00  0.00    -0.237 OA
ATOM     84  O   UNL A   1      42.892  20.828  25.467  1.00  0.00    -0.744 OA
ENDBRANCH  80  81
ENDBRANCH  52  75
BRANCH  64  85
ATOM     85  C   UNL A   1      46.453  27.323  34.048  1.00  0.00    -0.014 A 
ATOM     86  C   UNL A   1      47.671  27.937  33.710  1.00  0.00     0.010 A 
ATOM     87  C   UNL A   1      46.435  26.337  35.051  1.00  0.00     0.010 A 
ATOM     88  C   UNL A   1      48.856  27.552  34.344  1.00  0.00     0.020 A 
ATOM     89  C   UNL A   1      47.614  25.965  35.702  1.00  0.00     0.020 A 
ATOM     90  C   UNL A   1      48.820  26.566  35.334  1.00  0.00     0.054 A 
BRANCH  90  91
ATOM     91  S   UNL A   1      50.362  26.111  36.172  1.00  0.00     0.124 S 
ATOM     92  O   UNL A   1      51.353  26.877  35.422  1.00  0.00    -0.237 OA
ATOM     93  O   UNL A   1      50.129  26.558  37.544  1.00  0.00    -0.237 OA
ATOM     94  O   UNL A   1      50.434  24.661  36.002  1.00  0.00    -0.744 OA
ENDBRANCH  90  91
ENDBRANCH  64  85
ENDBRANCH  38  39
ENDBRANCH  30  33
ENDBRANCH  28  29
ENDBRANCH  27  28
ENDBRANCH  26  27
ENDBRANCH   3  26
TORSDOF 20
ENDMDL
