MODEL 1
REMARK VINA RESULT:     -11.5      0.000      0.000
REMARK SMILES [NH3+]C1(C(=O)N2[C@@H](C(=O)NCCCNC(=O)c3ccc(-c4c5nc(c(-c6ccc(S(=O)(=O)[O-])cc6)c6ccc([nH]6)c(-c6ccc(S(=O)(=O)[O-])cc6)c6nc(c(-c7ccc(S(=O)(=O)[O-])cc7)c7ccc4[nH]7)C=C6)C=C5)cc3)CC[C@@H]3CCCC[C@@H]32)CC1
REMARK SMILES IDX 11 1 10 2 9 3 7 4 8 5 6 7 5 8 83 9 76 10 78 11 82 12 77 13
REMARK SMILES IDX 79 14 81 15 80 16 3 17 4 18 2 19 84 20 85 21 1 22 12 26
REMARK SMILES IDX 13 27 14 28 15 30 16 31 17 32 75 33 18 34 74 35 19 36 20 37
REMARK SMILES IDX 21 38 68 39 22 40 73 41 67 42 69 43 23 44 72 45 66 46 65 47
REMARK SMILES IDX 24 49 54 50 35 51 53 52 36 53 39 54 52 55 70 56 37 57 38 58
REMARK SMILES IDX 51 60 71 61 40 62 25 63 26 64 34 65 27 66 33 67 28 68 29 69
REMARK SMILES IDX 30 70 31 71 32 72 55 73 56 74 64 75 57 76 63 77 58 78 59 79
REMARK SMILES IDX 60 80 61 81 62 82 41 83 42 84 50 85 43 86 49 87 44 88 45 89
REMARK SMILES IDX 46 90 47 91 48 92
REMARK H PARENT 9 6 1 23 1 24 1 25 13 29 69 48 39 59
REMARK Flexibility Score: inf
ROOT
ATOM      1  C   UNL A   1      32.159  27.854  27.197  1.00  0.00     0.042 C 
ENDROOT
BRANCH   1   2
ATOM      2  C   UNL A   1      32.056  26.704  26.207  1.00  0.00     0.117 C 
BRANCH   2   3
ATOM      3  N   UNL A   1      31.356  25.586  26.808  1.00  0.00    -0.354 N 
ATOM      4  C   UNL A   1      31.644  24.264  26.752  1.00  0.00     0.242 C 
ATOM      5  O   UNL A   1      30.758  23.473  27.094  1.00  0.00    -0.273 OA
ATOM      6  H   UNL A   1      30.557  25.821  27.332  1.00  0.00     0.163 HD
BRANCH   4   7
ATOM      7  C   UNL A   1      32.961  23.742  26.151  1.00  0.00     0.175 C 
ATOM      8  N   UNL A   1      32.952  23.124  24.795  1.00  0.00    -0.322 N 
ATOM      9  C   UNL A   1      34.193  22.420  24.403  1.00  0.00     0.089 C 
ATOM     10  C   UNL A   1      33.525  22.767  27.220  1.00  0.00     0.036 C 
ATOM     11  C   UNL A   1      34.607  21.382  25.437  1.00  0.00     0.012 C 
ATOM     12  C   UNL A   1      35.310  23.436  24.074  1.00  0.00     0.025 C 
ATOM     13  C   UNL A   1      34.793  22.035  26.807  1.00  0.00     0.008 C 
ATOM     14  C   UNL A   1      35.860  20.668  24.929  1.00  0.00     0.006 C 
ATOM     15  C   UNL A   1      36.757  22.934  24.113  1.00  0.00     0.002 C 
ATOM     16  C   UNL A   1      37.049  21.608  24.814  1.00  0.00     0.000 C 
BRANCH   8  17
ATOM     17  C   UNL A   1      32.121  23.450  23.708  1.00  0.00     0.284 C 
ATOM     18  O   UNL A   1      31.436  22.585  23.155  1.00  0.00    -0.268 OA
BRANCH  17  19
ATOM     19  C   UNL A   1      32.040  24.842  23.106  1.00  0.00     0.174 C 
ATOM     20  C   UNL A   1      32.774  24.907  21.762  1.00  0.00     0.086 C 
ATOM     21  C   UNL A   1      33.166  25.817  22.867  1.00  0.00     0.086 C 
BRANCH  19  22
ATOM     22  N   UNL A   1      30.655  25.389  23.128  1.00  0.00    -0.345 N 
ATOM     23  H   UNL A   1      30.396  25.693  22.189  1.00  0.00     0.345 HD
ATOM     24  H   UNL A   1      30.615  26.185  23.765  1.00  0.00     0.345 HD
ATOM     25  H   UNL A   1      30.009  24.667  23.442  1.00  0.00     0.345 HD
ENDBRANCH  19  22
ENDBRANCH  17  19
ENDBRANCH   8  17
ENDBRANCH   4   7
ENDBRANCH   2   3
ENDBRANCH   1   2
BRANCH   1  26
ATOM     26  C   UNL A   1      33.556  28.453  27.271  1.00  0.00     0.118 C 
BRANCH  26  27
ATOM     27  N   UNL A   1      33.529  29.894  27.483  1.00  0.00    -0.352 N 
ATOM     28  C   UNL A   1      34.475  30.699  28.060  1.00  0.00     0.251 C 
ATOM     29  H   UNL A   1      32.717  30.352  27.168  1.00  0.00     0.163 HD
ATOM     30  O   UNL A   1      34.199  31.862  28.353  1.00  0.00    -0.269 OA
BRANCH  28  31
ATOM     31  C   UNL A   1      35.816  30.155  28.344  1.00  0.00     0.039 A 
ATOM     32  C   UNL A   1      36.795  30.207  27.351  1.00  0.00     0.014 A 
ATOM     33  C   UNL A   1      36.109  29.614  29.600  1.00  0.00     0.014 A 
ATOM     34  C   UNL A   1      38.087  29.766  27.638  1.00  0.00     0.010 A 
ATOM     35  C   UNL A   1      37.416  29.270  29.913  1.00  0.00     0.010 A 
ATOM     36  C   UNL A   1      38.415  29.326  28.931  1.00  0.00    -0.014 A 
BRANCH  36  37
ATOM     37  C   UNL A   1      39.796  28.910  29.277  1.00  0.00     0.031 A 
ATOM     38  C   UNL A   1      40.702  29.855  30.020  1.00  0.00     0.074 A 
ATOM     39  C   UNL A   1      40.253  27.711  28.869  1.00  0.00     0.049 A 
ATOM     40  N   UNL A   1      41.947  29.687  30.386  1.00  0.00    -0.248 NA
ATOM     41  C   UNL A   1      40.145  31.171  30.374  1.00  0.00     0.031 C 
ATOM     42  C   UNL A   1      39.481  26.722  28.113  1.00  0.00     0.029 A 
ATOM     43  N   UNL A   1      41.478  27.117  29.037  1.00  0.00    -0.354 N 
ATOM     44  C   UNL A   1      42.327  30.881  30.989  1.00  0.00     0.074 A 
ATOM     45  C   UNL A   1      41.201  31.782  30.887  1.00  0.00     0.031 C 
ATOM     46  C   UNL A   1      40.234  25.626  27.927  1.00  0.00     0.029 A 
ATOM     47  C   UNL A   1      41.555  25.852  28.504  1.00  0.00     0.049 A 
ATOM     48  H   UNL A   1      42.232  27.555  29.496  1.00  0.00     0.167 HD
ATOM     49  C   UNL A   1      43.499  31.193  31.591  1.00  0.00     0.031 A 
ATOM     50  C   UNL A   1      42.574  24.972  28.484  1.00  0.00     0.031 A 
ATOM     51  C   UNL A   1      44.615  30.289  31.686  1.00  0.00     0.049 A 
ATOM     52  C   UNL A   1      43.878  25.350  29.131  1.00  0.00     0.074 A 
ATOM     53  C   UNL A   1      45.826  30.481  32.328  1.00  0.00     0.029 A 
ATOM     54  N   UNL A   1      44.662  29.026  31.113  1.00  0.00    -0.354 N 
ATOM     55  N   UNL A   1      44.195  26.455  29.763  1.00  0.00    -0.248 NA
ATOM     56  C   UNL A   1      44.957  24.356  29.068  1.00  0.00     0.031 C 
ATOM     57  C   UNL A   1      46.630  29.363  32.082  1.00  0.00     0.029 A 
ATOM     58  C   UNL A   1      45.894  28.442  31.352  1.00  0.00     0.049 A 
ATOM     59  H   UNL A   1      43.926  28.607  30.611  1.00  0.00     0.167 HD
ATOM     60  C   UNL A   1      45.503  26.277  30.202  1.00  0.00     0.074 A 
ATOM     61  C   UNL A   1      45.910  24.954  29.771  1.00  0.00     0.031 C 
ATOM     62  C   UNL A   1      46.290  27.128  30.905  1.00  0.00     0.031 A 
BRANCH  49  63
ATOM     63  C   UNL A   1      43.635  32.584  32.160  1.00  0.00    -0.014 A 
ATOM     64  C   UNL A   1      44.131  33.649  31.384  1.00  0.00     0.010 A 
ATOM     65  C   UNL A   1      43.269  32.828  33.496  1.00  0.00     0.010 A 
ATOM     66  C   UNL A   1      44.328  34.911  31.955  1.00  0.00     0.020 A 
ATOM     67  C   UNL A   1      43.428  34.097  34.059  1.00  0.00     0.020 A 
ATOM     68  C   UNL A   1      43.983  35.123  33.293  1.00  0.00     0.054 A 
BRANCH  68  69
ATOM     69  S   UNL A   1      44.271  36.761  34.014  1.00  0.00     0.124 S 
ATOM     70  O   UNL A   1      45.683  36.978  33.712  1.00  0.00    -0.237 OA
ATOM     71  O   UNL A   1      43.335  37.606  33.276  1.00  0.00    -0.237 OA
ATOM     72  O   UNL A   1      43.958  36.577  35.429  1.00  0.00    -0.744 OA
ENDBRANCH  68  69
ENDBRANCH  49  63
BRANCH  50  73
ATOM     73  C   UNL A   1      42.378  23.631  27.869  1.00  0.00    -0.014 A 
ATOM     74  C   UNL A   1      42.847  23.376  26.569  1.00  0.00     0.010 A 
ATOM     75  C   UNL A   1      41.763  22.591  28.591  1.00  0.00     0.010 A 
ATOM     76  C   UNL A   1      42.705  22.108  25.999  1.00  0.00     0.020 A 
ATOM     77  C   UNL A   1      41.644  21.313  28.035  1.00  0.00     0.020 A 
ATOM     78  C   UNL A   1      42.112  21.082  26.741  1.00  0.00     0.054 A 
BRANCH  78  79
ATOM     79  S   UNL A   1      42.010  19.425  26.007  1.00  0.00     0.124 S 
ATOM     80  O   UNL A   1      42.850  19.565  24.821  1.00  0.00    -0.237 OA
ATOM     81  O   UNL A   1      42.549  18.579  27.069  1.00  0.00    -0.237 OA
ATOM     82  O   UNL A   1      40.583  19.253  25.748  1.00  0.00    -0.744 OA
ENDBRANCH  78  79
ENDBRANCH  50  73
BRANCH  62  83
ATOM     83  C   UNL A   1      47.667  26.647  31.283  1.00  0.00    -0.014 A 
ATOM     84  C   UNL A   1      47.898  25.955  32.485  1.00  0.00     0.010 A 
ATOM     85  C   UNL A   1      48.738  26.846  30.392  1.00  0.00     0.010 A 
ATOM     86  C   UNL A   1      49.181  25.499  32.802  1.00  0.00     0.020 A 
ATOM     87  C   UNL A   1      50.015  26.363  30.689  1.00  0.00     0.020 A 
ATOM     88  C   UNL A   1      50.230  25.704  31.901  1.00  0.00     0.054 A 
BRANCH  88  89
ATOM     89  S   UNL A   1      51.874  25.060  32.316  1.00  0.00     0.124 S 
ATOM     90  O   UNL A   1      52.091  25.617  33.648  1.00  0.00    -0.237 OA
ATOM     91  O   UNL A   1      51.673  23.613  32.264  1.00  0.00    -0.237 OA
ATOM     92  O   UNL A   1      52.734  25.602  31.266  1.00  0.00    -0.744 OA
ENDBRANCH  88  89
ENDBRANCH  62  83
ENDBRANCH  36  37
ENDBRANCH  28  31
ENDBRANCH  26  27
ENDBRANCH   1  26
TORSDOF 16
ENDMDL
MODEL 2
REMARK VINA RESULT:     -11.3      2.598      9.316
REMARK SMILES [NH3+]C1(C(=O)N2[C@@H](C(=O)NCCCNC(=O)c3ccc(-c4c5nc(c(-c6ccc(S(=O)(=O)[O-])cc6)c6ccc([nH]6)c(-c6ccc(S(=O)(=O)[O-])cc6)c6nc(c(-c7ccc(S(=O)(=O)[O-])cc7)c7ccc4[nH]7)C=C6)C=C5)cc3)CC[C@@H]3CCCC[C@@H]32)CC1
REMARK SMILES IDX 11 1 10 2 9 3 7 4 8 5 6 7 5 8 83 9 76 10 78 11 82 12 77 13
REMARK SMILES IDX 79 14 81 15 80 16 3 17 4 18 2 19 84 20 85 21 1 22 12 26
REMARK SMILES IDX 13 27 14 28 15 30 16 31 17 32 75 33 18 34 74 35 19 36 20 37
REMARK SMILES IDX 21 38 68 39 22 40 73 41 67 42 69 43 23 44 72 45 66 46 65 47
REMARK SMILES IDX 24 49 54 50 35 51 53 52 36 53 39 54 52 55 70 56 37 57 38 58
REMARK SMILES IDX 51 60 71 61 40 62 25 63 26 64 34 65 27 66 33 67 28 68 29 69
REMARK SMILES IDX 30 70 31 71 32 72 55 73 56 74 64 75 57 76 63 77 58 78 59 79
REMARK SMILES IDX 60 80 61 81 62 82 41 83 42 84 50 85 43 86 49 87 44 88 45 89
REMARK SMILES IDX 46 90 47 91 48 92
REMARK H PARENT 9 6 1 23 1 24 1 25 13 29 69 48 39 59
REMARK Flexibility Score: inf
ROOT
ATOM      1  C   UNL A   1      35.917  23.146  24.050  1.00  0.00     0.042 C 
ENDROOT
BRANCH   1   2
ATOM      2  C   UNL A   1      34.539  23.726  24.326  1.00  0.00     0.117 C 
BRANCH   2   3
ATOM      3  N   UNL A   1      34.000  24.334  23.125  1.00  0.00    -0.354 N 
ATOM      4  C   UNL A   1      33.483  25.573  22.949  1.00  0.00     0.242 C 
ATOM      5  O   UNL A   1      32.825  25.775  21.922  1.00  0.00    -0.273 OA
ATOM      6  H   UNL A   1      34.011  23.764  22.323  1.00  0.00     0.163 HD
BRANCH   4   7
ATOM      7  C   UNL A   1      33.575  26.656  24.039  1.00  0.00     0.175 C 
ATOM      8  N   UNL A   1      32.481  26.776  25.044  1.00  0.00    -0.322 N 
ATOM      9  C   UNL A   1      32.516  27.992  25.886  1.00  0.00     0.089 C 
ATOM     10  C   UNL A   1      33.784  27.983  23.260  1.00  0.00     0.036 C 
ATOM     11  C   UNL A   1      32.582  29.261  25.047  1.00  0.00     0.012 C 
ATOM     12  C   UNL A   1      33.645  27.893  26.935  1.00  0.00     0.025 C 
ATOM     13  C   UNL A   1      33.804  29.233  24.128  1.00  0.00     0.008 C 
ATOM     14  C   UNL A   1      32.557  30.465  25.989  1.00  0.00     0.006 C 
ATOM     15  C   UNL A   1      34.144  29.199  27.564  1.00  0.00     0.002 C 
ATOM     16  C   UNL A   1      33.785  30.518  26.883  1.00  0.00     0.000 C 
BRANCH   8  17
ATOM     17  C   UNL A   1      31.686  25.745  25.575  1.00  0.00     0.284 C 
ATOM     18  O   UNL A   1      32.183  24.866  26.285  1.00  0.00    -0.268 OA
BRANCH  17  19
ATOM     19  C   UNL A   1      30.203  25.597  25.283  1.00  0.00     0.174 C 
ATOM     20  C   UNL A   1      29.968  25.084  23.858  1.00  0.00     0.086 C 
ATOM     21  C   UNL A   1      29.371  26.372  24.291  1.00  0.00     0.086 C 
BRANCH  19  22
ATOM     22  N   UNL A   1      29.479  24.881  26.369  1.00  0.00    -0.345 N 
ATOM     23  H   UNL A   1      29.629  25.366  27.254  1.00  0.00     0.345 HD
ATOM     24  H   UNL A   1      29.834  23.927  26.441  1.00  0.00     0.345 HD
ATOM     25  H   UNL A   1      28.483  24.860  26.157  1.00  0.00     0.345 HD
ENDBRANCH  19  22
ENDBRANCH  17  19
ENDBRANCH   8  17
ENDBRANCH   4   7
ENDBRANCH   2   3
ENDBRANCH   1   2
BRANCH   1  26
ATOM     26  C   UNL A   1      37.003  23.740  24.934  1.00  0.00     0.118 C 
BRANCH  26  27
ATOM     27  N   UNL A   1      37.960  22.737  25.383  1.00  0.00    -0.352 N 
ATOM     28  C   UNL A   1      39.114  22.907  26.102  1.00  0.00     0.251 C 
ATOM     29  H   UNL A   1      37.746  21.809  25.135  1.00  0.00     0.163 HD
ATOM     30  O   UNL A   1      39.913  21.978  26.211  1.00  0.00    -0.269 OA
BRANCH  28  31
ATOM     31  C   UNL A   1      39.396  24.213  26.724  1.00  0.00     0.039 A 
ATOM     32  C   UNL A   1      38.988  24.443  28.039  1.00  0.00     0.014 A 
ATOM     33  C   UNL A   1      40.083  25.202  26.013  1.00  0.00     0.014 A 
ATOM     34  C   UNL A   1      39.320  25.647  28.660  1.00  0.00     0.010 A 
ATOM     35  C   UNL A   1      40.498  26.355  26.664  1.00  0.00     0.010 A 
ATOM     36  C   UNL A   1      40.107  26.598  27.988  1.00  0.00    -0.014 A 
BRANCH  36  37
ATOM     37  C   UNL A   1      40.525  27.859  28.649  1.00  0.00     0.031 A 
ATOM     38  C   UNL A   1      41.918  27.992  29.203  1.00  0.00     0.074 A 
ATOM     39  C   UNL A   1      39.633  28.856  28.804  1.00  0.00     0.049 A 
ATOM     40  N   UNL A   1      42.460  28.998  29.839  1.00  0.00    -0.248 NA
ATOM     41  C   UNL A   1      42.809  26.830  29.047  1.00  0.00     0.031 C 
ATOM     42  C   UNL A   1      38.244  28.833  28.340  1.00  0.00     0.029 A 
ATOM     43  N   UNL A   1      39.766  30.088  29.393  1.00  0.00    -0.354 N 
ATOM     44  C   UNL A   1      43.742  28.583  30.178  1.00  0.00     0.074 A 
ATOM     45  C   UNL A   1      43.876  27.215  29.730  1.00  0.00     0.031 C 
ATOM     46  C   UNL A   1      37.669  30.014  28.617  1.00  0.00     0.029 A 
ATOM     47  C   UNL A   1      38.629  30.858  29.321  1.00  0.00     0.049 A 
ATOM     48  H   UNL A   1      40.596  30.393  29.826  1.00  0.00     0.167 HD
ATOM     49  C   UNL A   1      44.728  29.283  30.789  1.00  0.00     0.031 A 
ATOM     50  C   UNL A   1      38.386  32.104  29.770  1.00  0.00     0.031 A 
ATOM     51  C   UNL A   1      44.585  30.645  31.233  1.00  0.00     0.049 A 
ATOM     52  C   UNL A   1      39.484  32.853  30.474  1.00  0.00     0.074 A 
ATOM     53  C   UNL A   1      45.538  31.467  31.807  1.00  0.00     0.029 A 
ATOM     54  N   UNL A   1      43.411  31.381  31.163  1.00  0.00    -0.354 N 
ATOM     55  N   UNL A   1      40.716  32.473  30.720  1.00  0.00    -0.248 NA
ATOM     56  C   UNL A   1      39.159  34.202  30.953  1.00  0.00     0.031 C 
ATOM     57  C   UNL A   1      44.920  32.675  32.149  1.00  0.00     0.029 A 
ATOM     58  C   UNL A   1      43.602  32.634  31.719  1.00  0.00     0.049 A 
ATOM     59  H   UNL A   1      42.565  31.058  30.775  1.00  0.00     0.167 HD
ATOM     60  C   UNL A   1      41.325  33.550  31.355  1.00  0.00     0.074 A 
ATOM     61  C   UNL A   1      40.327  34.598  31.444  1.00  0.00     0.031 C 
ATOM     62  C   UNL A   1      42.595  33.663  31.814  1.00  0.00     0.031 A 
BRANCH  49  63
ATOM     63  C   UNL A   1      46.032  28.567  31.039  1.00  0.00    -0.014 A 
ATOM     64  C   UNL A   1      46.257  27.844  32.226  1.00  0.00     0.010 A 
ATOM     65  C   UNL A   1      47.053  28.623  30.073  1.00  0.00     0.010 A 
ATOM     66  C   UNL A   1      47.502  27.258  32.474  1.00  0.00     0.020 A 
ATOM     67  C   UNL A   1      48.286  28.005  30.301  1.00  0.00     0.020 A 
ATOM     68  C   UNL A   1      48.512  27.351  31.512  1.00  0.00     0.054 A 
BRANCH  68  69
ATOM     69  S   UNL A   1      50.124  26.602  31.870  1.00  0.00     0.124 S 
ATOM     70  O   UNL A   1      50.690  27.551  32.826  1.00  0.00    -0.237 OA
ATOM     71  O   UNL A   1      49.757  25.300  32.421  1.00  0.00    -0.237 OA
ATOM     72  O   UNL A   1      50.784  26.562  30.568  1.00  0.00    -0.744 OA
ENDBRANCH  68  69
ENDBRANCH  49  63
BRANCH  50  73
ATOM     73  C   UNL A   1      37.061  32.733  29.521  1.00  0.00    -0.014 A 
ATOM     74  C   UNL A   1      36.050  32.657  30.495  1.00  0.00     0.010 A 
ATOM     75  C   UNL A   1      36.814  33.446  28.333  1.00  0.00     0.010 A 
ATOM     76  C   UNL A   1      34.816  33.280  30.287  1.00  0.00     0.020 A 
ATOM     77  C   UNL A   1      35.591  34.094  28.133  1.00  0.00     0.020 A 
ATOM     78  C   UNL A   1      34.599  34.002  29.111  1.00  0.00     0.054 A 
BRANCH  78  79
ATOM     79  S   UNL A   1      33.017  34.867  28.900  1.00  0.00     0.124 S 
ATOM     80  O   UNL A   1      32.337  34.024  27.922  1.00  0.00    -0.237 OA
ATOM     81  O   UNL A   1      32.464  34.842  30.252  1.00  0.00    -0.237 OA
ATOM     82  O   UNL A   1      33.411  36.190  28.421  1.00  0.00    -0.744 OA
ENDBRANCH  78  79
ENDBRANCH  50  73
BRANCH  62  83
ATOM     83  C   UNL A   1      42.996  34.979  32.429  1.00  0.00    -0.014 A 
ATOM     84  C   UNL A   1      43.615  35.986  31.668  1.00  0.00     0.010 A 
ATOM     85  C   UNL A   1      42.696  35.229  33.781  1.00  0.00     0.010 A 
ATOM     86  C   UNL A   1      43.956  37.207  32.258  1.00  0.00     0.020 A 
ATOM     87  C   UNL A   1      43.005  36.460  34.366  1.00  0.00     0.020 A 
ATOM     88  C   UNL A   1      43.647  37.436  33.602  1.00  0.00     0.054 A 
BRANCH  88  89
ATOM     89  S   UNL A   1      44.058  39.046  34.329  1.00  0.00     0.124 S 
ATOM     90  O   UNL A   1      42.945  39.876  33.876  1.00  0.00    -0.237 OA
ATOM     91  O   UNL A   1      44.082  38.754  35.761  1.00  0.00    -0.237 OA
ATOM     92  O   UNL A   1      45.356  39.371  33.743  1.00  0.00    -0.744 OA
ENDBRANCH  88  89
ENDBRANCH  62  83
ENDBRANCH  36  37
ENDBRANCH  28  31
ENDBRANCH  26  27
ENDBRANCH   1  26
TORSDOF 16
ENDMDL
MODEL 3
REMARK VINA RESULT:     -11.1      1.054      1.986
REMARK SMILES [NH3+]C1(C(=O)N2[C@@H](C(=O)NCCCNC(=O)c3ccc(-c4c5nc(c(-c6ccc(S(=O)(=O)[O-])cc6)c6ccc([nH]6)c(-c6ccc(S(=O)(=O)[O-])cc6)c6nc(c(-c7ccc(S(=O)(=O)[O-])cc7)c7ccc4[nH]7)C=C6)C=C5)cc3)CC[C@@H]3CCCC[C@@H]32)CC1
REMARK SMILES IDX 11 1 10 2 9 3 7 4 8 5 6 7 5 8 83 9 76 10 78 11 82 12 77 13
REMARK SMILES IDX 79 14 81 15 80 16 3 17 4 18 2 19 84 20 85 21 1 22 12 26
REMARK SMILES IDX 13 27 14 28 15 30 16 31 17 32 75 33 18 34 74 35 19 36 20 37
REMARK SMILES IDX 21 38 68 39 22 40 73 41 67 42 69 43 23 44 72 45 66 46 65 47
REMARK SMILES IDX 24 49 54 50 35 51 53 52 36 53 39 54 52 55 70 56 37 57 38 58
REMARK SMILES IDX 51 60 71 61 40 62 25 63 26 64 34 65 27 66 33 67 28 68 29 69
REMARK SMILES IDX 30 70 31 71 32 72 55 73 56 74 64 75 57 76 63 77 58 78 59 79
REMARK SMILES IDX 60 80 61 81 62 82 41 83 42 84 50 85 43 86 49 87 44 88 45 89
REMARK SMILES IDX 46 90 47 91 48 92
REMARK H PARENT 9 6 1 23 1 24 1 25 13 29 69 48 39 59
REMARK Flexibility Score: inf
ROOT
ATOM      1  C   UNL A   1      33.709  28.262  25.171  1.00  0.00     0.042 C 
ENDROOT
BRANCH   1   2
ATOM      2  C   UNL A   1      33.785  26.823  24.686  1.00  0.00     0.117 C 
BRANCH   2   3
ATOM      3  N   UNL A   1      33.486  26.754  23.269  1.00  0.00    -0.354 N 
ATOM      4  C   UNL A   1      33.415  25.671  22.459  1.00  0.00     0.242 C 
ATOM      5  O   UNL A   1      33.430  25.870  21.239  1.00  0.00    -0.273 OA
ATOM      6  H   UNL A   1      33.311  27.618  22.833  1.00  0.00     0.163 HD
BRANCH   4   7
ATOM      7  C   UNL A   1      33.460  24.236  23.012  1.00  0.00     0.175 C 
ATOM      8  N   UNL A   1      32.464  23.817  24.038  1.00  0.00    -0.322 N 
ATOM      9  C   UNL A   1      32.733  22.522  24.702  1.00  0.00     0.089 C 
ATOM     10  C   UNL A   1      34.915  24.053  23.520  1.00  0.00     0.036 C 
ATOM     11  C   UNL A   1      34.134  22.470  25.296  1.00  0.00     0.012 C 
ATOM     12  C   UNL A   1      32.432  21.349  23.742  1.00  0.00     0.025 C 
ATOM     13  C   UNL A   1      35.185  22.727  24.215  1.00  0.00     0.008 C 
ATOM     14  C   UNL A   1      34.308  21.128  26.006  1.00  0.00     0.006 C 
ATOM     15  C   UNL A   1      33.079  19.995  24.054  1.00  0.00     0.002 C 
ATOM     16  C   UNL A   1      34.245  19.956  25.040  1.00  0.00     0.000 C 
BRANCH   8  17
ATOM     17  C   UNL A   1      31.133  24.253  24.172  1.00  0.00     0.284 C 
ATOM     18  O   UNL A   1      30.367  24.249  23.205  1.00  0.00    -0.268 OA
BRANCH  17  19
ATOM     19  C   UNL A   1      30.559  24.801  25.467  1.00  0.00     0.174 C 
ATOM     20  C   UNL A   1      29.836  26.132  25.233  1.00  0.00     0.086 C 
ATOM     21  C   UNL A   1      30.958  26.057  26.201  1.00  0.00     0.086 C 
BRANCH  19  22
ATOM     22  N   UNL A   1      29.809  23.770  26.236  1.00  0.00    -0.345 N 
ATOM     23  H   UNL A   1      30.346  23.507  27.064  1.00  0.00     0.345 HD
ATOM     24  H   UNL A   1      29.664  22.948  25.650  1.00  0.00     0.345 HD
ATOM     25  H   UNL A   1      28.908  24.148  26.522  1.00  0.00     0.345 HD
ENDBRANCH  19  22
ENDBRANCH  17  19
ENDBRANCH   8  17
ENDBRANCH   4   7
ENDBRANCH   2   3
ENDBRANCH   1   2
BRANCH   1  26
ATOM     26  C   UNL A   1      33.764  28.384  26.686  1.00  0.00     0.118 C 
BRANCH  26  27
ATOM     27  N   UNL A   1      33.640  29.765  27.134  1.00  0.00    -0.352 N 
ATOM     28  C   UNL A   1      34.509  30.509  27.890  1.00  0.00     0.251 C 
ATOM     29  H   UNL A   1      32.818  30.228  26.854  1.00  0.00     0.163 HD
ATOM     30  O   UNL A   1      34.149  31.589  28.356  1.00  0.00    -0.269 OA
BRANCH  28  31
ATOM     31  C   UNL A   1      35.865  29.994  28.154  1.00  0.00     0.039 A 
ATOM     32  C   UNL A   1      36.834  30.085  27.154  1.00  0.00     0.014 A 
ATOM     33  C   UNL A   1      36.182  29.441  29.398  1.00  0.00     0.014 A 
ATOM     34  C   UNL A   1      38.138  29.672  27.423  1.00  0.00     0.010 A 
ATOM     35  C   UNL A   1      37.499  29.125  29.696  1.00  0.00     0.010 A 
ATOM     36  C   UNL A   1      38.489  29.221  28.707  1.00  0.00    -0.014 A 
BRANCH  36  37
ATOM     37  C   UNL A   1      39.883  28.835  29.035  1.00  0.00     0.031 A 
ATOM     38  C   UNL A   1      40.789  29.812  29.734  1.00  0.00     0.074 A 
ATOM     39  C   UNL A   1      40.349  27.631  28.649  1.00  0.00     0.049 A 
ATOM     40  N   UNL A   1      42.044  29.672  30.077  1.00  0.00    -0.248 NA
ATOM     41  C   UNL A   1      40.220  31.129  30.064  1.00  0.00     0.031 C 
ATOM     42  C   UNL A   1      39.576  26.612  27.936  1.00  0.00     0.029 A 
ATOM     43  N   UNL A   1      41.586  27.060  28.807  1.00  0.00    -0.354 N 
ATOM     44  C   UNL A   1      42.418  30.887  30.640  1.00  0.00     0.074 A 
ATOM     45  C   UNL A   1      41.277  31.769  30.538  1.00  0.00     0.031 C 
ATOM     46  C   UNL A   1      40.342  25.522  27.764  1.00  0.00     0.029 A 
ATOM     47  C   UNL A   1      41.671  25.783  28.307  1.00  0.00     0.049 A 
ATOM     48  H   UNL A   1      42.342  27.521  29.239  1.00  0.00     0.167 HD
ATOM     49  C   UNL A   1      43.597  31.232  31.210  1.00  0.00     0.031 A 
ATOM     50  C   UNL A   1      42.702  24.917  28.289  1.00  0.00     0.031 A 
ATOM     51  C   UNL A   1      44.728  30.347  31.306  1.00  0.00     0.049 A 
ATOM     52  C   UNL A   1      44.013  25.331  28.899  1.00  0.00     0.074 A 
ATOM     53  C   UNL A   1      45.949  30.574  31.917  1.00  0.00     0.029 A 
ATOM     54  N   UNL A   1      44.782  29.070  30.766  1.00  0.00    -0.354 N 
ATOM     55  N   UNL A   1      44.327  26.457  29.494  1.00  0.00    -0.248 NA
ATOM     56  C   UNL A   1      45.106  24.352  28.839  1.00  0.00     0.031 C 
ATOM     57  C   UNL A   1      46.764  29.461  31.684  1.00  0.00     0.029 A 
ATOM     58  C   UNL A   1      46.028  28.511  30.994  1.00  0.00     0.049 A 
ATOM     59  H   UNL A   1      44.042  28.627  30.290  1.00  0.00     0.167 HD
ATOM     60  C   UNL A   1      45.646  26.310  29.911  1.00  0.00     0.074 A 
ATOM     61  C   UNL A   1      46.064  24.982  29.506  1.00  0.00     0.031 C 
ATOM     62  C   UNL A   1      46.435  27.191  30.574  1.00  0.00     0.031 A 
BRANCH  49  63
ATOM     63  C   UNL A   1      43.724  32.639  31.738  1.00  0.00    -0.014 A 
ATOM     64  C   UNL A   1      43.430  32.950  33.080  1.00  0.00     0.010 A 
ATOM     65  C   UNL A   1      44.137  33.672  30.876  1.00  0.00     0.010 A 
ATOM     66  C   UNL A   1      43.474  34.274  33.528  1.00  0.00     0.020 A 
ATOM     67  C   UNL A   1      44.219  34.991  31.330  1.00  0.00     0.020 A 
ATOM     68  C   UNL A   1      43.859  35.287  32.646  1.00  0.00     0.054 A 
BRANCH  68  69
ATOM     69  S   UNL A   1      43.883  36.998  33.246  1.00  0.00     0.124 S 
ATOM     70  O   UNL A   1      45.130  37.032  34.007  1.00  0.00    -0.237 OA
ATOM     71  O   UNL A   1      43.884  37.772  32.007  1.00  0.00    -0.237 OA
ATOM     72  O   UNL A   1      42.664  37.103  34.043  1.00  0.00    -0.744 OA
ENDBRANCH  68  69
ENDBRANCH  49  63
BRANCH  50  73
ATOM     73  C   UNL A   1      42.514  23.557  27.714  1.00  0.00    -0.014 A 
ATOM     74  C   UNL A   1      42.870  23.300  26.379  1.00  0.00     0.010 A 
ATOM     75  C   UNL A   1      42.021  22.503  28.505  1.00  0.00     0.010 A 
ATOM     76  C   UNL A   1      42.736  22.017  25.843  1.00  0.00     0.020 A 
ATOM     77  C   UNL A   1      41.911  21.211  27.981  1.00  0.00     0.020 A 
ATOM     78  C   UNL A   1      42.265  20.978  26.651  1.00  0.00     0.054 A 
BRANCH  78  79
ATOM     79  S   UNL A   1      42.175  19.305  25.954  1.00  0.00     0.124 S 
ATOM     80  O   UNL A   1      40.746  19.161  25.693  1.00  0.00    -0.237 OA
ATOM     81  O   UNL A   1      43.027  19.412  24.773  1.00  0.00    -0.237 OA
ATOM     82  O   UNL A   1      42.705  18.461  27.022  1.00  0.00    -0.744 OA
ENDBRANCH  78  79
ENDBRANCH  50  73
BRANCH  62  83
ATOM     83  C   UNL A   1      47.826  26.740  30.936  1.00  0.00    -0.014 A 
ATOM     84  C   UNL A   1      48.920  26.981  30.086  1.00  0.00     0.010 A 
ATOM     85  C   UNL A   1      48.048  26.113  32.176  1.00  0.00     0.010 A 
ATOM     86  C   UNL A   1      50.204  26.573  30.455  1.00  0.00     0.020 A 
ATOM     87  C   UNL A   1      49.336  25.733  32.564  1.00  0.00     0.020 A 
ATOM     88  C   UNL A   1      50.404  25.953  31.693  1.00  0.00     0.054 A 
BRANCH  88  89
ATOM     89  S   UNL A   1      52.088  25.477  32.168  1.00  0.00     0.124 S 
ATOM     90  O   UNL A   1      52.285  26.244  33.395  1.00  0.00    -0.237 OA
ATOM     91  O   UNL A   1      51.975  24.030  32.342  1.00  0.00    -0.237 OA
ATOM     92  O   UNL A   1      52.903  25.901  31.032  1.00  0.00    -0.744 OA
ENDBRANCH  88  89
ENDBRANCH  62  83
ENDBRANCH  36  37
ENDBRANCH  28  31
ENDBRANCH  26  27
ENDBRANCH   1  26
TORSDOF 16
ENDMDL
