MODEL 1
REMARK VINA RESULT:     -10.6      0.000      0.000
REMARK SMILES C[C@H]([NH3+])c1ccc(F)cc1OCC(C)(C)C(=O)NCCCNC(=O)c1ccc(-c2c3nc(c(-c4ccc(S(=O)(=O)[O-])cc4)c4ccc([nH]4)c(-c4ccc(S(=O)(=O)[O-])cc4)c4nc(c(-c5ccc(S(=O)(=O)[O-])cc5)c5ccc2[nH]5)C=C4)C=C3)cc1
REMARK SMILES IDX 19 1 18 2 16 3 17 4 13 6 14 7 15 8 12 9 11 10 10 11 4 12
REMARK SMILES IDX 5 13 6 14 9 15 7 16 8 17 2 18 1 19 3 20 20 24 21 25 22 26
REMARK SMILES IDX 23 27 24 29 25 30 26 31 84 32 27 33 83 34 28 35 29 36 30 37
REMARK SMILES IDX 77 38 31 39 82 40 76 41 78 42 32 43 81 44 75 45 74 46 33 48
REMARK SMILES IDX 63 49 44 50 62 51 45 52 48 53 61 54 79 55 46 56 47 57 60 59
REMARK SMILES IDX 80 60 49 61 34 62 35 63 43 64 36 65 42 66 37 67 38 68 39 69
REMARK SMILES IDX 40 70 41 71 64 72 65 73 73 74 66 75 72 76 67 77 68 78 69 79
REMARK SMILES IDX 70 80 71 81 50 82 51 83 59 84 52 85 58 86 53 87 54 88 55 89
REMARK SMILES IDX 56 90 57 91
REMARK H PARENT 18 5 3 21 3 22 3 23 22 28 78 47 48 58
REMARK Flexibility Score: inf
ROOT
ATOM      1  C   UNL A   1      31.558  27.015  26.462  1.00  0.00     0.117 C 
ENDROOT
BRANCH   1   2
ATOM      2  N   UNL A   1      31.546  27.577  25.114  1.00  0.00    -0.355 N 
ATOM      3  C   UNL A   1      32.102  27.088  23.956  1.00  0.00     0.229 C 
ATOM      4  O   UNL A   1      31.837  27.673  22.906  1.00  0.00    -0.274 OA
ATOM      5  H   UNL A   1      31.069  28.433  25.021  1.00  0.00     0.163 HD
BRANCH   3   6
ATOM      6  C   UNL A   1      33.048  25.875  24.023  1.00  0.00     0.077 C 
ATOM      7  C   UNL A   1      34.105  26.173  25.108  1.00  0.00     0.025 C 
ATOM      8  C   UNL A   1      33.651  25.726  22.600  1.00  0.00     0.025 C 
BRANCH   6   9
ATOM      9  C   UNL A   1      32.262  24.539  24.252  1.00  0.00     0.245 C 
BRANCH   9  10
ATOM     10  O   UNL A   1      32.614  23.429  23.442  1.00  0.00    -0.492 OA
BRANCH  10  11
ATOM     11  C   UNL A   1      33.303  22.313  23.822  1.00  0.00     0.131 A 
ATOM     12  C   UNL A   1      34.629  22.120  24.286  1.00  0.00     0.051 A 
ATOM     13  C   UNL A   1      34.964  20.831  24.781  1.00  0.00     0.017 A 
ATOM     14  C   UNL A   1      34.041  19.787  24.827  1.00  0.00     0.040 A 
ATOM     15  C   UNL A   1      32.408  21.225  23.817  1.00  0.00     0.086 A 
ATOM     16  C   UNL A   1      32.771  19.990  24.327  1.00  0.00     0.126 A 
ATOM     17  F   UNL A   1      31.875  18.996  24.361  1.00  0.00    -0.207 F 
BRANCH  12  18
ATOM     18  C   UNL A   1      35.721  23.182  24.349  1.00  0.00     0.212 C 
ATOM     19  C   UNL A   1      36.783  22.992  23.270  1.00  0.00     0.081 C 
BRANCH  18  20
ATOM     20  N   UNL A   1      36.378  23.277  25.663  1.00  0.00    -0.351 N 
ATOM     21  H   UNL A   1      36.052  22.520  26.263  1.00  0.00     0.345 HD
ATOM     22  H   UNL A   1      36.149  24.175  26.093  1.00  0.00     0.345 HD
ATOM     23  H   UNL A   1      37.388  23.206  25.544  1.00  0.00     0.345 HD
ENDBRANCH  18  20
ENDBRANCH  12  18
ENDBRANCH  10  11
ENDBRANCH   9  10
ENDBRANCH   6   9
ENDBRANCH   3   6
ENDBRANCH   1   2
BRANCH   1  24
ATOM     24  C   UNL A   1      31.964  28.005  27.524  1.00  0.00     0.042 C 
BRANCH  24  25
ATOM     25  C   UNL A   1      33.322  28.606  27.240  1.00  0.00     0.118 C 
BRANCH  25  26
ATOM     26  N   UNL A   1      33.373  30.039  27.527  1.00  0.00    -0.352 N 
ATOM     27  C   UNL A   1      34.380  30.783  28.098  1.00  0.00     0.251 C 
ATOM     28  H   UNL A   1      32.569  30.547  27.273  1.00  0.00     0.163 HD
ATOM     29  O   UNL A   1      34.182  31.938  28.441  1.00  0.00    -0.269 OA
BRANCH  27  30
ATOM     30  C   UNL A   1      35.693  30.143  28.311  1.00  0.00     0.039 A 
ATOM     31  C   UNL A   1      36.643  30.157  27.289  1.00  0.00     0.014 A 
ATOM     32  C   UNL A   1      35.998  29.600  29.560  1.00  0.00     0.014 A 
ATOM     33  C   UNL A   1      37.933  29.699  27.557  1.00  0.00     0.010 A 
ATOM     34  C   UNL A   1      37.310  29.284  29.861  1.00  0.00     0.010 A 
ATOM     35  C   UNL A   1      38.287  29.305  28.857  1.00  0.00    -0.014 A 
BRANCH  35  36
ATOM     36  C   UNL A   1      39.662  28.874  29.202  1.00  0.00     0.031 A 
ATOM     37  C   UNL A   1      40.595  29.846  29.875  1.00  0.00     0.074 A 
ATOM     38  C   UNL A   1      40.101  27.659  28.819  1.00  0.00     0.049 A 
ATOM     39  N   UNL A   1      41.861  29.705  30.169  1.00  0.00    -0.248 NA
ATOM     40  C   UNL A   1      40.046  31.170  30.215  1.00  0.00     0.031 C 
ATOM     41  C   UNL A   1      39.316  26.662  28.085  1.00  0.00     0.029 A 
ATOM     42  N   UNL A   1      41.323  27.060  28.985  1.00  0.00    -0.354 N 
ATOM     43  C   UNL A   1      42.264  30.932  30.681  1.00  0.00     0.074 A 
ATOM     44  C   UNL A   1      41.131  31.823  30.598  1.00  0.00     0.031 C 
ATOM     45  C   UNL A   1      40.064  25.563  27.897  1.00  0.00     0.029 A 
ATOM     46  C   UNL A   1      41.390  25.791  28.461  1.00  0.00     0.049 A 
ATOM     47  H   UNL A   1      42.080  27.497  29.435  1.00  0.00     0.167 HD
ATOM     48  C   UNL A   1      43.464  31.280  31.204  1.00  0.00     0.031 A 
ATOM     49  C   UNL A   1      42.408  24.909  28.439  1.00  0.00     0.031 A 
ATOM     50  C   UNL A   1      44.570  30.374  31.325  1.00  0.00     0.049 A 
ATOM     51  C   UNL A   1      43.709  25.287  29.085  1.00  0.00     0.074 A 
ATOM     52  C   UNL A   1      45.796  30.586  31.927  1.00  0.00     0.029 A 
ATOM     53  N   UNL A   1      44.579  29.074  30.839  1.00  0.00    -0.354 N 
ATOM     54  N   UNL A   1      44.047  26.424  29.650  1.00  0.00    -0.248 NA
ATOM     55  C   UNL A   1      44.761  24.263  29.109  1.00  0.00     0.031 C 
ATOM     56  C   UNL A   1      46.564  29.426  31.767  1.00  0.00     0.029 A 
ATOM     57  C   UNL A   1      45.796  28.477  31.109  1.00  0.00     0.049 A 
ATOM     58  H   UNL A   1      43.828  28.642  30.370  1.00  0.00     0.167 HD
ATOM     59  C   UNL A   1      45.346  26.246  30.111  1.00  0.00     0.074 A 
ATOM     60  C   UNL A   1      45.724  24.887  29.775  1.00  0.00     0.031 C 
ATOM     61  C   UNL A   1      46.153  27.126  30.755  1.00  0.00     0.031 A 
BRANCH  48  62
ATOM     62  C   UNL A   1      43.623  32.702  31.675  1.00  0.00    -0.014 A 
ATOM     63  C   UNL A   1      44.068  33.714  30.803  1.00  0.00     0.010 A 
ATOM     64  C   UNL A   1      43.340  33.030  33.013  1.00  0.00     0.010 A 
ATOM     65  C   UNL A   1      44.292  35.009  31.277  1.00  0.00     0.020 A 
ATOM     66  C   UNL A   1      43.532  34.332  33.482  1.00  0.00     0.020 A 
ATOM     67  C   UNL A   1      44.033  35.307  32.617  1.00  0.00     0.054 A 
BRANCH  67  68
ATOM     68  S   UNL A   1      44.344  36.993  33.211  1.00  0.00     0.124 S 
ATOM     69  O   UNL A   1      44.756  37.671  31.985  1.00  0.00    -0.237 OA
ATOM     70  O   UNL A   1      43.044  37.392  33.743  1.00  0.00    -0.237 OA
ATOM     71  O   UNL A   1      45.394  36.817  34.211  1.00  0.00    -0.744 OA
ENDBRANCH  67  68
ENDBRANCH  48  62
BRANCH  49  72
ATOM     72  C   UNL A   1      42.204  23.572  27.819  1.00  0.00    -0.014 A 
ATOM     73  C   UNL A   1      42.648  23.322  26.509  1.00  0.00     0.010 A 
ATOM     74  C   UNL A   1      41.626  22.524  28.557  1.00  0.00     0.010 A 
ATOM     75  C   UNL A   1      42.519  22.048  25.948  1.00  0.00     0.020 A 
ATOM     76  C   UNL A   1      41.516  21.243  28.009  1.00  0.00     0.020 A 
ATOM     77  C   UNL A   1      41.962  21.013  26.705  1.00  0.00     0.054 A 
BRANCH  77  78
ATOM     78  S   UNL A   1      41.892  19.345  25.992  1.00  0.00     0.124 S 
ATOM     79  O   UNL A   1      42.451  18.532  27.067  1.00  0.00    -0.237 OA
ATOM     80  O   UNL A   1      40.463  19.170  25.742  1.00  0.00    -0.237 OA
ATOM     81  O   UNL A   1      42.716  19.453  24.791  1.00  0.00    -0.744 OA
ENDBRANCH  77  78
ENDBRANCH  49  72
BRANCH  61  82
ATOM     82  C   UNL A   1      47.518  26.642  31.154  1.00  0.00    -0.014 A 
ATOM     83  C   UNL A   1      47.734  26.030  32.402  1.00  0.00     0.010 A 
ATOM     84  C   UNL A   1      48.584  26.745  30.243  1.00  0.00     0.010 A 
ATOM     85  C   UNL A   1      49.003  25.557  32.743  1.00  0.00     0.020 A 
ATOM     86  C   UNL A   1      49.848  26.250  30.571  1.00  0.00     0.020 A 
ATOM     87  C   UNL A   1      50.053  25.672  31.824  1.00  0.00     0.054 A 
BRANCH  87  88
ATOM     88  S   UNL A   1      51.681  25.011  32.273  1.00  0.00     0.124 S 
ATOM     89  O   UNL A   1      51.481  23.574  32.111  1.00  0.00    -0.237 OA
ATOM     90  O   UNL A   1      52.564  25.638  31.291  1.00  0.00    -0.237 OA
ATOM     91  O   UNL A   1      51.871  25.465  33.648  1.00  0.00    -0.744 OA
ENDBRANCH  87  88
ENDBRANCH  61  82
ENDBRANCH  35  36
ENDBRANCH  27  30
ENDBRANCH  25  26
ENDBRANCH  24  25
ENDBRANCH   1  24
TORSDOF 18
ENDMDL
MODEL 2
REMARK VINA RESULT:     -10.5      1.606      2.238
REMARK SMILES C[C@H]([NH3+])c1ccc(F)cc1OCC(C)(C)C(=O)NCCCNC(=O)c1ccc(-c2c3nc(c(-c4ccc(S(=O)(=O)[O-])cc4)c4ccc([nH]4)c(-c4ccc(S(=O)(=O)[O-])cc4)c4nc(c(-c5ccc(S(=O)(=O)[O-])cc5)c5ccc2[nH]5)C=C4)C=C3)cc1
REMARK SMILES IDX 19 1 18 2 16 3 17 4 13 6 14 7 15 8 12 9 11 10 10 11 4 12
REMARK SMILES IDX 5 13 6 14 9 15 7 16 8 17 2 18 1 19 3 20 20 24 21 25 22 26
REMARK SMILES IDX 23 27 24 29 25 30 26 31 84 32 27 33 83 34 28 35 29 36 30 37
REMARK SMILES IDX 77 38 31 39 82 40 76 41 78 42 32 43 81 44 75 45 74 46 33 48
REMARK SMILES IDX 63 49 44 50 62 51 45 52 48 53 61 54 79 55 46 56 47 57 60 59
REMARK SMILES IDX 80 60 49 61 34 62 35 63 43 64 36 65 42 66 37 67 38 68 39 69
REMARK SMILES IDX 40 70 41 71 64 72 65 73 73 74 66 75 72 76 67 77 68 78 69 79
REMARK SMILES IDX 70 80 71 81 50 82 51 83 59 84 52 85 58 86 53 87 54 88 55 89
REMARK SMILES IDX 56 90 57 91
REMARK H PARENT 18 5 3 21 3 22 3 23 22 28 78 47 48 58
REMARK Flexibility Score: inf
ROOT
ATOM      1  C   UNL A   1      32.093  26.802  26.387  1.00  0.00     0.117 C 
ENDROOT
BRANCH   1   2
ATOM      2  N   UNL A   1      31.297  25.705  26.932  1.00  0.00    -0.355 N 
ATOM      3  C   UNL A   1      31.043  24.461  26.405  1.00  0.00     0.229 C 
ATOM      4  O   UNL A   1      30.455  23.649  27.121  1.00  0.00    -0.274 OA
ATOM      5  H   UNL A   1      30.882  25.883  27.807  1.00  0.00     0.163 HD
BRANCH   3   6
ATOM      6  C   UNL A   1      31.459  24.153  24.956  1.00  0.00     0.077 C 
ATOM      7  C   UNL A   1      30.769  25.191  24.046  1.00  0.00     0.025 C 
ATOM      8  C   UNL A   1      31.002  22.693  24.682  1.00  0.00     0.025 C 
BRANCH   6   9
ATOM      9  C   UNL A   1      33.017  24.105  24.797  1.00  0.00     0.245 C 
BRANCH   9  10
ATOM     10  O   UNL A   1      33.767  23.585  25.883  1.00  0.00    -0.492 OA
BRANCH  10  11
ATOM     11  C   UNL A   1      34.937  22.884  25.819  1.00  0.00     0.131 A 
ATOM     12  C   UNL A   1      35.217  21.512  25.589  1.00  0.00     0.051 A 
ATOM     13  C   UNL A   1      36.578  21.150  25.396  1.00  0.00     0.017 A 
ATOM     14  C   UNL A   1      37.609  22.088  25.419  1.00  0.00     0.040 A 
ATOM     15  C   UNL A   1      36.002  23.801  25.903  1.00  0.00     0.086 A 
ATOM     16  C   UNL A   1      37.312  23.408  25.689  1.00  0.00     0.126 A 
ATOM     17  F   UNL A   1      38.293  24.319  25.718  1.00  0.00    -0.207 F 
BRANCH  12  18
ATOM     18  C   UNL A   1      34.189  20.392  25.481  1.00  0.00     0.212 C 
ATOM     19  C   UNL A   1      33.483  20.374  24.128  1.00  0.00     0.081 C 
BRANCH  18  20
ATOM     20  N   UNL A   1      33.181  20.410  26.553  1.00  0.00    -0.351 N 
ATOM     21  H   UNL A   1      32.794  19.474  26.673  1.00  0.00     0.345 HD
ATOM     22  H   UNL A   1      32.433  21.058  26.305  1.00  0.00     0.345 HD
ATOM     23  H   UNL A   1      33.616  20.712  27.424  1.00  0.00     0.345 HD
ENDBRANCH  18  20
ENDBRANCH  12  18
ENDBRANCH  10  11
ENDBRANCH   9  10
ENDBRANCH   6   9
ENDBRANCH   3   6
ENDBRANCH   1   2
BRANCH   1  24
ATOM     24  C   UNL A   1      32.371  27.898  27.384  1.00  0.00     0.042 C 
BRANCH  24  25
ATOM     25  C   UNL A   1      33.606  28.689  27.019  1.00  0.00     0.118 C 
BRANCH  25  26
ATOM     26  N   UNL A   1      33.523  30.087  27.439  1.00  0.00    -0.352 N 
ATOM     27  C   UNL A   1      34.433  30.848  28.136  1.00  0.00     0.251 C 
ATOM     28  H   UNL A   1      32.693  30.553  27.185  1.00  0.00     0.163 HD
ATOM     29  O   UNL A   1      34.121  31.945  28.571  1.00  0.00    -0.269 OA
BRANCH  27  30
ATOM     30  C   UNL A   1      35.781  30.295  28.368  1.00  0.00     0.039 A 
ATOM     31  C   UNL A   1      36.728  30.329  27.344  1.00  0.00     0.014 A 
ATOM     32  C   UNL A   1      36.118  29.816  29.634  1.00  0.00     0.014 A 
ATOM     33  C   UNL A   1      38.043  29.957  27.624  1.00  0.00     0.010 A 
ATOM     34  C   UNL A   1      37.447  29.589  29.943  1.00  0.00     0.010 A 
ATOM     35  C   UNL A   1      38.421  29.631  28.936  1.00  0.00    -0.014 A 
BRANCH  35  36
ATOM     36  C   UNL A   1      39.819  29.295  29.292  1.00  0.00     0.031 A 
ATOM     37  C   UNL A   1      40.696  30.345  29.922  1.00  0.00     0.074 A 
ATOM     38  C   UNL A   1      40.327  28.093  28.956  1.00  0.00     0.049 A 
ATOM     39  N   UNL A   1      41.968  30.290  30.215  1.00  0.00    -0.248 NA
ATOM     40  C   UNL A   1      40.071  31.649  30.210  1.00  0.00     0.031 C 
ATOM     41  C   UNL A   1      39.599  27.023  28.267  1.00  0.00     0.029 A 
ATOM     42  N   UNL A   1      41.582  27.572  29.141  1.00  0.00    -0.354 N 
ATOM     43  C   UNL A   1      42.300  31.559  30.676  1.00  0.00     0.074 A 
ATOM     44  C   UNL A   1      41.117  32.378  30.562  1.00  0.00     0.031 C 
ATOM     45  C   UNL A   1      40.409  25.963  28.120  1.00  0.00     0.029 A 
ATOM     46  C   UNL A   1      41.722  26.289  28.669  1.00  0.00     0.049 A 
ATOM     47  H   UNL A   1      42.313  28.071  29.571  1.00  0.00     0.167 HD
ATOM     48  C   UNL A   1      43.479  31.996  31.180  1.00  0.00     0.031 A 
ATOM     49  C   UNL A   1      42.788  25.468  28.678  1.00  0.00     0.031 A 
ATOM     50  C   UNL A   1      44.636  31.161  31.333  1.00  0.00     0.049 A 
ATOM     51  C   UNL A   1      44.067  25.946  29.303  1.00  0.00     0.074 A 
ATOM     52  C   UNL A   1      45.849  31.468  31.920  1.00  0.00     0.029 A 
ATOM     53  N   UNL A   1      44.719  29.845  30.899  1.00  0.00    -0.354 N 
ATOM     54  N   UNL A   1      44.339  27.123  29.820  1.00  0.00    -0.248 NA
ATOM     55  C   UNL A   1      45.177  24.986  29.363  1.00  0.00     0.031 C 
ATOM     56  C   UNL A   1      46.682  30.349  31.804  1.00  0.00     0.029 A 
ATOM     57  C   UNL A   1      45.970  29.331  31.187  1.00  0.00     0.049 A 
ATOM     58  H   UNL A   1      43.994  29.352  30.451  1.00  0.00     0.167 HD
ATOM     59  C   UNL A   1      45.647  27.039  30.283  1.00  0.00     0.074 A 
ATOM     60  C   UNL A   1      46.103  25.692  29.999  1.00  0.00     0.031 C 
ATOM     61  C   UNL A   1      46.403  27.989  30.887  1.00  0.00     0.031 A 
BRANCH  48  62
ATOM     62  C   UNL A   1      43.556  33.442  31.592  1.00  0.00    -0.014 A 
ATOM     63  C   UNL A   1      43.965  34.440  30.686  1.00  0.00     0.010 A 
ATOM     64  C   UNL A   1      43.232  33.810  32.910  1.00  0.00     0.010 A 
ATOM     65  C   UNL A   1      44.114  35.763  31.107  1.00  0.00     0.020 A 
ATOM     66  C   UNL A   1      43.347  35.140  33.327  1.00  0.00     0.020 A 
ATOM     67  C   UNL A   1      43.814  36.103  32.429  1.00  0.00     0.054 A 
BRANCH  67  68
ATOM     68  S   UNL A   1      44.028  37.825  32.957  1.00  0.00     0.124 S 
ATOM     69  O   UNL A   1      42.859  38.025  33.808  1.00  0.00    -0.237 OA
ATOM     70  O   UNL A   1      45.312  37.791  33.652  1.00  0.00    -0.237 OA
ATOM     71  O   UNL A   1      44.024  38.573  31.703  1.00  0.00    -0.744 OA
ENDBRANCH  67  68
ENDBRANCH  48  62
BRANCH  49  72
ATOM     72  C   UNL A   1      42.661  24.097  28.113  1.00  0.00    -0.014 A 
ATOM     73  C   UNL A   1      42.291  23.021  28.939  1.00  0.00     0.010 A 
ATOM     74  C   UNL A   1      42.845  23.873  26.737  1.00  0.00     0.010 A 
ATOM     75  C   UNL A   1      42.104  21.745  28.398  1.00  0.00     0.020 A 
ATOM     76  C   UNL A   1      42.637  22.604  26.188  1.00  0.00     0.020 A 
ATOM     77  C   UNL A   1      42.270  21.546  27.024  1.00  0.00     0.054 A 
BRANCH  77  78
ATOM     78  S   UNL A   1      41.931  19.904  26.328  1.00  0.00     0.124 S 
ATOM     79  O   UNL A   1      42.331  19.023  27.420  1.00  0.00    -0.237 OA
ATOM     80  O   UNL A   1      40.496  19.968  26.058  1.00  0.00    -0.237 OA
ATOM     81  O   UNL A   1      42.778  19.856  25.139  1.00  0.00    -0.744 OA
ENDBRANCH  77  78
ENDBRANCH  49  72
BRANCH  61  82
ATOM     82  C   UNL A   1      47.795  27.601  31.300  1.00  0.00    -0.014 A 
ATOM     83  C   UNL A   1      48.042  27.015  32.553  1.00  0.00     0.010 A 
ATOM     84  C   UNL A   1      48.858  27.771  30.396  1.00  0.00     0.010 A 
ATOM     85  C   UNL A   1      49.338  26.631  32.906  1.00  0.00     0.020 A 
ATOM     86  C   UNL A   1      50.151  27.365  30.736  1.00  0.00     0.020 A 
ATOM     87  C   UNL A   1      50.384  26.810  31.995  1.00  0.00     0.054 A 
BRANCH  87  88
ATOM     88  S   UNL A   1      52.050  26.264  32.460  1.00  0.00     0.124 S 
ATOM     89  O   UNL A   1      52.890  27.258  31.798  1.00  0.00    -0.237 OA
ATOM     90  O   UNL A   1      52.017  26.339  33.919  1.00  0.00    -0.237 OA
ATOM     91  O   UNL A   1      52.135  24.912  31.915  1.00  0.00    -0.744 OA
ENDBRANCH  87  88
ENDBRANCH  61  82
ENDBRANCH  35  36
ENDBRANCH  27  30
ENDBRANCH  25  26
ENDBRANCH  24  25
ENDBRANCH   1  24
TORSDOF 18
ENDMDL
MODEL 3
REMARK VINA RESULT:     -10.3      3.089      9.512
REMARK SMILES C[C@H]([NH3+])c1ccc(F)cc1OCC(C)(C)C(=O)NCCCNC(=O)c1ccc(-c2c3nc(c(-c4ccc(S(=O)(=O)[O-])cc4)c4ccc([nH]4)c(-c4ccc(S(=O)(=O)[O-])cc4)c4nc(c(-c5ccc(S(=O)(=O)[O-])cc5)c5ccc2[nH]5)C=C4)C=C3)cc1
REMARK SMILES IDX 19 1 18 2 16 3 17 4 13 6 14 7 15 8 12 9 11 10 10 11 4 12
REMARK SMILES IDX 5 13 6 14 9 15 7 16 8 17 2 18 1 19 3 20 20 24 21 25 22 26
REMARK SMILES IDX 23 27 24 29 25 30 26 31 84 32 27 33 83 34 28 35 29 36 30 37
REMARK SMILES IDX 77 38 31 39 82 40 76 41 78 42 32 43 81 44 75 45 74 46 33 48
REMARK SMILES IDX 63 49 44 50 62 51 45 52 48 53 61 54 79 55 46 56 47 57 60 59
REMARK SMILES IDX 80 60 49 61 34 62 35 63 43 64 36 65 42 66 37 67 38 68 39 69
REMARK SMILES IDX 40 70 41 71 64 72 65 73 73 74 66 75 72 76 67 77 68 78 69 79
REMARK SMILES IDX 70 80 71 81 50 82 51 83 59 84 52 85 58 86 53 87 54 88 55 89
REMARK SMILES IDX 56 90 57 91
REMARK H PARENT 18 5 3 21 3 22 3 23 22 28 78 47 48 58
REMARK Flexibility Score: inf
ROOT
ATOM      1  C   UNL A   1      34.078  25.363  25.244  1.00  0.00     0.117 C 
ENDROOT
BRANCH   1   2
ATOM      2  N   UNL A   1      32.980  25.573  26.183  1.00  0.00    -0.355 N 
ATOM      3  C   UNL A   1      32.329  26.734  26.526  1.00  0.00     0.229 C 
ATOM      4  O   UNL A   1      31.332  26.638  27.242  1.00  0.00    -0.274 OA
ATOM      5  H   UNL A   1      32.658  24.762  26.639  1.00  0.00     0.163 HD
BRANCH   3   6
ATOM      6  C   UNL A   1      32.885  28.085  26.041  1.00  0.00     0.077 C 
ATOM      7  C   UNL A   1      34.372  28.146  26.450  1.00  0.00     0.025 C 
ATOM      8  C   UNL A   1      32.013  29.174  26.725  1.00  0.00     0.025 C 
BRANCH   6   9
ATOM      9  C   UNL A   1      32.638  28.298  24.509  1.00  0.00     0.245 C 
BRANCH   9  10
ATOM     10  O   UNL A   1      31.583  29.170  24.134  1.00  0.00    -0.492 OA
BRANCH  10  11
ATOM     11  C   UNL A   1      30.341  28.820  23.688  1.00  0.00     0.131 A 
ATOM     12  C   UNL A   1      29.623  27.597  23.720  1.00  0.00     0.051 A 
ATOM     13  C   UNL A   1      28.257  27.635  23.331  1.00  0.00     0.017 A 
ATOM     14  C   UNL A   1      27.624  28.815  22.941  1.00  0.00     0.040 A 
ATOM     15  C   UNL A   1      29.698  29.986  23.228  1.00  0.00     0.086 A 
ATOM     16  C   UNL A   1      28.359  29.981  22.878  1.00  0.00     0.126 A 
ATOM     17  F   UNL A   1      27.766  31.122  22.501  1.00  0.00    -0.207 F 
BRANCH  12  18
ATOM     18  C   UNL A   1      30.167  26.249  24.177  1.00  0.00     0.212 C 
ATOM     19  C   UNL A   1      30.541  25.342  23.008  1.00  0.00     0.081 C 
BRANCH  18  20
ATOM     20  N   UNL A   1      29.262  25.523  25.082  1.00  0.00    -0.351 N 
ATOM     21  H   UNL A   1      29.423  25.826  26.042  1.00  0.00     0.345 HD
ATOM     22  H   UNL A   1      29.440  24.520  25.008  1.00  0.00     0.345 HD
ATOM     23  H   UNL A   1      28.295  25.715  24.823  1.00  0.00     0.345 HD
ENDBRANCH  18  20
ENDBRANCH  12  18
ENDBRANCH  10  11
ENDBRANCH   9  10
ENDBRANCH   6   9
ENDBRANCH   3   6
ENDBRANCH   1   2
BRANCH   1  24
ATOM     24  C   UNL A   1      34.894  24.130  25.536  1.00  0.00     0.042 C 
BRANCH  24  25
ATOM     25  C   UNL A   1      36.368  24.446  25.645  1.00  0.00     0.118 C 
BRANCH  25  26
ATOM     26  N   UNL A   1      37.198  23.243  25.707  1.00  0.00    -0.352 N 
ATOM     27  C   UNL A   1      38.498  23.097  26.135  1.00  0.00     0.251 C 
ATOM     28  H   UNL A   1      36.761  22.416  25.400  1.00  0.00     0.163 HD
ATOM     29  O   UNL A   1      39.102  22.054  25.939  1.00  0.00    -0.269 OA
BRANCH  27  30
ATOM     30  C   UNL A   1      39.150  24.236  26.807  1.00  0.00     0.039 A 
ATOM     31  C   UNL A   1      39.927  25.126  26.065  1.00  0.00     0.014 A 
ATOM     32  C   UNL A   1      38.918  24.457  28.166  1.00  0.00     0.014 A 
ATOM     33  C   UNL A   1      40.400  26.287  26.676  1.00  0.00     0.010 A 
ATOM     34  C   UNL A   1      39.263  25.673  28.725  1.00  0.00     0.010 A 
ATOM     35  C   UNL A   1      40.030  26.591  27.996  1.00  0.00    -0.014 A 
BRANCH  35  36
ATOM     36  C   UNL A   1      40.454  27.845  28.663  1.00  0.00     0.031 A 
ATOM     37  C   UNL A   1      41.827  27.929  29.275  1.00  0.00     0.074 A 
ATOM     38  C   UNL A   1      39.577  28.857  28.808  1.00  0.00     0.049 A 
ATOM     39  N   UNL A   1      42.355  28.889  29.987  1.00  0.00    -0.248 NA
ATOM     40  C   UNL A   1      42.703  26.756  29.110  1.00  0.00     0.031 C 
ATOM     41  C   UNL A   1      38.191  28.859  28.332  1.00  0.00     0.029 A 
ATOM     42  N   UNL A   1      39.721  30.080  29.411  1.00  0.00    -0.354 N 
ATOM     43  C   UNL A   1      43.598  28.416  30.389  1.00  0.00     0.074 A 
ATOM     44  C   UNL A   1      43.719  27.063  29.900  1.00  0.00     0.031 C 
ATOM     45  C   UNL A   1      37.625  30.040  28.628  1.00  0.00     0.029 A 
ATOM     46  C   UNL A   1      38.592  30.862  29.348  1.00  0.00     0.049 A 
ATOM     47  H   UNL A   1      40.553  30.371  29.848  1.00  0.00     0.167 HD
ATOM     48  C   UNL A   1      44.569  29.061  31.080  1.00  0.00     0.031 A 
ATOM     49  C   UNL A   1      38.363  32.103  29.817  1.00  0.00     0.031 A 
ATOM     50  C   UNL A   1      44.457  30.422  31.522  1.00  0.00     0.049 A 
ATOM     51  C   UNL A   1      39.474  32.829  30.521  1.00  0.00     0.074 A 
ATOM     52  C   UNL A   1      45.412  31.208  32.140  1.00  0.00     0.029 A 
ATOM     53  N   UNL A   1      43.318  31.203  31.384  1.00  0.00    -0.354 N 
ATOM     54  N   UNL A   1      40.680  32.400  30.814  1.00  0.00    -0.248 NA
ATOM     55  C   UNL A   1      39.203  34.210  30.941  1.00  0.00     0.031 C 
ATOM     56  C   UNL A   1      44.835  32.453  32.415  1.00  0.00     0.029 A 
ATOM     57  C   UNL A   1      43.538  32.457  31.923  1.00  0.00     0.049 A 
ATOM     58  H   UNL A   1      42.479  30.907  30.964  1.00  0.00     0.167 HD
ATOM     59  C   UNL A   1      41.319  33.464  31.439  1.00  0.00     0.074 A 
ATOM     60  C   UNL A   1      40.370  34.561  31.465  1.00  0.00     0.031 C 
ATOM     61  C   UNL A   1      42.575  33.530  31.945  1.00  0.00     0.031 A 
BRANCH  48  62
ATOM     62  C   UNL A   1      45.822  28.286  31.391  1.00  0.00    -0.014 A 
ATOM     63  C   UNL A   1      46.938  28.325  30.533  1.00  0.00     0.010 A 
ATOM     64  C   UNL A   1      45.881  27.492  32.550  1.00  0.00     0.010 A 
ATOM     65  C   UNL A   1      48.059  27.534  30.792  1.00  0.00     0.020 A 
ATOM     66  C   UNL A   1      47.014  26.724  32.830  1.00  0.00     0.020 A 
ATOM     67  C   UNL A   1      48.086  26.729  31.934  1.00  0.00     0.054 A 
BRANCH  67  68
ATOM     68  S   UNL A   1      49.548  25.700  32.241  1.00  0.00     0.124 S 
ATOM     69  O   UNL A   1      49.799  25.135  30.918  1.00  0.00    -0.237 OA
ATOM     70  O   UNL A   1      50.534  26.673  32.706  1.00  0.00    -0.237 OA
ATOM     71  O   UNL A   1      49.094  24.749  33.252  1.00  0.00    -0.744 OA
ENDBRANCH  67  68
ENDBRANCH  48  62
BRANCH  49  72
ATOM     72  C   UNL A   1      37.038  32.739  29.589  1.00  0.00    -0.014 A 
ATOM     73  C   UNL A   1      36.052  32.705  30.592  1.00  0.00     0.010 A 
ATOM     74  C   UNL A   1      36.777  33.437  28.397  1.00  0.00     0.010 A 
ATOM     75  C   UNL A   1      34.831  33.360  30.407  1.00  0.00     0.020 A 
ATOM     76  C   UNL A   1      35.566  34.112  28.217  1.00  0.00     0.020 A 
ATOM     77  C   UNL A   1      34.599  34.067  29.223  1.00  0.00     0.054 A 
BRANCH  77  78
ATOM     78  S   UNL A   1      33.045  34.989  29.043  1.00  0.00     0.124 S 
ATOM     79  O   UNL A   1      33.516  36.293  28.592  1.00  0.00    -0.237 OA
ATOM     80  O   UNL A   1      32.322  34.196  28.051  1.00  0.00    -0.237 OA
ATOM     81  O   UNL A   1      32.473  34.958  30.387  1.00  0.00    -0.744 OA
ENDBRANCH  77  78
ENDBRANCH  49  72
BRANCH  61  82
ATOM     82  C   UNL A   1      43.004  34.834  32.555  1.00  0.00    -0.014 A 
ATOM     83  C   UNL A   1      43.737  35.775  31.810  1.00  0.00     0.010 A 
ATOM     84  C   UNL A   1      42.615  35.146  33.870  1.00  0.00     0.010 A 
ATOM     85  C   UNL A   1      44.099  36.997  32.383  1.00  0.00     0.020 A 
ATOM     86  C   UNL A   1      42.954  36.377  34.436  1.00  0.00     0.020 A 
ATOM     87  C   UNL A   1      43.706  37.289  33.694  1.00  0.00     0.054 A 
BRANCH  87  88
ATOM     88  S   UNL A   1      44.151  38.898  34.401  1.00  0.00     0.124 S 
ATOM     89  O   UNL A   1      44.127  38.618  35.833  1.00  0.00    -0.237 OA
ATOM     90  O   UNL A   1      45.473  39.145  33.830  1.00  0.00    -0.237 OA
ATOM     91  O   UNL A   1      43.098  39.789  33.921  1.00  0.00    -0.744 OA
ENDBRANCH  87  88
ENDBRANCH  61  82
ENDBRANCH  35  36
ENDBRANCH  27  30
ENDBRANCH  25  26
ENDBRANCH  24  25
ENDBRANCH   1  24
TORSDOF 18
ENDMDL
