MODEL 1
REMARK VINA RESULT:     -11.6      0.000      0.000
REMARK SMILES CCOc1ccc(-c2nc(C(=O)NCCCNC(=O)c3ccc(-c4c5nc(c(-c6ccc(S(=O)(=O)[O-])cc6)c6ccc([nH]6)c(-c6ccc(S(=O)(=O)[O-])cc6)c6nc(c(-c7ccc(S(=O)(=O)[O-])cc7)c7ccc4[nH]7)C=C6)C=C5)cc3)cc(=O)[nH]2)cc1
REMARK SMILES IDX 15 1 14 2 13 3 11 4 12 5 10 7 8 8 9 9 83 10 81 11 80 13
REMARK SMILES IDX 82 14 7 15 4 16 5 17 85 18 6 19 84 20 3 21 2 22 1 23 16 24
REMARK SMILES IDX 17 25 18 26 19 28 20 29 21 30 79 31 22 32 78 33 23 34 24 35
REMARK SMILES IDX 25 36 72 37 26 38 77 39 71 40 73 41 27 42 76 43 70 44 69 45
REMARK SMILES IDX 28 47 58 48 39 49 57 50 40 51 43 52 56 53 74 54 41 55 42 56
REMARK SMILES IDX 55 58 75 59 44 60 29 61 30 62 38 63 31 64 37 65 32 66 33 67
REMARK SMILES IDX 34 68 35 69 36 70 59 71 60 72 68 73 61 74 67 75 62 76 63 77
REMARK SMILES IDX 64 78 65 79 66 80 45 81 46 82 54 83 47 84 53 85 48 86 49 87
REMARK SMILES IDX 50 88 51 89 52 90
REMARK H PARENT 13 6 83 12 17 27 73 46 43 57
REMARK Flexibility Score: inf
ROOT
ATOM      1  C   UNL A   1      35.105  23.514  25.980  1.00  0.00     0.042 C 
ENDROOT
BRANCH   1   2
ATOM      2  C   UNL A   1      34.814  22.022  25.828  1.00  0.00     0.118 C 
BRANCH   2   3
ATOM      3  N   UNL A   1      34.012  21.768  24.647  1.00  0.00    -0.351 N 
ATOM      4  C   UNL A   1      32.748  22.065  24.254  1.00  0.00     0.270 C 
ATOM      5  O   UNL A   1      32.441  21.635  23.135  1.00  0.00    -0.268 OA
ATOM      6  H   UNL A   1      34.504  21.256  23.966  1.00  0.00     0.163 HD
BRANCH   4   7
ATOM      7  C   UNL A   1      31.744  22.897  25.038  1.00  0.00     0.136 A 
ATOM      8  C   UNL A   1      30.776  24.982  25.182  1.00  0.00     0.141 A 
ATOM      9  N   UNL A   1      31.605  24.197  24.582  1.00  0.00    -0.225 NA
ATOM     10  N   UNL A   1      30.040  24.599  26.267  1.00  0.00    -0.306 N 
ATOM     11  C   UNL A   1      30.112  23.338  26.765  1.00  0.00     0.251 A 
ATOM     12  H   UNL A   1      29.444  25.254  26.698  1.00  0.00     0.171 HD
ATOM     13  C   UNL A   1      31.001  22.416  26.044  1.00  0.00     0.105 A 
ATOM     14  O   UNL A   1      29.486  22.981  27.751  1.00  0.00    -0.269 OA
BRANCH   8  15
ATOM     15  C   UNL A   1      30.542  26.352  24.690  1.00  0.00     0.018 A 
ATOM     16  C   UNL A   1      30.010  28.919  23.764  1.00  0.00     0.119 A 
ATOM     17  C   UNL A   1      31.074  28.707  24.643  1.00  0.00     0.047 A 
ATOM     18  C   UNL A   1      29.244  27.847  23.309  1.00  0.00     0.047 A 
ATOM     19  C   UNL A   1      31.337  27.420  25.118  1.00  0.00     0.016 A 
ATOM     20  C   UNL A   1      29.504  26.561  23.776  1.00  0.00     0.016 A 
BRANCH  16  21
ATOM     21  O   UNL A   1      29.818  30.178  23.269  1.00  0.00    -0.494 OA
BRANCH  21  22
ATOM     22  C   UNL A   1      28.521  30.353  22.681  1.00  0.00     0.226 C 
ATOM     23  C   UNL A   1      27.650  31.287  23.506  1.00  0.00     0.049 C 
ENDBRANCH  21  22
ENDBRANCH  16  21
ENDBRANCH   8  15
ENDBRANCH   4   7
ENDBRANCH   2   3
ENDBRANCH   1   2
BRANCH   1  24
ATOM     24  C   UNL A   1      36.461  23.920  25.394  1.00  0.00     0.118 C 
BRANCH  24  25
ATOM     25  N   UNL A   1      37.479  22.904  25.635  1.00  0.00    -0.352 N 
ATOM     26  C   UNL A   1      38.764  23.013  26.100  1.00  0.00     0.251 C 
ATOM     27  H   UNL A   1      37.196  21.984  25.429  1.00  0.00     0.163 HD
ATOM     28  O   UNL A   1      39.541  22.078  25.927  1.00  0.00    -0.269 OA
BRANCH  26  29
ATOM     29  C   UNL A   1      39.214  24.227  26.813  1.00  0.00     0.039 A 
ATOM     30  C   UNL A   1      40.034  25.139  26.141  1.00  0.00     0.014 A 
ATOM     31  C   UNL A   1      38.896  24.437  28.158  1.00  0.00     0.014 A 
ATOM     32  C   UNL A   1      40.490  26.279  26.803  1.00  0.00     0.010 A 
ATOM     33  C   UNL A   1      39.278  25.618  28.788  1.00  0.00     0.010 A 
ATOM     34  C   UNL A   1      40.089  26.547  28.122  1.00  0.00    -0.014 A 
BRANCH  34  35
ATOM     35  C   UNL A   1      40.512  27.793  28.810  1.00  0.00     0.031 A 
ATOM     36  C   UNL A   1      41.881  27.898  29.430  1.00  0.00     0.074 A 
ATOM     37  C   UNL A   1      39.644  28.821  28.898  1.00  0.00     0.049 A 
ATOM     38  N   UNL A   1      42.412  28.899  30.084  1.00  0.00    -0.248 NA
ATOM     39  C   UNL A   1      42.759  26.719  29.325  1.00  0.00     0.031 C 
ATOM     40  C   UNL A   1      38.273  28.820  28.381  1.00  0.00     0.029 A 
ATOM     41  N   UNL A   1      39.785  30.069  29.452  1.00  0.00    -0.354 N 
ATOM     42  C   UNL A   1      43.682  28.476  30.461  1.00  0.00     0.074 A 
ATOM     43  C   UNL A   1      43.816  27.103  30.026  1.00  0.00     0.031 C 
ATOM     44  C   UNL A   1      37.712  30.017  28.612  1.00  0.00     0.029 A 
ATOM     45  C   UNL A   1      38.664  30.857  29.330  1.00  0.00     0.049 A 
ATOM     46  H   UNL A   1      40.609  30.371  29.896  1.00  0.00     0.167 HD
ATOM     47  C   UNL A   1      44.659  29.175  31.084  1.00  0.00     0.031 A 
ATOM     48  C   UNL A   1      38.425  32.112  29.755  1.00  0.00     0.031 A 
ATOM     49  C   UNL A   1      44.522  30.541  31.513  1.00  0.00     0.049 A 
ATOM     50  C   UNL A   1      39.523  32.858  30.466  1.00  0.00     0.074 A 
ATOM     51  C   UNL A   1      45.462  31.349  32.131  1.00  0.00     0.029 A 
ATOM     52  N   UNL A   1      43.374  31.306  31.366  1.00  0.00    -0.354 N 
ATOM     53  N   UNL A   1      40.737  32.456  30.759  1.00  0.00    -0.248 NA
ATOM     54  C   UNL A   1      39.223  34.232  30.887  1.00  0.00     0.031 C 
ATOM     55  C   UNL A   1      44.867  32.585  32.401  1.00  0.00     0.029 A 
ATOM     56  C   UNL A   1      43.577  32.570  31.894  1.00  0.00     0.049 A 
ATOM     57  H   UNL A   1      42.539  30.997  30.948  1.00  0.00     0.167 HD
ATOM     58  C   UNL A   1      41.354  33.540  31.375  1.00  0.00     0.074 A 
ATOM     59  C   UNL A   1      40.389  34.619  31.384  1.00  0.00     0.031 C 
ATOM     60  C   UNL A   1      42.604  33.633  31.893  1.00  0.00     0.031 A 
BRANCH  47  61
ATOM     61  C   UNL A   1      45.977  28.482  31.318  1.00  0.00    -0.014 A 
ATOM     62  C   UNL A   1      46.202  27.742  32.493  1.00  0.00     0.010 A 
ATOM     63  C   UNL A   1      46.977  28.511  30.328  1.00  0.00     0.010 A 
ATOM     64  C   UNL A   1      47.407  27.063  32.685  1.00  0.00     0.020 A 
ATOM     65  C   UNL A   1      48.173  27.807  30.502  1.00  0.00     0.020 A 
ATOM     66  C   UNL A   1      48.384  27.095  31.685  1.00  0.00     0.054 A 
BRANCH  66  67
ATOM     67  S   UNL A   1      49.914  26.156  31.941  1.00  0.00     0.124 S 
ATOM     68  O   UNL A   1      49.435  24.994  32.685  1.00  0.00    -0.237 OA
ATOM     69  O   UNL A   1      50.355  25.888  30.575  1.00  0.00    -0.237 OA
ATOM     70  O   UNL A   1      50.763  27.072  32.699  1.00  0.00    -0.744 OA
ENDBRANCH  66  67
ENDBRANCH  47  61
BRANCH  48  71
ATOM     71  C   UNL A   1      37.094  32.742  29.531  1.00  0.00    -0.014 A 
ATOM     72  C   UNL A   1      36.710  33.187  28.254  1.00  0.00     0.010 A 
ATOM     73  C   UNL A   1      36.210  32.926  30.610  1.00  0.00     0.010 A 
ATOM     74  C   UNL A   1      35.488  33.845  28.070  1.00  0.00     0.020 A 
ATOM     75  C   UNL A   1      34.974  33.551  30.425  1.00  0.00     0.020 A 
ATOM     76  C   UNL A   1      34.632  34.028  29.159  1.00  0.00     0.054 A 
BRANCH  76  77
ATOM     77  S   UNL A   1      33.053  34.883  28.898  1.00  0.00     0.124 S 
ATOM     78  O   UNL A   1      33.490  36.168  28.363  1.00  0.00    -0.237 OA
ATOM     79  O   UNL A   1      32.368  34.002  27.955  1.00  0.00    -0.237 OA
ATOM     80  O   UNL A   1      32.465  34.928  30.236  1.00  0.00    -0.744 OA
ENDBRANCH  76  77
ENDBRANCH  48  71
BRANCH  60  81
ATOM     81  C   UNL A   1      43.009  34.961  32.476  1.00  0.00    -0.014 A 
ATOM     82  C   UNL A   1      42.779  35.267  33.829  1.00  0.00     0.010 A 
ATOM     83  C   UNL A   1      43.657  35.907  31.660  1.00  0.00     0.010 A 
ATOM     84  C   UNL A   1      43.144  36.513  34.342  1.00  0.00     0.020 A 
ATOM     85  C   UNL A   1      44.056  37.141  32.179  1.00  0.00     0.020 A 
ATOM     86  C   UNL A   1      43.778  37.444  33.513  1.00  0.00     0.054 A 
BRANCH  86  87
ATOM     87  S   UNL A   1      44.260  39.046  34.211  1.00  0.00     0.124 S 
ATOM     88  O   UNL A   1      45.485  39.343  33.474  1.00  0.00    -0.237 OA
ATOM     89  O   UNL A   1      43.113  39.892  33.891  1.00  0.00    -0.237 OA
ATOM     90  O   UNL A   1      44.442  38.764  35.634  1.00  0.00    -0.744 OA
ENDBRANCH  86  87
ENDBRANCH  60  81
ENDBRANCH  34  35
ENDBRANCH  26  29
ENDBRANCH  24  25
ENDBRANCH   1  24
TORSDOF 16
ENDMDL
MODEL 2
REMARK VINA RESULT:     -11.6      4.366     11.104
REMARK SMILES CCOc1ccc(-c2nc(C(=O)NCCCNC(=O)c3ccc(-c4c5nc(c(-c6ccc(S(=O)(=O)[O-])cc6)c6ccc([nH]6)c(-c6ccc(S(=O)(=O)[O-])cc6)c6nc(c(-c7ccc(S(=O)(=O)[O-])cc7)c7ccc4[nH]7)C=C6)C=C5)cc3)cc(=O)[nH]2)cc1
REMARK SMILES IDX 15 1 14 2 13 3 11 4 12 5 10 7 8 8 9 9 83 10 81 11 80 13
REMARK SMILES IDX 82 14 7 15 4 16 5 17 85 18 6 19 84 20 3 21 2 22 1 23 16 24
REMARK SMILES IDX 17 25 18 26 19 28 20 29 21 30 79 31 22 32 78 33 23 34 24 35
REMARK SMILES IDX 25 36 72 37 26 38 77 39 71 40 73 41 27 42 76 43 70 44 69 45
REMARK SMILES IDX 28 47 58 48 39 49 57 50 40 51 43 52 56 53 74 54 41 55 42 56
REMARK SMILES IDX 55 58 75 59 44 60 29 61 30 62 38 63 31 64 37 65 32 66 33 67
REMARK SMILES IDX 34 68 35 69 36 70 59 71 60 72 68 73 61 74 67 75 62 76 63 77
REMARK SMILES IDX 64 78 65 79 66 80 45 81 46 82 54 83 47 84 53 85 48 86 49 87
REMARK SMILES IDX 50 88 51 89 52 90
REMARK H PARENT 13 6 83 12 17 27 73 46 43 57
REMARK Flexibility Score: inf
ROOT
ATOM      1  C   UNL A   1      33.923  33.616  28.040  1.00  0.00     0.042 C 
ENDROOT
BRANCH   1   2
ATOM      2  C   UNL A   1      34.946  34.750  28.027  1.00  0.00     0.118 C 
BRANCH   2   3
ATOM      3  N   UNL A   1      34.299  36.036  28.196  1.00  0.00    -0.351 N 
ATOM      4  C   UNL A   1      33.548  36.621  29.164  1.00  0.00     0.270 C 
ATOM      5  O   UNL A   1      33.168  37.768  28.899  1.00  0.00    -0.268 OA
ATOM      6  H   UNL A   1      34.438  36.628  27.423  1.00  0.00     0.163 HD
BRANCH   4   7
ATOM      7  C   UNL A   1      33.200  36.009  30.512  1.00  0.00     0.136 A 
ATOM      8  C   UNL A   1      33.986  34.625  32.178  1.00  0.00     0.141 A 
ATOM      9  N   UNL A   1      34.187  35.190  31.036  1.00  0.00    -0.225 NA
ATOM     10  N   UNL A   1      32.830  34.774  32.890  1.00  0.00    -0.306 N 
ATOM     11  C   UNL A   1      31.822  35.569  32.448  1.00  0.00     0.251 A 
ATOM     12  H   UNL A   1      32.726  34.293  33.743  1.00  0.00     0.171 HD
ATOM     13  C   UNL A   1      32.071  36.274  31.183  1.00  0.00     0.105 A 
ATOM     14  O   UNL A   1      30.767  35.695  33.053  1.00  0.00    -0.269 OA
BRANCH   8  15
ATOM     15  C   UNL A   1      35.035  33.802  32.809  1.00  0.00     0.018 A 
ATOM     16  C   UNL A   1      36.983  32.281  34.080  1.00  0.00     0.119 A 
ATOM     17  C   UNL A   1      36.366  31.791  32.927  1.00  0.00     0.047 A 
ATOM     18  C   UNL A   1      36.666  33.547  34.570  1.00  0.00     0.047 A 
ATOM     19  C   UNL A   1      35.380  32.549  32.292  1.00  0.00     0.016 A 
ATOM     20  C   UNL A   1      35.685  34.309  33.938  1.00  0.00     0.016 A 
BRANCH  16  21
ATOM     21  O   UNL A   1      37.988  31.544  34.641  1.00  0.00    -0.494 OA
BRANCH  21  22
ATOM     22  C   UNL A   1      39.192  31.561  33.861  1.00  0.00     0.226 C 
ATOM     23  C   UNL A   1      39.697  30.156  33.573  1.00  0.00     0.049 C 
ENDBRANCH  21  22
ENDBRANCH  16  21
ENDBRANCH   8  15
ENDBRANCH   4   7
ENDBRANCH   2   3
ENDBRANCH   1   2
BRANCH   1  24
ATOM     24  C   UNL A   1      34.378  32.412  28.870  1.00  0.00     0.118 C 
BRANCH  24  25
ATOM     25  N   UNL A   1      33.835  31.162  28.350  1.00  0.00    -0.352 N 
ATOM     26  C   UNL A   1      34.461  30.034  27.888  1.00  0.00     0.251 C 
ATOM     27  H   UNL A   1      32.851  31.121  28.328  1.00  0.00     0.163 HD
ATOM     28  O   UNL A   1      33.822  29.233  27.210  1.00  0.00    -0.269 OA
BRANCH  26  29
ATOM     29  C   UNL A   1      35.880  29.767  28.206  1.00  0.00     0.039 A 
ATOM     30  C   UNL A   1      36.212  29.321  29.489  1.00  0.00     0.014 A 
ATOM     31  C   UNL A   1      36.891  30.023  27.275  1.00  0.00     0.014 A 
ATOM     32  C   UNL A   1      37.547  29.086  29.817  1.00  0.00     0.010 A 
ATOM     33  C   UNL A   1      38.212  29.704  27.575  1.00  0.00     0.010 A 
ATOM     34  C   UNL A   1      38.557  29.243  28.853  1.00  0.00    -0.014 A 
BRANCH  34  35
ATOM     35  C   UNL A   1      39.972  28.927  29.173  1.00  0.00     0.031 A 
ATOM     36  C   UNL A   1      40.856  29.956  29.829  1.00  0.00     0.074 A 
ATOM     37  C   UNL A   1      40.466  27.718  28.842  1.00  0.00     0.049 A 
ATOM     38  N   UNL A   1      42.117  29.862  30.164  1.00  0.00    -0.248 NA
ATOM     39  C   UNL A   1      40.255  31.268  30.126  1.00  0.00     0.031 C 
ATOM     40  C   UNL A   1      39.721  26.657  28.157  1.00  0.00     0.029 A 
ATOM     41  N   UNL A   1      41.710  27.172  29.037  1.00  0.00    -0.354 N 
ATOM     42  C   UNL A   1      42.458  31.092  30.714  1.00  0.00     0.074 A 
ATOM     43  C   UNL A   1      41.292  31.941  30.603  1.00  0.00     0.031 C 
ATOM     44  C   UNL A   1      40.511  25.580  28.022  1.00  0.00     0.029 A 
ATOM     45  C   UNL A   1      41.828  25.885  28.568  1.00  0.00     0.049 A 
ATOM     46  H   UNL A   1      42.448  27.656  29.472  1.00  0.00     0.167 HD
ATOM     47  C   UNL A   1      43.623  31.473  31.288  1.00  0.00     0.031 A 
ATOM     48  C   UNL A   1      42.882  25.045  28.568  1.00  0.00     0.031 A 
ATOM     49  C   UNL A   1      44.780  30.623  31.397  1.00  0.00     0.049 A 
ATOM     50  C   UNL A   1      44.173  25.503  29.192  1.00  0.00     0.074 A 
ATOM     51  C   UNL A   1      46.002  30.904  31.984  1.00  0.00     0.029 A 
ATOM     52  N   UNL A   1      44.858  29.326  30.915  1.00  0.00    -0.354 N 
ATOM     53  N   UNL A   1      44.453  26.653  29.759  1.00  0.00    -0.248 NA
ATOM     54  C   UNL A   1      45.284  24.543  29.192  1.00  0.00     0.031 C 
ATOM     55  C   UNL A   1      46.835  29.795  31.812  1.00  0.00     0.029 A 
ATOM     56  C   UNL A   1      46.112  28.799  31.177  1.00  0.00     0.049 A 
ATOM     57  H   UNL A   1      44.131  28.850  30.454  1.00  0.00     0.167 HD
ATOM     58  C   UNL A   1      45.764  26.542  30.207  1.00  0.00     0.074 A 
ATOM     59  C   UNL A   1      46.209  25.206  29.871  1.00  0.00     0.031 C 
ATOM     60  C   UNL A   1      46.536  27.464  30.835  1.00  0.00     0.031 A 
BRANCH  47  61
ATOM     61  C   UNL A   1      43.700  32.862  31.867  1.00  0.00    -0.014 A 
ATOM     62  C   UNL A   1      44.096  33.952  31.070  1.00  0.00     0.010 A 
ATOM     63  C   UNL A   1      43.308  33.097  33.197  1.00  0.00     0.010 A 
ATOM     64  C   UNL A   1      44.120  35.245  31.597  1.00  0.00     0.020 A 
ATOM     65  C   UNL A   1      43.302  34.394  33.721  1.00  0.00     0.020 A 
ATOM     66  C   UNL A   1      43.718  35.459  32.919  1.00  0.00     0.054 A 
BRANCH  66  67
ATOM     67  S   UNL A   1      43.707  37.157  33.555  1.00  0.00     0.124 S 
ATOM     68  O   UNL A   1      43.695  37.942  32.323  1.00  0.00    -0.237 OA
ATOM     69  O   UNL A   1      42.473  37.196  34.335  1.00  0.00    -0.237 OA
ATOM     70  O   UNL A   1      44.939  37.245  34.337  1.00  0.00    -0.744 OA
ENDBRANCH  66  67
ENDBRANCH  47  61
BRANCH  48  71
ATOM     71  C   UNL A   1      42.767  23.693  27.952  1.00  0.00    -0.014 A 
ATOM     72  C   UNL A   1      43.143  23.474  26.614  1.00  0.00     0.010 A 
ATOM     73  C   UNL A   1      42.252  22.619  28.699  1.00  0.00     0.010 A 
ATOM     74  C   UNL A   1      42.960  22.219  26.024  1.00  0.00     0.020 A 
ATOM     75  C   UNL A   1      42.102  21.355  28.124  1.00  0.00     0.020 A 
ATOM     76  C   UNL A   1      42.435  21.169  26.782  1.00  0.00     0.054 A 
BRANCH  76  77
ATOM     77  S   UNL A   1      42.208  19.549  25.998  1.00  0.00     0.124 S 
ATOM     78  O   UNL A   1      43.081  19.653  24.833  1.00  0.00    -0.237 OA
ATOM     79  O   UNL A   1      42.649  18.627  27.041  1.00  0.00    -0.237 OA
ATOM     80  O   UNL A   1      40.776  19.509  25.706  1.00  0.00    -0.744 OA
ENDBRANCH  76  77
ENDBRANCH  48  71
BRANCH  60  81
ATOM     81  C   UNL A   1      47.926  27.042  31.232  1.00  0.00    -0.014 A 
ATOM     82  C   UNL A   1      48.164  26.350  32.433  1.00  0.00     0.010 A 
ATOM     83  C   UNL A   1      49.006  27.319  30.374  1.00  0.00     0.010 A 
ATOM     84  C   UNL A   1      49.464  25.986  32.791  1.00  0.00     0.020 A 
ATOM     85  C   UNL A   1      50.303  26.926  30.712  1.00  0.00     0.020 A 
ATOM     86  C   UNL A   1      50.526  26.279  31.929  1.00  0.00     0.054 A 
BRANCH  86  87
ATOM     87  S   UNL A   1      52.201  25.779  32.410  1.00  0.00     0.124 S 
ATOM     88  O   UNL A   1      51.970  24.459  32.990  1.00  0.00    -0.237 OA
ATOM     89  O   UNL A   1      52.915  25.788  31.136  1.00  0.00    -0.237 OA
ATOM     90  O   UNL A   1      52.614  26.812  33.357  1.00  0.00    -0.744 OA
ENDBRANCH  86  87
ENDBRANCH  60  81
ENDBRANCH  34  35
ENDBRANCH  26  29
ENDBRANCH  24  25
ENDBRANCH   1  24
TORSDOF 16
ENDMDL
MODEL 3
REMARK VINA RESULT:     -11.3      4.346     10.135
REMARK SMILES CCOc1ccc(-c2nc(C(=O)NCCCNC(=O)c3ccc(-c4c5nc(c(-c6ccc(S(=O)(=O)[O-])cc6)c6ccc([nH]6)c(-c6ccc(S(=O)(=O)[O-])cc6)c6nc(c(-c7ccc(S(=O)(=O)[O-])cc7)c7ccc4[nH]7)C=C6)C=C5)cc3)cc(=O)[nH]2)cc1
REMARK SMILES IDX 15 1 14 2 13 3 11 4 12 5 10 7 8 8 9 9 83 10 81 11 80 13
REMARK SMILES IDX 82 14 7 15 4 16 5 17 85 18 6 19 84 20 3 21 2 22 1 23 16 24
REMARK SMILES IDX 17 25 18 26 19 28 20 29 21 30 79 31 22 32 78 33 23 34 24 35
REMARK SMILES IDX 25 36 72 37 26 38 77 39 71 40 73 41 27 42 76 43 70 44 69 45
REMARK SMILES IDX 28 47 58 48 39 49 57 50 40 51 43 52 56 53 74 54 41 55 42 56
REMARK SMILES IDX 55 58 75 59 44 60 29 61 30 62 38 63 31 64 37 65 32 66 33 67
REMARK SMILES IDX 34 68 35 69 36 70 59 71 60 72 68 73 61 74 67 75 62 76 63 77
REMARK SMILES IDX 64 78 65 79 66 80 45 81 46 82 54 83 47 84 53 85 48 86 49 87
REMARK SMILES IDX 50 88 51 89 52 90
REMARK H PARENT 13 6 83 12 17 27 73 46 43 57
REMARK Flexibility Score: inf
ROOT
ATOM      1  C   UNL A   1      35.103  33.255  27.880  1.00  0.00     0.042 C 
ENDROOT
BRANCH   1   2
ATOM      2  C   UNL A   1      35.269  34.706  28.328  1.00  0.00     0.118 C 
BRANCH   2   3
ATOM      3  N   UNL A   1      33.981  35.350  28.492  1.00  0.00    -0.351 N 
ATOM      4  C   UNL A   1      33.259  35.818  29.541  1.00  0.00     0.270 C 
ATOM      5  O   UNL A   1      32.161  36.302  29.238  1.00  0.00    -0.268 OA
ATOM      6  H   UNL A   1      33.517  35.480  27.633  1.00  0.00     0.163 HD
BRANCH   4   7
ATOM      7  C   UNL A   1      33.709  35.833  30.995  1.00  0.00     0.136 A 
ATOM      8  C   UNL A   1      34.921  34.670  32.571  1.00  0.00     0.141 A 
ATOM      9  N   UNL A   1      34.490  34.748  31.358  1.00  0.00    -0.225 NA
ATOM     10  N   UNL A   1      34.625  35.598  33.528  1.00  0.00    -0.306 N 
ATOM     11  C   UNL A   1      33.876  36.694  33.246  1.00  0.00     0.251 A 
ATOM     12  H   UNL A   1      34.962  35.467  34.444  1.00  0.00     0.171 HD
ATOM     13  C   UNL A   1      33.440  36.829  31.849  1.00  0.00     0.105 A 
ATOM     14  O   UNL A   1      33.574  37.523  34.092  1.00  0.00    -0.269 OA
BRANCH   8  15
ATOM     15  C   UNL A   1      35.814  33.571  32.986  1.00  0.00     0.018 A 
ATOM     16  C   UNL A   1      37.457  31.503  33.851  1.00  0.00     0.119 A 
ATOM     17  C   UNL A   1      36.979  31.504  32.539  1.00  0.00     0.047 A 
ATOM     18  C   UNL A   1      37.157  32.556  34.715  1.00  0.00     0.047 A 
ATOM     19  C   UNL A   1      36.145  32.537  32.104  1.00  0.00     0.016 A 
ATOM     20  C   UNL A   1      36.329  33.590  34.285  1.00  0.00     0.016 A 
BRANCH  16  21
ATOM     21  O   UNL A   1      38.321  30.514  34.226  1.00  0.00    -0.494 OA
BRANCH  21  22
ATOM     22  C   UNL A   1      38.630  29.610  33.155  1.00  0.00     0.226 C 
ATOM     23  C   UNL A   1      40.052  29.081  33.257  1.00  0.00     0.049 C 
ENDBRANCH  21  22
ENDBRANCH  16  21
ENDBRANCH   8  15
ENDBRANCH   4   7
ENDBRANCH   2   3
ENDBRANCH   1   2
BRANCH   1  24
ATOM     24  C   UNL A   1      34.305  32.411  28.878  1.00  0.00     0.118 C 
BRANCH  24  25
ATOM     25  N   UNL A   1      33.799  31.187  28.267  1.00  0.00    -0.352 N 
ATOM     26  C   UNL A   1      34.457  30.089  27.779  1.00  0.00     0.251 C 
ATOM     27  H   UNL A   1      32.818  31.142  28.193  1.00  0.00     0.163 HD
ATOM     28  O   UNL A   1      33.860  29.322  27.029  1.00  0.00    -0.269 OA
BRANCH  26  29
ATOM     29  C   UNL A   1      35.861  29.815  28.154  1.00  0.00     0.039 A 
ATOM     30  C   UNL A   1      36.859  29.965  27.187  1.00  0.00     0.014 A 
ATOM     31  C   UNL A   1      36.191  29.340  29.427  1.00  0.00     0.014 A 
ATOM     32  C   UNL A   1      38.187  29.689  27.513  1.00  0.00     0.010 A 
ATOM     33  C   UNL A   1      37.524  29.150  29.776  1.00  0.00     0.010 A 
ATOM     34  C   UNL A   1      38.537  29.311  28.820  1.00  0.00    -0.014 A 
BRANCH  34  35
ATOM     35  C   UNL A   1      39.956  29.083  29.194  1.00  0.00     0.031 A 
ATOM     36  C   UNL A   1      40.621  27.763  28.904  1.00  0.00     0.074 A 
ATOM     37  C   UNL A   1      40.635  30.063  29.823  1.00  0.00     0.049 A 
ATOM     38  N   UNL A   1      41.843  27.381  29.175  1.00  0.00    -0.248 NA
ATOM     39  C   UNL A   1      39.803  26.727  28.248  1.00  0.00     0.031 C 
ATOM     40  C   UNL A   1      40.083  31.367  30.203  1.00  0.00     0.029 A 
ATOM     41  N   UNL A   1      41.937  30.120  30.253  1.00  0.00    -0.354 N 
ATOM     42  C   UNL A   1      41.942  26.071  28.720  1.00  0.00     0.074 A 
ATOM     43  C   UNL A   1      40.638  25.698  28.220  1.00  0.00     0.031 C 
ATOM     44  C   UNL A   1      41.047  32.105  30.776  1.00  0.00     0.029 A 
ATOM     45  C   UNL A   1      42.271  31.315  30.846  1.00  0.00     0.049 A 
ATOM     46  H   UNL A   1      42.571  29.375  30.148  1.00  0.00     0.167 HD
ATOM     47  C   UNL A   1      43.028  25.263  28.691  1.00  0.00     0.031 A 
ATOM     48  C   UNL A   1      43.430  31.727  31.394  1.00  0.00     0.031 A 
ATOM     49  C   UNL A   1      44.324  25.640  29.188  1.00  0.00     0.049 A 
ATOM     50  C   UNL A   1      44.615  30.799  31.368  1.00  0.00     0.074 A 
ATOM     51  C   UNL A   1      45.497  24.903  29.181  1.00  0.00     0.029 A 
ATOM     52  N   UNL A   1      44.623  26.860  29.776  1.00  0.00    -0.354 N 
ATOM     53  N   UNL A   1      44.700  29.584  30.878  1.00  0.00    -0.248 NA
ATOM     54  C   UNL A   1      45.863  31.303  31.953  1.00  0.00     0.031 C 
ATOM     55  C   UNL A   1      46.491  25.658  29.810  1.00  0.00     0.029 A 
ATOM     56  C   UNL A   1      45.957  26.890  30.149  1.00  0.00     0.049 A 
ATOM     57  H   UNL A   1      43.983  27.595  29.907  1.00  0.00     0.167 HD
ATOM     58  C   UNL A   1      46.020  29.192  31.072  1.00  0.00     0.074 A 
ATOM     59  C   UNL A   1      46.700  30.307  31.696  1.00  0.00     0.031 C 
ATOM     60  C   UNL A   1      46.616  28.012  30.769  1.00  0.00     0.031 A 
BRANCH  47  61
ATOM     61  C   UNL A   1      42.868  23.895  28.078  1.00  0.00    -0.014 A 
ATOM     62  C   UNL A   1      42.460  22.800  28.860  1.00  0.00     0.010 A 
ATOM     63  C   UNL A   1      43.058  23.713  26.696  1.00  0.00     0.010 A 
ATOM     64  C   UNL A   1      42.267  21.544  28.279  1.00  0.00     0.020 A 
ATOM     65  C   UNL A   1      42.836  22.465  26.103  1.00  0.00     0.020 A 
ATOM     66  C   UNL A   1      42.452  21.386  26.902  1.00  0.00     0.054 A 
BRANCH  66  67
ATOM     67  S   UNL A   1      42.138  19.757  26.170  1.00  0.00     0.124 S 
ATOM     68  O   UNL A   1      42.974  19.797  24.973  1.00  0.00    -0.237 OA
ATOM     69  O   UNL A   1      42.587  18.845  27.219  1.00  0.00    -0.237 OA
ATOM     70  O   UNL A   1      40.698  19.757  25.923  1.00  0.00    -0.744 OA
ENDBRANCH  66  67
ENDBRANCH  47  61
BRANCH  48  71
ATOM     71  C   UNL A   1      43.530  33.076  32.020  1.00  0.00    -0.014 A 
ATOM     72  C   UNL A   1      43.294  33.254  33.395  1.00  0.00     0.010 A 
ATOM     73  C   UNL A   1      43.836  34.199  31.231  1.00  0.00     0.010 A 
ATOM     74  C   UNL A   1      43.315  34.535  33.958  1.00  0.00     0.020 A 
ATOM     75  C   UNL A   1      43.894  35.476  31.795  1.00  0.00     0.020 A 
ATOM     76  C   UNL A   1      43.609  35.638  33.152  1.00  0.00     0.054 A 
BRANCH  76  77
ATOM     77  S   UNL A   1      43.633  37.290  33.901  1.00  0.00     0.124 S 
ATOM     78  O   UNL A   1      44.845  37.235  34.713  1.00  0.00    -0.237 OA
ATOM     79  O   UNL A   1      43.690  38.166  32.734  1.00  0.00    -0.237 OA
ATOM     80  O   UNL A   1      42.380  37.342  34.650  1.00  0.00    -0.744 OA
ENDBRANCH  76  77
ENDBRANCH  48  71
BRANCH  60  81
ATOM     81  C   UNL A   1      48.086  27.887  31.072  1.00  0.00    -0.014 A 
ATOM     82  C   UNL A   1      49.061  28.231  30.119  1.00  0.00     0.010 A 
ATOM     83  C   UNL A   1      48.495  27.444  32.343  1.00  0.00     0.010 A 
ATOM     84  C   UNL A   1      50.418  28.087  30.416  1.00  0.00     0.020 A 
ATOM     85  C   UNL A   1      49.852  27.332  32.656  1.00  0.00     0.020 A 
ATOM     86  C   UNL A   1      50.806  27.635  31.681  1.00  0.00     0.054 A 
BRANCH  86  87
ATOM     87  S   UNL A   1      52.574  27.477  32.046  1.00  0.00     0.124 S 
ATOM     88  O   UNL A   1      52.558  26.871  33.374  1.00  0.00    -0.237 OA
ATOM     89  O   UNL A   1      53.047  26.614  30.967  1.00  0.00    -0.237 OA
ATOM     90  O   UNL A   1      53.064  28.853  31.996  1.00  0.00    -0.744 OA
ENDBRANCH  86  87
ENDBRANCH  60  81
ENDBRANCH  34  35
ENDBRANCH  26  29
ENDBRANCH  24  25
ENDBRANCH   1  24
TORSDOF 16
ENDMDL
