MODEL 1
REMARK VINA RESULT:     -12.5      0.000      0.000
REMARK SMILES O=C(C[C@H](NC(=O)[C@]12C[C@H]3C[C@H](C[C@H](C3)C1)C2)c1cccc([N+](=O)[O-])c1)NCCCNC(=O)c1ccc(-c2c3nc(c(-c4ccc(S(=O)(=O)[O-])cc4)c4ccc([nH]4)c(-c4ccc(S(=O)(=O)[O-])cc4)c4nc(c(-c5ccc(S(=O)(=O)[O-])cc5)c5ccc2[nH]5)C=C4)C=C3)cc1
REMARK SMILES IDX 29 1 28 2 27 3 1 4 2 5 3 7 4 8 18 9 19 10 26 11 20 12 22 13
REMARK SMILES IDX 21 14 23 15 24 16 25 17 5 18 6 19 7 21 8 22 9 23 16 24 17 25
REMARK SMILES IDX 10 26 14 27 12 28 11 29 15 30 13 31 30 32 31 33 32 34 33 36
REMARK SMILES IDX 34 37 35 38 93 39 36 40 92 41 37 42 38 43 39 44 86 45 40 46
REMARK SMILES IDX 91 47 85 48 87 49 41 50 90 51 84 52 83 53 42 55 72 56 53 57
REMARK SMILES IDX 71 58 54 59 57 60 70 61 88 62 55 63 56 64 69 66 89 67 58 68
REMARK SMILES IDX 43 69 44 70 52 71 45 72 51 73 46 74 47 75 48 76 49 77 50 78
REMARK SMILES IDX 73 79 74 80 82 81 75 82 81 83 76 84 77 85 78 86 79 87 80 88
REMARK SMILES IDX 59 89 60 90 68 91 61 92 67 93 62 94 63 95 64 96 65 97 66 98
REMARK H PARENT 27 6 5 20 31 35 87 54 57 65
REMARK Flexibility Score: inf
ROOT
ATOM      1  C   UNL A   1      38.473  20.066  25.041  1.00  0.00     0.042 C 
ENDROOT
BRANCH   1   2
ATOM      2  C   UNL A   1      37.416  21.156  24.887  1.00  0.00     0.117 C 
BRANCH   2   3
ATOM      3  N   UNL A   1      36.112  20.743  25.374  1.00  0.00    -0.356 N 
ATOM      4  O   UNL A   1      35.675  22.746  26.374  1.00  0.00    -0.275 OA
ATOM      5  C   UNL A   1      35.321  21.605  26.093  1.00  0.00     0.222 C 
ATOM      6  H   UNL A   1      35.790  19.832  25.186  1.00  0.00     0.163 HD
BRANCH   5   7
ATOM      7  C   UNL A   1      34.013  21.028  26.586  1.00  0.00     0.129 C 
BRANCH   7   8
ATOM      8  C   UNL A   1      32.851  21.053  25.579  1.00  0.00     0.122 C 
BRANCH   8   9
ATOM      9  C   UNL A   1      32.799  19.797  24.704  1.00  0.00    -0.018 A 
ATOM     10  C   UNL A   1      32.509  19.839  23.335  1.00  0.00     0.006 A 
ATOM     11  C   UNL A   1      33.030  18.529  25.272  1.00  0.00     0.091 A 
ATOM     12  C   UNL A   1      32.333  18.682  22.571  1.00  0.00     0.007 A 
ATOM     13  C   UNL A   1      32.911  17.364  24.491  1.00  0.00     0.269 A 
ATOM     14  C   UNL A   1      32.528  17.435  23.149  1.00  0.00     0.085 A 
BRANCH  13  15
ATOM     15  N   UNL A   1      33.210  16.054  25.083  1.00  0.00     0.062 N 
ATOM     16  O   UNL A   1      34.171  15.421  24.624  1.00  0.00    -0.258 OA
ATOM     17  O   UNL A   1      32.493  15.670  26.016  1.00  0.00    -0.258 OA
ENDBRANCH  13  15
ENDBRANCH   8   9
BRANCH   8  18
ATOM     18  N   UNL A   1      31.543  21.551  26.037  1.00  0.00    -0.348 N 
ATOM     19  C   UNL A   1      30.793  22.674  26.093  1.00  0.00     0.226 C 
ATOM     20  H   UNL A   1      31.041  20.809  26.444  1.00  0.00     0.164 HD
ATOM     21  O   UNL A   1      29.680  22.488  26.614  1.00  0.00    -0.274 OA
BRANCH  19  22
ATOM     22  C   UNL A   1      31.181  24.106  25.677  1.00  0.00     0.050 C 
ATOM     23  C   UNL A   1      31.174  24.177  24.118  1.00  0.00     0.020 C 
ATOM     24  C   UNL A   1      32.544  24.621  26.148  1.00  0.00     0.020 C 
ATOM     25  C   UNL A   1      30.061  25.079  26.149  1.00  0.00     0.020 C 
ATOM     26  C   UNL A   1      31.454  25.613  23.626  1.00  0.00    -0.010 C 
ATOM     27  C   UNL A   1      32.814  26.055  25.688  1.00  0.00    -0.010 C 
ATOM     28  C   UNL A   1      30.346  26.520  25.696  1.00  0.00    -0.010 C 
ATOM     29  C   UNL A   1      30.370  26.563  24.161  1.00  0.00     0.007 C 
ATOM     30  C   UNL A   1      32.818  26.081  24.154  1.00  0.00     0.007 C 
ATOM     31  C   UNL A   1      31.710  26.965  26.242  1.00  0.00     0.007 C 
ENDBRANCH  19  22
ENDBRANCH   8  18
ENDBRANCH   7   8
ENDBRANCH   5   7
ENDBRANCH   2   3
ENDBRANCH   1   2
BRANCH   1  32
ATOM     32  C   UNL A   1      39.524  20.358  26.105  1.00  0.00     0.118 C 
BRANCH  32  33
ATOM     33  N   UNL A   1      40.537  19.317  26.211  1.00  0.00    -0.352 N 
ATOM     34  C   UNL A   1      41.898  19.421  26.362  1.00  0.00     0.251 C 
ATOM     35  H   UNL A   1      40.193  18.395  26.167  1.00  0.00     0.163 HD
ATOM     36  O   UNL A   1      42.591  18.413  26.296  1.00  0.00    -0.269 OA
BRANCH  34  37
ATOM     37  C   UNL A   1      42.523  20.746  26.570  1.00  0.00     0.039 A 
ATOM     38  C   UNL A   1      42.987  21.449  25.457  1.00  0.00     0.014 A 
ATOM     39  C   UNL A   1      42.648  21.294  27.849  1.00  0.00     0.014 A 
ATOM     40  C   UNL A   1      43.515  22.731  25.619  1.00  0.00     0.010 A 
ATOM     41  C   UNL A   1      43.103  22.601  28.000  1.00  0.00     0.010 A 
ATOM     42  C   UNL A   1      43.540  23.335  26.887  1.00  0.00    -0.014 A 
BRANCH  42  43
ATOM     43  C   UNL A   1      43.999  24.738  27.061  1.00  0.00     0.031 A 
ATOM     44  C   UNL A   1      45.446  25.097  26.854  1.00  0.00     0.074 A 
ATOM     45  C   UNL A   1      43.120  25.677  27.465  1.00  0.00     0.049 A 
ATOM     46  N   UNL A   1      46.035  26.255  27.003  1.00  0.00    -0.248 NA
ATOM     47  C   UNL A   1      46.352  24.010  26.449  1.00  0.00     0.031 C 
ATOM     48  C   UNL A   1      41.700  25.447  27.740  1.00  0.00     0.029 A 
ATOM     49  N   UNL A   1      43.293  27.016  27.719  1.00  0.00    -0.354 N 
ATOM     50  C   UNL A   1      47.379  26.036  26.725  1.00  0.00     0.074 A 
ATOM     51  C   UNL A   1      47.527  24.624  26.449  1.00  0.00     0.031 C 
ATOM     52  C   UNL A   1      41.126  26.609  28.093  1.00  0.00     0.029 A 
ATOM     53  C   UNL A   1      42.142  27.655  28.117  1.00  0.00     0.049 A 
ATOM     54  H   UNL A   1      44.159  27.475  27.625  1.00  0.00     0.167 HD
ATOM     55  C   UNL A   1      48.395  26.932  26.684  1.00  0.00     0.031 A 
ATOM     56  C   UNL A   1      41.927  28.938  28.471  1.00  0.00     0.031 A 
ATOM     57  C   UNL A   1      48.242  28.337  26.957  1.00  0.00     0.049 A 
ATOM     58  C   UNL A   1      43.075  29.909  28.438  1.00  0.00     0.074 A 
ATOM     59  C   UNL A   1      49.199  29.334  26.888  1.00  0.00     0.029 A 
ATOM     60  N   UNL A   1      47.061  28.944  27.354  1.00  0.00    -0.354 N 
ATOM     61  N   UNL A   1      44.325  29.695  28.103  1.00  0.00    -0.248 NA
ATOM     62  C   UNL A   1      42.781  31.297  28.819  1.00  0.00     0.031 C 
ATOM     63  C   UNL A   1      48.611  30.533  27.304  1.00  0.00     0.029 A 
ATOM     64  C   UNL A   1      47.271  30.297  27.563  1.00  0.00     0.049 A 
ATOM     65  H   UNL A   1      46.199  28.482  27.470  1.00  0.00     0.167 HD
ATOM     66  C   UNL A   1      44.961  30.927  28.204  1.00  0.00     0.074 A 
ATOM     67  C   UNL A   1      43.953  31.884  28.616  1.00  0.00     0.031 C 
ATOM     68  C   UNL A   1      46.260  31.240  27.974  1.00  0.00     0.031 A 
BRANCH  55  69
ATOM     69  C   UNL A   1      49.768  26.415  26.339  1.00  0.00    -0.014 A 
ATOM     70  C   UNL A   1      50.245  26.438  25.016  1.00  0.00     0.010 A 
ATOM     71  C   UNL A   1      50.614  25.942  27.360  1.00  0.00     0.010 A 
ATOM     72  C   UNL A   1      51.522  25.959  24.713  1.00  0.00     0.020 A 
ATOM     73  C   UNL A   1      51.904  25.490  27.066  1.00  0.00     0.020 A 
ATOM     74  C   UNL A   1      52.343  25.487  25.741  1.00  0.00     0.054 A 
BRANCH  74  75
ATOM     75  S   UNL A   1      54.005  24.893  25.321  1.00  0.00     0.124 S 
ATOM     76  O   UNL A   1      53.742  23.507  24.940  1.00  0.00    -0.237 OA
ATOM     77  O   UNL A   1      54.394  25.782  24.228  1.00  0.00    -0.237 OA
ATOM     78  O   UNL A   1      54.760  25.066  26.560  1.00  0.00    -0.744 OA
ENDBRANCH  74  75
ENDBRANCH  55  69
BRANCH  56  79
ATOM     79  C   UNL A   1      40.563  29.379  28.877  1.00  0.00    -0.014 A 
ATOM     80  C   UNL A   1      39.509  29.395  27.947  1.00  0.00     0.010 A 
ATOM     81  C   UNL A   1      40.309  29.774  30.204  1.00  0.00     0.010 A 
ATOM     82  C   UNL A   1      38.233  29.817  28.329  1.00  0.00     0.020 A 
ATOM     83  C   UNL A   1      39.026  30.168  30.597  1.00  0.00     0.020 A 
ATOM     84  C   UNL A   1      37.998  30.198  29.653  1.00  0.00     0.054 A 
BRANCH  84  85
ATOM     85  S   UNL A   1      36.322  30.697  30.137  1.00  0.00     0.124 S 
ATOM     86  O   UNL A   1      35.983  29.690  31.137  1.00  0.00    -0.237 OA
ATOM     87  O   UNL A   1      36.533  32.051  30.646  1.00  0.00    -0.237 OA
ATOM     88  O   UNL A   1      35.568  30.620  28.889  1.00  0.00    -0.744 OA
ENDBRANCH  84  85
ENDBRANCH  56  79
BRANCH  68  89
ATOM     89  C   UNL A   1      46.666  32.682  28.124  1.00  0.00    -0.014 A 
ATOM     90  C   UNL A   1      47.162  33.181  29.341  1.00  0.00     0.010 A 
ATOM     91  C   UNL A   1      46.604  33.537  27.007  1.00  0.00     0.010 A 
ATOM     92  C   UNL A   1      47.558  34.518  29.447  1.00  0.00     0.020 A 
ATOM     93  C   UNL A   1      47.029  34.864  27.100  1.00  0.00     0.020 A 
ATOM     94  C   UNL A   1      47.491  35.350  28.325  1.00  0.00     0.054 A 
BRANCH  94  95
ATOM     95  S   UNL A   1      48.057  37.066  28.477  1.00  0.00     0.124 S 
ATOM     96  O   UNL A   1      46.796  37.803  28.489  1.00  0.00    -0.237 OA
ATOM     97  O   UNL A   1      48.788  37.051  29.742  1.00  0.00    -0.237 OA
ATOM     98  O   UNL A   1      48.884  37.267  27.290  1.00  0.00    -0.744 OA
ENDBRANCH  94  95
ENDBRANCH  68  89
ENDBRANCH  42  43
ENDBRANCH  34  37
ENDBRANCH  32  33
ENDBRANCH   1  32
TORSDOF 18
ENDMDL
MODEL 2
REMARK VINA RESULT:     -12.5      0.597      7.948
REMARK SMILES O=C(C[C@H](NC(=O)[C@]12C[C@H]3C[C@H](C[C@H](C3)C1)C2)c1cccc([N+](=O)[O-])c1)NCCCNC(=O)c1ccc(-c2c3nc(c(-c4ccc(S(=O)(=O)[O-])cc4)c4ccc([nH]4)c(-c4ccc(S(=O)(=O)[O-])cc4)c4nc(c(-c5ccc(S(=O)(=O)[O-])cc5)c5ccc2[nH]5)C=C4)C=C3)cc1
REMARK SMILES IDX 29 1 28 2 27 3 1 4 2 5 3 7 4 8 18 9 19 10 26 11 20 12 22 13
REMARK SMILES IDX 21 14 23 15 24 16 25 17 5 18 6 19 7 21 8 22 9 23 16 24 17 25
REMARK SMILES IDX 10 26 14 27 12 28 11 29 15 30 13 31 30 32 31 33 32 34 33 36
REMARK SMILES IDX 34 37 35 38 93 39 36 40 92 41 37 42 38 43 39 44 86 45 40 46
REMARK SMILES IDX 91 47 85 48 87 49 41 50 90 51 84 52 83 53 42 55 72 56 53 57
REMARK SMILES IDX 71 58 54 59 57 60 70 61 88 62 55 63 56 64 69 66 89 67 58 68
REMARK SMILES IDX 43 69 44 70 52 71 45 72 51 73 46 74 47 75 48 76 49 77 50 78
REMARK SMILES IDX 73 79 74 80 82 81 75 82 81 83 76 84 77 85 78 86 79 87 80 88
REMARK SMILES IDX 59 89 60 90 68 91 61 92 67 93 62 94 63 95 64 96 65 97 66 98
REMARK H PARENT 27 6 5 20 31 35 87 54 57 65
REMARK Flexibility Score: inf
ROOT
ATOM      1  C   UNL A   1      38.488  19.691  25.023  1.00  0.00     0.042 C 
ENDROOT
BRANCH   1   2
ATOM      2  C   UNL A   1      37.515  20.818  24.688  1.00  0.00     0.117 C 
BRANCH   2   3
ATOM      3  N   UNL A   1      36.231  20.662  25.347  1.00  0.00    -0.356 N 
ATOM      4  O   UNL A   1      36.199  22.800  26.141  1.00  0.00    -0.275 OA
ATOM      5  C   UNL A   1      35.658  21.704  26.033  1.00  0.00     0.222 C 
ATOM      6  H   UNL A   1      35.764  19.796  25.301  1.00  0.00     0.163 HD
BRANCH   5   7
ATOM      7  C   UNL A   1      34.347  21.388  26.718  1.00  0.00     0.129 C 
BRANCH   7   8
ATOM      8  C   UNL A   1      33.084  21.583  25.863  1.00  0.00     0.122 C 
BRANCH   8   9
ATOM      9  C   UNL A   1      32.865  20.443  24.864  1.00  0.00    -0.018 A 
ATOM     10  C   UNL A   1      32.481  20.664  23.535  1.00  0.00     0.006 A 
ATOM     11  C   UNL A   1      33.029  19.105  25.270  1.00  0.00     0.091 A 
ATOM     12  C   UNL A   1      32.155  19.619  22.667  1.00  0.00     0.007 A 
ATOM     13  C   UNL A   1      32.757  18.049  24.379  1.00  0.00     0.269 A 
ATOM     14  C   UNL A   1      32.286  18.303  23.088  1.00  0.00     0.085 A 
BRANCH  13  15
ATOM     15  N   UNL A   1      32.988  16.661  24.798  1.00  0.00     0.062 N 
ATOM     16  O   UNL A   1      32.505  16.298  25.880  1.00  0.00    -0.258 OA
ATOM     17  O   UNL A   1      33.638  15.934  24.035  1.00  0.00    -0.258 OA
ENDBRANCH  13  15
ENDBRANCH   8   9
BRANCH   8  18
ATOM     18  N   UNL A   1      31.865  22.079  26.525  1.00  0.00    -0.348 N 
ATOM     19  C   UNL A   1      31.016  23.129  26.539  1.00  0.00     0.226 C 
ATOM     20  H   UNL A   1      31.565  21.414  27.186  1.00  0.00     0.164 HD
ATOM     21  O   UNL A   1      30.084  22.989  27.348  1.00  0.00    -0.274 OA
BRANCH  19  22
ATOM     22  C   UNL A   1      31.119  24.454  25.759  1.00  0.00     0.050 C 
ATOM     23  C   UNL A   1      32.453  25.153  26.166  1.00  0.00     0.020 C 
ATOM     24  C   UNL A   1      29.993  25.472  25.964  1.00  0.00     0.020 C 
ATOM     25  C   UNL A   1      31.260  24.126  24.243  1.00  0.00     0.020 C 
ATOM     26  C   UNL A   1      32.679  26.442  25.346  1.00  0.00    -0.010 C 
ATOM     27  C   UNL A   1      30.196  26.739  25.131  1.00  0.00    -0.010 C 
ATOM     28  C   UNL A   1      31.449  25.405  23.411  1.00  0.00    -0.010 C 
ATOM     29  C   UNL A   1      32.748  26.097  23.849  1.00  0.00     0.007 C 
ATOM     30  C   UNL A   1      31.505  27.406  25.572  1.00  0.00     0.007 C 
ATOM     31  C   UNL A   1      30.261  26.348  23.649  1.00  0.00     0.007 C 
ENDBRANCH  19  22
ENDBRANCH   8  18
ENDBRANCH   7   8
ENDBRANCH   5   7
ENDBRANCH   2   3
ENDBRANCH   1   2
BRANCH   1  32
ATOM     32  C   UNL A   1      39.480  20.028  26.130  1.00  0.00     0.118 C 
BRANCH  32  33
ATOM     33  N   UNL A   1      40.664  19.181  26.116  1.00  0.00    -0.352 N 
ATOM     34  C   UNL A   1      41.993  19.519  26.209  1.00  0.00     0.251 C 
ATOM     35  H   UNL A   1      40.486  18.217  26.025  1.00  0.00     0.163 HD
ATOM     36  O   UNL A   1      42.846  18.657  26.041  1.00  0.00    -0.269 OA
BRANCH  34  37
ATOM     37  C   UNL A   1      42.387  20.919  26.478  1.00  0.00     0.039 A 
ATOM     38  C   UNL A   1      42.625  21.303  27.799  1.00  0.00     0.014 A 
ATOM     39  C   UNL A   1      42.524  21.845  25.441  1.00  0.00     0.014 A 
ATOM     40  C   UNL A   1      43.068  22.599  28.073  1.00  0.00     0.010 A 
ATOM     41  C   UNL A   1      43.039  23.111  25.708  1.00  0.00     0.010 A 
ATOM     42  C   UNL A   1      43.318  23.501  27.026  1.00  0.00    -0.014 A 
BRANCH  42  43
ATOM     43  C   UNL A   1      43.890  24.847  27.292  1.00  0.00     0.031 A 
ATOM     44  C   UNL A   1      43.010  25.967  27.777  1.00  0.00     0.074 A 
ATOM     45  C   UNL A   1      45.196  25.074  27.040  1.00  0.00     0.049 A 
ATOM     46  N   UNL A   1      43.324  27.213  28.019  1.00  0.00    -0.248 NA
ATOM     47  C   UNL A   1      41.589  25.652  27.995  1.00  0.00     0.031 C 
ATOM     48  C   UNL A   1      46.145  24.082  26.528  1.00  0.00     0.029 A 
ATOM     49  N   UNL A   1      45.949  26.213  27.174  1.00  0.00    -0.354 N 
ATOM     50  C   UNL A   1      42.141  27.834  28.404  1.00  0.00     0.074 A 
ATOM     51  C   UNL A   1      41.094  26.840  28.314  1.00  0.00     0.031 C 
ATOM     52  C   UNL A   1      47.358  24.647  26.423  1.00  0.00     0.029 A 
ATOM     53  C   UNL A   1      47.267  26.050  26.811  1.00  0.00     0.049 A 
ATOM     54  H   UNL A   1      45.583  27.067  27.500  1.00  0.00     0.167 HD
ATOM     55  C   UNL A   1      41.947  29.111  28.816  1.00  0.00     0.031 A 
ATOM     56  C   UNL A   1      48.286  26.932  26.785  1.00  0.00     0.031 A 
ATOM     57  C   UNL A   1      42.993  30.096  28.907  1.00  0.00     0.049 A 
ATOM     58  C   UNL A   1      48.041  28.348  27.226  1.00  0.00     0.074 A 
ATOM     59  C   UNL A   1      42.907  31.399  29.364  1.00  0.00     0.029 A 
ATOM     60  N   UNL A   1      44.311  29.890  28.532  1.00  0.00    -0.354 N 
ATOM     61  N   UNL A   1      46.928  28.897  27.654  1.00  0.00    -0.248 NA
ATOM     62  C   UNL A   1      49.190  29.262  27.191  1.00  0.00     0.031 C 
ATOM     63  C   UNL A   1      44.159  32.001  29.206  1.00  0.00     0.029 A 
ATOM     64  C   UNL A   1      45.043  31.052  28.719  1.00  0.00     0.049 A 
ATOM     65  H   UNL A   1      44.675  29.044  28.185  1.00  0.00     0.167 HD
ATOM     66  C   UNL A   1      47.251  30.212  27.968  1.00  0.00     0.074 A 
ATOM     67  C   UNL A   1      48.666  30.371  27.695  1.00  0.00     0.031 C 
ATOM     68  C   UNL A   1      46.451  31.199  28.443  1.00  0.00     0.031 A 
BRANCH  55  69
ATOM     69  C   UNL A   1      40.545  29.519  29.189  1.00  0.00    -0.014 A 
ATOM     70  C   UNL A   1      40.195  29.784  30.526  1.00  0.00     0.010 A 
ATOM     71  C   UNL A   1      39.573  29.684  28.185  1.00  0.00     0.010 A 
ATOM     72  C   UNL A   1      38.892  30.165  30.856  1.00  0.00     0.020 A 
ATOM     73  C   UNL A   1      38.276  30.095  28.507  1.00  0.00     0.020 A 
ATOM     74  C   UNL A   1      37.940  30.317  29.843  1.00  0.00     0.054 A 
BRANCH  74  75
ATOM     75  S   UNL A   1      36.263  30.836  30.300  1.00  0.00     0.124 S 
ATOM     76  O   UNL A   1      35.994  29.995  31.464  1.00  0.00    -0.237 OA
ATOM     77  O   UNL A   1      36.434  32.259  30.579  1.00  0.00    -0.237 OA
ATOM     78  O   UNL A   1      35.468  30.527  29.113  1.00  0.00    -0.744 OA
ENDBRANCH  74  75
ENDBRANCH  55  69
BRANCH  56  79
ATOM     79  C   UNL A   1      49.636  26.494  26.333  1.00  0.00    -0.014 A 
ATOM     80  C   UNL A   1      50.064  26.736  25.016  1.00  0.00     0.010 A 
ATOM     81  C   UNL A   1      50.508  25.841  27.224  1.00  0.00     0.010 A 
ATOM     82  C   UNL A   1      51.328  26.317  24.593  1.00  0.00     0.020 A 
ATOM     83  C   UNL A   1      51.784  25.447  26.814  1.00  0.00     0.020 A 
ATOM     84  C   UNL A   1      52.183  25.678  25.495  1.00  0.00     0.054 A 
BRANCH  84  85
ATOM     85  S   UNL A   1      53.837  25.185  24.937  1.00  0.00     0.124 S 
ATOM     86  O   UNL A   1      54.690  25.754  25.976  1.00  0.00    -0.237 OA
ATOM     87  O   UNL A   1      53.742  23.727  24.923  1.00  0.00    -0.237 OA
ATOM     88  O   UNL A   1      53.954  25.807  23.621  1.00  0.00    -0.744 OA
ENDBRANCH  84  85
ENDBRANCH  56  79
BRANCH  68  89
ATOM     89  C   UNL A   1      47.087  32.532  28.735  1.00  0.00    -0.014 A 
ATOM     90  C   UNL A   1      47.677  32.804  29.982  1.00  0.00     0.010 A 
ATOM     91  C   UNL A   1      47.144  33.508  27.723  1.00  0.00     0.010 A 
ATOM     92  C   UNL A   1      48.286  34.040  30.220  1.00  0.00     0.020 A 
ATOM     93  C   UNL A   1      47.780  34.731  27.946  1.00  0.00     0.020 A 
ATOM     94  C   UNL A   1      48.335  34.995  29.199  1.00  0.00     0.054 A 
BRANCH  94  95
ATOM     95  S   UNL A   1      49.173  36.571  29.519  1.00  0.00     0.124 S 
ATOM     96  O   UNL A   1      48.079  37.401  30.019  1.00  0.00    -0.237 OA
ATOM     97  O   UNL A   1      50.184  36.201  30.506  1.00  0.00    -0.237 OA
ATOM     98  O   UNL A   1      49.699  36.957  28.212  1.00  0.00    -0.744 OA
ENDBRANCH  94  95
ENDBRANCH  68  89
ENDBRANCH  42  43
ENDBRANCH  34  37
ENDBRANCH  32  33
ENDBRANCH   1  32
TORSDOF 18
ENDMDL
MODEL 3
REMARK VINA RESULT:     -12.3      5.898      8.144
REMARK SMILES O=C(C[C@H](NC(=O)[C@]12C[C@H]3C[C@H](C[C@H](C3)C1)C2)c1cccc([N+](=O)[O-])c1)NCCCNC(=O)c1ccc(-c2c3nc(c(-c4ccc(S(=O)(=O)[O-])cc4)c4ccc([nH]4)c(-c4ccc(S(=O)(=O)[O-])cc4)c4nc(c(-c5ccc(S(=O)(=O)[O-])cc5)c5ccc2[nH]5)C=C4)C=C3)cc1
REMARK SMILES IDX 29 1 28 2 27 3 1 4 2 5 3 7 4 8 18 9 19 10 26 11 20 12 22 13
REMARK SMILES IDX 21 14 23 15 24 16 25 17 5 18 6 19 7 21 8 22 9 23 16 24 17 25
REMARK SMILES IDX 10 26 14 27 12 28 11 29 15 30 13 31 30 32 31 33 32 34 33 36
REMARK SMILES IDX 34 37 35 38 93 39 36 40 92 41 37 42 38 43 39 44 86 45 40 46
REMARK SMILES IDX 91 47 85 48 87 49 41 50 90 51 84 52 83 53 42 55 72 56 53 57
REMARK SMILES IDX 71 58 54 59 57 60 70 61 88 62 55 63 56 64 69 66 89 67 58 68
REMARK SMILES IDX 43 69 44 70 52 71 45 72 51 73 46 74 47 75 48 76 49 77 50 78
REMARK SMILES IDX 73 79 74 80 82 81 75 82 81 83 76 84 77 85 78 86 79 87 80 88
REMARK SMILES IDX 59 89 60 90 68 91 61 92 67 93 62 94 63 95 64 96 65 97 66 98
REMARK H PARENT 27 6 5 20 31 35 87 54 57 65
REMARK Flexibility Score: inf
ROOT
ATOM      1  C   UNL A   1      39.267  22.459  26.516  1.00  0.00     0.042 C 
ENDROOT
BRANCH   1   2
ATOM      2  C   UNL A   1      37.983  22.807  25.769  1.00  0.00     0.117 C 
BRANCH   2   3
ATOM      3  N   UNL A   1      36.810  22.177  26.347  1.00  0.00    -0.356 N 
ATOM      4  O   UNL A   1      35.411  22.899  24.697  1.00  0.00    -0.275 OA
ATOM      5  C   UNL A   1      35.584  22.272  25.737  1.00  0.00     0.222 C 
ATOM      6  H   UNL A   1      36.896  21.674  27.190  1.00  0.00     0.163 HD
BRANCH   5   7
ATOM      7  C   UNL A   1      34.438  21.616  26.477  1.00  0.00     0.129 C 
BRANCH   7   8
ATOM      8  C   UNL A   1      33.099  21.567  25.723  1.00  0.00     0.122 C 
BRANCH   8   9
ATOM      9  C   UNL A   1      32.917  20.274  24.923  1.00  0.00    -0.018 A 
ATOM     10  C   UNL A   1      32.500  20.262  23.586  1.00  0.00     0.006 A 
ATOM     11  C   UNL A   1      33.154  19.026  25.531  1.00  0.00     0.091 A 
ATOM     12  C   UNL A   1      32.210  19.078  22.903  1.00  0.00     0.007 A 
ATOM     13  C   UNL A   1      32.918  17.831  24.827  1.00  0.00     0.269 A 
ATOM     14  C   UNL A   1      32.412  17.854  23.524  1.00  0.00     0.085 A 
BRANCH  13  15
ATOM     15  N   UNL A   1      33.223  16.539  25.454  1.00  0.00     0.062 N 
ATOM     16  O   UNL A   1      32.272  15.852  25.852  1.00  0.00    -0.258 OA
ATOM     17  O   UNL A   1      34.414  16.208  25.533  1.00  0.00    -0.258 OA
ENDBRANCH  13  15
ENDBRANCH   8   9
BRANCH   8  18
ATOM     18  N   UNL A   1      31.892  22.050  26.415  1.00  0.00    -0.348 N 
ATOM     19  C   UNL A   1      31.031  23.090  26.450  1.00  0.00     0.226 C 
ATOM     20  H   UNL A   1      31.617  21.383  27.085  1.00  0.00     0.164 HD
ATOM     21  O   UNL A   1      30.122  22.939  27.285  1.00  0.00    -0.274 OA
BRANCH  19  22
ATOM     22  C   UNL A   1      31.098  24.415  25.666  1.00  0.00     0.050 C 
ATOM     23  C   UNL A   1      32.465  25.097  25.984  1.00  0.00     0.020 C 
ATOM     24  C   UNL A   1      30.000  25.445  25.947  1.00  0.00     0.020 C 
ATOM     25  C   UNL A   1      31.133  24.087  24.144  1.00  0.00     0.020 C 
ATOM     26  C   UNL A   1      32.650  26.384  25.151  1.00  0.00    -0.010 C 
ATOM     27  C   UNL A   1      30.162  26.711  25.104  1.00  0.00    -0.010 C 
ATOM     28  C   UNL A   1      31.280  25.365  23.302  1.00  0.00    -0.010 C 
ATOM     29  C   UNL A   1      32.614  26.040  23.653  1.00  0.00     0.007 C 
ATOM     30  C   UNL A   1      31.506  27.362  25.457  1.00  0.00     0.007 C 
ATOM     31  C   UNL A   1      30.122  26.322  23.621  1.00  0.00     0.007 C 
ENDBRANCH  19  22
ENDBRANCH   8  18
ENDBRANCH   7   8
ENDBRANCH   5   7
ENDBRANCH   2   3
ENDBRANCH   1   2
BRANCH   1  32
ATOM     32  C   UNL A   1      40.036  23.668  27.038  1.00  0.00     0.118 C 
BRANCH  32  33
ATOM     33  N   UNL A   1      40.888  24.283  26.030  1.00  0.00    -0.352 N 
ATOM     34  C   UNL A   1      41.345  25.575  25.929  1.00  0.00     0.251 C 
ATOM     35  H   UNL A   1      41.182  23.681  25.309  1.00  0.00     0.163 HD
ATOM     36  O   UNL A   1      41.948  25.924  24.922  1.00  0.00    -0.269 OA
BRANCH  34  37
ATOM     37  C   UNL A   1      41.082  26.543  27.017  1.00  0.00     0.039 A 
ATOM     38  C   UNL A   1      40.207  26.176  28.041  1.00  0.00     0.014 A 
ATOM     39  C   UNL A   1      41.693  27.799  27.031  1.00  0.00     0.014 A 
ATOM     40  C   UNL A   1      39.998  27.043  29.116  1.00  0.00     0.010 A 
ATOM     41  C   UNL A   1      41.544  28.628  28.140  1.00  0.00     0.010 A 
ATOM     42  C   UNL A   1      40.696  28.259  29.195  1.00  0.00    -0.014 A 
BRANCH  42  43
ATOM     43  C   UNL A   1      40.566  29.143  30.382  1.00  0.00     0.031 A 
ATOM     44  C   UNL A   1      41.447  28.939  31.585  1.00  0.00     0.074 A 
ATOM     45  C   UNL A   1      39.611  30.095  30.398  1.00  0.00     0.049 A 
ATOM     46  N   UNL A   1      41.447  29.582  32.723  1.00  0.00    -0.248 NA
ATOM     47  C   UNL A   1      42.442  27.856  31.507  1.00  0.00     0.031 C 
ATOM     48  C   UNL A   1      38.667  30.366  29.311  1.00  0.00     0.029 A 
ATOM     49  N   UNL A   1      39.273  31.010  31.365  1.00  0.00    -0.354 N 
ATOM     50  C   UNL A   1      42.427  28.977  33.501  1.00  0.00     0.074 A 
ATOM     51  C   UNL A   1      42.966  27.882  32.725  1.00  0.00     0.031 C 
ATOM     52  C   UNL A   1      37.879  31.397  29.659  1.00  0.00     0.029 A 
ATOM     53  C   UNL A   1      38.227  31.829  31.009  1.00  0.00     0.049 A 
ATOM     54  H   UNL A   1      39.736  31.073  32.232  1.00  0.00     0.167 HD
ATOM     55  C   UNL A   1      42.854  29.313  34.743  1.00  0.00     0.031 A 
ATOM     56  C   UNL A   1      37.610  32.813  31.692  1.00  0.00     0.031 A 
ATOM     57  C   UNL A   1      42.317  30.406  35.511  1.00  0.00     0.049 A 
ATOM     58  C   UNL A   1      38.088  33.155  33.076  1.00  0.00     0.074 A 
ATOM     59  C   UNL A   1      42.720  30.861  36.754  1.00  0.00     0.029 A 
ATOM     60  N   UNL A   1      41.261  31.211  35.114  1.00  0.00    -0.354 N 
ATOM     61  N   UNL A   1      39.065  32.615  33.767  1.00  0.00    -0.248 NA
ATOM     62  C   UNL A   1      37.390  34.245  33.770  1.00  0.00     0.031 C 
ATOM     63  C   UNL A   1      41.866  31.901  37.137  1.00  0.00     0.029 A 
ATOM     64  C   UNL A   1      40.979  32.142  36.101  1.00  0.00     0.049 A 
ATOM     65  H   UNL A   1      40.783  31.135  34.257  1.00  0.00     0.167 HD
ATOM     66  C   UNL A   1      39.117  33.320  34.964  1.00  0.00     0.074 A 
ATOM     67  C   UNL A   1      38.085  34.335  34.896  1.00  0.00     0.031 C 
ATOM     68  C   UNL A   1      39.947  33.146  36.022  1.00  0.00     0.031 A 
BRANCH  55  69
ATOM     69  C   UNL A   1      43.954  28.482  35.352  1.00  0.00    -0.014 A 
ATOM     70  C   UNL A   1      43.662  27.345  36.128  1.00  0.00     0.010 A 
ATOM     71  C   UNL A   1      45.299  28.814  35.109  1.00  0.00     0.010 A 
ATOM     72  C   UNL A   1      44.692  26.581  36.684  1.00  0.00     0.020 A 
ATOM     73  C   UNL A   1      46.333  28.035  35.637  1.00  0.00     0.020 A 
ATOM     74  C   UNL A   1      46.022  26.933  36.435  1.00  0.00     0.054 A 
BRANCH  74  75
ATOM     75  S   UNL A   1      47.338  25.910  37.150  1.00  0.00     0.124 S 
ATOM     76  O   UNL A   1      46.875  25.741  38.525  1.00  0.00    -0.237 OA
ATOM     77  O   UNL A   1      47.294  24.708  36.320  1.00  0.00    -0.237 OA
ATOM     78  O   UNL A   1      48.539  26.728  36.993  1.00  0.00    -0.744 OA
ENDBRANCH  74  75
ENDBRANCH  55  69
BRANCH  56  79
ATOM     79  C   UNL A   1      36.477  33.553  31.070  1.00  0.00    -0.014 A 
ATOM     80  C   UNL A   1      36.497  33.875  29.701  1.00  0.00     0.010 A 
ATOM     81  C   UNL A   1      35.363  33.931  31.843  1.00  0.00     0.010 A 
ATOM     82  C   UNL A   1      35.436  34.577  29.122  1.00  0.00     0.020 A 
ATOM     83  C   UNL A   1      34.287  34.606  31.261  1.00  0.00     0.020 A 
ATOM     84  C   UNL A   1      34.336  34.936  29.905  1.00  0.00     0.054 A 
BRANCH  84  85
ATOM     85  S   UNL A   1      32.949  35.804  29.121  1.00  0.00     0.124 S 
ATOM     86  O   UNL A   1      33.626  36.901  28.437  1.00  0.00    -0.237 OA
ATOM     87  O   UNL A   1      32.381  34.772  28.256  1.00  0.00    -0.237 OA
ATOM     88  O   UNL A   1      32.107  36.193  30.249  1.00  0.00    -0.744 OA
ENDBRANCH  84  85
ENDBRANCH  56  79
BRANCH  68  89
ATOM     89  C   UNL A   1      39.803  34.095  37.183  1.00  0.00    -0.014 A 
ATOM     90  C   UNL A   1      40.442  35.347  37.190  1.00  0.00     0.010 A 
ATOM     91  C   UNL A   1      38.966  33.747  38.260  1.00  0.00     0.010 A 
ATOM     92  C   UNL A   1      40.271  36.221  38.268  1.00  0.00     0.020 A 
ATOM     93  C   UNL A   1      38.766  34.631  39.323  1.00  0.00     0.020 A 
ATOM     94  C   UNL A   1      39.431  35.858  39.327  1.00  0.00     0.054 A 
BRANCH  94  95
ATOM     95  S   UNL A   1      39.189  37.030  40.688  1.00  0.00     0.124 S 
ATOM     96  O   UNL A   1      38.291  38.013  40.087  1.00  0.00    -0.237 OA
ATOM     97  O   UNL A   1      38.598  36.193  41.729  1.00  0.00    -0.237 OA
ATOM     98  O   UNL A   1      40.537  37.513  40.977  1.00  0.00    -0.744 OA
ENDBRANCH  94  95
ENDBRANCH  68  89
ENDBRANCH  42  43
ENDBRANCH  34  37
ENDBRANCH  32  33
ENDBRANCH   1  32
TORSDOF 18
ENDMDL
