MODEL 1
REMARK VINA RESULT:     -13.2      0.000      0.000
REMARK SMILES Cc1c(CC(=O)NCCCNC(=O)c2ccc(-c3c4nc(c(-c5ccc(S(=O)(=O)[O-])cc5)c5ccc([nH]5)c(-c5ccc(S(=O)(=O)[O-])cc5)c5nc(c(-c6ccc(S(=O)(=O)[O-])cc6)c6ccc3[nH]6)C=C5)C=C4)cc2)cc(-c2ccc(S(C)(=O)=O)cc2)n1-c1ccccc1
REMARK SMILES IDX 9 1 8 2 7 3 5 4 6 5 4 7 3 8 1 9 2 10 86 11 74 12 75 13 87 14
REMARK SMILES IDX 88 15 92 16 89 17 91 18 90 19 76 20 77 21 85 22 78 23 84 24
REMARK SMILES IDX 79 25 80 26 81 27 82 28 83 29 10 30 11 31 12 32 13 34 14 35
REMARK SMILES IDX 15 36 73 37 16 38 72 39 17 40 18 41 19 42 66 43 20 44 71 45
REMARK SMILES IDX 65 46 67 47 21 48 70 49 64 50 63 51 22 53 52 54 33 55 51 56
REMARK SMILES IDX 34 57 37 58 50 59 68 60 35 61 36 62 49 64 69 65 38 66 23 67
REMARK SMILES IDX 24 68 32 69 25 70 31 71 26 72 27 73 28 74 29 75 30 76 53 77
REMARK SMILES IDX 54 78 62 79 55 80 61 81 56 82 57 83 58 84 59 85 60 86 39 87
REMARK SMILES IDX 40 88 48 89 41 90 47 91 42 92 43 93 44 94 45 95 46 96
REMARK H PARENT 7 6 11 33 67 52 37 63
REMARK Flexibility Score: inf
ROOT
ATOM      1  C   UNL A   1      32.157  28.961  26.961  1.00  0.00     0.042 C 
ENDROOT
BRANCH   1   2
ATOM      2  C   UNL A   1      31.420  28.060  25.927  1.00  0.00     0.117 C 
BRANCH   2   3
ATOM      3  N   UNL A   1      30.569  27.032  26.503  1.00  0.00    -0.356 N 
ATOM      4  C   UNL A   1      30.054  25.874  25.998  1.00  0.00     0.224 C 
ATOM      5  O   UNL A   1      29.383  25.172  26.763  1.00  0.00    -0.275 OA
ATOM      6  H   UNL A   1      30.315  27.206  27.439  1.00  0.00     0.163 HD
BRANCH   4   7
ATOM      7  C   UNL A   1      30.332  25.398  24.581  1.00  0.00     0.137 C 
BRANCH   7   8
ATOM      8  C   UNL A   1      31.402  24.359  24.479  1.00  0.00    -0.017 A 
ATOM      9  C   UNL A   1      33.516  25.850  24.378  1.00  0.00     0.065 C 
ATOM     10  C   UNL A   1      32.777  24.550  24.448  1.00  0.00     0.024 A 
ATOM     11  N   UNL A   1      33.390  23.301  24.417  1.00  0.00    -0.314 N 
ATOM     12  C   UNL A   1      31.177  22.968  24.329  1.00  0.00     0.033 A 
ATOM     13  C   UNL A   1      32.398  22.321  24.324  1.00  0.00     0.053 A 
BRANCH  11  14
ATOM     14  C   UNL A   1      34.783  23.041  24.511  1.00  0.00     0.046 A 
ATOM     15  C   UNL A   1      35.428  23.151  25.749  1.00  0.00     0.026 A 
ATOM     16  C   UNL A   1      35.519  22.803  23.346  1.00  0.00     0.026 A 
ATOM     17  C   UNL A   1      36.816  23.052  25.817  1.00  0.00     0.002 A 
ATOM     18  C   UNL A   1      36.910  22.716  23.422  1.00  0.00     0.002 A 
ATOM     19  C   UNL A   1      37.557  22.847  24.652  1.00  0.00     0.000 A 
ENDBRANCH  11  14
BRANCH  13  20
ATOM     20  C   UNL A   1      32.636  20.874  24.334  1.00  0.00    -0.001 A 
ATOM     21  C   UNL A   1      33.206  20.243  25.451  1.00  0.00     0.011 A 
ATOM     22  C   UNL A   1      32.312  20.107  23.207  1.00  0.00     0.011 A 
ATOM     23  C   UNL A   1      33.504  18.879  25.426  1.00  0.00     0.021 A 
ATOM     24  C   UNL A   1      32.603  18.742  23.174  1.00  0.00     0.021 A 
ATOM     25  C   UNL A   1      33.215  18.139  24.277  1.00  0.00     0.067 A 
BRANCH  25  26
ATOM     26  S   UNL A   1      33.596  16.405  24.246  1.00  0.00     0.175 S 
ATOM     27  C   UNL A   1      35.017  16.240  25.292  1.00  0.00     0.163 C 
ATOM     28  O   UNL A   1      32.489  15.711  24.856  1.00  0.00    -0.224 OA
ATOM     29  O   UNL A   1      34.025  16.076  22.887  1.00  0.00    -0.224 OA
ENDBRANCH  25  26
ENDBRANCH  13  20
ENDBRANCH   7   8
ENDBRANCH   4   7
ENDBRANCH   2   3
ENDBRANCH   1   2
BRANCH   1  30
ATOM     30  C   UNL A   1      33.505  29.697  26.573  1.00  0.00     0.118 C 
BRANCH  30  31
ATOM     31  N   UNL A   1      33.784  30.960  27.274  1.00  0.00    -0.352 N 
ATOM     32  C   UNL A   1      34.659  31.493  28.237  1.00  0.00     0.251 C 
ATOM     33  H   UNL A   1      33.157  31.657  26.970  1.00  0.00     0.163 HD
ATOM     34  O   UNL A   1      34.281  32.650  28.508  1.00  0.00    -0.269 OA
BRANCH  32  35
ATOM     35  C   UNL A   1      35.945  30.970  29.031  1.00  0.00     0.039 A 
ATOM     36  C   UNL A   1      37.125  31.680  28.782  1.00  0.00     0.014 A 
ATOM     37  C   UNL A   1      36.272  29.911  29.899  1.00  0.00     0.014 A 
ATOM     38  C   UNL A   1      38.498  31.340  29.294  1.00  0.00     0.010 A 
ATOM     39  C   UNL A   1      37.694  29.688  30.588  1.00  0.00     0.010 A 
ATOM     40  C   UNL A   1      38.921  30.411  30.335  1.00  0.00    -0.014 A 
BRANCH  40  41
ATOM     41  C   UNL A   1      40.241  30.872  31.570  1.00  0.00     0.031 A 
ATOM     42  C   UNL A   1      38.920  31.902  32.093  1.00  0.00     0.074 A 
ATOM     43  C   UNL A   1      41.902  30.917  32.039  1.00  0.00     0.049 A 
ATOM     44  N   UNL A   1      38.757  33.070  31.484  1.00  0.00    -0.248 NA
ATOM     45  C   UNL A   1      37.876  31.992  33.151  1.00  0.00     0.031 C 
ATOM     46  C   UNL A   1      43.365  30.706  31.429  1.00  0.00     0.029 A 
ATOM     47  N   UNL A   1      42.858  31.099  33.445  1.00  0.00    -0.354 N 
ATOM     48  C   UNL A   1      39.047  33.838  32.551  1.00  0.00     0.074 A 
ATOM     49  C   UNL A   1      37.968  33.330  33.394  1.00  0.00     0.031 C 
ATOM     50  C   UNL A   1      44.435  30.370  32.273  1.00  0.00     0.029 A 
ATOM     51  C   UNL A   1      44.180  30.421  33.741  1.00  0.00     0.049 A 
ATOM     52  H   UNL A   1      42.512  31.710  34.134  1.00  0.00     0.167 HD
ATOM     53  C   UNL A   1      40.419  33.663  32.720  1.00  0.00     0.031 A 
ATOM     54  C   UNL A   1      44.611  29.426  34.766  1.00  0.00     0.031 A 
ATOM     55  C   UNL A   1      40.473  32.565  34.042  1.00  0.00     0.049 A 
ATOM     56  C   UNL A   1      43.357  28.702  35.018  1.00  0.00     0.074 A 
ATOM     57  C   UNL A   1      39.663  32.155  35.159  1.00  0.00     0.029 A 
ATOM     58  N   UNL A   1      41.012  31.289  34.242  1.00  0.00    -0.354 N 
ATOM     59  N   UNL A   1      42.909  27.720  34.308  1.00  0.00    -0.248 NA
ATOM     60  C   UNL A   1      42.510  29.012  36.179  1.00  0.00     0.031 C 
ATOM     61  C   UNL A   1      39.456  30.561  35.017  1.00  0.00     0.029 A 
ATOM     62  C   UNL A   1      40.302  30.074  33.981  1.00  0.00     0.049 A 
ATOM     63  H   UNL A   1      41.933  31.222  34.583  1.00  0.00     0.167 HD
ATOM     64  C   UNL A   1      41.573  27.970  34.399  1.00  0.00     0.074 A 
ATOM     65  C   UNL A   1      41.408  28.373  35.784  1.00  0.00     0.031 C 
ATOM     66  C   UNL A   1      41.045  28.663  33.336  1.00  0.00     0.031 A 
BRANCH  53  67
ATOM     67  C   UNL A   1      40.929  33.781  30.932  1.00  0.00    -0.014 A 
ATOM     68  C   UNL A   1      42.326  33.693  30.540  1.00  0.00     0.010 A 
ATOM     69  C   UNL A   1      40.354  34.538  29.852  1.00  0.00     0.010 A 
ATOM     70  C   UNL A   1      42.980  34.403  29.375  1.00  0.00     0.020 A 
ATOM     71  C   UNL A   1      40.943  35.304  28.759  1.00  0.00     0.020 A 
ATOM     72  C   UNL A   1      42.279  35.244  28.510  1.00  0.00     0.054 A 
BRANCH  72  73
ATOM     73  S   UNL A   1      43.000  36.311  27.187  1.00  0.00     0.124 S 
ATOM     74  O   UNL A   1      41.909  37.219  26.839  1.00  0.00    -0.237 OA
ATOM     75  O   UNL A   1      44.130  36.938  27.868  1.00  0.00    -0.237 OA
ATOM     76  O   UNL A   1      43.365  35.381  26.117  1.00  0.00    -0.744 OA
ENDBRANCH  72  73
ENDBRANCH  53  67
BRANCH  54  77
ATOM     77  C   UNL A   1      45.518  28.983  36.203  1.00  0.00    -0.014 A 
ATOM     78  C   UNL A   1      45.838  29.638  37.424  1.00  0.00     0.010 A 
ATOM     79  C   UNL A   1      46.058  27.617  36.263  1.00  0.00     0.010 A 
ATOM     80  C   UNL A   1      46.500  28.963  38.586  1.00  0.00     0.020 A 
ATOM     81  C   UNL A   1      46.647  26.933  37.393  1.00  0.00     0.020 A 
ATOM     82  C   UNL A   1      46.861  27.606  38.576  1.00  0.00     0.054 A 
BRANCH  82  83
ATOM     83  S   UNL A   1      47.534  26.691  40.060  1.00  0.00     0.124 S 
ATOM     84  O   UNL A   1      47.088  27.499  41.191  1.00  0.00    -0.237 OA
ATOM     85  O   UNL A   1      46.914  25.372  39.953  1.00  0.00    -0.237 OA
ATOM     86  O   UNL A   1      48.984  26.690  39.847  1.00  0.00    -0.744 OA
ENDBRANCH  82  83
ENDBRANCH  54  77
BRANCH  66  87
ATOM     87  C   UNL A   1      41.947  28.227  31.786  1.00  0.00    -0.014 A 
ATOM     88  C   UNL A   1      41.346  28.215  30.457  1.00  0.00     0.010 A 
ATOM     89  C   UNL A   1      43.244  27.613  31.591  1.00  0.00     0.010 A 
ATOM     90  C   UNL A   1      41.732  27.392  29.300  1.00  0.00     0.020 A 
ATOM     91  C   UNL A   1      43.654  26.739  30.450  1.00  0.00     0.020 A 
ATOM     92  C   UNL A   1      42.831  26.557  29.346  1.00  0.00     0.054 A 
BRANCH  92  93
ATOM     93  S   UNL A   1      42.974  25.083  28.208  1.00  0.00     0.124 S 
ATOM     94  O   UNL A   1      43.101  23.946  29.123  1.00  0.00    -0.237 OA
ATOM     95  O   UNL A   1      41.727  25.118  27.451  1.00  0.00    -0.237 OA
ATOM     96  O   UNL A   1      44.189  25.355  27.443  1.00  0.00    -0.744 OA
ENDBRANCH  92  93
ENDBRANCH  66  87
ENDBRANCH  40  41
ENDBRANCH  32  35
ENDBRANCH  30  31
ENDBRANCH   1  30
TORSDOF 17
ENDMDL
MODEL 2
REMARK VINA RESULT:     -13.0      3.844      6.843
REMARK SMILES Cc1c(CC(=O)NCCCNC(=O)c2ccc(-c3c4nc(c(-c5ccc(S(=O)(=O)[O-])cc5)c5ccc([nH]5)c(-c5ccc(S(=O)(=O)[O-])cc5)c5nc(c(-c6ccc(S(=O)(=O)[O-])cc6)c6ccc3[nH]6)C=C5)C=C4)cc2)cc(-c2ccc(S(C)(=O)=O)cc2)n1-c1ccccc1
REMARK SMILES IDX 9 1 8 2 7 3 5 4 6 5 4 7 3 8 1 9 2 10 86 11 74 12 75 13 87 14
REMARK SMILES IDX 88 15 92 16 89 17 91 18 90 19 76 20 77 21 85 22 78 23 84 24
REMARK SMILES IDX 79 25 80 26 81 27 82 28 83 29 10 30 11 31 12 32 13 34 14 35
REMARK SMILES IDX 15 36 73 37 16 38 72 39 17 40 18 41 19 42 66 43 20 44 71 45
REMARK SMILES IDX 65 46 67 47 21 48 70 49 64 50 63 51 22 53 52 54 33 55 51 56
REMARK SMILES IDX 34 57 37 58 50 59 68 60 35 61 36 62 49 64 69 65 38 66 23 67
REMARK SMILES IDX 24 68 32 69 25 70 31 71 26 72 27 73 28 74 29 75 30 76 53 77
REMARK SMILES IDX 54 78 62 79 55 80 61 81 56 82 57 83 58 84 59 85 60 86 39 87
REMARK SMILES IDX 40 88 48 89 41 90 47 91 42 92 43 93 44 94 45 95 46 96
REMARK H PARENT 7 6 11 33 67 52 37 63
REMARK Flexibility Score: inf
ROOT
ATOM      1  C   UNL A   1      32.792  28.488  27.530  1.00  0.00     0.042 C 
ENDROOT
BRANCH   1   2
ATOM      2  C   UNL A   1      31.823  28.056  26.390  1.00  0.00     0.117 C 
BRANCH   2   3
ATOM      3  N   UNL A   1      30.824  27.073  26.773  1.00  0.00    -0.356 N 
ATOM      4  C   UNL A   1      30.258  26.027  26.104  1.00  0.00     0.224 C 
ATOM      5  O   UNL A   1      29.447  25.330  26.725  1.00  0.00    -0.275 OA
ATOM      6  H   UNL A   1      30.491  27.182  27.694  1.00  0.00     0.163 HD
BRANCH   4   7
ATOM      7  C   UNL A   1      30.635  25.661  24.677  1.00  0.00     0.137 C 
BRANCH   7   8
ATOM      8  C   UNL A   1      31.656  24.574  24.571  1.00  0.00    -0.017 A 
ATOM      9  C   UNL A   1      33.837  25.967  24.483  1.00  0.00     0.065 C 
ATOM     10  C   UNL A   1      33.039  24.702  24.543  1.00  0.00     0.024 A 
ATOM     11  N   UNL A   1      33.594  23.426  24.504  1.00  0.00    -0.314 N 
ATOM     12  C   UNL A   1      31.368  23.196  24.411  1.00  0.00     0.033 A 
ATOM     13  C   UNL A   1      32.558  22.493  24.404  1.00  0.00     0.053 A 
BRANCH  11  14
ATOM     14  C   UNL A   1      34.974  23.102  24.600  1.00  0.00     0.046 A 
ATOM     15  C   UNL A   1      35.685  22.746  23.447  1.00  0.00     0.026 A 
ATOM     16  C   UNL A   1      35.575  23.017  25.859  1.00  0.00     0.026 A 
ATOM     17  C   UNL A   1      36.992  22.276  23.558  1.00  0.00     0.002 A 
ATOM     18  C   UNL A   1      36.881  22.536  25.961  1.00  0.00     0.002 A 
ATOM     19  C   UNL A   1      37.584  22.160  24.816  1.00  0.00     0.000 A 
ENDBRANCH  11  14
BRANCH  13  20
ATOM     20  C   UNL A   1      32.729  21.037  24.405  1.00  0.00    -0.001 A 
ATOM     21  C   UNL A   1      33.231  20.369  25.533  1.00  0.00     0.011 A 
ATOM     22  C   UNL A   1      32.410  20.297  23.258  1.00  0.00     0.011 A 
ATOM     23  C   UNL A   1      33.467  18.993  25.502  1.00  0.00     0.021 A 
ATOM     24  C   UNL A   1      32.639  18.921  23.220  1.00  0.00     0.021 A 
ATOM     25  C   UNL A   1      33.185  18.279  24.335  1.00  0.00     0.067 A 
BRANCH  25  26
ATOM     26  S   UNL A   1      33.486  16.530  24.297  1.00  0.00     0.175 S 
ATOM     27  C   UNL A   1      34.951  16.306  25.269  1.00  0.00     0.163 C 
ATOM     28  O   UNL A   1      32.383  15.889  24.967  1.00  0.00    -0.224 OA
ATOM     29  O   UNL A   1      33.830  16.176  22.920  1.00  0.00    -0.224 OA
ENDBRANCH  25  26
ENDBRANCH  13  20
ENDBRANCH   7   8
ENDBRANCH   4   7
ENDBRANCH   2   3
ENDBRANCH   1   2
BRANCH   1  30
ATOM     30  C   UNL A   1      34.259  28.985  27.196  1.00  0.00     0.118 C 
BRANCH  30  31
ATOM     31  N   UNL A   1      34.857  29.937  28.143  1.00  0.00    -0.352 N 
ATOM     32  C   UNL A   1      35.970  30.065  28.992  1.00  0.00     0.251 C 
ATOM     33  H   UNL A   1      34.298  30.747  28.201  1.00  0.00     0.163 HD
ATOM     34  O   UNL A   1      35.834  31.110  29.659  1.00  0.00    -0.269 OA
BRANCH  32  35
ATOM     35  C   UNL A   1      37.289  29.209  29.290  1.00  0.00     0.039 A 
ATOM     36  C   UNL A   1      38.044  28.870  28.162  1.00  0.00     0.014 A 
ATOM     37  C   UNL A   1      37.909  28.609  30.402  1.00  0.00     0.014 A 
ATOM     38  C   UNL A   1      39.255  27.979  28.131  1.00  0.00     0.010 A 
ATOM     39  C   UNL A   1      39.304  27.834  30.373  1.00  0.00     0.010 A 
ATOM     40  C   UNL A   1      40.091  27.474  29.213  1.00  0.00    -0.014 A 
BRANCH  40  41
ATOM     41  C   UNL A   1      41.950  27.440  29.070  1.00  0.00     0.031 A 
ATOM     42  C   UNL A   1      41.499  27.894  27.437  1.00  0.00     0.074 A 
ATOM     43  C   UNL A   1      43.489  26.933  29.669  1.00  0.00     0.049 A 
ATOM     44  N   UNL A   1      41.184  26.927  26.582  1.00  0.00    -0.248 NA
ATOM     45  C   UNL A   1      41.436  29.085  26.545  1.00  0.00     0.031 C 
ATOM     46  C   UNL A   1      44.131  25.912  30.719  1.00  0.00     0.029 A 
ATOM     47  N   UNL A   1      45.143  27.342  29.533  1.00  0.00    -0.354 N 
ATOM     48  C   UNL A   1      42.229  27.114  25.754  1.00  0.00     0.074 A 
ATOM     49  C   UNL A   1      41.895  28.493  25.406  1.00  0.00     0.031 C 
ATOM     50  C   UNL A   1      45.412  26.154  31.238  1.00  0.00     0.029 A 
ATOM     51  C   UNL A   1      46.192  27.266  30.623  1.00  0.00     0.049 A 
ATOM     52  H   UNL A   1      45.445  27.661  28.652  1.00  0.00     0.167 HD
ATOM     53  C   UNL A   1      43.320  26.658  26.491  1.00  0.00     0.031 A 
ATOM     54  C   UNL A   1      47.005  28.296  31.332  1.00  0.00     0.031 A 
ATOM     55  C   UNL A   1      44.031  28.132  27.016  1.00  0.00     0.049 A 
ATOM     56  C   UNL A   1      46.120  29.468  31.264  1.00  0.00     0.074 A 
ATOM     57  C   UNL A   1      44.092  29.517  26.630  1.00  0.00     0.029 A 
ATOM     58  N   UNL A   1      44.336  28.689  28.263  1.00  0.00    -0.354 N 
ATOM     59  N   UNL A   1      45.154  29.719  32.085  1.00  0.00    -0.248 NA
ATOM     60  C   UNL A   1      46.308  30.517  30.251  1.00  0.00     0.031 C 
ATOM     61  C   UNL A   1      43.569  30.371  27.895  1.00  0.00     0.029 A 
ATOM     62  C   UNL A   1      43.430  29.503  29.015  1.00  0.00     0.049 A 
ATOM     63  H   UNL A   1      45.226  28.513  28.645  1.00  0.00     0.167 HD
ATOM     64  C   UNL A   1      44.274  30.298  31.223  1.00  0.00     0.074 A 
ATOM     65  C   UNL A   1      45.127  31.121  30.384  1.00  0.00     0.031 C 
ATOM     66  C   UNL A   1      43.310  29.450  30.730  1.00  0.00     0.031 A 
BRANCH  53  67
ATOM     67  C   UNL A   1      42.548  25.111  27.184  1.00  0.00    -0.014 A 
ATOM     68  C   UNL A   1      43.364  24.056  27.764  1.00  0.00     0.010 A 
ATOM     69  C   UNL A   1      41.372  24.393  26.768  1.00  0.00     0.010 A 
ATOM     70  C   UNL A   1      43.073  22.573  27.733  1.00  0.00     0.020 A 
ATOM     71  C   UNL A   1      41.075  22.970  26.644  1.00  0.00     0.020 A 
ATOM     72  C   UNL A   1      41.935  22.036  27.130  1.00  0.00     0.054 A 
BRANCH  72  73
ATOM     73  S   UNL A   1      41.574  20.246  26.856  1.00  0.00     0.124 S 
ATOM     74  O   UNL A   1      42.346  19.572  27.899  1.00  0.00    -0.237 OA
ATOM     75  O   UNL A   1      40.125  20.186  27.027  1.00  0.00    -0.237 OA
ATOM     76  O   UNL A   1      42.046  19.975  25.498  1.00  0.00    -0.744 OA
ENDBRANCH  72  73
ENDBRANCH  53  67
BRANCH  54  77
ATOM     77  C   UNL A   1      48.535  29.086  31.681  1.00  0.00    -0.014 A 
ATOM     78  C   UNL A   1      49.037  29.857  32.766  1.00  0.00     0.010 A 
ATOM     79  C   UNL A   1      49.620  28.914  30.704  1.00  0.00     0.010 A 
ATOM     80  C   UNL A   1      50.466  30.283  32.897  1.00  0.00     0.020 A 
ATOM     81  C   UNL A   1      51.015  29.268  30.839  1.00  0.00     0.020 A 
ATOM     82  C   UNL A   1      51.453  29.950  31.954  1.00  0.00     0.054 A 
BRANCH  82  83
ATOM     83  S   UNL A   1      53.272  30.319  32.167  1.00  0.00     0.124 S 
ATOM     84  O   UNL A   1      53.280  31.584  32.896  1.00  0.00    -0.237 OA
ATOM     85  O   UNL A   1      53.766  29.165  32.915  1.00  0.00    -0.237 OA
ATOM     86  O   UNL A   1      53.777  30.405  30.794  1.00  0.00    -0.744 OA
ENDBRANCH  82  83
ENDBRANCH  54  77
BRANCH  66  87
ATOM     87  C   UNL A   1      42.887  28.172  31.993  1.00  0.00    -0.014 A 
ATOM     88  C   UNL A   1      41.533  27.881  32.450  1.00  0.00     0.010 A 
ATOM     89  C   UNL A   1      43.733  27.432  32.905  1.00  0.00     0.010 A 
ATOM     90  C   UNL A   1      41.116  27.359  33.761  1.00  0.00     0.020 A 
ATOM     91  C   UNL A   1      43.354  26.923  34.258  1.00  0.00     0.020 A 
ATOM     92  C   UNL A   1      42.044  26.989  34.716  1.00  0.00     0.054 A 
BRANCH  92  93
ATOM     93  S   UNL A   1      41.600  26.945  36.529  1.00  0.00     0.124 S 
ATOM     94  O   UNL A   1      42.898  26.891  37.206  1.00  0.00    -0.237 OA
ATOM     95  O   UNL A   1      40.862  28.188  36.727  1.00  0.00    -0.237 OA
ATOM     96  O   UNL A   1      40.820  25.716  36.662  1.00  0.00    -0.744 OA
ENDBRANCH  92  93
ENDBRANCH  66  87
ENDBRANCH  40  41
ENDBRANCH  32  35
ENDBRANCH  30  31
ENDBRANCH   1  30
TORSDOF 17
ENDMDL
MODEL 3
REMARK VINA RESULT:     -12.8      6.431     12.858
REMARK SMILES Cc1c(CC(=O)NCCCNC(=O)c2ccc(-c3c4nc(c(-c5ccc(S(=O)(=O)[O-])cc5)c5ccc([nH]5)c(-c5ccc(S(=O)(=O)[O-])cc5)c5nc(c(-c6ccc(S(=O)(=O)[O-])cc6)c6ccc3[nH]6)C=C5)C=C4)cc2)cc(-c2ccc(S(C)(=O)=O)cc2)n1-c1ccccc1
REMARK SMILES IDX 9 1 8 2 7 3 5 4 6 5 4 7 3 8 1 9 2 10 86 11 74 12 75 13 87 14
REMARK SMILES IDX 88 15 92 16 89 17 91 18 90 19 76 20 77 21 85 22 78 23 84 24
REMARK SMILES IDX 79 25 80 26 81 27 82 28 83 29 10 30 11 31 12 32 13 34 14 35
REMARK SMILES IDX 15 36 73 37 16 38 72 39 17 40 18 41 19 42 66 43 20 44 71 45
REMARK SMILES IDX 65 46 67 47 21 48 70 49 64 50 63 51 22 53 52 54 33 55 51 56
REMARK SMILES IDX 34 57 37 58 50 59 68 60 35 61 36 62 49 64 69 65 38 66 23 67
REMARK SMILES IDX 24 68 32 69 25 70 31 71 26 72 27 73 28 74 29 75 30 76 53 77
REMARK SMILES IDX 54 78 62 79 55 80 61 81 56 82 57 83 58 84 59 85 60 86 39 87
REMARK SMILES IDX 40 88 48 89 41 90 47 91 42 92 43 93 44 94 45 95 46 96
REMARK H PARENT 7 6 11 33 67 52 37 63
REMARK Flexibility Score: inf
ROOT
ATOM      1  C   UNL A   1      37.595  33.655  29.888  1.00  0.00     0.042 C 
ENDROOT
BRANCH   1   2
ATOM      2  C   UNL A   1      36.148  33.623  29.311  1.00  0.00     0.117 C 
BRANCH   2   3
ATOM      3  N   UNL A   1      35.158  34.338  30.098  1.00  0.00    -0.356 N 
ATOM      4  C   UNL A   1      34.460  34.003  31.222  1.00  0.00     0.224 C 
ATOM      5  O   UNL A   1      33.701  34.858  31.692  1.00  0.00    -0.275 OA
ATOM      6  H   UNL A   1      34.950  35.237  29.754  1.00  0.00     0.163 HD
BRANCH   4   7
ATOM      7  C   UNL A   1      34.635  32.671  31.935  1.00  0.00     0.137 C 
BRANCH   7   8
ATOM      8  C   UNL A   1      35.845  32.596  32.810  1.00  0.00    -0.017 A 
ATOM      9  C   UNL A   1      36.820  30.308  32.090  1.00  0.00     0.065 C 
ATOM     10  C   UNL A   1      36.817  31.605  32.838  1.00  0.00     0.024 A 
ATOM     11  N   UNL A   1      37.792  31.978  33.758  1.00  0.00    -0.314 N 
ATOM     12  C   UNL A   1      36.172  33.522  33.831  1.00  0.00     0.033 A 
ATOM     13  C   UNL A   1      37.384  33.158  34.386  1.00  0.00     0.053 A 
BRANCH  11  14
ATOM     14  C   UNL A   1      39.025  31.314  33.998  1.00  0.00     0.046 A 
ATOM     15  C   UNL A   1      39.198  30.573  35.174  1.00  0.00     0.026 A 
ATOM     16  C   UNL A   1      40.095  31.511  33.120  1.00  0.00     0.026 A 
ATOM     17  C   UNL A   1      40.453  30.055  35.486  1.00  0.00     0.002 A 
ATOM     18  C   UNL A   1      41.351  30.997  33.446  1.00  0.00     0.002 A 
ATOM     19  C   UNL A   1      41.530  30.277  34.629  1.00  0.00     0.000 A 
ENDBRANCH  11  14
BRANCH  13  20
ATOM     20  C   UNL A   1      38.170  33.906  35.372  1.00  0.00    -0.001 A 
ATOM     21  C   UNL A   1      38.004  33.683  36.748  1.00  0.00     0.011 A 
ATOM     22  C   UNL A   1      39.086  34.875  34.942  1.00  0.00     0.011 A 
ATOM     23  C   UNL A   1      38.696  34.454  37.684  1.00  0.00     0.021 A 
ATOM     24  C   UNL A   1      39.785  35.647  35.871  1.00  0.00     0.021 A 
ATOM     25  C   UNL A   1      39.572  35.446  37.238  1.00  0.00     0.067 A 
BRANCH  25  26
ATOM     26  S   UNL A   1      40.451  36.424  38.430  1.00  0.00     0.175 S 
ATOM     27  C   UNL A   1      40.657  35.352  39.826  1.00  0.00     0.163 C 
ATOM     28  O   UNL A   1      41.749  36.716  37.875  1.00  0.00    -0.224 OA
ATOM     29  O   UNL A   1      39.559  37.505  38.851  1.00  0.00    -0.224 OA
ENDBRANCH  25  26
ENDBRANCH  13  20
ENDBRANCH   7   8
ENDBRANCH   4   7
ENDBRANCH   2   3
ENDBRANCH   1   2
BRANCH   1  30
ATOM     30  C   UNL A   1      38.579  32.434  29.663  1.00  0.00     0.118 C 
BRANCH  30  31
ATOM     31  N   UNL A   1      38.092  31.355  28.792  1.00  0.00    -0.352 N 
ATOM     32  C   UNL A   1      38.449  30.063  28.366  1.00  0.00     0.251 C 
ATOM     33  H   UNL A   1      37.242  31.622  28.372  1.00  0.00     0.163 HD
ATOM     34  O   UNL A   1      37.644  29.708  27.481  1.00  0.00    -0.269 OA
BRANCH  32  35
ATOM     35  C   UNL A   1      39.600  29.013  28.728  1.00  0.00     0.039 A 
ATOM     36  C   UNL A   1      40.093  28.276  27.646  1.00  0.00     0.014 A 
ATOM     37  C   UNL A   1      40.249  28.540  29.884  1.00  0.00     0.014 A 
ATOM     38  C   UNL A   1      41.085  27.147  27.711  1.00  0.00     0.010 A 
ATOM     39  C   UNL A   1      41.442  27.480  29.905  1.00  0.00     0.010 A 
ATOM     40  C   UNL A   1      41.957  26.709  28.794  1.00  0.00    -0.014 A 
BRANCH  40  41
ATOM     41  C   UNL A   1      43.729  26.221  28.477  1.00  0.00     0.031 A 
ATOM     42  C   UNL A   1      42.894  24.741  28.042  1.00  0.00     0.074 A 
ATOM     43  C   UNL A   1      45.419  26.481  28.718  1.00  0.00     0.049 A 
ATOM     44  N   UNL A   1      42.589  23.885  29.011  1.00  0.00    -0.248 NA
ATOM     45  C   UNL A   1      42.452  23.974  26.844  1.00  0.00     0.031 C 
ATOM     46  C   UNL A   1      46.422  27.309  29.649  1.00  0.00     0.029 A 
ATOM     47  N   UNL A   1      46.918  26.074  28.005  1.00  0.00    -0.354 N 
ATOM     48  C   UNL A   1      43.402  22.895  28.598  1.00  0.00     0.074 A 
ATOM     49  C   UNL A   1      42.773  22.726  27.290  1.00  0.00     0.031 C 
ATOM     50  C   UNL A   1      47.719  27.599  29.197  1.00  0.00     0.029 A 
ATOM     51  C   UNL A   1      48.159  26.941  27.934  1.00  0.00     0.049 A 
ATOM     52  H   UNL A   1      46.982  25.180  27.597  1.00  0.00     0.167 HD
ATOM     53  C   UNL A   1      44.678  23.378  28.877  1.00  0.00     0.031 A 
ATOM     54  C   UNL A   1      48.905  27.566  26.804  1.00  0.00     0.031 A 
ATOM     55  C   UNL A   1      45.214  23.878  27.322  1.00  0.00     0.049 A 
ATOM     56  C   UNL A   1      47.835  27.757  25.815  1.00  0.00     0.074 A 
ATOM     57  C   UNL A   1      44.958  23.598  25.934  1.00  0.00     0.029 A 
ATOM     58  N   UNL A   1      45.658  25.087  26.774  1.00  0.00    -0.354 N 
ATOM     59  N   UNL A   1      47.021  28.760  25.783  1.00  0.00    -0.248 NA
ATOM     60  C   UNL A   1      47.636  26.813  24.704  1.00  0.00     0.031 C 
ATOM     61  C   UNL A   1      44.555  25.002  25.248  1.00  0.00     0.029 A 
ATOM     62  C   UNL A   1      44.791  26.056  26.176  1.00  0.00     0.049 A 
ATOM     63  H   UNL A   1      46.622  25.282  26.800  1.00  0.00     0.167 HD
ATOM     64  C   UNL A   1      45.902  28.125  25.338  1.00  0.00     0.074 A 
ATOM     65  C   UNL A   1      46.418  27.210  24.336  1.00  0.00     0.031 C 
ATOM     66  C   UNL A   1      45.021  27.754  26.327  1.00  0.00     0.031 A 
BRANCH  53  67
ATOM     67  C   UNL A   1      44.337  24.078  30.570  1.00  0.00    -0.014 A 
ATOM     68  C   UNL A   1      45.245  25.029  31.189  1.00  0.00     0.010 A 
ATOM     69  C   UNL A   1      43.699  23.476  31.711  1.00  0.00     0.010 A 
ATOM     70  C   UNL A   1      45.535  25.166  32.667  1.00  0.00     0.020 A 
ATOM     71  C   UNL A   1      43.991  23.514  33.140  1.00  0.00     0.020 A 
ATOM     72  C   UNL A   1      44.925  24.369  33.636  1.00  0.00     0.054 A 
BRANCH  72  73
ATOM     73  S   UNL A   1      45.341  24.308  35.433  1.00  0.00     0.124 S 
ATOM     74  O   UNL A   1      44.174  23.670  36.040  1.00  0.00    -0.237 OA
ATOM     75  O   UNL A   1      46.560  23.504  35.449  1.00  0.00    -0.237 OA
ATOM     76  O   UNL A   1      45.522  25.708  35.821  1.00  0.00    -0.744 OA
ENDBRANCH  72  73
ENDBRANCH  53  67
BRANCH  54  77
ATOM     77  C   UNL A   1      50.314  27.687  25.762  1.00  0.00    -0.014 A 
ATOM     78  C   UNL A   1      51.006  28.761  25.138  1.00  0.00     0.010 A 
ATOM     79  C   UNL A   1      51.037  26.443  25.461  1.00  0.00     0.010 A 
ATOM     80  C   UNL A   1      52.311  28.609  24.419  1.00  0.00     0.020 A 
ATOM     81  C   UNL A   1      52.323  26.284  24.819  1.00  0.00     0.020 A 
ATOM     82  C   UNL A   1      52.980  27.380  24.301  1.00  0.00     0.054 A 
BRANCH  82  83
ATOM     83  S   UNL A   1      54.683  27.181  23.559  1.00  0.00     0.124 S 
ATOM     84  O   UNL A   1      55.300  26.152  24.392  1.00  0.00    -0.237 OA
ATOM     85  O   UNL A   1      54.407  26.783  22.180  1.00  0.00    -0.237 OA
ATOM     86  O   UNL A   1      55.283  28.511  23.691  1.00  0.00    -0.744 OA
ENDBRANCH  82  83
ENDBRANCH  54  77
BRANCH  66  87
ATOM     87  C   UNL A   1      45.082  28.968  27.716  1.00  0.00    -0.014 A 
ATOM     88  C   UNL A   1      43.930  29.358  28.520  1.00  0.00     0.010 A 
ATOM     89  C   UNL A   1      46.118  29.899  28.109  1.00  0.00     0.010 A 
ATOM     90  C   UNL A   1      43.705  30.637  29.212  1.00  0.00     0.020 A 
ATOM     91  C   UNL A   1      45.921  31.223  28.775  1.00  0.00     0.020 A 
ATOM     92  C   UNL A   1      44.673  31.623  29.233  1.00  0.00     0.054 A 
BRANCH  92  93
ATOM     93  S   UNL A   1      44.222  33.414  29.513  1.00  0.00     0.124 S 
ATOM     94  O   UNL A   1      43.204  33.358  30.565  1.00  0.00    -0.237 OA
ATOM     95  O   UNL A   1      45.484  34.022  29.920  1.00  0.00    -0.237 OA
ATOM     96  O   UNL A   1      43.699  33.843  28.217  1.00  0.00    -0.744 OA
ENDBRANCH  92  93
ENDBRANCH  66  87
ENDBRANCH  40  41
ENDBRANCH  32  35
ENDBRANCH  30  31
ENDBRANCH   1  30
TORSDOF 17
ENDMDL
