MODEL 1
REMARK VINA RESULT:     -12.2      0.000      0.000
REMARK SMILES Cc1cc(C(=O)NCCCNC(=O)c2ccc(-c3c4nc(c(-c5ccc(S(=O)(=O)[O-])cc5)c5ccc([nH]5)c(-c5ccc(S(=O)(=O)[O-])cc5)c5nc(c(-c6ccc(S(=O)(=O)[O-])cc6)c6ccc3[nH]6)C=C5)C=C4)cc2)ccc1NC(=O)c1ccc(=O)n(CCOc2ccccc2)n1
REMARK SMILES IDX 5 1 6 2 7 3 4 5 1 6 2 7 3 8 76 9 75 10 74 11 77 12 78 13
REMARK SMILES IDX 79 15 80 16 81 17 95 18 82 19 85 20 83 21 84 22 86 23 87 24
REMARK SMILES IDX 88 25 89 26 90 27 94 28 91 29 93 30 92 31 8 32 9 33 10 34
REMARK SMILES IDX 11 35 12 36 13 38 14 39 15 40 73 41 16 42 72 43 17 44 18 45
REMARK SMILES IDX 19 46 66 47 20 48 71 49 65 50 67 51 21 52 70 53 64 54 63 55
REMARK SMILES IDX 22 57 52 58 33 59 51 60 34 61 37 62 50 63 68 64 35 65 36 66
REMARK SMILES IDX 49 68 69 69 38 70 23 71 24 72 32 73 25 74 31 75 26 76 27 77
REMARK SMILES IDX 28 78 29 79 30 80 53 81 54 82 62 83 55 84 61 85 56 86 57 87
REMARK SMILES IDX 58 88 59 89 60 90 39 91 40 92 48 93 41 94 47 95 42 96 43 97
REMARK SMILES IDX 44 98 45 99 46 100
REMARK H PARENT 7 4 77 14 11 37 67 56 37 67
REMARK Flexibility Score: inf
ROOT
ATOM      1  C   UNL A   1      36.524  22.614  24.224  1.00  0.00     0.251 C 
ATOM      2  O   UNL A   1      36.266  23.414  23.327  1.00  0.00    -0.269 OA
ATOM      3  N   UNL A   1      37.784  22.048  24.389  1.00  0.00    -0.352 N 
ATOM      4  H   UNL A   1      38.341  22.092  23.578  1.00  0.00     0.163 HD
ENDROOT
BRANCH   1   5
ATOM      5  C   UNL A   1      35.436  22.268  25.168  1.00  0.00     0.040 A 
ATOM      6  C   UNL A   1      32.481  19.908  25.595  1.00  0.00     0.046 C 
ATOM      7  C   UNL A   1      33.351  21.127  25.745  1.00  0.00    -0.027 A 
ATOM      8  C   UNL A   1      34.503  21.247  24.930  1.00  0.00     0.019 A 
ATOM      9  C   UNL A   1      33.129  22.111  26.718  1.00  0.00     0.044 A 
ATOM     10  C   UNL A   1      34.233  22.842  27.141  1.00  0.00     0.027 A 
ATOM     11  C   UNL A   1      35.387  22.928  26.379  1.00  0.00     0.016 A 
BRANCH   9  12
ATOM     12  N   UNL A   1      31.820  22.381  27.186  1.00  0.00    -0.320 N 
ATOM     13  C   UNL A   1      30.862  23.262  26.698  1.00  0.00     0.276 C 
ATOM     14  H   UNL A   1      31.547  21.865  27.978  1.00  0.00     0.170 HD
ATOM     15  O   UNL A   1      29.747  23.350  27.202  1.00  0.00    -0.267 OA
BRANCH  13  16
ATOM     16  C   UNL A   1      31.189  24.174  25.535  1.00  0.00     0.149 A 
ATOM     17  C   UNL A   1      30.788  23.622  24.227  1.00  0.00     0.042 A 
ATOM     18  N   UNL A   1      31.732  25.346  25.721  1.00  0.00    -0.164 NA
ATOM     19  C   UNL A   1      30.478  24.540  23.321  1.00  0.00     0.076 A 
ATOM     20  N   UNL A   1      31.663  26.208  24.618  1.00  0.00    -0.226 N 
ATOM     21  C   UNL A   1      30.693  25.972  23.628  1.00  0.00     0.266 A 
ATOM     22  O   UNL A   1      30.100  26.772  22.951  1.00  0.00    -0.268 OA
BRANCH  20  23
ATOM     23  C   UNL A   1      32.354  27.512  24.727  1.00  0.00     0.190 C 
BRANCH  23  24
ATOM     24  C   UNL A   1      33.699  27.500  25.481  1.00  0.00     0.253 C 
BRANCH  24  25
ATOM     25  O   UNL A   1      33.596  27.760  26.907  1.00  0.00    -0.492 OA
BRANCH  25  26
ATOM     26  C   UNL A   1      33.809  29.068  27.227  1.00  0.00     0.119 A 
ATOM     27  C   UNL A   1      35.036  29.502  27.701  1.00  0.00     0.046 A 
ATOM     28  C   UNL A   1      32.757  29.964  27.205  1.00  0.00     0.046 A 
ATOM     29  C   UNL A   1      35.234  30.865  27.962  1.00  0.00     0.004 A 
ATOM     30  C   UNL A   1      32.959  31.333  27.355  1.00  0.00     0.004 A 
ATOM     31  C   UNL A   1      34.216  31.789  27.718  1.00  0.00     0.000 A 
ENDBRANCH  25  26
ENDBRANCH  24  25
ENDBRANCH  23  24
ENDBRANCH  20  23
ENDBRANCH  13  16
ENDBRANCH   9  12
ENDBRANCH   1   5
BRANCH   3  32
ATOM     32  C   UNL A   1      38.461  21.389  25.539  1.00  0.00     0.118 C 
BRANCH  32  33
ATOM     33  C   UNL A   1      39.547  22.196  26.438  1.00  0.00     0.042 C 
BRANCH  33  34
ATOM     34  C   UNL A   1      39.132  23.657  26.879  1.00  0.00     0.118 C 
BRANCH  34  35
ATOM     35  N   UNL A   1      39.987  24.993  27.174  1.00  0.00    -0.352 N 
ATOM     36  C   UNL A   1      40.208  26.050  28.210  1.00  0.00     0.251 C 
ATOM     37  H   UNL A   1      40.568  25.178  26.401  1.00  0.00     0.163 HD
ATOM     38  O   UNL A   1      41.400  26.088  28.580  1.00  0.00    -0.269 OA
BRANCH  36  39
ATOM     39  C   UNL A   1      39.318  27.214  28.944  1.00  0.00     0.039 A 
ATOM     40  C   UNL A   1      38.628  28.243  28.207  1.00  0.00     0.014 A 
ATOM     41  C   UNL A   1      39.196  27.432  30.311  1.00  0.00     0.014 A 
ATOM     42  C   UNL A   1      38.482  29.604  28.748  1.00  0.00     0.010 A 
ATOM     43  C   UNL A   1      39.082  28.764  30.842  1.00  0.00     0.010 A 
ATOM     44  C   UNL A   1      39.017  29.897  30.018  1.00  0.00    -0.014 A 
BRANCH  44  45
ATOM     45  C   UNL A   1      39.852  31.167  30.384  1.00  0.00     0.031 A 
ATOM     46  C   UNL A   1      41.277  30.994  30.620  1.00  0.00     0.074 A 
ATOM     47  C   UNL A   1      39.545  32.514  30.387  1.00  0.00     0.049 A 
ATOM     48  N   UNL A   1      41.908  31.272  31.713  1.00  0.00    -0.248 NA
ATOM     49  C   UNL A   1      42.106  30.489  29.538  1.00  0.00     0.031 C 
ATOM     50  C   UNL A   1      40.304  33.757  30.657  1.00  0.00     0.029 A 
ATOM     51  N   UNL A   1      38.340  33.122  30.103  1.00  0.00    -0.354 N 
ATOM     52  C   UNL A   1      43.236  31.296  31.336  1.00  0.00     0.074 A 
ATOM     53  C   UNL A   1      43.302  30.509  30.122  1.00  0.00     0.031 C 
ATOM     54  C   UNL A   1      39.441  34.772  30.944  1.00  0.00     0.029 A 
ATOM     55  C   UNL A   1      38.096  34.232  30.897  1.00  0.00     0.049 A 
ATOM     56  H   UNL A   1      37.719  32.802  29.410  1.00  0.00     0.167 HD
ATOM     57  C   UNL A   1      44.094  32.262  31.787  1.00  0.00     0.031 A 
ATOM     58  C   UNL A   1      37.135  34.146  31.880  1.00  0.00     0.031 A 
ATOM     59  C   UNL A   1      43.393  33.327  32.531  1.00  0.00     0.049 A 
ATOM     60  C   UNL A   1      37.799  34.086  33.228  1.00  0.00     0.074 A 
ATOM     61  C   UNL A   1      43.181  34.678  32.278  1.00  0.00     0.029 A 
ATOM     62  N   UNL A   1      42.502  33.001  33.550  1.00  0.00    -0.354 N 
ATOM     63  N   UNL A   1      39.090  34.047  33.371  1.00  0.00    -0.248 NA
ATOM     64  C   UNL A   1      37.107  34.020  34.506  1.00  0.00     0.031 C 
ATOM     65  C   UNL A   1      42.130  35.139  33.128  1.00  0.00     0.029 A 
ATOM     66  C   UNL A   1      41.727  34.086  33.928  1.00  0.00     0.049 A 
ATOM     67  H   UNL A   1      42.431  32.106  33.953  1.00  0.00     0.167 HD
ATOM     68  C   UNL A   1      39.437  33.972  34.679  1.00  0.00     0.074 A 
ATOM     69  C   UNL A   1      38.148  33.948  35.359  1.00  0.00     0.031 C 
ATOM     70  C   UNL A   1      40.758  33.940  35.026  1.00  0.00     0.031 A 
BRANCH  57  71
ATOM     71  C   UNL A   1      45.522  32.391  31.262  1.00  0.00    -0.014 A 
ATOM     72  C   UNL A   1      45.829  33.251  30.191  1.00  0.00     0.010 A 
ATOM     73  C   UNL A   1      46.627  31.722  31.833  1.00  0.00     0.010 A 
ATOM     74  C   UNL A   1      47.140  33.383  29.690  1.00  0.00     0.020 A 
ATOM     75  C   UNL A   1      47.923  31.789  31.309  1.00  0.00     0.020 A 
ATOM     76  C   UNL A   1      48.179  32.637  30.244  1.00  0.00     0.054 A 
BRANCH  76  77
ATOM     77  S   UNL A   1      49.871  32.848  29.633  1.00  0.00     0.124 S 
ATOM     78  O   UNL A   1      50.654  32.895  30.865  1.00  0.00    -0.237 OA
ATOM     79  O   UNL A   1      50.057  31.656  28.812  1.00  0.00    -0.237 OA
ATOM     80  O   UNL A   1      49.820  34.107  28.889  1.00  0.00    -0.744 OA
ENDBRANCH  76  77
ENDBRANCH  57  71
BRANCH  58  81
ATOM     81  C   UNL A   1      35.853  33.341  31.538  1.00  0.00    -0.014 A 
ATOM     82  C   UNL A   1      34.993  33.099  32.626  1.00  0.00     0.010 A 
ATOM     83  C   UNL A   1      35.217  33.842  30.421  1.00  0.00     0.010 A 
ATOM     84  C   UNL A   1      33.947  33.997  32.905  1.00  0.00     0.020 A 
ATOM     85  C   UNL A   1      34.215  34.774  30.737  1.00  0.00     0.020 A 
ATOM     86  C   UNL A   1      33.672  34.989  31.973  1.00  0.00     0.054 A 
BRANCH  86  87
ATOM     87  S   UNL A   1      33.019  36.923  32.438  1.00  0.00     0.124 S 
ATOM     88  O   UNL A   1      31.686  36.629  32.931  1.00  0.00    -0.237 OA
ATOM     89  O   UNL A   1      33.910  37.404  33.485  1.00  0.00    -0.237 OA
ATOM     90  O   UNL A   1      33.068  37.712  31.221  1.00  0.00    -0.744 OA
ENDBRANCH  86  87
ENDBRANCH  58  81
BRANCH  70  91
ATOM     91  C   UNL A   1      41.319  33.787  36.417  1.00  0.00    -0.014 A 
ATOM     92  C   UNL A   1      41.399  32.586  37.126  1.00  0.00     0.010 A 
ATOM     93  C   UNL A   1      41.804  34.944  37.080  1.00  0.00     0.010 A 
ATOM     94  C   UNL A   1      41.984  32.528  38.396  1.00  0.00     0.020 A 
ATOM     95  C   UNL A   1      42.403  34.901  38.335  1.00  0.00     0.020 A 
ATOM     96  C   UNL A   1      42.493  33.683  38.984  1.00  0.00     0.054 A 
BRANCH  96  97
ATOM     97  S   UNL A   1      43.257  33.563  40.611  1.00  0.00     0.124 S 
ATOM     98  O   UNL A   1      42.105  33.298  41.469  1.00  0.00    -0.237 OA
ATOM     99  O   UNL A   1      44.180  32.443  40.435  1.00  0.00    -0.237 OA
ATOM    100  O   UNL A   1      43.890  34.865  40.801  1.00  0.00    -0.744 OA
ENDBRANCH  96  97
ENDBRANCH  70  91
ENDBRANCH  44  45
ENDBRANCH  36  39
ENDBRANCH  34  35
ENDBRANCH  33  34
ENDBRANCH  32  33
ENDBRANCH   3  32
TORSDOF 19
ENDMDL
MODEL 2
REMARK VINA RESULT:     -12.1      3.412      8.741
REMARK SMILES Cc1cc(C(=O)NCCCNC(=O)c2ccc(-c3c4nc(c(-c5ccc(S(=O)(=O)[O-])cc5)c5ccc([nH]5)c(-c5ccc(S(=O)(=O)[O-])cc5)c5nc(c(-c6ccc(S(=O)(=O)[O-])cc6)c6ccc3[nH]6)C=C5)C=C4)cc2)ccc1NC(=O)c1ccc(=O)n(CCOc2ccccc2)n1
REMARK SMILES IDX 5 1 6 2 7 3 4 5 1 6 2 7 3 8 76 9 75 10 74 11 77 12 78 13
REMARK SMILES IDX 79 15 80 16 81 17 95 18 82 19 85 20 83 21 84 22 86 23 87 24
REMARK SMILES IDX 88 25 89 26 90 27 94 28 91 29 93 30 92 31 8 32 9 33 10 34
REMARK SMILES IDX 11 35 12 36 13 38 14 39 15 40 73 41 16 42 72 43 17 44 18 45
REMARK SMILES IDX 19 46 66 47 20 48 71 49 65 50 67 51 21 52 70 53 64 54 63 55
REMARK SMILES IDX 22 57 52 58 33 59 51 60 34 61 37 62 50 63 68 64 35 65 36 66
REMARK SMILES IDX 49 68 69 69 38 70 23 71 24 72 32 73 25 74 31 75 26 76 27 77
REMARK SMILES IDX 28 78 29 79 30 80 53 81 54 82 62 83 55 84 61 85 56 86 57 87
REMARK SMILES IDX 58 88 59 89 60 90 39 91 40 92 48 93 41 94 47 95 42 96 43 97
REMARK SMILES IDX 44 98 45 99 46 100
REMARK H PARENT 7 4 77 14 11 37 67 56 37 67
REMARK Flexibility Score: inf
ROOT
ATOM      1  C   UNL A   1      36.823  22.727  24.461  1.00  0.00     0.251 C 
ATOM      2  O   UNL A   1      36.520  23.291  23.412  1.00  0.00    -0.269 OA
ATOM      3  N   UNL A   1      38.141  22.471  24.824  1.00  0.00    -0.352 N 
ATOM      4  H   UNL A   1      38.767  22.490  24.064  1.00  0.00     0.163 HD
ENDROOT
BRANCH   1   5
ATOM      5  C   UNL A   1      35.723  22.329  25.369  1.00  0.00     0.040 A 
ATOM      6  C   UNL A   1      32.904  19.797  25.728  1.00  0.00     0.046 C 
ATOM      7  C   UNL A   1      33.691  21.070  25.888  1.00  0.00    -0.027 A 
ATOM      8  C   UNL A   1      34.864  21.248  25.115  1.00  0.00     0.019 A 
ATOM      9  C   UNL A   1      33.371  22.054  26.833  1.00  0.00     0.044 A 
ATOM     10  C   UNL A   1      34.411  22.859  27.284  1.00  0.00     0.027 A 
ATOM     11  C   UNL A   1      35.586  23.004  26.565  1.00  0.00     0.016 A 
BRANCH   9  12
ATOM     12  N   UNL A   1      32.031  22.249  27.247  1.00  0.00    -0.320 N 
ATOM     13  C   UNL A   1      31.108  23.213  26.856  1.00  0.00     0.276 C 
ATOM     14  H   UNL A   1      31.702  21.603  27.912  1.00  0.00     0.170 HD
ATOM     15  O   UNL A   1      29.959  23.221  27.286  1.00  0.00    -0.267 OA
BRANCH  13  16
ATOM     16  C   UNL A   1      31.517  24.314  25.901  1.00  0.00     0.149 A 
ATOM     17  C   UNL A   1      32.113  25.484  26.575  1.00  0.00     0.042 A 
ATOM     18  N   UNL A   1      31.380  24.180  24.611  1.00  0.00    -0.164 NA
ATOM     19  C   UNL A   1      32.999  26.142  25.840  1.00  0.00     0.076 A 
ATOM     20  N   UNL A   1      32.101  25.106  23.843  1.00  0.00    -0.226 N 
ATOM     21  C   UNL A   1      33.200  25.763  24.423  1.00  0.00     0.266 A 
ATOM     22  O   UNL A   1      34.219  26.130  23.897  1.00  0.00    -0.268 OA
BRANCH  20  23
ATOM     23  C   UNL A   1      31.903  25.076  22.377  1.00  0.00     0.190 C 
BRANCH  23  24
ATOM     24  C   UNL A   1      31.364  26.374  21.743  1.00  0.00     0.253 C 
BRANCH  24  25
ATOM     25  O   UNL A   1      31.463  27.549  22.593  1.00  0.00    -0.492 OA
BRANCH  25  26
ATOM     26  C   UNL A   1      30.275  28.203  22.736  1.00  0.00     0.119 A 
ATOM     27  C   UNL A   1      30.168  29.563  22.492  1.00  0.00     0.046 A 
ATOM     28  C   UNL A   1      29.180  27.540  23.258  1.00  0.00     0.046 A 
ATOM     29  C   UNL A   1      28.918  30.188  22.593  1.00  0.00     0.004 A 
ATOM     30  C   UNL A   1      27.912  28.113  23.262  1.00  0.00     0.004 A 
ATOM     31  C   UNL A   1      27.777  29.446  22.907  1.00  0.00     0.000 A 
ENDBRANCH  25  26
ENDBRANCH  24  25
ENDBRANCH  23  24
ENDBRANCH  20  23
ENDBRANCH  13  16
ENDBRANCH   9  12
ENDBRANCH   1   5
BRANCH   3  32
ATOM     32  C   UNL A   1      38.800  22.172  26.126  1.00  0.00     0.118 C 
BRANCH  32  33
ATOM     33  C   UNL A   1      39.963  21.043  26.229  1.00  0.00     0.042 C 
BRANCH  33  34
ATOM     34  C   UNL A   1      41.412  21.572  26.582  1.00  0.00     0.118 C 
BRANCH  34  35
ATOM     35  N   UNL A   1      41.996  23.050  26.861  1.00  0.00    -0.352 N 
ATOM     36  C   UNL A   1      41.661  24.347  27.526  1.00  0.00     0.251 C 
ATOM     37  H   UNL A   1      42.888  23.123  26.450  1.00  0.00     0.163 HD
ATOM     38  O   UNL A   1      42.503  24.648  28.398  1.00  0.00    -0.269 OA
BRANCH  36  39
ATOM     39  C   UNL A   1      40.519  25.512  27.372  1.00  0.00     0.039 A 
ATOM     40  C   UNL A   1      40.715  26.691  26.565  1.00  0.00     0.014 A 
ATOM     41  C   UNL A   1      39.306  25.584  28.048  1.00  0.00     0.014 A 
ATOM     42  C   UNL A   1      40.138  27.988  26.952  1.00  0.00     0.010 A 
ATOM     43  C   UNL A   1      38.756  26.850  28.451  1.00  0.00     0.010 A 
ATOM     44  C   UNL A   1      39.367  28.071  28.129  1.00  0.00    -0.014 A 
BRANCH  44  45
ATOM     45  C   UNL A   1      39.482  29.188  29.217  1.00  0.00     0.031 A 
ATOM     46  C   UNL A   1      38.539  30.295  29.151  1.00  0.00     0.074 A 
ATOM     47  C   UNL A   1      40.226  29.286  30.376  1.00  0.00     0.049 A 
ATOM     48  N   UNL A   1      38.839  31.544  29.012  1.00  0.00    -0.248 NA
ATOM     49  C   UNL A   1      37.120  30.009  29.277  1.00  0.00     0.031 C 
ATOM     50  C   UNL A   1      40.328  30.279  31.470  1.00  0.00     0.029 A 
ATOM     51  N   UNL A   1      41.153  28.398  30.880  1.00  0.00    -0.354 N 
ATOM     52  C   UNL A   1      37.683  32.207  29.373  1.00  0.00     0.074 A 
ATOM     53  C   UNL A   1      36.619  31.240  29.202  1.00  0.00     0.031 C 
ATOM     54  C   UNL A   1      41.505  30.112  32.137  1.00  0.00     0.029 A 
ATOM     55  C   UNL A   1      42.224  29.028  31.495  1.00  0.00     0.049 A 
ATOM     56  H   UNL A   1      41.064  27.420  30.810  1.00  0.00     0.167 HD
ATOM     57  C   UNL A   1      37.713  33.330  30.155  1.00  0.00     0.031 A 
ATOM     58  C   UNL A   1      43.449  29.019  30.867  1.00  0.00     0.031 A 
ATOM     59  C   UNL A   1      39.062  33.599  30.691  1.00  0.00     0.049 A 
ATOM     60  C   UNL A   1      43.743  30.390  30.321  1.00  0.00     0.074 A 
ATOM     61  C   UNL A   1      39.590  33.589  31.978  1.00  0.00     0.029 A 
ATOM     62  N   UNL A   1      40.165  33.610  29.843  1.00  0.00    -0.354 N 
ATOM     63  N   UNL A   1      42.894  31.370  30.397  1.00  0.00    -0.248 NA
ATOM     64  C   UNL A   1      44.957  30.774  29.618  1.00  0.00     0.031 C 
ATOM     65  C   UNL A   1      41.015  33.551  31.882  1.00  0.00     0.029 A 
ATOM     66  C   UNL A   1      41.360  33.582  30.544  1.00  0.00     0.049 A 
ATOM     67  H   UNL A   1      40.103  33.633  28.860  1.00  0.00     0.167 HD
ATOM     68  C   UNL A   1      43.384  32.491  29.812  1.00  0.00     0.074 A 
ATOM     69  C   UNL A   1      44.689  32.062  29.325  1.00  0.00     0.031 C 
ATOM     70  C   UNL A   1      42.635  33.634  29.811  1.00  0.00     0.031 A 
BRANCH  57  71
ATOM     71  C   UNL A   1      36.441  33.984  30.687  1.00  0.00    -0.014 A 
ATOM     72  C   UNL A   1      35.341  34.231  29.844  1.00  0.00     0.010 A 
ATOM     73  C   UNL A   1      36.249  34.326  32.044  1.00  0.00     0.010 A 
ATOM     74  C   UNL A   1      34.158  34.835  30.316  1.00  0.00     0.020 A 
ATOM     75  C   UNL A   1      35.109  34.988  32.518  1.00  0.00     0.020 A 
ATOM     76  C   UNL A   1      34.056  35.225  31.650  1.00  0.00     0.054 A 
BRANCH  76  77
ATOM     77  S   UNL A   1      32.515  35.953  32.266  1.00  0.00     0.124 S 
ATOM     78  O   UNL A   1      31.933  36.538  31.062  1.00  0.00    -0.237 OA
ATOM     79  O   UNL A   1      31.815  34.791  32.805  1.00  0.00    -0.237 OA
ATOM     80  O   UNL A   1      32.961  36.922  33.266  1.00  0.00    -0.744 OA
ENDBRANCH  76  77
ENDBRANCH  57  71
BRANCH  58  81
ATOM     81  C   UNL A   1      43.847  27.716  30.124  1.00  0.00    -0.014 A 
ATOM     82  C   UNL A   1      45.011  27.809  29.338  1.00  0.00     0.010 A 
ATOM     83  C   UNL A   1      43.824  26.622  30.964  1.00  0.00     0.010 A 
ATOM     84  C   UNL A   1      46.259  27.473  29.893  1.00  0.00     0.020 A 
ATOM     85  C   UNL A   1      45.075  26.349  31.539  1.00  0.00     0.020 A 
ATOM     86  C   UNL A   1      46.277  26.866  31.141  1.00  0.00     0.054 A 
BRANCH  86  87
ATOM     87  S   UNL A   1      47.752  27.161  32.598  1.00  0.00     0.124 S 
ATOM     88  O   UNL A   1      47.976  25.789  33.014  1.00  0.00    -0.237 OA
ATOM     89  O   UNL A   1      48.896  27.729  31.898  1.00  0.00    -0.237 OA
ATOM     90  O   UNL A   1      47.200  28.034  33.618  1.00  0.00    -0.744 OA
ENDBRANCH  86  87
ENDBRANCH  58  81
BRANCH  70  91
ATOM     91  C   UNL A   1      42.992  34.941  29.149  1.00  0.00    -0.014 A 
ATOM     92  C   UNL A   1      42.155  35.669  28.301  1.00  0.00     0.010 A 
ATOM     93  C   UNL A   1      44.277  35.491  29.391  1.00  0.00     0.010 A 
ATOM     94  C   UNL A   1      42.550  36.903  27.772  1.00  0.00     0.020 A 
ATOM     95  C   UNL A   1      44.680  36.723  28.886  1.00  0.00     0.020 A 
ATOM     96  C   UNL A   1      43.803  37.426  28.079  1.00  0.00     0.054 A 
BRANCH  96  97
ATOM     97  S   UNL A   1      44.266  39.026  27.395  1.00  0.00     0.124 S 
ATOM     98  O   UNL A   1      43.107  39.350  26.568  1.00  0.00    -0.237 OA
ATOM     99  O   UNL A   1      44.427  39.840  28.598  1.00  0.00    -0.237 OA
ATOM    100  O   UNL A   1      45.499  38.753  26.661  1.00  0.00    -0.744 OA
ENDBRANCH  96  97
ENDBRANCH  70  91
ENDBRANCH  44  45
ENDBRANCH  36  39
ENDBRANCH  34  35
ENDBRANCH  33  34
ENDBRANCH  32  33
ENDBRANCH   3  32
TORSDOF 19
ENDMDL
MODEL 3
REMARK VINA RESULT:     -12.0      3.581      8.621
REMARK SMILES Cc1cc(C(=O)NCCCNC(=O)c2ccc(-c3c4nc(c(-c5ccc(S(=O)(=O)[O-])cc5)c5ccc([nH]5)c(-c5ccc(S(=O)(=O)[O-])cc5)c5nc(c(-c6ccc(S(=O)(=O)[O-])cc6)c6ccc3[nH]6)C=C5)C=C4)cc2)ccc1NC(=O)c1ccc(=O)n(CCOc2ccccc2)n1
REMARK SMILES IDX 5 1 6 2 7 3 4 5 1 6 2 7 3 8 76 9 75 10 74 11 77 12 78 13
REMARK SMILES IDX 79 15 80 16 81 17 95 18 82 19 85 20 83 21 84 22 86 23 87 24
REMARK SMILES IDX 88 25 89 26 90 27 94 28 91 29 93 30 92 31 8 32 9 33 10 34
REMARK SMILES IDX 11 35 12 36 13 38 14 39 15 40 73 41 16 42 72 43 17 44 18 45
REMARK SMILES IDX 19 46 66 47 20 48 71 49 65 50 67 51 21 52 70 53 64 54 63 55
REMARK SMILES IDX 22 57 52 58 33 59 51 60 34 61 37 62 50 63 68 64 35 65 36 66
REMARK SMILES IDX 49 68 69 69 38 70 23 71 24 72 32 73 25 74 31 75 26 76 27 77
REMARK SMILES IDX 28 78 29 79 30 80 53 81 54 82 62 83 55 84 61 85 56 86 57 87
REMARK SMILES IDX 58 88 59 89 60 90 39 91 40 92 48 93 41 94 47 95 42 96 43 97
REMARK SMILES IDX 44 98 45 99 46 100
REMARK H PARENT 7 4 77 14 11 37 67 56 37 67
REMARK Flexibility Score: inf
ROOT
ATOM      1  C   UNL A   1      36.793  22.205  24.414  1.00  0.00     0.251 C 
ATOM      2  O   UNL A   1      36.894  23.327  23.923  1.00  0.00    -0.269 OA
ATOM      3  N   UNL A   1      37.766  21.223  24.253  1.00  0.00    -0.352 N 
ATOM      4  H   UNL A   1      38.362  21.386  23.486  1.00  0.00     0.163 HD
ENDROOT
BRANCH   1   5
ATOM      5  C   UNL A   1      35.587  21.915  25.222  1.00  0.00     0.040 A 
ATOM      6  C   UNL A   1      32.155  20.283  25.001  1.00  0.00     0.046 C 
ATOM      7  C   UNL A   1      33.262  21.194  25.461  1.00  0.00    -0.027 A 
ATOM      8  C   UNL A   1      34.470  21.226  24.723  1.00  0.00     0.019 A 
ATOM      9  C   UNL A   1      33.191  21.950  26.639  1.00  0.00     0.044 A 
ATOM     10  C   UNL A   1      34.394  22.282  27.250  1.00  0.00     0.027 A 
ATOM     11  C   UNL A   1      35.593  22.268  26.556  1.00  0.00     0.016 A 
BRANCH   9  12
ATOM     12  N   UNL A   1      31.943  22.404  27.132  1.00  0.00    -0.320 N 
ATOM     13  C   UNL A   1      31.159  23.476  26.723  1.00  0.00     0.276 C 
ATOM     14  H   UNL A   1      31.575  21.879  27.878  1.00  0.00     0.170 HD
ATOM     15  O   UNL A   1      30.070  23.715  27.235  1.00  0.00    -0.267 OA
BRANCH  13  16
ATOM     16  C   UNL A   1      31.654  24.411  25.640  1.00  0.00     0.149 A 
ATOM     17  C   UNL A   1      31.015  24.181  24.330  1.00  0.00     0.042 A 
ATOM     18  N   UNL A   1      32.528  25.345  25.896  1.00  0.00    -0.164 NA
ATOM     19  C   UNL A   1      30.923  25.265  23.572  1.00  0.00     0.076 A 
ATOM     20  N   UNL A   1      32.635  26.337  24.910  1.00  0.00    -0.226 N 
ATOM     21  C   UNL A   1      31.570  26.522  24.011  1.00  0.00     0.266 A 
ATOM     22  O   UNL A   1      31.190  27.542  23.496  1.00  0.00    -0.268 OA
BRANCH  20  23
ATOM     23  C   UNL A   1      33.684  27.364  25.088  1.00  0.00     0.190 C 
BRANCH  23  24
ATOM     24  C   UNL A   1      33.295  28.582  25.951  1.00  0.00     0.253 C 
BRANCH  24  25
ATOM     25  O   UNL A   1      33.807  28.546  27.311  1.00  0.00    -0.492 OA
BRANCH  25  26
ATOM     26  C   UNL A   1      34.665  29.570  27.583  1.00  0.00     0.119 A 
ATOM     27  C   UNL A   1      34.223  30.881  27.654  1.00  0.00     0.046 A 
ATOM     28  C   UNL A   1      36.024  29.328  27.664  1.00  0.00     0.046 A 
ATOM     29  C   UNL A   1      35.125  31.898  27.995  1.00  0.00     0.004 A 
ATOM     30  C   UNL A   1      36.915  30.302  28.107  1.00  0.00     0.004 A 
ATOM     31  C   UNL A   1      36.455  31.597  28.292  1.00  0.00     0.000 A 
ENDBRANCH  25  26
ENDBRANCH  24  25
ENDBRANCH  23  24
ENDBRANCH  20  23
ENDBRANCH  13  16
ENDBRANCH   9  12
ENDBRANCH   1   5
BRANCH   3  32
ATOM     32  C   UNL A   1      38.088  19.977  25.001  1.00  0.00     0.118 C 
BRANCH  32  33
ATOM     33  C   UNL A   1      39.543  19.778  25.695  1.00  0.00     0.042 C 
BRANCH  33  34
ATOM     34  C   UNL A   1      40.099  21.017  26.506  1.00  0.00     0.118 C 
BRANCH  34  35
ATOM     35  N   UNL A   1      40.990  22.292  26.077  1.00  0.00    -0.352 N 
ATOM     36  C   UNL A   1      41.349  23.681  26.503  1.00  0.00     0.251 C 
ATOM     37  H   UNL A   1      41.464  22.083  25.240  1.00  0.00     0.163 HD
ATOM     38  O   UNL A   1      42.580  23.804  26.676  1.00  0.00    -0.269 OA
BRANCH  36  39
ATOM     39  C   UNL A   1      40.567  25.100  26.744  1.00  0.00     0.039 A 
ATOM     40  C   UNL A   1      40.837  26.279  25.958  1.00  0.00     0.014 A 
ATOM     41  C   UNL A   1      39.659  25.390  27.756  1.00  0.00     0.014 A 
ATOM     42  C   UNL A   1      40.764  27.625  26.548  1.00  0.00     0.010 A 
ATOM     43  C   UNL A   1      39.606  26.698  28.352  1.00  0.00     0.010 A 
ATOM     44  C   UNL A   1      40.408  27.760  27.905  1.00  0.00    -0.014 A 
BRANCH  44  45
ATOM     45  C   UNL A   1      41.120  28.682  28.947  1.00  0.00     0.031 A 
ATOM     46  C   UNL A   1      40.282  29.507  29.804  1.00  0.00     0.074 A 
ATOM     47  C   UNL A   1      42.436  28.782  29.356  1.00  0.00     0.049 A 
ATOM     48  N   UNL A   1      40.301  30.797  29.877  1.00  0.00    -0.248 NA
ATOM     49  C   UNL A   1      39.340  28.851  30.697  1.00  0.00     0.031 C 
ATOM     50  C   UNL A   1      43.153  29.582  30.375  1.00  0.00     0.029 A 
ATOM     51  N   UNL A   1      43.535  28.093  28.891  1.00  0.00    -0.354 N 
ATOM     52  C   UNL A   1      39.629  31.076  31.049  1.00  0.00     0.074 A 
ATOM     53  C   UNL A   1      38.813  29.908  31.309  1.00  0.00     0.031 C 
ATOM     54  C   UNL A   1      44.484  29.618  30.080  1.00  0.00     0.029 A 
ATOM     55  C   UNL A   1      44.683  28.870  28.854  1.00  0.00     0.049 A 
ATOM     56  H   UNL A   1      43.508  27.148  28.614  1.00  0.00     0.167 HD
ATOM     57  C   UNL A   1      40.074  32.031  31.923  1.00  0.00     0.031 A 
ATOM     58  C   UNL A   1      45.171  29.275  27.631  1.00  0.00     0.031 A 
ATOM     59  C   UNL A   1      41.407  32.548  31.552  1.00  0.00     0.049 A 
ATOM     60  C   UNL A   1      44.903  30.743  27.446  1.00  0.00     0.074 A 
ATOM     61  C   UNL A   1      42.657  32.469  32.157  1.00  0.00     0.029 A 
ATOM     62  N   UNL A   1      41.655  32.974  30.251  1.00  0.00    -0.354 N 
ATOM     63  N   UNL A   1      44.240  31.449  28.312  1.00  0.00    -0.248 NA
ATOM     64  C   UNL A   1      45.300  31.532  26.290  1.00  0.00     0.031 C 
ATOM     65  C   UNL A   1      43.650  32.812  31.190  1.00  0.00     0.029 A 
ATOM     66  C   UNL A   1      43.009  33.142  30.010  1.00  0.00     0.049 A 
ATOM     67  H   UNL A   1      40.952  33.137  29.581  1.00  0.00     0.167 HD
ATOM     68  C   UNL A   1      44.115  32.736  27.904  1.00  0.00     0.074 A 
ATOM     69  C   UNL A   1      44.793  32.738  26.614  1.00  0.00     0.031 C 
ATOM     70  C   UNL A   1      43.460  33.634  28.698  1.00  0.00     0.031 A 
BRANCH  57  71
ATOM     71  C   UNL A   1      39.431  32.244  33.291  1.00  0.00    -0.014 A 
ATOM     72  C   UNL A   1      38.292  33.058  33.441  1.00  0.00     0.010 A 
ATOM     73  C   UNL A   1      39.877  31.610  34.471  1.00  0.00     0.010 A 
ATOM     74  C   UNL A   1      37.684  33.269  34.695  1.00  0.00     0.020 A 
ATOM     75  C   UNL A   1      39.329  31.859  35.735  1.00  0.00     0.020 A 
ATOM     76  C   UNL A   1      38.218  32.679  35.840  1.00  0.00     0.054 A 
BRANCH  76  77
ATOM     77  S   UNL A   1      37.403  32.910  37.441  1.00  0.00     0.124 S 
ATOM     78  O   UNL A   1      36.101  33.452  37.065  1.00  0.00    -0.237 OA
ATOM     79  O   UNL A   1      37.391  31.554  37.982  1.00  0.00    -0.237 OA
ATOM     80  O   UNL A   1      38.278  33.846  38.147  1.00  0.00    -0.744 OA
ENDBRANCH  76  77
ENDBRANCH  57  71
BRANCH  58  81
ATOM     81  C   UNL A   1      45.084  28.251  26.468  1.00  0.00    -0.014 A 
ATOM     82  C   UNL A   1      46.038  28.425  25.447  1.00  0.00     0.010 A 
ATOM     83  C   UNL A   1      44.991  26.956  26.933  1.00  0.00     0.010 A 
ATOM     84  C   UNL A   1      47.264  27.739  25.510  1.00  0.00     0.020 A 
ATOM     85  C   UNL A   1      46.240  26.321  27.032  1.00  0.00     0.020 A 
ATOM     86  C   UNL A   1      47.412  26.754  26.477  1.00  0.00     0.054 A 
BRANCH  86  87
ATOM     87  S   UNL A   1      49.197  26.319  27.483  1.00  0.00     0.124 S 
ATOM     88  O   UNL A   1      49.900  25.587  26.446  1.00  0.00    -0.237 OA
ATOM     89  O   UNL A   1      49.812  27.606  27.778  1.00  0.00    -0.237 OA
ATOM     90  O   UNL A   1      48.862  25.547  28.666  1.00  0.00    -0.744 OA
ENDBRANCH  86  87
ENDBRANCH  58  81
BRANCH  70  91
ATOM     91  C   UNL A   1      43.168  35.077  28.371  1.00  0.00    -0.014 A 
ATOM     92  C   UNL A   1      42.135  35.522  27.543  1.00  0.00     0.010 A 
ATOM     93  C   UNL A   1      44.000  36.078  28.935  1.00  0.00     0.010 A 
ATOM     94  C   UNL A   1      41.904  36.887  27.336  1.00  0.00     0.020 A 
ATOM     95  C   UNL A   1      43.775  37.439  28.753  1.00  0.00     0.020 A 
ATOM     96  C   UNL A   1      42.718  37.834  27.953  1.00  0.00     0.054 A 
BRANCH  96  97
ATOM     97  S   UNL A   1      42.376  39.581  27.679  1.00  0.00     0.124 S 
ATOM     98  O   UNL A   1      43.716  40.125  27.476  1.00  0.00    -0.237 OA
ATOM     99  O   UNL A   1      41.526  39.544  26.490  1.00  0.00    -0.237 OA
ATOM    100  O   UNL A   1      41.709  40.007  28.906  1.00  0.00    -0.744 OA
ENDBRANCH  96  97
ENDBRANCH  70  91
ENDBRANCH  44  45
ENDBRANCH  36  39
ENDBRANCH  34  35
ENDBRANCH  33  34
ENDBRANCH  32  33
ENDBRANCH   3  32
TORSDOF 19
ENDMDL
