MODEL 1
REMARK VINA RESULT:     -13.6      0.000      0.000
REMARK SMILES Cc1ccccc1/[NH+]=C1\S[C@@H](CC(=O)Nc2ccc(C(=O)NCCCNC(=O)c3ccc(-c4c5nc(c(-c6ccc(S(=O)(=O)[O-])cc6)c6ccc([nH]6)c(-c6ccc(S(=O)(=O)[O-])cc6)c6nc(c(-c7ccc(S(=O)(=O)[O-])cc7)c7ccc4[nH]7)C=C6)C=C5)cc3)cc2)C(=O)N1C
REMARK SMILES IDX 23 1 22 2 20 3 21 4 19 6 16 7 17 8 90 9 18 10 89 11 15 12
REMARK SMILES IDX 13 13 14 14 12 16 11 17 8 18 9 19 10 21 93 22 91 23 94 24
REMARK SMILES IDX 92 25 7 26 1 27 2 28 3 29 4 30 6 31 5 32 24 33 25 34 26 35
REMARK SMILES IDX 27 36 28 38 29 39 30 40 88 41 31 42 87 43 32 44 33 45 34 46
REMARK SMILES IDX 81 47 35 48 86 49 80 50 82 51 36 52 85 53 79 54 78 55 37 57
REMARK SMILES IDX 67 58 48 59 66 60 49 61 52 62 65 63 83 64 50 65 51 66 64 68
REMARK SMILES IDX 84 69 53 70 38 71 39 72 47 73 40 74 46 75 41 76 42 77 43 78
REMARK SMILES IDX 44 79 45 80 68 81 69 82 77 83 70 84 76 85 71 86 72 87 73 88
REMARK SMILES IDX 74 89 75 90 54 91 55 92 63 93 56 94 62 95 57 96 58 97 59 98
REMARK SMILES IDX 60 99 61 100
REMARK H PARENT 22 5 15 15 8 20 26 37 82 56 52 67
REMARK Flexibility Score: inf
ROOT
ATOM      1  C   UNL A   1      32.081  29.607  26.252  1.00  0.00     0.118 C 
ENDROOT
BRANCH   1   2
ATOM      2  N   UNL A   1      31.233  30.405  25.373  1.00  0.00    -0.352 N 
ATOM      3  C   UNL A   1      30.459  30.009  24.301  1.00  0.00     0.251 C 
ATOM      4  O   UNL A   1      29.545  30.723  23.897  1.00  0.00    -0.269 OA
ATOM      5  H   UNL A   1      31.208  31.369  25.575  1.00  0.00     0.163 HD
BRANCH   3   6
ATOM      6  C   UNL A   1      30.697  28.715  23.616  1.00  0.00     0.039 A 
ATOM      7  C   UNL A   1      31.214  26.254  22.400  1.00  0.00     0.041 A 
ATOM      8  C   UNL A   1      31.706  27.434  21.848  1.00  0.00     0.027 A 
ATOM      9  C   UNL A   1      30.323  26.310  23.467  1.00  0.00     0.027 A 
ATOM     10  C   UNL A   1      31.448  28.661  22.447  1.00  0.00     0.016 A 
ATOM     11  C   UNL A   1      30.077  27.545  24.084  1.00  0.00     0.016 A 
BRANCH   7  12
ATOM     12  N   UNL A   1      31.663  25.023  21.908  1.00  0.00    -0.326 N 
ATOM     13  C   UNL A   1      32.979  24.606  21.900  1.00  0.00     0.226 C 
ATOM     14  O   UNL A   1      33.329  23.628  21.241  1.00  0.00    -0.275 OA
ATOM     15  H   UNL A   1      30.989  24.407  21.540  1.00  0.00     0.169 HD
BRANCH  13  16
ATOM     16  C   UNL A   1      33.927  25.263  22.895  1.00  0.00     0.128 C 
BRANCH  16  17
ATOM     17  C   UNL A   1      34.365  24.403  24.061  1.00  0.00     0.183 C 
ATOM     18  N   UNL A   1      35.908  21.256  25.370  1.00  0.00    -0.234 N 
ATOM     19  C   UNL A   1      35.229  22.100  24.681  1.00  0.00     0.319 C 
ATOM     20  H   UNL A   1      35.383  20.650  25.940  1.00  0.00     0.313 HD
ATOM     21  S   UNL A   1      35.730  23.298  23.534  1.00  0.00    -0.022 SA
ATOM     22  N   UNL A   1      33.877  22.194  24.843  1.00  0.00    -0.193 N 
ATOM     23  C   UNL A   1      33.342  23.447  24.646  1.00  0.00     0.324 C 
ATOM     24  C   UNL A   1      33.068  21.115  25.376  1.00  0.00     0.301 C 
ATOM     25  O   UNL A   1      32.222  23.786  25.012  1.00  0.00    -0.245 OA
BRANCH  18  26
ATOM     26  C   UNL A   1      37.299  21.083  25.419  1.00  0.00     0.128 A 
ATOM     27  C   UNL A   1      37.956  23.415  26.315  1.00  0.00     0.049 C 
ATOM     28  C   UNL A   1      38.251  21.996  25.921  1.00  0.00    -0.004 A 
ATOM     29  C   UNL A   1      39.592  21.582  26.076  1.00  0.00     0.008 A 
ATOM     30  C   UNL A   1      39.980  20.270  25.818  1.00  0.00     0.001 A 
ATOM     31  C   UNL A   1      37.723  19.768  25.156  1.00  0.00     0.052 A 
ATOM     32  C   UNL A   1      39.041  19.358  25.362  1.00  0.00     0.004 A 
ENDBRANCH  18  26
ENDBRANCH  16  17
ENDBRANCH  13  16
ENDBRANCH   7  12
ENDBRANCH   3   6
ENDBRANCH   1   2
BRANCH   1  33
ATOM     33  C   UNL A   1      33.584  29.764  26.007  1.00  0.00     0.042 C 
BRANCH  33  34
ATOM     34  C   UNL A   1      34.441  29.568  27.255  1.00  0.00     0.118 C 
BRANCH  34  35
ATOM     35  N   UNL A   1      35.065  30.824  27.685  1.00  0.00    -0.352 N 
ATOM     36  C   UNL A   1      36.360  31.030  28.134  1.00  0.00     0.251 C 
ATOM     37  H   UNL A   1      34.490  31.624  27.648  1.00  0.00     0.163 HD
ATOM     38  O   UNL A   1      36.771  32.135  28.428  1.00  0.00    -0.269 OA
BRANCH  36  39
ATOM     39  C   UNL A   1      37.227  29.840  28.225  1.00  0.00     0.039 A 
ATOM     40  C   UNL A   1      37.268  29.126  29.425  1.00  0.00     0.014 A 
ATOM     41  C   UNL A   1      38.175  29.642  27.227  1.00  0.00     0.014 A 
ATOM     42  C   UNL A   1      38.384  28.337  29.708  1.00  0.00     0.010 A 
ATOM     43  C   UNL A   1      39.318  28.934  27.549  1.00  0.00     0.010 A 
ATOM     44  C   UNL A   1      39.450  28.323  28.808  1.00  0.00    -0.014 A 
BRANCH  44  45
ATOM     45  C   UNL A   1      40.783  27.810  29.117  1.00  0.00     0.031 A 
ATOM     46  C   UNL A   1      41.196  26.454  28.671  1.00  0.00     0.074 A 
ATOM     47  C   UNL A   1      41.720  28.614  29.674  1.00  0.00     0.049 A 
ATOM     48  N   UNL A   1      42.235  25.829  29.120  1.00  0.00    -0.248 NA
ATOM     49  C   UNL A   1      40.433  25.668  27.707  1.00  0.00     0.031 C 
ATOM     50  C   UNL A   1      43.167  28.415  29.627  1.00  0.00     0.029 A 
ATOM     51  N   UNL A   1      41.560  29.661  30.584  1.00  0.00    -0.354 N 
ATOM     52  C   UNL A   1      42.445  24.735  28.313  1.00  0.00     0.074 A 
ATOM     53  C   UNL A   1      41.257  24.637  27.496  1.00  0.00     0.031 C 
ATOM     54  C   UNL A   1      43.726  29.064  30.658  1.00  0.00     0.029 A 
ATOM     55  C   UNL A   1      42.645  29.578  31.478  1.00  0.00     0.049 A 
ATOM     56  H   UNL A   1      40.833  30.325  30.597  1.00  0.00     0.167 HD
ATOM     57  C   UNL A   1      43.648  24.096  28.331  1.00  0.00     0.031 A 
ATOM     58  C   UNL A   1      42.533  29.430  32.831  1.00  0.00     0.031 A 
ATOM     59  C   UNL A   1      44.564  24.639  29.331  1.00  0.00     0.049 A 
ATOM     60  C   UNL A   1      43.271  28.227  33.390  1.00  0.00     0.074 A 
ATOM     61  C   UNL A   1      45.705  25.424  29.291  1.00  0.00     0.029 A 
ATOM     62  N   UNL A   1      44.205  24.559  30.663  1.00  0.00    -0.354 N 
ATOM     63  N   UNL A   1      43.991  27.406  32.678  1.00  0.00    -0.248 NA
ATOM     64  C   UNL A   1      43.147  27.786  34.781  1.00  0.00     0.031 C 
ATOM     65  C   UNL A   1      46.048  25.780  30.627  1.00  0.00     0.029 A 
ATOM     66  C   UNL A   1      45.115  25.210  31.471  1.00  0.00     0.049 A 
ATOM     67  H   UNL A   1      43.402  24.097  30.995  1.00  0.00     0.167 HD
ATOM     68  C   UNL A   1      44.309  26.309  33.435  1.00  0.00     0.074 A 
ATOM     69  C   UNL A   1      43.794  26.607  34.757  1.00  0.00     0.031 C 
ATOM     70  C   UNL A   1      44.894  25.199  32.905  1.00  0.00     0.031 A 
BRANCH  57  71
ATOM     71  C   UNL A   1      44.074  23.088  27.289  1.00  0.00    -0.014 A 
ATOM     72  C   UNL A   1      43.135  22.159  26.793  1.00  0.00     0.010 A 
ATOM     73  C   UNL A   1      45.380  22.985  26.777  1.00  0.00     0.010 A 
ATOM     74  C   UNL A   1      43.502  21.123  25.924  1.00  0.00     0.020 A 
ATOM     75  C   UNL A   1      45.772  21.931  25.939  1.00  0.00     0.020 A 
ATOM     76  C   UNL A   1      44.830  20.997  25.526  1.00  0.00     0.054 A 
BRANCH  76  77
ATOM     77  S   UNL A   1      45.307  19.597  24.480  1.00  0.00     0.124 S 
ATOM     78  O   UNL A   1      44.520  19.826  23.270  1.00  0.00    -0.237 OA
ATOM     79  O   UNL A   1      46.747  19.786  24.342  1.00  0.00    -0.237 OA
ATOM     80  O   UNL A   1      44.904  18.429  25.260  1.00  0.00    -0.744 OA
ENDBRANCH  76  77
ENDBRANCH  57  71
BRANCH  58  81
ATOM     81  C   UNL A   1      41.271  29.977  33.395  1.00  0.00    -0.014 A 
ATOM     82  C   UNL A   1      41.292  31.314  33.842  1.00  0.00     0.010 A 
ATOM     83  C   UNL A   1      40.042  29.375  33.075  1.00  0.00     0.010 A 
ATOM     84  C   UNL A   1      40.136  32.091  33.780  1.00  0.00     0.020 A 
ATOM     85  C   UNL A   1      38.880  30.152  33.022  1.00  0.00     0.020 A 
ATOM     86  C   UNL A   1      38.956  31.521  33.303  1.00  0.00     0.054 A 
BRANCH  86  87
ATOM     87  S   UNL A   1      37.610  32.640  32.819  1.00  0.00     0.124 S 
ATOM     88  O   UNL A   1      37.069  31.986  31.633  1.00  0.00    -0.237 OA
ATOM     89  O   UNL A   1      36.760  32.603  34.008  1.00  0.00    -0.237 OA
ATOM     90  O   UNL A   1      38.294  33.909  32.588  1.00  0.00    -0.744 OA
ENDBRANCH  86  87
ENDBRANCH  58  81
BRANCH  70  91
ATOM     91  C   UNL A   1      45.240  23.966  33.694  1.00  0.00    -0.014 A 
ATOM     92  C   UNL A   1      46.562  23.625  34.021  1.00  0.00     0.010 A 
ATOM     93  C   UNL A   1      44.228  23.036  34.026  1.00  0.00     0.010 A 
ATOM     94  C   UNL A   1      46.854  22.431  34.696  1.00  0.00     0.020 A 
ATOM     95  C   UNL A   1      44.510  21.836  34.684  1.00  0.00     0.020 A 
ATOM     96  C   UNL A   1      45.824  21.547  35.031  1.00  0.00     0.054 A 
BRANCH  96  97
ATOM     97  S   UNL A   1      46.225  19.991  35.866  1.00  0.00     0.124 S 
ATOM     98  O   UNL A   1      45.499  19.004  35.070  1.00  0.00    -0.237 OA
ATOM     99  O   UNL A   1      47.680  19.948  35.741  1.00  0.00    -0.237 OA
ATOM    100  O   UNL A   1      45.720  20.182  37.223  1.00  0.00    -0.744 OA
ENDBRANCH  96  97
ENDBRANCH  70  91
ENDBRANCH  44  45
ENDBRANCH  36  39
ENDBRANCH  34  35
ENDBRANCH  33  34
ENDBRANCH   1  33
TORSDOF 17
ENDMDL
MODEL 2
REMARK VINA RESULT:     -13.6      1.599      2.534
REMARK SMILES Cc1ccccc1/[NH+]=C1\S[C@@H](CC(=O)Nc2ccc(C(=O)NCCCNC(=O)c3ccc(-c4c5nc(c(-c6ccc(S(=O)(=O)[O-])cc6)c6ccc([nH]6)c(-c6ccc(S(=O)(=O)[O-])cc6)c6nc(c(-c7ccc(S(=O)(=O)[O-])cc7)c7ccc4[nH]7)C=C6)C=C5)cc3)cc2)C(=O)N1C
REMARK SMILES IDX 23 1 22 2 20 3 21 4 19 6 16 7 17 8 90 9 18 10 89 11 15 12
REMARK SMILES IDX 13 13 14 14 12 16 11 17 8 18 9 19 10 21 93 22 91 23 94 24
REMARK SMILES IDX 92 25 7 26 1 27 2 28 3 29 4 30 6 31 5 32 24 33 25 34 26 35
REMARK SMILES IDX 27 36 28 38 29 39 30 40 88 41 31 42 87 43 32 44 33 45 34 46
REMARK SMILES IDX 81 47 35 48 86 49 80 50 82 51 36 52 85 53 79 54 78 55 37 57
REMARK SMILES IDX 67 58 48 59 66 60 49 61 52 62 65 63 83 64 50 65 51 66 64 68
REMARK SMILES IDX 84 69 53 70 38 71 39 72 47 73 40 74 46 75 41 76 42 77 43 78
REMARK SMILES IDX 44 79 45 80 68 81 69 82 77 83 70 84 76 85 71 86 72 87 73 88
REMARK SMILES IDX 74 89 75 90 54 91 55 92 63 93 56 94 62 95 57 96 58 97 59 98
REMARK SMILES IDX 60 99 61 100
REMARK H PARENT 22 5 15 15 8 20 26 37 82 56 52 67
REMARK Flexibility Score: inf
ROOT
ATOM      1  C   UNL A   1      33.960  28.921  24.847  1.00  0.00     0.118 C 
ENDROOT
BRANCH   1   2
ATOM      2  N   UNL A   1      33.148  29.115  23.650  1.00  0.00    -0.352 N 
ATOM      3  C   UNL A   1      31.829  28.778  23.418  1.00  0.00     0.251 C 
ATOM      4  O   UNL A   1      31.200  29.315  22.511  1.00  0.00    -0.269 OA
ATOM      5  H   UNL A   1      33.608  29.550  22.896  1.00  0.00     0.163 HD
BRANCH   3   6
ATOM      6  C   UNL A   1      31.134  27.772  24.257  1.00  0.00     0.039 A 
ATOM      7  C   UNL A   1      29.910  25.823  25.841  1.00  0.00     0.041 A 
ATOM      8  C   UNL A   1      29.617  25.918  24.483  1.00  0.00     0.027 A 
ATOM      9  C   UNL A   1      30.688  26.802  26.450  1.00  0.00     0.027 A 
ATOM     10  C   UNL A   1      30.219  26.889  23.693  1.00  0.00     0.016 A 
ATOM     11  C   UNL A   1      31.313  27.770  25.650  1.00  0.00     0.016 A 
BRANCH   7  12
ATOM     12  N   UNL A   1      29.464  24.712  26.566  1.00  0.00    -0.326 N 
ATOM     13  C   UNL A   1      30.237  23.617  26.894  1.00  0.00     0.226 C 
ATOM     14  O   UNL A   1      29.723  22.582  27.316  1.00  0.00    -0.275 OA
ATOM     15  H   UNL A   1      28.526  24.712  26.866  1.00  0.00     0.169 HD
BRANCH  13  16
ATOM     16  C   UNL A   1      31.748  23.809  26.917  1.00  0.00     0.128 C 
BRANCH  16  17
ATOM     17  C   UNL A   1      32.521  23.114  25.817  1.00  0.00     0.183 C 
ATOM     18  N   UNL A   1      34.761  20.340  24.683  1.00  0.00    -0.234 N 
ATOM     19  C   UNL A   1      34.216  21.280  25.365  1.00  0.00     0.319 C 
ATOM     20  H   UNL A   1      35.648  20.545  24.307  1.00  0.00     0.313 HD
ATOM     21  S   UNL A   1      32.714  21.337  26.227  1.00  0.00    -0.022 SA
ATOM     22  N   UNL A   1      34.808  22.508  25.445  1.00  0.00    -0.193 N 
ATOM     23  C   UNL A   1      33.945  23.575  25.566  1.00  0.00     0.324 C 
ATOM     24  C   UNL A   1      36.224  22.718  25.222  1.00  0.00     0.301 C 
ATOM     25  O   UNL A   1      34.260  24.744  25.372  1.00  0.00    -0.245 OA
BRANCH  18  26
ATOM     26  C   UNL A   1      34.264  19.060  24.400  1.00  0.00     0.128 A 
ATOM     27  C   UNL A   1      32.230  19.735  22.959  1.00  0.00     0.049 C 
ATOM     28  C   UNL A   1      33.179  18.738  23.556  1.00  0.00    -0.004 A 
ATOM     29  C   UNL A   1      32.935  17.386  23.229  1.00  0.00     0.008 A 
ATOM     30  C   UNL A   1      33.787  16.371  23.657  1.00  0.00     0.001 A 
ATOM     31  C   UNL A   1      35.100  18.012  24.827  1.00  0.00     0.052 A 
ATOM     32  C   UNL A   1      34.876  16.686  24.455  1.00  0.00     0.004 A 
ENDBRANCH  18  26
ENDBRANCH  16  17
ENDBRANCH  13  16
ENDBRANCH   7  12
ENDBRANCH   3   6
ENDBRANCH   1   2
BRANCH   1  33
ATOM     33  C   UNL A   1      33.782  29.996  25.922  1.00  0.00     0.042 C 
BRANCH  33  34
ATOM     34  C   UNL A   1      34.465  29.668  27.247  1.00  0.00     0.118 C 
BRANCH  34  35
ATOM     35  N   UNL A   1      35.060  30.860  27.859  1.00  0.00    -0.352 N 
ATOM     36  C   UNL A   1      36.329  31.008  28.396  1.00  0.00     0.251 C 
ATOM     37  H   UNL A   1      34.484  31.659  27.891  1.00  0.00     0.163 HD
ATOM     38  O   UNL A   1      36.720  32.068  28.844  1.00  0.00    -0.269 OA
BRANCH  36  39
ATOM     39  C   UNL A   1      37.196  29.815  28.384  1.00  0.00     0.039 A 
ATOM     40  C   UNL A   1      37.222  28.989  29.512  1.00  0.00     0.014 A 
ATOM     41  C   UNL A   1      38.159  29.712  27.386  1.00  0.00     0.014 A 
ATOM     42  C   UNL A   1      38.335  28.177  29.733  1.00  0.00     0.010 A 
ATOM     43  C   UNL A   1      39.297  28.977  27.654  1.00  0.00     0.010 A 
ATOM     44  C   UNL A   1      39.413  28.248  28.850  1.00  0.00    -0.014 A 
BRANCH  44  45
ATOM     45  C   UNL A   1      40.743  27.708  29.128  1.00  0.00     0.031 A 
ATOM     46  C   UNL A   1      41.122  26.350  28.658  1.00  0.00     0.074 A 
ATOM     47  C   UNL A   1      41.704  28.488  29.675  1.00  0.00     0.049 A 
ATOM     48  N   UNL A   1      42.158  25.701  29.080  1.00  0.00    -0.248 NA
ATOM     49  C   UNL A   1      40.326  25.589  27.700  1.00  0.00     0.031 C 
ATOM     50  C   UNL A   1      43.147  28.264  29.597  1.00  0.00     0.029 A 
ATOM     51  N   UNL A   1      41.582  29.527  30.599  1.00  0.00    -0.354 N 
ATOM     52  C   UNL A   1      42.332  24.613  28.256  1.00  0.00     0.074 A 
ATOM     53  C   UNL A   1      41.127  24.546  27.462  1.00  0.00     0.031 C 
ATOM     54  C   UNL A   1      43.737  28.890  30.624  1.00  0.00     0.029 A 
ATOM     55  C   UNL A   1      42.682  29.415  31.471  1.00  0.00     0.049 A 
ATOM     56  H   UNL A   1      40.867  30.204  30.634  1.00  0.00     0.167 HD
ATOM     57  C   UNL A   1      43.523  23.952  28.243  1.00  0.00     0.031 A 
ATOM     58  C   UNL A   1      42.593  29.253  32.824  1.00  0.00     0.031 A 
ATOM     59  C   UNL A   1      44.469  24.467  29.231  1.00  0.00     0.049 A 
ATOM     60  C   UNL A   1      43.320  28.031  33.354  1.00  0.00     0.074 A 
ATOM     61  C   UNL A   1      45.623  25.232  29.178  1.00  0.00     0.029 A 
ATOM     62  N   UNL A   1      44.134  24.379  30.569  1.00  0.00    -0.354 N 
ATOM     63  N   UNL A   1      44.011  27.205  32.619  1.00  0.00    -0.248 NA
ATOM     64  C   UNL A   1      43.216  27.576  34.743  1.00  0.00     0.031 C 
ATOM     65  C   UNL A   1      45.998  25.566  30.510  1.00  0.00     0.029 A 
ATOM     66  C   UNL A   1      45.071  25.003  31.366  1.00  0.00     0.049 A 
ATOM     67  H   UNL A   1      43.329  23.927  30.911  1.00  0.00     0.167 HD
ATOM     68  C   UNL A   1      44.324  26.094  33.358  1.00  0.00     0.074 A 
ATOM     69  C   UNL A   1      43.840  26.386  34.693  1.00  0.00     0.031 C 
ATOM     70  C   UNL A   1      44.878  24.980  32.804  1.00  0.00     0.031 A 
BRANCH  57  71
ATOM     71  C   UNL A   1      43.910  22.949  27.182  1.00  0.00    -0.014 A 
ATOM     72  C   UNL A   1      43.000  21.936  26.816  1.00  0.00     0.010 A 
ATOM     73  C   UNL A   1      45.156  22.932  26.528  1.00  0.00     0.010 A 
ATOM     74  C   UNL A   1      43.351  20.905  25.933  1.00  0.00     0.020 A 
ATOM     75  C   UNL A   1      45.536  21.886  25.674  1.00  0.00     0.020 A 
ATOM     76  C   UNL A   1      44.631  20.869  25.391  1.00  0.00     0.054 A 
BRANCH  76  77
ATOM     77  S   UNL A   1      45.100  19.480  24.328  1.00  0.00     0.124 S 
ATOM     78  O   UNL A   1      44.523  18.336  25.030  1.00  0.00    -0.237 OA
ATOM     79  O   UNL A   1      44.466  19.827  23.060  1.00  0.00    -0.237 OA
ATOM     80  O   UNL A   1      46.561  19.524  24.325  1.00  0.00    -0.744 OA
ENDBRANCH  76  77
ENDBRANCH  57  71
BRANCH  58  81
ATOM     81  C   UNL A   1      41.353  29.816  33.419  1.00  0.00    -0.014 A 
ATOM     82  C   UNL A   1      41.347  31.196  33.709  1.00  0.00     0.010 A 
ATOM     83  C   UNL A   1      40.132  29.137  33.265  1.00  0.00     0.010 A 
ATOM     84  C   UNL A   1      40.157  31.919  33.650  1.00  0.00     0.020 A 
ATOM     85  C   UNL A   1      38.936  29.861  33.216  1.00  0.00     0.020 A 
ATOM     86  C   UNL A   1      38.972  31.255  33.333  1.00  0.00     0.054 A 
BRANCH  86  87
ATOM     87  S   UNL A   1      37.545  32.262  32.832  1.00  0.00     0.124 S 
ATOM     88  O   UNL A   1      36.541  31.250  32.522  1.00  0.00    -0.237 OA
ATOM     89  O   UNL A   1      37.304  33.046  34.042  1.00  0.00    -0.237 OA
ATOM     90  O   UNL A   1      38.053  33.022  31.694  1.00  0.00    -0.744 OA
ENDBRANCH  86  87
ENDBRANCH  58  81
BRANCH  70  91
ATOM     91  C   UNL A   1      45.217  23.732  33.572  1.00  0.00    -0.014 A 
ATOM     92  C   UNL A   1      44.243  22.806  33.978  1.00  0.00     0.010 A 
ATOM     93  C   UNL A   1      46.541  23.520  34.023  1.00  0.00     0.010 A 
ATOM     94  C   UNL A   1      44.586  21.690  34.755  1.00  0.00     0.020 A 
ATOM     95  C   UNL A   1      46.890  22.421  34.810  1.00  0.00     0.020 A 
ATOM     96  C   UNL A   1      45.909  21.500  35.160  1.00  0.00     0.054 A 
BRANCH  96  97
ATOM     97  S   UNL A   1      46.326  20.076  36.197  1.00  0.00     0.124 S 
ATOM     98  O   UNL A   1      45.726  20.428  37.482  1.00  0.00    -0.237 OA
ATOM     99  O   UNL A   1      45.674  18.981  35.481  1.00  0.00    -0.237 OA
ATOM    100  O   UNL A   1      47.786  20.048  36.183  1.00  0.00    -0.744 OA
ENDBRANCH  96  97
ENDBRANCH  70  91
ENDBRANCH  44  45
ENDBRANCH  36  39
ENDBRANCH  34  35
ENDBRANCH  33  34
ENDBRANCH   1  33
TORSDOF 17
ENDMDL
MODEL 3
REMARK VINA RESULT:     -13.5      1.907      2.658
REMARK SMILES Cc1ccccc1/[NH+]=C1\S[C@@H](CC(=O)Nc2ccc(C(=O)NCCCNC(=O)c3ccc(-c4c5nc(c(-c6ccc(S(=O)(=O)[O-])cc6)c6ccc([nH]6)c(-c6ccc(S(=O)(=O)[O-])cc6)c6nc(c(-c7ccc(S(=O)(=O)[O-])cc7)c7ccc4[nH]7)C=C6)C=C5)cc3)cc2)C(=O)N1C
REMARK SMILES IDX 23 1 22 2 20 3 21 4 19 6 16 7 17 8 90 9 18 10 89 11 15 12
REMARK SMILES IDX 13 13 14 14 12 16 11 17 8 18 9 19 10 21 93 22 91 23 94 24
REMARK SMILES IDX 92 25 7 26 1 27 2 28 3 29 4 30 6 31 5 32 24 33 25 34 26 35
REMARK SMILES IDX 27 36 28 38 29 39 30 40 88 41 31 42 87 43 32 44 33 45 34 46
REMARK SMILES IDX 81 47 35 48 86 49 80 50 82 51 36 52 85 53 79 54 78 55 37 57
REMARK SMILES IDX 67 58 48 59 66 60 49 61 52 62 65 63 83 64 50 65 51 66 64 68
REMARK SMILES IDX 84 69 53 70 38 71 39 72 47 73 40 74 46 75 41 76 42 77 43 78
REMARK SMILES IDX 44 79 45 80 68 81 69 82 77 83 70 84 76 85 71 86 72 87 73 88
REMARK SMILES IDX 74 89 75 90 54 91 55 92 63 93 56 94 62 95 57 96 58 97 59 98
REMARK SMILES IDX 60 99 61 100
REMARK H PARENT 22 5 15 15 8 20 26 37 82 56 52 67
REMARK Flexibility Score: inf
ROOT
ATOM      1  C   UNL A   1      33.814  30.301  27.381  1.00  0.00     0.118 C 
ENDROOT
BRANCH   1   2
ATOM      2  N   UNL A   1      32.591  29.580  27.720  1.00  0.00    -0.352 N 
ATOM      3  C   UNL A   1      31.996  28.510  27.084  1.00  0.00     0.251 C 
ATOM      4  O   UNL A   1      31.186  27.805  27.679  1.00  0.00    -0.269 OA
ATOM      5  H   UNL A   1      32.121  29.906  28.522  1.00  0.00     0.163 HD
BRANCH   3   6
ATOM      6  C   UNL A   1      32.320  28.174  25.676  1.00  0.00     0.039 A 
ATOM      7  C   UNL A   1      32.865  27.464  23.030  1.00  0.00     0.041 A 
ATOM      8  C   UNL A   1      33.785  27.194  24.039  1.00  0.00     0.027 A 
ATOM      9  C   UNL A   1      31.743  28.238  23.308  1.00  0.00     0.027 A 
ATOM     10  C   UNL A   1      33.520  27.549  25.356  1.00  0.00     0.016 A 
ATOM     11  C   UNL A   1      31.465  28.581  24.639  1.00  0.00     0.016 A 
BRANCH   7  12
ATOM     12  N   UNL A   1      33.052  26.909  21.759  1.00  0.00    -0.326 N 
ATOM     13  C   UNL A   1      32.723  25.617  21.403  1.00  0.00     0.226 C 
ATOM     14  O   UNL A   1      33.133  25.126  20.352  1.00  0.00    -0.275 OA
ATOM     15  H   UNL A   1      33.449  27.484  21.065  1.00  0.00     0.169 HD
BRANCH  13  16
ATOM     16  C   UNL A   1      31.671  24.906  22.245  1.00  0.00     0.128 C 
BRANCH  16  17
ATOM     17  C   UNL A   1      32.197  24.033  23.364  1.00  0.00     0.183 C 
ATOM     18  N   UNL A   1      32.320  20.731  25.117  1.00  0.00    -0.234 N 
ATOM     19  C   UNL A   1      31.922  21.775  24.488  1.00  0.00     0.319 C 
ATOM     20  H   UNL A   1      32.026  20.658  26.053  1.00  0.00     0.313 HD
ATOM     21  S   UNL A   1      32.160  22.275  22.846  1.00  0.00    -0.022 SA
ATOM     22  N   UNL A   1      31.231  22.754  25.142  1.00  0.00    -0.193 N 
ATOM     23  C   UNL A   1      31.424  24.033  24.670  1.00  0.00     0.324 C 
ATOM     24  C   UNL A   1      30.496  22.517  26.369  1.00  0.00     0.301 C 
ATOM     25  O   UNL A   1      31.124  25.050  25.286  1.00  0.00    -0.245 OA
BRANCH  18  26
ATOM     26  C   UNL A   1      33.121  19.678  24.650  1.00  0.00     0.128 A 
ATOM     27  C   UNL A   1      35.442  20.691  25.157  1.00  0.00     0.049 C 
ATOM     28  C   UNL A   1      34.527  19.581  24.730  1.00  0.00    -0.004 A 
ATOM     29  C   UNL A   1      35.156  18.364  24.387  1.00  0.00     0.008 A 
ATOM     30  C   UNL A   1      34.416  17.235  24.047  1.00  0.00     0.001 A 
ATOM     31  C   UNL A   1      32.400  18.524  24.292  1.00  0.00     0.052 A 
ATOM     32  C   UNL A   1      33.033  17.314  24.004  1.00  0.00     0.004 A 
ENDBRANCH  18  26
ENDBRANCH  16  17
ENDBRANCH  13  16
ENDBRANCH   7  12
ENDBRANCH   3   6
ENDBRANCH   1   2
BRANCH   1  33
ATOM     33  C   UNL A   1      33.684  31.826  27.399  1.00  0.00     0.042 C 
BRANCH  33  34
ATOM     34  C   UNL A   1      34.882  32.543  28.017  1.00  0.00     0.118 C 
BRANCH  34  35
ATOM     35  N   UNL A   1      34.745  32.670  29.471  1.00  0.00    -0.352 N 
ATOM     36  C   UNL A   1      35.430  31.984  30.462  1.00  0.00     0.251 C 
ATOM     37  H   UNL A   1      34.081  33.328  29.784  1.00  0.00     0.163 HD
ATOM     38  O   UNL A   1      35.249  32.208  31.643  1.00  0.00    -0.269 OA
BRANCH  36  39
ATOM     39  C   UNL A   1      36.407  30.974  30.014  1.00  0.00     0.039 A 
ATOM     40  C   UNL A   1      36.419  29.724  30.640  1.00  0.00     0.014 A 
ATOM     41  C   UNL A   1      37.454  31.389  29.199  1.00  0.00     0.014 A 
ATOM     42  C   UNL A   1      37.583  28.956  30.599  1.00  0.00     0.010 A 
ATOM     43  C   UNL A   1      38.632  30.669  29.237  1.00  0.00     0.010 A 
ATOM     44  C   UNL A   1      38.718  29.478  29.978  1.00  0.00    -0.014 A 
BRANCH  44  45
ATOM     45  C   UNL A   1      40.067  28.935  30.136  1.00  0.00     0.031 A 
ATOM     46  C   UNL A   1      40.460  27.673  29.457  1.00  0.00     0.074 A 
ATOM     47  C   UNL A   1      41.028  29.648  30.770  1.00  0.00     0.049 A 
ATOM     48  N   UNL A   1      41.521  26.994  29.748  1.00  0.00    -0.248 NA
ATOM     49  C   UNL A   1      39.651  27.045  28.416  1.00  0.00     0.031 C 
ATOM     50  C   UNL A   1      42.472  29.474  30.621  1.00  0.00     0.029 A 
ATOM     51  N   UNL A   1      40.911  30.532  31.843  1.00  0.00    -0.354 N 
ATOM     52  C   UNL A   1      41.693  26.048  28.765  1.00  0.00     0.074 A 
ATOM     53  C   UNL A   1      40.467  26.070  28.002  1.00  0.00     0.031 C 
ATOM     54  C   UNL A   1      43.079  29.953  31.715  1.00  0.00     0.029 A 
ATOM     55  C   UNL A   1      42.039  30.318  32.659  1.00  0.00     0.049 A 
ATOM     56  H   UNL A   1      40.184  31.178  31.999  1.00  0.00     0.167 HD
ATOM     57  C   UNL A   1      42.897  25.426  28.622  1.00  0.00     0.031 A 
ATOM     58  C   UNL A   1      41.994  29.952  33.974  1.00  0.00     0.031 A 
ATOM     59  C   UNL A   1      43.860  25.810  29.651  1.00  0.00     0.049 A 
ATOM     60  C   UNL A   1      42.761  28.682  34.294  1.00  0.00     0.074 A 
ATOM     61  C   UNL A   1      44.996  26.603  29.684  1.00  0.00     0.029 A 
ATOM     62  N   UNL A   1      43.568  25.512  30.969  1.00  0.00    -0.354 N 
ATOM     63  N   UNL A   1      43.447  27.994  33.425  1.00  0.00    -0.248 NA
ATOM     64  C   UNL A   1      42.707  28.021  35.601  1.00  0.00     0.031 C 
ATOM     65  C   UNL A   1      45.404  26.741  31.041  1.00  0.00     0.029 A 
ATOM     66  C   UNL A   1      44.515  26.033  31.826  1.00  0.00     0.049 A 
ATOM     67  H   UNL A   1      42.783  24.995  31.259  1.00  0.00     0.167 HD
ATOM     68  C   UNL A   1      43.804  26.793  33.978  1.00  0.00     0.074 A 
ATOM     69  C   UNL A   1      43.355  26.869  35.354  1.00  0.00     0.031 C 
ATOM     70  C   UNL A   1      44.365  25.789  33.248  1.00  0.00     0.031 A 
BRANCH  57  71
ATOM     71  C   UNL A   1      43.273  24.604  27.411  1.00  0.00    -0.014 A 
ATOM     72  C   UNL A   1      43.400  23.204  27.531  1.00  0.00     0.010 A 
ATOM     73  C   UNL A   1      43.538  25.145  26.140  1.00  0.00     0.010 A 
ATOM     74  C   UNL A   1      43.869  22.407  26.479  1.00  0.00     0.020 A 
ATOM     75  C   UNL A   1      44.046  24.367  25.089  1.00  0.00     0.020 A 
ATOM     76  C   UNL A   1      44.220  23.000  25.270  1.00  0.00     0.054 A 
BRANCH  76  77
ATOM     77  S   UNL A   1      44.915  21.970  23.952  1.00  0.00     0.124 S 
ATOM     78  O   UNL A   1      44.358  22.583  22.747  1.00  0.00    -0.237 OA
ATOM     79  O   UNL A   1      46.351  22.144  24.142  1.00  0.00    -0.237 OA
ATOM     80  O   UNL A   1      44.404  20.634  24.252  1.00  0.00    -0.744 OA
ENDBRANCH  76  77
ENDBRANCH  57  71
BRANCH  58  81
ATOM     81  C   UNL A   1      40.760  30.388  34.679  1.00  0.00    -0.014 A 
ATOM     82  C   UNL A   1      40.877  31.479  35.566  1.00  0.00     0.010 A 
ATOM     83  C   UNL A   1      39.499  30.055  34.155  1.00  0.00     0.010 A 
ATOM     84  C   UNL A   1      39.796  32.336  35.766  1.00  0.00     0.020 A 
ATOM     85  C   UNL A   1      38.412  30.911  34.364  1.00  0.00     0.020 A 
ATOM     86  C   UNL A   1      38.593  32.083  35.106  1.00  0.00     0.054 A 
BRANCH  86  87
ATOM     87  S   UNL A   1      37.371  33.424  35.029  1.00  0.00     0.124 S 
ATOM     88  O   UNL A   1      37.260  33.829  36.426  1.00  0.00    -0.237 OA
ATOM     89  O   UNL A   1      38.041  34.376  34.143  1.00  0.00    -0.237 OA
ATOM     90  O   UNL A   1      36.193  32.775  34.461  1.00  0.00    -0.744 OA
ENDBRANCH  86  87
ENDBRANCH  58  81
BRANCH  70  91
ATOM     91  C   UNL A   1      44.752  24.449  33.810  1.00  0.00    -0.014 A 
ATOM     92  C   UNL A   1      43.810  23.447  34.093  1.00  0.00     0.010 A 
ATOM     93  C   UNL A   1      46.092  24.206  34.192  1.00  0.00     0.010 A 
ATOM     94  C   UNL A   1      44.199  22.236  34.683  1.00  0.00     0.020 A 
ATOM     95  C   UNL A   1      46.487  23.009  34.795  1.00  0.00     0.020 A 
ATOM     96  C   UNL A   1      45.537  22.021  35.024  1.00  0.00     0.054 A 
BRANCH  96  97
ATOM     97  S   UNL A   1      46.013  20.468  35.822  1.00  0.00     0.124 S 
ATOM     98  O   UNL A   1      45.685  20.714  37.225  1.00  0.00    -0.237 OA
ATOM     99  O   UNL A   1      45.155  19.502  35.139  1.00  0.00    -0.237 OA
ATOM    100  O   UNL A   1      47.440  20.348  35.533  1.00  0.00    -0.744 OA
ENDBRANCH  96  97
ENDBRANCH  70  91
ENDBRANCH  44  45
ENDBRANCH  36  39
ENDBRANCH  34  35
ENDBRANCH  33  34
ENDBRANCH   1  33
TORSDOF 17
ENDMDL
