MODEL 1
REMARK VINA RESULT:     -10.4      0.000      0.000
REMARK SMILES COc1cc(Br)ccc1[C@H]([NH3+])C(=O)NCCCNC(=O)c1ccc(-c2c3nc(c(-c4ccc(S(=O)(=O)[O-])cc4)c4ccc([nH]4)c(-c4ccc(S(=O)(=O)[O-])cc4)c4nc(c(-c5ccc(S(=O)(=O)[O-])cc5)c5ccc2[nH]5)C=C4)C=C3)cc1
REMARK SMILES IDX 16 1 15 2 14 3 12 4 13 5 10 7 9 8 3 9 4 10 5 11 8 12 6 13
REMARK SMILES IDX 7 14 2 15 1 16 11 17 17 21 18 22 19 23 20 25 21 26 22 27
REMARK SMILES IDX 80 28 23 29 79 30 24 31 25 32 26 33 73 34 27 35 78 36 72 37
REMARK SMILES IDX 74 38 28 39 77 40 71 41 70 42 29 44 59 45 40 46 58 47 41 48
REMARK SMILES IDX 44 49 57 50 75 51 42 52 43 53 56 55 76 56 45 57 30 58 31 59
REMARK SMILES IDX 39 60 32 61 38 62 33 63 34 64 35 65 36 66 37 67 60 68 61 69
REMARK SMILES IDX 69 70 62 71 68 72 63 73 64 74 65 75 66 76 67 77 46 78 47 79
REMARK SMILES IDX 55 80 48 81 54 82 49 83 50 84 51 85 52 86 53 87
REMARK H PARENT 14 6 11 18 11 19 11 20 18 24 74 43 44 54
REMARK Flexibility Score: inf
ROOT
ATOM      1  C   UNL A   1      33.855  28.247  25.621  1.00  0.00     0.042 C 
ENDROOT
BRANCH   1   2
ATOM      2  C   UNL A   1      33.534  26.861  25.092  1.00  0.00     0.118 C 
BRANCH   2   3
ATOM      3  N   UNL A   1      33.798  26.724  23.668  1.00  0.00    -0.351 N 
ATOM      4  C   UNL A   1      33.512  25.719  22.789  1.00  0.00     0.283 C 
ATOM      5  O   UNL A   1      33.658  25.986  21.590  1.00  0.00    -0.268 OA
ATOM      6  H   UNL A   1      34.266  27.491  23.267  1.00  0.00     0.163 HD
BRANCH   4   7
ATOM      7  C   UNL A   1      33.071  24.302  23.231  1.00  0.00     0.306 C 
BRANCH   7   8
ATOM      8  C   UNL A   1      34.163  23.369  23.739  1.00  0.00     0.061 A 
ATOM      9  C   UNL A   1      33.824  22.131  24.316  1.00  0.00     0.129 A 
ATOM     10  C   UNL A   1      34.799  21.189  24.669  1.00  0.00     0.062 A 
ATOM     11  C   UNL A   1      36.142  21.500  24.509  1.00  0.00     0.021 A 
ATOM     12  C   UNL A   1      35.533  23.674  23.667  1.00  0.00     0.015 A 
ATOM     13  Br  UNL A   1      37.468  20.236  24.974  1.00  0.00    -0.051 Br
ATOM     14  C   UNL A   1      36.516  22.747  24.029  1.00  0.00     0.016 A 
BRANCH   9  15
ATOM     15  O   UNL A   1      32.502  21.822  24.527  1.00  0.00    -0.496 OA
ATOM     16  C   UNL A   1      32.352  20.420  24.763  1.00  0.00     0.278 C 
ENDBRANCH   9  15
ENDBRANCH   7   8
BRANCH   7  17
ATOM     17  N   UNL A   1      32.207  23.678  22.206  1.00  0.00    -0.343 N 
ATOM     18  H   UNL A   1      31.359  24.235  22.090  1.00  0.00     0.345 HD
ATOM     19  H   UNL A   1      31.956  22.735  22.500  1.00  0.00     0.345 HD
ATOM     20  H   UNL A   1      32.708  23.635  21.319  1.00  0.00     0.345 HD
ENDBRANCH   7  17
ENDBRANCH   4   7
ENDBRANCH   2   3
ENDBRANCH   1   2
BRANCH   1  21
ATOM     21  C   UNL A   1      33.542  28.425  27.102  1.00  0.00     0.118 C 
BRANCH  21  22
ATOM     22  N   UNL A   1      33.514  29.822  27.524  1.00  0.00    -0.352 N 
ATOM     23  C   UNL A   1      34.472  30.580  28.159  1.00  0.00     0.251 C 
ATOM     24  H   UNL A   1      32.677  30.299  27.321  1.00  0.00     0.163 HD
ATOM     25  O   UNL A   1      34.185  31.692  28.583  1.00  0.00    -0.269 OA
BRANCH  23  26
ATOM     26  C   UNL A   1      35.833  30.035  28.347  1.00  0.00     0.039 A 
ATOM     27  C   UNL A   1      36.755  30.116  27.300  1.00  0.00     0.014 A 
ATOM     28  C   UNL A   1      36.202  29.461  29.564  1.00  0.00     0.014 A 
ATOM     29  C   UNL A   1      38.073  29.704  27.510  1.00  0.00     0.010 A 
ATOM     30  C   UNL A   1      37.536  29.158  29.806  1.00  0.00     0.010 A 
ATOM     31  C   UNL A   1      38.486  29.268  28.780  1.00  0.00    -0.014 A 
BRANCH  31  32
ATOM     32  C   UNL A   1      39.897  28.909  29.068  1.00  0.00     0.031 A 
ATOM     33  C   UNL A   1      40.819  29.932  29.679  1.00  0.00     0.074 A 
ATOM     34  C   UNL A   1      40.371  27.701  28.702  1.00  0.00     0.049 A 
ATOM     35  N   UNL A   1      42.104  29.851  29.910  1.00  0.00    -0.248 NA
ATOM     36  C   UNL A   1      40.225  31.229  30.044  1.00  0.00     0.031 C 
ATOM     37  C   UNL A   1      39.593  26.641  28.057  1.00  0.00     0.029 A 
ATOM     38  N   UNL A   1      41.629  27.164  28.814  1.00  0.00    -0.354 N 
ATOM     39  C   UNL A   1      42.475  31.092  30.416  1.00  0.00     0.074 A 
ATOM     40  C   UNL A   1      41.293  31.926  30.403  1.00  0.00     0.031 C 
ATOM     41  C   UNL A   1      40.378  25.569  27.868  1.00  0.00     0.029 A 
ATOM     42  C   UNL A   1      41.725  25.879  28.334  1.00  0.00     0.049 A 
ATOM     43  H   UNL A   1      42.391  27.652  29.202  1.00  0.00     0.167 HD
ATOM     44  C   UNL A   1      43.681  31.497  30.879  1.00  0.00     0.031 A 
ATOM     45  C   UNL A   1      42.782  25.045  28.274  1.00  0.00     0.031 A 
ATOM     46  C   UNL A   1      44.848  30.656  30.916  1.00  0.00     0.049 A 
ATOM     47  C   UNL A   1      44.111  25.512  28.799  1.00  0.00     0.074 A 
ATOM     48  C   UNL A   1      46.104  30.948  31.416  1.00  0.00     0.029 A 
ATOM     49  N   UNL A   1      44.897  29.355  30.439  1.00  0.00    -0.354 N 
ATOM     50  N   UNL A   1      44.428  26.671  29.324  1.00  0.00    -0.248 NA
ATOM     51  C   UNL A   1      45.223  24.553  28.731  1.00  0.00     0.031 C 
ATOM     52  C   UNL A   1      46.925  29.835  31.205  1.00  0.00     0.029 A 
ATOM     53  C   UNL A   1      46.165  28.833  30.620  1.00  0.00     0.049 A 
ATOM     54  H   UNL A   1      44.141  28.873  30.032  1.00  0.00     0.167 HD
ATOM     55  C   UNL A   1      45.768  26.571  29.680  1.00  0.00     0.074 A 
ATOM     56  C   UNL A   1      46.198  25.235  29.319  1.00  0.00     0.031 C 
ATOM     57  C   UNL A   1      46.571  27.499  30.256  1.00  0.00     0.031 A 
BRANCH  44  58
ATOM     58  C   UNL A   1      43.789  32.913  31.383  1.00  0.00    -0.014 A 
ATOM     59  C   UNL A   1      44.269  33.943  30.554  1.00  0.00     0.010 A 
ATOM     60  C   UNL A   1      43.401  33.221  32.699  1.00  0.00     0.010 A 
ATOM     61  C   UNL A   1      44.416  35.241  31.048  1.00  0.00     0.020 A 
ATOM     62  C   UNL A   1      43.515  34.525  33.189  1.00  0.00     0.020 A 
ATOM     63  C   UNL A   1      44.043  35.522  32.365  1.00  0.00     0.054 A 
BRANCH  63  64
ATOM     64  S   UNL A   1      44.244  37.216  32.982  1.00  0.00     0.124 S 
ATOM     65  O   UNL A   1      43.176  37.303  33.975  1.00  0.00    -0.237 OA
ATOM     66  O   UNL A   1      45.602  37.203  33.522  1.00  0.00    -0.237 OA
ATOM     67  O   UNL A   1      44.059  38.043  31.792  1.00  0.00    -0.744 OA
ENDBRANCH  63  64
ENDBRANCH  44  58
BRANCH  45  68
ATOM     68  C   UNL A   1      42.614  23.669  27.730  1.00  0.00    -0.014 A 
ATOM     69  C   UNL A   1      42.986  23.384  26.403  1.00  0.00     0.010 A 
ATOM     70  C   UNL A   1      42.100  22.635  28.533  1.00  0.00     0.010 A 
ATOM     71  C   UNL A   1      42.830  22.095  25.885  1.00  0.00     0.020 A 
ATOM     72  C   UNL A   1      41.968  21.339  28.026  1.00  0.00     0.020 A 
ATOM     73  C   UNL A   1      42.323  21.080  26.701  1.00  0.00     0.054 A 
BRANCH  73  74
ATOM     74  S   UNL A   1      42.180  19.403  26.022  1.00  0.00     0.124 S 
ATOM     75  O   UNL A   1      40.736  19.265  25.858  1.00  0.00    -0.237 OA
ATOM     76  O   UNL A   1      42.952  19.496  24.786  1.00  0.00    -0.237 OA
ATOM     77  O   UNL A   1      42.776  18.563  27.059  1.00  0.00    -0.744 OA
ENDBRANCH  73  74
ENDBRANCH  45  68
BRANCH  57  78
ATOM     78  C   UNL A   1      47.985  27.090  30.569  1.00  0.00    -0.014 A 
ATOM     79  C   UNL A   1      49.019  27.263  29.632  1.00  0.00     0.010 A 
ATOM     80  C   UNL A   1      48.290  26.575  31.843  1.00  0.00     0.010 A 
ATOM     81  C   UNL A   1      50.329  26.899  29.953  1.00  0.00     0.020 A 
ATOM     82  C   UNL A   1      49.602  26.235  32.176  1.00  0.00     0.020 A 
ATOM     83  C   UNL A   1      50.611  26.387  31.223  1.00  0.00     0.054 A 
BRANCH  83  84
ATOM     84  S   UNL A   1      52.326  25.962  31.632  1.00  0.00     0.124 S 
ATOM     85  O   UNL A   1      52.179  24.638  32.229  1.00  0.00    -0.237 OA
ATOM     86  O   UNL A   1      52.985  25.995  30.329  1.00  0.00    -0.237 OA
ATOM     87  O   UNL A   1      52.735  27.020  32.555  1.00  0.00    -0.744 OA
ENDBRANCH  83  84
ENDBRANCH  57  78
ENDBRANCH  31  32
ENDBRANCH  23  26
ENDBRANCH  21  22
ENDBRANCH   1  21
TORSDOF 16
ENDMDL
MODEL 2
REMARK VINA RESULT:     -10.2      2.519      3.357
REMARK SMILES COc1cc(Br)ccc1[C@H]([NH3+])C(=O)NCCCNC(=O)c1ccc(-c2c3nc(c(-c4ccc(S(=O)(=O)[O-])cc4)c4ccc([nH]4)c(-c4ccc(S(=O)(=O)[O-])cc4)c4nc(c(-c5ccc(S(=O)(=O)[O-])cc5)c5ccc2[nH]5)C=C4)C=C3)cc1
REMARK SMILES IDX 16 1 15 2 14 3 12 4 13 5 10 7 9 8 3 9 4 10 5 11 8 12 6 13
REMARK SMILES IDX 7 14 2 15 1 16 11 17 17 21 18 22 19 23 20 25 21 26 22 27
REMARK SMILES IDX 80 28 23 29 79 30 24 31 25 32 26 33 73 34 27 35 78 36 72 37
REMARK SMILES IDX 74 38 28 39 77 40 71 41 70 42 29 44 59 45 40 46 58 47 41 48
REMARK SMILES IDX 44 49 57 50 75 51 42 52 43 53 56 55 76 56 45 57 30 58 31 59
REMARK SMILES IDX 39 60 32 61 38 62 33 63 34 64 35 65 36 66 37 67 60 68 61 69
REMARK SMILES IDX 69 70 62 71 68 72 63 73 64 74 65 75 66 76 67 77 46 78 47 79
REMARK SMILES IDX 55 80 48 81 54 82 49 83 50 84 51 85 52 86 53 87
REMARK H PARENT 14 6 11 18 11 19 11 20 18 24 74 43 44 54
REMARK Flexibility Score: inf
ROOT
ATOM      1  C   UNL A   1      33.052  27.689  26.861  1.00  0.00     0.042 C 
ENDROOT
BRANCH   1   2
ATOM      2  C   UNL A   1      31.565  27.855  26.608  1.00  0.00     0.118 C 
BRANCH   2   3
ATOM      3  N   UNL A   1      30.817  26.623  26.804  1.00  0.00    -0.351 N 
ATOM      4  C   UNL A   1      30.497  25.613  25.942  1.00  0.00     0.283 C 
ATOM      5  O   UNL A   1      30.044  24.582  26.455  1.00  0.00    -0.268 OA
ATOM      6  H   UNL A   1      30.481  26.494  27.720  1.00  0.00     0.163 HD
BRANCH   4   7
ATOM      7  C   UNL A   1      30.637  25.731  24.405  1.00  0.00     0.306 C 
BRANCH   7   8
ATOM      8  C   UNL A   1      30.039  26.971  23.753  1.00  0.00     0.061 A 
ATOM      9  C   UNL A   1      30.863  27.864  23.041  1.00  0.00     0.129 A 
ATOM     10  C   UNL A   1      30.333  28.937  22.314  1.00  0.00     0.062 A 
ATOM     11  C   UNL A   1      28.965  29.176  22.342  1.00  0.00     0.021 A 
ATOM     12  C   UNL A   1      28.673  27.294  23.818  1.00  0.00     0.015 A 
ATOM     13  Br  UNL A   1      28.236  30.617  21.360  1.00  0.00    -0.051 Br
ATOM     14  C   UNL A   1      28.133  28.372  23.108  1.00  0.00     0.016 A 
BRANCH   9  15
ATOM     15  O   UNL A   1      32.223  27.673  23.038  1.00  0.00    -0.496 OA
ATOM     16  C   UNL A   1      32.898  28.923  22.878  1.00  0.00     0.278 C 
ENDBRANCH   9  15
ENDBRANCH   7   8
BRANCH   7  17
ATOM     17  N   UNL A   1      30.226  24.474  23.743  1.00  0.00    -0.343 N 
ATOM     18  H   UNL A   1      30.588  23.678  24.269  1.00  0.00     0.345 HD
ATOM     19  H   UNL A   1      30.598  24.451  22.794  1.00  0.00     0.345 HD
ATOM     20  H   UNL A   1      29.208  24.424  23.709  1.00  0.00     0.345 HD
ENDBRANCH   7  17
ENDBRANCH   4   7
ENDBRANCH   2   3
ENDBRANCH   1   2
BRANCH   1  21
ATOM     21  C   UNL A   1      33.899  28.823  26.295  1.00  0.00     0.118 C 
BRANCH  21  22
ATOM     22  N   UNL A   1      33.768  30.071  27.041  1.00  0.00    -0.352 N 
ATOM     23  C   UNL A   1      34.609  30.648  27.966  1.00  0.00     0.251 C 
ATOM     24  H   UNL A   1      32.949  30.582  26.851  1.00  0.00     0.163 HD
ATOM     25  O   UNL A   1      34.230  31.619  28.610  1.00  0.00    -0.269 OA
BRANCH  23  26
ATOM     26  C   UNL A   1      35.952  30.075  28.195  1.00  0.00     0.039 A 
ATOM     27  C   UNL A   1      36.926  30.191  27.200  1.00  0.00     0.014 A 
ATOM     28  C   UNL A   1      36.253  29.440  29.401  1.00  0.00     0.014 A 
ATOM     29  C   UNL A   1      38.227  29.752  27.456  1.00  0.00     0.010 A 
ATOM     30  C   UNL A   1      37.568  29.106  29.693  1.00  0.00     0.010 A 
ATOM     31  C   UNL A   1      38.570  29.250  28.722  1.00  0.00    -0.014 A 
BRANCH  31  32
ATOM     32  C   UNL A   1      39.961  28.858  29.062  1.00  0.00     0.031 A 
ATOM     33  C   UNL A   1      40.878  29.853  29.724  1.00  0.00     0.074 A 
ATOM     34  C   UNL A   1      40.424  27.645  28.700  1.00  0.00     0.049 A 
ATOM     35  N   UNL A   1      42.151  29.743  30.005  1.00  0.00    -0.248 NA
ATOM     36  C   UNL A   1      40.297  31.158  30.082  1.00  0.00     0.031 C 
ATOM     37  C   UNL A   1      39.651  26.609  28.010  1.00  0.00     0.029 A 
ATOM     38  N   UNL A   1      41.665  27.079  28.856  1.00  0.00    -0.354 N 
ATOM     39  C   UNL A   1      42.526  30.969  30.542  1.00  0.00     0.074 A 
ATOM     40  C   UNL A   1      41.363  31.828  30.492  1.00  0.00     0.031 C 
ATOM     41  C   UNL A   1      40.421  25.524  27.839  1.00  0.00     0.029 A 
ATOM     42  C   UNL A   1      41.754  25.799  28.363  1.00  0.00     0.049 A 
ATOM     43  H   UNL A   1      42.420  27.547  29.280  1.00  0.00     0.167 HD
ATOM     44  C   UNL A   1      43.720  31.342  31.059  1.00  0.00     0.031 A 
ATOM     45  C   UNL A   1      42.794  24.943  28.335  1.00  0.00     0.031 A 
ATOM     46  C   UNL A   1      44.867  30.477  31.132  1.00  0.00     0.049 A 
ATOM     47  C   UNL A   1      44.111  25.376  28.920  1.00  0.00     0.074 A 
ATOM     48  C   UNL A   1      46.108  30.735  31.686  1.00  0.00     0.029 A 
ATOM     49  N   UNL A   1      44.909  29.181  30.640  1.00  0.00    -0.354 N 
ATOM     50  N   UNL A   1      44.430  26.521  29.472  1.00  0.00    -0.248 NA
ATOM     51  C   UNL A   1      45.204  24.394  28.884  1.00  0.00     0.031 C 
ATOM     52  C   UNL A   1      46.913  29.608  31.494  1.00  0.00     0.029 A 
ATOM     53  C   UNL A   1      46.157  28.630  30.866  1.00  0.00     0.049 A 
ATOM     54  H   UNL A   1      44.160  28.720  30.197  1.00  0.00     0.167 HD
ATOM     55  C   UNL A   1      45.752  26.388  29.880  1.00  0.00     0.074 A 
ATOM     56  C   UNL A   1      46.168  25.048  29.519  1.00  0.00     0.031 C 
ATOM     57  C   UNL A   1      46.550  27.292  30.500  1.00  0.00     0.031 A 
BRANCH  44  58
ATOM     58  C   UNL A   1      43.837  32.749  31.585  1.00  0.00    -0.014 A 
ATOM     59  C   UNL A   1      44.216  33.810  30.742  1.00  0.00     0.010 A 
ATOM     60  C   UNL A   1      43.559  33.018  32.937  1.00  0.00     0.010 A 
ATOM     61  C   UNL A   1      44.374  35.100  31.252  1.00  0.00     0.020 A 
ATOM     62  C   UNL A   1      43.684  34.314  33.446  1.00  0.00     0.020 A 
ATOM     63  C   UNL A   1      44.112  35.343  32.604  1.00  0.00     0.054 A 
BRANCH  63  64
ATOM     64  S   UNL A   1      44.325  37.027  33.241  1.00  0.00     0.124 S 
ATOM     65  O   UNL A   1      44.528  37.790  32.012  1.00  0.00    -0.237 OA
ATOM     66  O   UNL A   1      43.059  37.273  33.929  1.00  0.00    -0.237 OA
ATOM     67  O   UNL A   1      45.494  36.924  34.111  1.00  0.00    -0.744 OA
ENDBRANCH  63  64
ENDBRANCH  44  58
BRANCH  45  68
ATOM     68  C   UNL A   1      42.621  23.579  27.766  1.00  0.00    -0.014 A 
ATOM     69  C   UNL A   1      42.961  23.323  26.425  1.00  0.00     0.010 A 
ATOM     70  C   UNL A   1      42.132  22.525  28.560  1.00  0.00     0.010 A 
ATOM     71  C   UNL A   1      42.799  22.044  25.884  1.00  0.00     0.020 A 
ATOM     72  C   UNL A   1      41.994  21.239  28.029  1.00  0.00     0.020 A 
ATOM     73  C   UNL A   1      42.318  21.009  26.691  1.00  0.00     0.054 A 
BRANCH  73  74
ATOM     74  S   UNL A   1      42.167  19.347  25.981  1.00  0.00     0.124 S 
ATOM     75  O   UNL A   1      40.728  19.245  25.751  1.00  0.00    -0.237 OA
ATOM     76  O   UNL A   1      42.995  19.438  24.782  1.00  0.00    -0.237 OA
ATOM     77  O   UNL A   1      42.696  18.478  27.031  1.00  0.00    -0.744 OA
ENDBRANCH  73  74
ENDBRANCH  45  68
BRANCH  57  78
ATOM     78  C   UNL A   1      47.942  26.849  30.865  1.00  0.00    -0.014 A 
ATOM     79  C   UNL A   1      49.048  27.194  30.070  1.00  0.00     0.010 A 
ATOM     80  C   UNL A   1      48.146  26.122  32.052  1.00  0.00     0.010 A 
ATOM     81  C   UNL A   1      50.334  26.794  30.441  1.00  0.00     0.020 A 
ATOM     82  C   UNL A   1      49.433  25.743  32.439  1.00  0.00     0.020 A 
ATOM     83  C   UNL A   1      50.517  26.069  31.623  1.00  0.00     0.054 A 
BRANCH  83  84
ATOM     84  S   UNL A   1      52.201  25.598  32.106  1.00  0.00     0.124 S 
ATOM     85  O   UNL A   1      52.449  26.478  33.244  1.00  0.00    -0.237 OA
ATOM     86  O   UNL A   1      52.058  24.180  32.427  1.00  0.00    -0.237 OA
ATOM     87  O   UNL A   1      52.996  25.882  30.913  1.00  0.00    -0.744 OA
ENDBRANCH  83  84
ENDBRANCH  57  78
ENDBRANCH  31  32
ENDBRANCH  23  26
ENDBRANCH  21  22
ENDBRANCH   1  21
TORSDOF 16
ENDMDL
MODEL 3
REMARK VINA RESULT:     -10.1      3.814     10.610
REMARK SMILES COc1cc(Br)ccc1[C@H]([NH3+])C(=O)NCCCNC(=O)c1ccc(-c2c3nc(c(-c4ccc(S(=O)(=O)[O-])cc4)c4ccc([nH]4)c(-c4ccc(S(=O)(=O)[O-])cc4)c4nc(c(-c5ccc(S(=O)(=O)[O-])cc5)c5ccc2[nH]5)C=C4)C=C3)cc1
REMARK SMILES IDX 16 1 15 2 14 3 12 4 13 5 10 7 9 8 3 9 4 10 5 11 8 12 6 13
REMARK SMILES IDX 7 14 2 15 1 16 11 17 17 21 18 22 19 23 20 25 21 26 22 27
REMARK SMILES IDX 80 28 23 29 79 30 24 31 25 32 26 33 73 34 27 35 78 36 72 37
REMARK SMILES IDX 74 38 28 39 77 40 71 41 70 42 29 44 59 45 40 46 58 47 41 48
REMARK SMILES IDX 44 49 57 50 75 51 42 52 43 53 56 55 76 56 45 57 30 58 31 59
REMARK SMILES IDX 39 60 32 61 38 62 33 63 34 64 35 65 36 66 37 67 60 68 61 69
REMARK SMILES IDX 69 70 62 71 68 72 63 73 64 74 65 75 66 76 67 77 46 78 47 79
REMARK SMILES IDX 55 80 48 81 54 82 49 83 50 84 51 85 52 86 53 87
REMARK H PARENT 14 6 11 18 11 19 11 20 18 24 74 43 44 54
REMARK Flexibility Score: inf
ROOT
ATOM      1  C   UNL A   1      42.073  20.799  27.022  1.00  0.00     0.042 C 
ENDROOT
BRANCH   1   2
ATOM      2  C   UNL A   1      42.835  21.263  25.794  1.00  0.00     0.118 C 
BRANCH   2   3
ATOM      3  N   UNL A   1      44.204  20.772  25.758  1.00  0.00    -0.351 N 
ATOM      4  C   UNL A   1      45.348  21.321  25.253  1.00  0.00     0.283 C 
ATOM      5  O   UNL A   1      46.405  20.766  25.575  1.00  0.00    -0.268 OA
ATOM      6  H   UNL A   1      44.327  19.887  26.171  1.00  0.00     0.163 HD
BRANCH   4   7
ATOM      7  C   UNL A   1      45.357  22.537  24.297  1.00  0.00     0.306 C 
BRANCH   7   8
ATOM      8  C   UNL A   1      45.016  23.893  24.904  1.00  0.00     0.061 A 
ATOM      9  C   UNL A   1      45.983  24.601  25.642  1.00  0.00     0.129 A 
ATOM     10  C   UNL A   1      45.753  25.905  26.098  1.00  0.00     0.062 A 
ATOM     11  C   UNL A   1      44.519  26.502  25.878  1.00  0.00     0.021 A 
ATOM     12  C   UNL A   1      43.756  24.501  24.771  1.00  0.00     0.015 A 
ATOM     13  Br  UNL A   1      44.199  28.264  26.481  1.00  0.00    -0.051 Br
ATOM     14  C   UNL A   1      43.511  25.799  25.234  1.00  0.00     0.016 A 
BRANCH   9  15
ATOM     15  O   UNL A   1      47.193  24.012  25.912  1.00  0.00    -0.496 OA
ATOM     16  C   UNL A   1      48.016  24.896  26.677  1.00  0.00     0.278 C 
ENDBRANCH   9  15
ENDBRANCH   7   8
BRANCH   7  17
ATOM     17  N   UNL A   1      44.588  22.244  23.068  1.00  0.00    -0.343 N 
ATOM     18  H   UNL A   1      45.191  22.364  22.253  1.00  0.00     0.345 HD
ATOM     19  H   UNL A   1      43.795  22.882  23.001  1.00  0.00     0.345 HD
ATOM     20  H   UNL A   1      44.249  21.283  23.100  1.00  0.00     0.345 HD
ENDBRANCH   7  17
ENDBRANCH   4   7
ENDBRANCH   2   3
ENDBRANCH   1   2
BRANCH   1  21
ATOM     21  C   UNL A   1      41.005  21.782  27.487  1.00  0.00     0.118 C 
BRANCH  21  22
ATOM     22  N   UNL A   1      39.873  21.883  26.571  1.00  0.00    -0.352 N 
ATOM     23  C   UNL A   1      39.000  22.924  26.345  1.00  0.00     0.251 C 
ATOM     24  H   UNL A   1      39.708  21.080  26.027  1.00  0.00     0.163 HD
ATOM     25  O   UNL A   1      38.005  22.744  25.655  1.00  0.00    -0.269 OA
BRANCH  23  26
ATOM     26  C   UNL A   1      39.257  24.243  26.960  1.00  0.00     0.039 A 
ATOM     27  C   UNL A   1      38.782  24.504  28.248  1.00  0.00     0.014 A 
ATOM     28  C   UNL A   1      39.983  25.215  26.270  1.00  0.00     0.014 A 
ATOM     29  C   UNL A   1      39.118  25.706  28.875  1.00  0.00     0.010 A 
ATOM     30  C   UNL A   1      40.409  26.357  26.934  1.00  0.00     0.010 A 
ATOM     31  C   UNL A   1      39.975  26.621  28.241  1.00  0.00    -0.014 A 
BRANCH  31  32
ATOM     32  C   UNL A   1      40.430  27.866  28.911  1.00  0.00     0.031 A 
ATOM     33  C   UNL A   1      41.805  27.928  29.522  1.00  0.00     0.074 A 
ATOM     34  C   UNL A   1      39.580  28.904  29.046  1.00  0.00     0.049 A 
ATOM     35  N   UNL A   1      42.349  28.878  30.237  1.00  0.00    -0.248 NA
ATOM     36  C   UNL A   1      42.669  26.750  29.335  1.00  0.00     0.031 C 
ATOM     37  C   UNL A   1      38.205  28.950  28.542  1.00  0.00     0.029 A 
ATOM     38  N   UNL A   1      39.747  30.122  29.657  1.00  0.00    -0.354 N 
ATOM     39  C   UNL A   1      43.600  28.401  30.609  1.00  0.00     0.074 A 
ATOM     40  C   UNL A   1      43.712  27.055  30.092  1.00  0.00     0.031 C 
ATOM     41  C   UNL A   1      37.669  30.147  28.829  1.00  0.00     0.029 A 
ATOM     42  C   UNL A   1      38.643  30.936  29.576  1.00  0.00     0.049 A 
ATOM     43  H   UNL A   1      40.580  30.386  30.110  1.00  0.00     0.167 HD
ATOM     44  C   UNL A   1      44.583  29.033  31.293  1.00  0.00     0.031 A 
ATOM     45  C   UNL A   1      38.436  32.180  30.052  1.00  0.00     0.031 A 
ATOM     46  C   UNL A   1      44.479  30.382  31.782  1.00  0.00     0.049 A 
ATOM     47  C   UNL A   1      39.544  32.866  30.804  1.00  0.00     0.074 A 
ATOM     48  C   UNL A   1      45.435  31.137  32.438  1.00  0.00     0.029 A 
ATOM     49  N   UNL A   1      43.351  31.179  31.661  1.00  0.00    -0.354 N 
ATOM     50  N   UNL A   1      40.740  32.418  31.099  1.00  0.00    -0.248 NA
ATOM     51  C   UNL A   1      39.273  34.230  31.280  1.00  0.00     0.031 C 
ATOM     52  C   UNL A   1      44.870  32.378  32.749  1.00  0.00     0.029 A 
ATOM     53  C   UNL A   1      43.580  32.414  32.241  1.00  0.00     0.049 A 
ATOM     54  H   UNL A   1      42.511  30.907  31.225  1.00  0.00     0.167 HD
ATOM     55  C   UNL A   1      41.379  33.456  31.766  1.00  0.00     0.074 A 
ATOM     56  C   UNL A   1      40.438  34.558  31.823  1.00  0.00     0.031 C 
ATOM     57  C   UNL A   1      42.631  33.497  32.284  1.00  0.00     0.031 A 
BRANCH  44  58
ATOM     58  C   UNL A   1      45.854  28.264  31.547  1.00  0.00    -0.014 A 
ATOM     59  C   UNL A   1      46.035  27.533  32.736  1.00  0.00     0.010 A 
ATOM     60  C   UNL A   1      46.879  28.265  30.584  1.00  0.00     0.010 A 
ATOM     61  C   UNL A   1      47.238  26.869  32.984  1.00  0.00     0.020 A 
ATOM     62  C   UNL A   1      48.073  27.575  30.813  1.00  0.00     0.020 A 
ATOM     63  C   UNL A   1      48.252  26.900  32.022  1.00  0.00     0.054 A 
BRANCH  63  64
ATOM     64  S   UNL A   1      49.805  26.028  32.369  1.00  0.00     0.124 S 
ATOM     65  O   UNL A   1      50.533  26.201  31.114  1.00  0.00    -0.237 OA
ATOM     66  O   UNL A   1      50.339  26.767  33.512  1.00  0.00    -0.237 OA
ATOM     67  O   UNL A   1      49.378  24.662  32.660  1.00  0.00    -0.744 OA
ENDBRANCH  63  64
ENDBRANCH  44  58
BRANCH  45  68
ATOM     68  C   UNL A   1      37.142  32.869  29.797  1.00  0.00    -0.014 A 
ATOM     69  C   UNL A   1      36.179  32.964  30.817  1.00  0.00     0.010 A 
ATOM     70  C   UNL A   1      36.870  33.449  28.544  1.00  0.00     0.010 A 
ATOM     71  C   UNL A   1      34.960  33.609  30.585  1.00  0.00     0.020 A 
ATOM     72  C   UNL A   1      35.663  34.118  28.317  1.00  0.00     0.020 A 
ATOM     73  C   UNL A   1      34.712  34.184  29.335  1.00  0.00     0.054 A 
BRANCH  73  74
ATOM     74  S   UNL A   1      33.145  35.061  29.074  1.00  0.00     0.124 S 
ATOM     75  O   UNL A   1      32.543  35.009  30.404  1.00  0.00    -0.237 OA
ATOM     76  O   UNL A   1      33.591  36.379  28.632  1.00  0.00    -0.237 OA
ATOM     77  O   UNL A   1      32.474  34.262  28.050  1.00  0.00    -0.744 OA
ENDBRANCH  73  74
ENDBRANCH  45  68
BRANCH  57  78
ATOM     78  C   UNL A   1      43.073  34.787  32.922  1.00  0.00    -0.014 A 
ATOM     79  C   UNL A   1      43.005  34.974  34.313  1.00  0.00     0.010 A 
ATOM     80  C   UNL A   1      43.615  35.806  32.116  1.00  0.00     0.010 A 
ATOM     81  C   UNL A   1      43.444  36.170  34.886  1.00  0.00     0.020 A 
ATOM     82  C   UNL A   1      44.079  36.992  32.688  1.00  0.00     0.020 A 
ATOM     83  C   UNL A   1      43.977  37.172  34.068  1.00  0.00     0.054 A 
BRANCH  83  84
ATOM     84  S   UNL A   1      44.581  38.698  34.839  1.00  0.00     0.124 S 
ATOM     85  O   UNL A   1      43.949  39.725  34.016  1.00  0.00    -0.237 OA
ATOM     86  O   UNL A   1      44.076  38.589  36.206  1.00  0.00    -0.237 OA
ATOM     87  O   UNL A   1      46.033  38.601  34.709  1.00  0.00    -0.744 OA
ENDBRANCH  83  84
ENDBRANCH  57  78
ENDBRANCH  31  32
ENDBRANCH  23  26
ENDBRANCH  21  22
ENDBRANCH   1  21
TORSDOF 16
ENDMDL
