MODEL 1
REMARK VINA RESULT:     -11.9      0.000      0.000
REMARK SMILES Cn1cc(C[C@@H](NC(=O)OCC2c3ccccc3-c3ccccc32)C(=O)NCCCNC(=O)c2ccc(-c3c4nc(c(-c5ccc(S(=O)(=O)[O-])cc5)c5ccc([nH]5)c(-c5ccc(S(=O)(=O)[O-])cc5)c5nc(c(-c6ccc(S(=O)(=O)[O-])cc6)c6ccc3[nH]6)C=C5)C=C4)cc2)c2ccccc21
REMARK SMILES IDX 28 1 27 2 25 3 26 4 6 6 5 7 4 8 1 9 2 10 3 11 99 12 94 13
REMARK SMILES IDX 98 14 95 15 97 16 96 17 7 18 8 19 9 21 10 22 11 23 12 24
REMARK SMILES IDX 13 25 24 26 14 27 18 28 19 29 23 30 15 31 17 32 20 33 22 34
REMARK SMILES IDX 16 35 21 36 29 37 30 38 31 39 32 40 33 42 34 43 35 44 93 45
REMARK SMILES IDX 36 46 92 47 37 48 38 49 39 50 86 51 40 52 91 53 85 54 87 55
REMARK SMILES IDX 41 56 90 57 84 58 83 59 42 61 72 62 53 63 71 64 54 65 57 66
REMARK SMILES IDX 70 67 88 68 55 69 56 70 69 72 89 73 58 74 43 75 44 76 52 77
REMARK SMILES IDX 45 78 51 79 46 80 47 81 48 82 49 83 50 84 73 85 74 86 82 87
REMARK SMILES IDX 75 88 81 89 76 90 77 91 78 92 79 93 80 94 59 95 60 96 68 97
REMARK SMILES IDX 61 98 67 99 62 100 63 101 64 102 65 103 66 104
REMARK H PARENT 27 5 7 20 31 41 87 60 57 71
REMARK Flexibility Score: inf
ROOT
ATOM      1  C   UNL A   1      39.626  21.928  26.154  1.00  0.00     0.117 C 
ENDROOT
BRANCH   1   2
ATOM      2  N   UNL A   1      39.046  20.663  25.728  1.00  0.00    -0.354 N 
ATOM      3  C   UNL A   1      37.787  20.387  25.271  1.00  0.00     0.243 C 
ATOM      4  O   UNL A   1      37.553  19.237  24.889  1.00  0.00    -0.273 OA
ATOM      5  H   UNL A   1      39.653  19.890  25.774  1.00  0.00     0.163 HD
BRANCH   3   6
ATOM      6  C   UNL A   1      36.666  21.445  25.340  1.00  0.00     0.179 C 
BRANCH   6   7
ATOM      7  C   UNL A   1      35.318  20.718  25.588  1.00  0.00     0.073 C 
BRANCH   7   8
ATOM      8  C   UNL A   1      34.112  21.301  24.906  1.00  0.00    -0.020 A 
ATOM      9  C   UNL A   1      31.731  21.538  22.182  1.00  0.00     0.149 C 
ATOM     10  N   UNL A   1      32.528  21.684  23.379  1.00  0.00    -0.350 N 
ATOM     11  C   UNL A   1      33.731  21.067  23.597  1.00  0.00     0.090 A 
ATOM     12  C   UNL A   1      32.149  22.398  24.494  1.00  0.00     0.048 A 
ATOM     13  C   UNL A   1      33.085  22.115  25.491  1.00  0.00     0.003 A 
ATOM     14  C   UNL A   1      31.042  23.236  24.720  1.00  0.00     0.027 A 
ATOM     15  C   UNL A   1      32.860  22.639  26.783  1.00  0.00     0.010 A 
ATOM     16  C   UNL A   1      30.885  23.790  25.993  1.00  0.00     0.002 A 
ATOM     17  C   UNL A   1      31.776  23.488  27.016  1.00  0.00     0.001 A 
ENDBRANCH   7   8
ENDBRANCH   6   7
BRANCH   6  18
ATOM     18  N   UNL A   1      36.882  22.610  26.210  1.00  0.00    -0.309 N 
ATOM     19  C   UNL A   1      36.906  23.930  25.910  1.00  0.00     0.407 C 
ATOM     20  H   UNL A   1      37.034  22.396  27.159  1.00  0.00     0.167 HD
ATOM     21  O   UNL A   1      37.745  24.670  26.429  1.00  0.00    -0.225 OA
BRANCH  19  22
ATOM     22  O   UNL A   1      35.945  24.338  25.047  1.00  0.00    -0.449 OA
BRANCH  22  23
ATOM     23  C   UNL A   1      34.819  25.032  25.635  1.00  0.00     0.248 C 
BRANCH  23  24
ATOM     24  C   UNL A   1      34.388  26.290  24.854  1.00  0.00     0.088 C 
ATOM     25  C   UNL A   1      33.421  25.977  23.716  1.00  0.00    -0.029 A 
ATOM     26  C   UNL A   1      33.580  27.282  25.678  1.00  0.00    -0.029 A 
ATOM     27  C   UNL A   1      33.656  25.245  22.561  1.00  0.00     0.005 A 
ATOM     28  C   UNL A   1      32.183  26.616  23.942  1.00  0.00    -0.014 A 
ATOM     29  C   UNL A   1      32.266  27.376  25.173  1.00  0.00    -0.014 A 
ATOM     30  C   UNL A   1      33.969  27.983  26.808  1.00  0.00     0.005 A 
ATOM     31  C   UNL A   1      32.625  25.143  21.626  1.00  0.00     0.000 A 
ATOM     32  C   UNL A   1      31.157  26.504  23.019  1.00  0.00     0.009 A 
ATOM     33  C   UNL A   1      31.307  28.108  25.851  1.00  0.00     0.009 A 
ATOM     34  C   UNL A   1      33.000  28.709  27.499  1.00  0.00     0.000 A 
ATOM     35  C   UNL A   1      31.386  25.764  21.854  1.00  0.00     0.001 A 
ATOM     36  C   UNL A   1      31.677  28.760  27.032  1.00  0.00     0.001 A 
ENDBRANCH  23  24
ENDBRANCH  22  23
ENDBRANCH  19  22
ENDBRANCH   6  18
ENDBRANCH   3   6
ENDBRANCH   1   2
BRANCH   1  37
ATOM     37  C   UNL A   1      40.425  21.804  27.438  1.00  0.00     0.042 C 
BRANCH  37  38
ATOM     38  C   UNL A   1      41.303  23.015  27.707  1.00  0.00     0.118 C 
BRANCH  38  39
ATOM     39  N   UNL A   1      41.824  23.616  26.483  1.00  0.00    -0.352 N 
ATOM     40  C   UNL A   1      41.906  24.942  26.134  1.00  0.00     0.251 C 
ATOM     41  H   UNL A   1      42.166  22.981  25.813  1.00  0.00     0.163 HD
ATOM     42  O   UNL A   1      42.228  25.261  24.994  1.00  0.00    -0.269 OA
BRANCH  40  43
ATOM     43  C   UNL A   1      41.577  25.971  27.138  1.00  0.00     0.039 A 
ATOM     44  C   UNL A   1      40.586  25.710  28.086  1.00  0.00     0.014 A 
ATOM     45  C   UNL A   1      42.287  27.175  27.165  1.00  0.00     0.014 A 
ATOM     46  C   UNL A   1      40.358  26.628  29.112  1.00  0.00     0.010 A 
ATOM     47  C   UNL A   1      42.118  28.047  28.232  1.00  0.00     0.010 A 
ATOM     48  C   UNL A   1      41.151  27.783  29.214  1.00  0.00    -0.014 A 
BRANCH  48  49
ATOM     49  C   UNL A   1      40.990  28.744  30.331  1.00  0.00     0.031 A 
ATOM     50  C   UNL A   1      41.873  28.631  31.542  1.00  0.00     0.074 A 
ATOM     51  C   UNL A   1      39.992  29.648  30.296  1.00  0.00     0.049 A 
ATOM     52  N   UNL A   1      41.809  29.285  32.673  1.00  0.00    -0.248 NA
ATOM     53  C   UNL A   1      42.945  27.623  31.488  1.00  0.00     0.031 C 
ATOM     54  C   UNL A   1      39.035  29.822  29.199  1.00  0.00     0.029 A 
ATOM     55  N   UNL A   1      39.609  30.587  31.221  1.00  0.00    -0.354 N 
ATOM     56  C   UNL A   1      42.800  28.738  33.479  1.00  0.00     0.074 A 
ATOM     57  C   UNL A   1      43.429  27.679  32.720  1.00  0.00     0.031 C 
ATOM     58  C   UNL A   1      38.194  30.825  29.503  1.00  0.00     0.029 A 
ATOM     59  C   UNL A   1      38.527  31.339  30.827  1.00  0.00     0.049 A 
ATOM     60  H   UNL A   1      40.065  30.709  32.084  1.00  0.00     0.167 HD
ATOM     61  C   UNL A   1      43.165  29.095  34.732  1.00  0.00     0.031 A 
ATOM     62  C   UNL A   1      37.877  32.331  31.465  1.00  0.00     0.031 A 
ATOM     63  C   UNL A   1      42.570  30.178  35.465  1.00  0.00     0.049 A 
ATOM     64  C   UNL A   1      38.335  32.747  32.833  1.00  0.00     0.074 A 
ATOM     65  C   UNL A   1      42.917  30.669  36.711  1.00  0.00     0.029 A 
ATOM     66  N   UNL A   1      41.511  30.948  35.009  1.00  0.00    -0.354 N 
ATOM     67  N   UNL A   1      39.306  32.250  33.560  1.00  0.00    -0.248 NA
ATOM     68  C   UNL A   1      37.615  33.863  33.463  1.00  0.00     0.031 C 
ATOM     69  C   UNL A   1      42.052  31.725  37.019  1.00  0.00     0.029 A 
ATOM     70  C   UNL A   1      41.187  31.909  35.951  1.00  0.00     0.049 A 
ATOM     71  H   UNL A   1      41.057  30.829  34.143  1.00  0.00     0.167 HD
ATOM     72  C   UNL A   1      39.328  33.006  34.726  1.00  0.00     0.074 A 
ATOM     73  C   UNL A   1      38.279  33.998  34.603  1.00  0.00     0.031 C 
ATOM     74  C   UNL A   1      40.143  32.888  35.803  1.00  0.00     0.031 A 
BRANCH  61  75
ATOM     75  C   UNL A   1      44.261  28.296  35.381  1.00  0.00    -0.014 A 
ATOM     76  C   UNL A   1      43.967  27.160  36.155  1.00  0.00     0.010 A 
ATOM     77  C   UNL A   1      45.601  28.687  35.217  1.00  0.00     0.010 A 
ATOM     78  C   UNL A   1      44.990  26.459  36.798  1.00  0.00     0.020 A 
ATOM     79  C   UNL A   1      46.630  27.975  35.839  1.00  0.00     0.020 A 
ATOM     80  C   UNL A   1      46.315  26.878  36.644  1.00  0.00     0.054 A 
BRANCH  80  81
ATOM     81  S   UNL A   1      47.630  25.956  37.489  1.00  0.00     0.124 S 
ATOM     82  O   UNL A   1      47.802  26.735  38.712  1.00  0.00    -0.237 OA
ATOM     83  O   UNL A   1      47.037  24.633  37.666  1.00  0.00    -0.237 OA
ATOM     84  O   UNL A   1      48.747  26.013  36.549  1.00  0.00    -0.744 OA
ENDBRANCH  80  81
ENDBRANCH  61  75
BRANCH  62  85
ATOM     85  C   UNL A   1      36.742  33.019  30.797  1.00  0.00    -0.014 A 
ATOM     86  C   UNL A   1      35.431  32.831  31.269  1.00  0.00     0.010 A 
ATOM     87  C   UNL A   1      36.964  33.882  29.710  1.00  0.00     0.010 A 
ATOM     88  C   UNL A   1      34.358  33.486  30.657  1.00  0.00     0.020 A 
ATOM     89  C   UNL A   1      35.895  34.552  29.107  1.00  0.00     0.020 A 
ATOM     90  C   UNL A   1      34.597  34.342  29.578  1.00  0.00     0.054 A 
BRANCH  90  91
ATOM     91  S   UNL A   1      33.200  35.231  28.835  1.00  0.00     0.124 S 
ATOM     92  O   UNL A   1      33.875  36.316  28.128  1.00  0.00    -0.237 OA
ATOM     93  O   UNL A   1      32.584  34.211  27.990  1.00  0.00    -0.237 OA
ATOM     94  O   UNL A   1      32.403  35.635  29.992  1.00  0.00    -0.744 OA
ENDBRANCH  90  91
ENDBRANCH  62  85
BRANCH  74  95
ATOM     95  C   UNL A   1      39.951  33.875  36.918  1.00  0.00    -0.014 A 
ATOM     96  C   UNL A   1      40.560  35.141  36.874  1.00  0.00     0.010 A 
ATOM     97  C   UNL A   1      39.105  33.551  37.993  1.00  0.00     0.010 A 
ATOM     98  C   UNL A   1      40.341  36.062  37.900  1.00  0.00     0.020 A 
ATOM     99  C   UNL A   1      38.871  34.475  39.013  1.00  0.00     0.020 A 
ATOM    100  C   UNL A   1      39.500  35.722  38.966  1.00  0.00     0.054 A 
BRANCH 100 101
ATOM    101  S   UNL A   1      39.186  36.950  40.263  1.00  0.00     0.124 S 
ATOM    102  O   UNL A   1      38.566  38.036  39.509  1.00  0.00    -0.237 OA
ATOM    103  O   UNL A   1      38.300  36.237  41.180  1.00  0.00    -0.237 OA
ATOM    104  O   UNL A   1      40.517  37.237  40.793  1.00  0.00    -0.744 OA
ENDBRANCH 100 101
ENDBRANCH  74  95
ENDBRANCH  48  49
ENDBRANCH  40  43
ENDBRANCH  38  39
ENDBRANCH  37  38
ENDBRANCH   1  37
TORSDOF 19
ENDMDL
MODEL 2
REMARK VINA RESULT:     -11.9      3.597      5.851
REMARK SMILES Cn1cc(C[C@@H](NC(=O)OCC2c3ccccc3-c3ccccc32)C(=O)NCCCNC(=O)c2ccc(-c3c4nc(c(-c5ccc(S(=O)(=O)[O-])cc5)c5ccc([nH]5)c(-c5ccc(S(=O)(=O)[O-])cc5)c5nc(c(-c6ccc(S(=O)(=O)[O-])cc6)c6ccc3[nH]6)C=C5)C=C4)cc2)c2ccccc21
REMARK SMILES IDX 28 1 27 2 25 3 26 4 6 6 5 7 4 8 1 9 2 10 3 11 99 12 94 13
REMARK SMILES IDX 98 14 95 15 97 16 96 17 7 18 8 19 9 21 10 22 11 23 12 24
REMARK SMILES IDX 13 25 24 26 14 27 18 28 19 29 23 30 15 31 17 32 20 33 22 34
REMARK SMILES IDX 16 35 21 36 29 37 30 38 31 39 32 40 33 42 34 43 35 44 93 45
REMARK SMILES IDX 36 46 92 47 37 48 38 49 39 50 86 51 40 52 91 53 85 54 87 55
REMARK SMILES IDX 41 56 90 57 84 58 83 59 42 61 72 62 53 63 71 64 54 65 57 66
REMARK SMILES IDX 70 67 88 68 55 69 56 70 69 72 89 73 58 74 43 75 44 76 52 77
REMARK SMILES IDX 45 78 51 79 46 80 47 81 48 82 49 83 50 84 73 85 74 86 82 87
REMARK SMILES IDX 75 88 81 89 76 90 77 91 78 92 79 93 80 94 59 95 60 96 68 97
REMARK SMILES IDX 61 98 67 99 62 100 63 101 64 102 65 103 66 104
REMARK H PARENT 27 5 7 20 31 41 87 60 57 71
REMARK Flexibility Score: inf
ROOT
ATOM      1  C   UNL A   1      34.637  25.323  24.624  1.00  0.00     0.117 C 
ENDROOT
BRANCH   1   2
ATOM      2  N   UNL A   1      34.473  25.720  23.234  1.00  0.00    -0.354 N 
ATOM      3  C   UNL A   1      33.419  26.338  22.618  1.00  0.00     0.243 C 
ATOM      4  O   UNL A   1      33.549  26.649  21.430  1.00  0.00    -0.273 OA
ATOM      5  H   UNL A   1      35.238  25.515  22.649  1.00  0.00     0.163 HD
BRANCH   3   6
ATOM      6  C   UNL A   1      32.074  26.531  23.347  1.00  0.00     0.179 C 
BRANCH   6   7
ATOM      7  C   UNL A   1      31.222  27.551  22.547  1.00  0.00     0.073 C 
BRANCH   7   8
ATOM      8  C   UNL A   1      30.771  28.774  23.295  1.00  0.00    -0.020 A 
ATOM      9  C   UNL A   1      31.102  31.294  25.880  1.00  0.00     0.149 C 
ATOM     10  N   UNL A   1      30.703  30.428  24.793  1.00  0.00    -0.350 N 
ATOM     11  C   UNL A   1      31.300  29.234  24.486  1.00  0.00     0.090 A 
ATOM     12  C   UNL A   1      29.723  30.723  23.872  1.00  0.00     0.048 A 
ATOM     13  C   UNL A   1      29.794  29.742  22.881  1.00  0.00     0.003 A 
ATOM     14  C   UNL A   1      28.809  31.789  23.808  1.00  0.00     0.027 A 
ATOM     15  C   UNL A   1      28.963  29.878  21.748  1.00  0.00     0.010 A 
ATOM     16  C   UNL A   1      27.954  31.858  22.704  1.00  0.00     0.002 A 
ATOM     17  C   UNL A   1      28.036  30.922  21.681  1.00  0.00     0.001 A 
ENDBRANCH   7   8
ENDBRANCH   6   7
BRANCH   6  18
ATOM     18  N   UNL A   1      31.337  25.324  23.748  1.00  0.00    -0.309 N 
ATOM     19  C   UNL A   1      31.020  24.218  23.034  1.00  0.00     0.407 C 
ATOM     20  H   UNL A   1      31.024  25.320  24.681  1.00  0.00     0.167 HD
ATOM     21  O   UNL A   1      29.909  23.699  23.153  1.00  0.00    -0.225 OA
BRANCH  19  22
ATOM     22  O   UNL A   1      32.010  23.750  22.235  1.00  0.00    -0.449 OA
BRANCH  22  23
ATOM     23  C   UNL A   1      32.847  22.716  22.806  1.00  0.00     0.248 C 
BRANCH  23  24
ATOM     24  C   UNL A   1      32.094  21.764  23.758  1.00  0.00     0.088 C 
ATOM     25  C   UNL A   1      32.433  20.296  23.516  1.00  0.00    -0.029 A 
ATOM     26  C   UNL A   1      32.474  21.928  25.222  1.00  0.00    -0.029 A 
ATOM     27  C   UNL A   1      32.159  19.521  22.398  1.00  0.00     0.005 A 
ATOM     28  C   UNL A   1      33.042  19.743  24.663  1.00  0.00    -0.014 A 
ATOM     29  C   UNL A   1      33.111  20.760  25.692  1.00  0.00    -0.014 A 
ATOM     30  C   UNL A   1      32.319  23.040  26.034  1.00  0.00     0.005 A 
ATOM     31  C   UNL A   1      32.515  18.172  22.430  1.00  0.00     0.000 A 
ATOM     32  C   UNL A   1      33.405  18.407  24.689  1.00  0.00     0.009 A 
ATOM     33  C   UNL A   1      33.676  20.732  26.956  1.00  0.00     0.009 A 
ATOM     34  C   UNL A   1      32.900  23.017  27.301  1.00  0.00     0.000 A 
ATOM     35  C   UNL A   1      33.136  17.621  23.563  1.00  0.00     0.001 A 
ATOM     36  C   UNL A   1      33.584  21.877  27.753  1.00  0.00     0.001 A 
ENDBRANCH  23  24
ENDBRANCH  22  23
ENDBRANCH  19  22
ENDBRANCH   6  18
ENDBRANCH   3   6
ENDBRANCH   1   2
BRANCH   1  37
ATOM     37  C   UNL A   1      35.458  24.058  24.780  1.00  0.00     0.042 C 
BRANCH  37  38
ATOM     38  C   UNL A   1      36.462  24.140  25.919  1.00  0.00     0.118 C 
BRANCH  38  39
ATOM     39  N   UNL A   1      37.366  22.995  25.956  1.00  0.00    -0.352 N 
ATOM     40  C   UNL A   1      38.684  22.943  26.336  1.00  0.00     0.251 C 
ATOM     41  H   UNL A   1      36.975  22.139  25.669  1.00  0.00     0.163 HD
ATOM     42  O   UNL A   1      39.340  21.921  26.153  1.00  0.00    -0.269 OA
BRANCH  40  43
ATOM     43  C   UNL A   1      39.306  24.135  26.941  1.00  0.00     0.039 A 
ATOM     44  C   UNL A   1      40.019  25.021  26.130  1.00  0.00     0.014 A 
ATOM     45  C   UNL A   1      39.141  24.396  28.305  1.00  0.00     0.014 A 
ATOM     46  C   UNL A   1      40.503  26.212  26.673  1.00  0.00     0.010 A 
ATOM     47  C   UNL A   1      39.549  25.617  28.823  1.00  0.00     0.010 A 
ATOM     48  C   UNL A   1      40.235  26.536  28.013  1.00  0.00    -0.014 A 
BRANCH  48  49
ATOM     49  C   UNL A   1      40.667  27.824  28.606  1.00  0.00     0.031 A 
ATOM     50  C   UNL A   1      42.060  27.958  29.156  1.00  0.00     0.074 A 
ATOM     51  C   UNL A   1      39.782  28.830  28.737  1.00  0.00     0.049 A 
ATOM     52  N   UNL A   1      42.589  28.948  29.826  1.00  0.00    -0.248 NA
ATOM     53  C   UNL A   1      42.964  26.812  28.958  1.00  0.00     0.031 C 
ATOM     54  C   UNL A   1      38.387  28.804  28.290  1.00  0.00     0.029 A 
ATOM     55  N   UNL A   1      39.926  30.074  29.298  1.00  0.00    -0.354 N 
ATOM     56  C   UNL A   1      43.869  28.527  30.168  1.00  0.00     0.074 A 
ATOM     57  C   UNL A   1      44.025  27.182  29.659  1.00  0.00     0.031 C 
ATOM     58  C   UNL A   1      37.812  29.985  28.571  1.00  0.00     0.029 A 
ATOM     59  C   UNL A   1      38.783  30.838  29.247  1.00  0.00     0.049 A 
ATOM     60  H   UNL A   1      40.767  30.389  29.700  1.00  0.00     0.167 HD
ATOM     61  C   UNL A   1      44.834  29.204  30.833  1.00  0.00     0.031 A 
ATOM     62  C   UNL A   1      38.547  32.084  29.697  1.00  0.00     0.031 A 
ATOM     63  C   UNL A   1      44.693  30.557  31.296  1.00  0.00     0.049 A 
ATOM     64  C   UNL A   1      39.651  32.838  30.383  1.00  0.00     0.074 A 
ATOM     65  C   UNL A   1      45.636  31.359  31.913  1.00  0.00     0.029 A 
ATOM     66  N   UNL A   1      43.537  31.313  31.178  1.00  0.00    -0.354 N 
ATOM     67  N   UNL A   1      40.870  32.441  30.655  1.00  0.00    -0.248 NA
ATOM     68  C   UNL A   1      39.348  34.209  30.815  1.00  0.00     0.031 C 
ATOM     69  C   UNL A   1      45.042  32.596  32.189  1.00  0.00     0.029 A 
ATOM     70  C   UNL A   1      43.739  32.572  31.715  1.00  0.00     0.049 A 
ATOM     71  H   UNL A   1      42.696  30.999  30.771  1.00  0.00     0.167 HD
ATOM     72  C   UNL A   1      41.489  33.521  31.272  1.00  0.00     0.074 A 
ATOM     73  C   UNL A   1      40.512  34.589  31.326  1.00  0.00     0.031 C 
ATOM     74  C   UNL A   1      42.753  33.619  31.752  1.00  0.00     0.031 A 
BRANCH  61  75
ATOM     75  C   UNL A   1      46.125  28.479  31.094  1.00  0.00    -0.014 A 
ATOM     76  C   UNL A   1      46.287  27.678  32.238  1.00  0.00     0.010 A 
ATOM     77  C   UNL A   1      47.191  28.601  30.185  1.00  0.00     0.010 A 
ATOM     78  C   UNL A   1      47.509  27.055  32.498  1.00  0.00     0.020 A 
ATOM     79  C   UNL A   1      48.409  27.961  30.429  1.00  0.00     0.020 A 
ATOM     80  C   UNL A   1      48.566  27.209  31.596  1.00  0.00     0.054 A 
BRANCH  80  81
ATOM     81  S   UNL A   1      50.148  26.393  31.951  1.00  0.00     0.124 S 
ATOM     82  O   UNL A   1      50.549  27.047  33.193  1.00  0.00    -0.237 OA
ATOM     83  O   UNL A   1      49.768  24.989  32.076  1.00  0.00    -0.237 OA
ATOM     84  O   UNL A   1      50.967  26.712  30.785  1.00  0.00    -0.744 OA
ENDBRANCH  80  81
ENDBRANCH  61  75
BRANCH  62  85
ATOM     85  C   UNL A   1      37.216  32.708  29.483  1.00  0.00    -0.014 A 
ATOM     86  C   UNL A   1      36.362  32.937  30.577  1.00  0.00     0.010 A 
ATOM     87  C   UNL A   1      36.804  33.098  28.197  1.00  0.00     0.010 A 
ATOM     88  C   UNL A   1      35.114  33.537  30.387  1.00  0.00     0.020 A 
ATOM     89  C   UNL A   1      35.564  33.714  28.006  1.00  0.00     0.020 A 
ATOM     90  C   UNL A   1      34.722  33.920  29.101  1.00  0.00     0.054 A 
BRANCH  90  91
ATOM     91  S   UNL A   1      33.124  34.753  28.881  1.00  0.00     0.124 S 
ATOM     92  O   UNL A   1      32.468  33.893  27.901  1.00  0.00    -0.237 OA
ATOM     93  O   UNL A   1      32.559  34.724  30.228  1.00  0.00    -0.237 OA
ATOM     94  O   UNL A   1      33.499  36.082  28.401  1.00  0.00    -0.744 OA
ENDBRANCH  90  91
ENDBRANCH  62  85
BRANCH  74  95
ATOM     95  C   UNL A   1      43.159  34.936  32.349  1.00  0.00    -0.014 A 
ATOM     96  C   UNL A   1      42.959  35.201  33.715  1.00  0.00     0.010 A 
ATOM     97  C   UNL A   1      43.800  35.894  31.544  1.00  0.00     0.010 A 
ATOM     98  C   UNL A   1      43.376  36.416  34.263  1.00  0.00     0.020 A 
ATOM     99  C   UNL A   1      44.233  37.103  32.093  1.00  0.00     0.020 A 
ATOM    100  C   UNL A   1      44.008  37.361  33.448  1.00  0.00     0.054 A 
BRANCH 100 101
ATOM    101  S   UNL A   1      44.590  38.911  34.188  1.00  0.00     0.124 S 
ATOM    102  O   UNL A   1      44.839  38.511  35.570  1.00  0.00    -0.237 OA
ATOM    103  O   UNL A   1      45.781  39.222  33.400  1.00  0.00    -0.237 OA
ATOM    104  O   UNL A   1      43.467  39.826  33.994  1.00  0.00    -0.744 OA
ENDBRANCH 100 101
ENDBRANCH  74  95
ENDBRANCH  48  49
ENDBRANCH  40  43
ENDBRANCH  38  39
ENDBRANCH  37  38
ENDBRANCH   1  37
TORSDOF 19
ENDMDL
MODEL 3
REMARK VINA RESULT:     -11.8      1.521      3.744
REMARK SMILES Cn1cc(C[C@@H](NC(=O)OCC2c3ccccc3-c3ccccc32)C(=O)NCCCNC(=O)c2ccc(-c3c4nc(c(-c5ccc(S(=O)(=O)[O-])cc5)c5ccc([nH]5)c(-c5ccc(S(=O)(=O)[O-])cc5)c5nc(c(-c6ccc(S(=O)(=O)[O-])cc6)c6ccc3[nH]6)C=C5)C=C4)cc2)c2ccccc21
REMARK SMILES IDX 28 1 27 2 25 3 26 4 6 6 5 7 4 8 1 9 2 10 3 11 99 12 94 13
REMARK SMILES IDX 98 14 95 15 97 16 96 17 7 18 8 19 9 21 10 22 11 23 12 24
REMARK SMILES IDX 13 25 24 26 14 27 18 28 19 29 23 30 15 31 17 32 20 33 22 34
REMARK SMILES IDX 16 35 21 36 29 37 30 38 31 39 32 40 33 42 34 43 35 44 93 45
REMARK SMILES IDX 36 46 92 47 37 48 38 49 39 50 86 51 40 52 91 53 85 54 87 55
REMARK SMILES IDX 41 56 90 57 84 58 83 59 42 61 72 62 53 63 71 64 54 65 57 66
REMARK SMILES IDX 70 67 88 68 55 69 56 70 69 72 89 73 58 74 43 75 44 76 52 77
REMARK SMILES IDX 45 78 51 79 46 80 47 81 48 82 49 83 50 84 73 85 74 86 82 87
REMARK SMILES IDX 75 88 81 89 76 90 77 91 78 92 79 93 80 94 59 95 60 96 68 97
REMARK SMILES IDX 61 98 67 99 62 100 63 101 64 102 65 103 66 104
REMARK H PARENT 27 5 7 20 31 41 87 60 57 71
REMARK Flexibility Score: inf
ROOT
ATOM      1  C   UNL A   1      36.924  23.316  26.036  1.00  0.00     0.117 C 
ENDROOT
BRANCH   1   2
ATOM      2  N   UNL A   1      37.068  23.006  24.622  1.00  0.00    -0.354 N 
ATOM      3  C   UNL A   1      36.235  23.288  23.574  1.00  0.00     0.243 C 
ATOM      4  O   UNL A   1      36.617  22.989  22.438  1.00  0.00    -0.273 OA
ATOM      5  H   UNL A   1      37.890  22.520  24.383  1.00  0.00     0.163 HD
BRANCH   3   6
ATOM      6  C   UNL A   1      34.820  23.853  23.813  1.00  0.00     0.179 C 
BRANCH   6   7
ATOM      7  C   UNL A   1      34.919  25.016  24.834  1.00  0.00     0.073 C 
BRANCH   7   8
ATOM      8  C   UNL A   1      33.661  25.803  25.071  1.00  0.00    -0.020 A 
ATOM      9  C   UNL A   1      30.060  26.223  25.094  1.00  0.00     0.149 C 
ATOM     10  N   UNL A   1      31.498  26.351  25.164  1.00  0.00    -0.350 N 
ATOM     11  C   UNL A   1      32.389  25.434  24.673  1.00  0.00     0.090 A 
ATOM     12  C   UNL A   1      32.166  27.370  25.806  1.00  0.00     0.048 A 
ATOM     13  C   UNL A   1      33.517  27.015  25.828  1.00  0.00     0.003 A 
ATOM     14  C   UNL A   1      31.692  28.552  26.401  1.00  0.00     0.027 A 
ATOM     15  C   UNL A   1      34.412  27.845  26.536  1.00  0.00     0.010 A 
ATOM     16  C   UNL A   1      32.616  29.385  27.038  1.00  0.00     0.002 A 
ATOM     17  C   UNL A   1      33.957  29.033  27.114  1.00  0.00     0.001 A 
ENDBRANCH   7   8
ENDBRANCH   6   7
BRANCH   6  18
ATOM     18  N   UNL A   1      34.004  24.166  22.631  1.00  0.00    -0.309 N 
ATOM     19  C   UNL A   1      33.100  23.406  21.969  1.00  0.00     0.407 C 
ATOM     20  H   UNL A   1      34.136  25.070  22.264  1.00  0.00     0.167 HD
ATOM     21  O   UNL A   1      33.059  23.423  20.737  1.00  0.00    -0.225 OA
BRANCH  19  22
ATOM     22  O   UNL A   1      32.270  22.684  22.760  1.00  0.00    -0.449 OA
BRANCH  22  23
ATOM     23  C   UNL A   1      32.138  21.282  22.424  1.00  0.00     0.248 C 
BRANCH  23  24
ATOM     24  C   UNL A   1      31.961  20.365  23.651  1.00  0.00     0.088 C 
ATOM     25  C   UNL A   1      32.867  19.138  23.608  1.00  0.00    -0.029 A 
ATOM     26  C   UNL A   1      32.379  21.007  24.966  1.00  0.00    -0.029 A 
ATOM     27  C   UNL A   1      32.839  18.077  22.714  1.00  0.00     0.005 A 
ATOM     28  C   UNL A   1      33.764  19.158  24.697  1.00  0.00    -0.014 A 
ATOM     29  C   UNL A   1      33.496  20.332  25.503  1.00  0.00    -0.014 A 
ATOM     30  C   UNL A   1      31.847  22.125  25.588  1.00  0.00     0.005 A 
ATOM     31  C   UNL A   1      33.737  17.027  22.912  1.00  0.00     0.000 A 
ATOM     32  C   UNL A   1      34.662  18.121  24.885  1.00  0.00     0.009 A 
ATOM     33  C   UNL A   1      34.142  20.828  26.622  1.00  0.00     0.009 A 
ATOM     34  C   UNL A   1      32.506  22.633  26.706  1.00  0.00     0.000 A 
ATOM     35  C   UNL A   1      34.642  17.050  23.985  1.00  0.00     0.001 A 
ATOM     36  C   UNL A   1      33.651  21.998  27.211  1.00  0.00     0.001 A 
ENDBRANCH  23  24
ENDBRANCH  22  23
ENDBRANCH  19  22
ENDBRANCH   6  18
ENDBRANCH   3   6
ENDBRANCH   1   2
BRANCH   1  37
ATOM     37  C   UNL A   1      37.974  24.292  26.532  1.00  0.00     0.042 C 
BRANCH  37  38
ATOM     38  C   UNL A   1      39.278  23.612  26.918  1.00  0.00     0.118 C 
BRANCH  38  39
ATOM     39  N   UNL A   1      40.399  24.028  26.080  1.00  0.00    -0.352 N 
ATOM     40  C   UNL A   1      41.079  25.220  26.070  1.00  0.00     0.251 C 
ATOM     41  H   UNL A   1      40.712  23.357  25.432  1.00  0.00     0.163 HD
ATOM     42  O   UNL A   1      41.898  25.457  25.187  1.00  0.00    -0.269 OA
BRANCH  40  43
ATOM     43  C   UNL A   1      40.795  26.219  27.118  1.00  0.00     0.039 A 
ATOM     44  C   UNL A   1      40.122  25.823  28.276  1.00  0.00     0.014 A 
ATOM     45  C   UNL A   1      41.237  27.537  26.968  1.00  0.00     0.014 A 
ATOM     46  C   UNL A   1      39.961  26.733  29.322  1.00  0.00     0.010 A 
ATOM     47  C   UNL A   1      41.150  28.415  28.040  1.00  0.00     0.010 A 
ATOM     48  C   UNL A   1      40.510  28.022  29.225  1.00  0.00    -0.014 A 
BRANCH  48  49
ATOM     49  C   UNL A   1      40.424  28.993  30.343  1.00  0.00     0.031 A 
ATOM     50  C   UNL A   1      41.332  28.839  31.531  1.00  0.00     0.074 A 
ATOM     51  C   UNL A   1      39.470  29.943  30.331  1.00  0.00     0.049 A 
ATOM     52  N   UNL A   1      41.329  29.498  32.661  1.00  0.00    -0.248 NA
ATOM     53  C   UNL A   1      42.353  27.781  31.453  1.00  0.00     0.031 C 
ATOM     54  C   UNL A   1      38.495  30.161  29.259  1.00  0.00     0.029 A 
ATOM     55  N   UNL A   1      39.157  30.901  31.263  1.00  0.00    -0.354 N 
ATOM     56  C   UNL A   1      42.314  28.905  33.443  1.00  0.00     0.074 A 
ATOM     57  C   UNL A   1      42.871  27.815  32.672  1.00  0.00     0.031 C 
ATOM     58  C   UNL A   1      37.711  31.204  29.582  1.00  0.00     0.029 A 
ATOM     59  C   UNL A   1      38.103  31.704  30.895  1.00  0.00     0.049 A 
ATOM     60  H   UNL A   1      39.641  31.003  32.114  1.00  0.00     0.167 HD
ATOM     61  C   UNL A   1      42.728  29.246  34.685  1.00  0.00     0.031 A 
ATOM     62  C   UNL A   1      37.518  32.727  31.546  1.00  0.00     0.031 A 
ATOM     63  C   UNL A   1      42.205  30.357  35.430  1.00  0.00     0.049 A 
ATOM     64  C   UNL A   1      38.031  33.123  32.901  1.00  0.00     0.074 A 
ATOM     65  C   UNL A   1      42.607  30.833  36.665  1.00  0.00     0.029 A 
ATOM     66  N   UNL A   1      41.172  31.177  35.000  1.00  0.00    -0.354 N 
ATOM     67  N   UNL A   1      38.996  32.581  33.604  1.00  0.00    -0.248 NA
ATOM     68  C   UNL A   1      37.383  34.273  33.545  1.00  0.00     0.031 C 
ATOM     69  C   UNL A   1      41.802  31.931  36.992  1.00  0.00     0.029 A 
ATOM     70  C   UNL A   1      40.919  32.154  35.946  1.00  0.00     0.049 A 
ATOM     71  H   UNL A   1      40.691  31.079  34.146  1.00  0.00     0.167 HD
ATOM     72  C   UNL A   1      39.084  33.337  34.767  1.00  0.00     0.074 A 
ATOM     73  C   UNL A   1      38.082  34.378  34.668  1.00  0.00     0.031 C 
ATOM     74  C   UNL A   1      39.920  33.182  35.823  1.00  0.00     0.031 A 
BRANCH  61  75
ATOM     75  C   UNL A   1      43.801  28.396  35.308  1.00  0.00    -0.014 A 
ATOM     76  C   UNL A   1      45.129  28.850  35.386  1.00  0.00     0.010 A 
ATOM     77  C   UNL A   1      43.477  27.127  35.820  1.00  0.00     0.010 A 
ATOM     78  C   UNL A   1      46.126  28.029  35.917  1.00  0.00     0.020 A 
ATOM     79  C   UNL A   1      44.467  26.311  36.374  1.00  0.00     0.020 A 
ATOM     80  C   UNL A   1      45.790  26.760  36.398  1.00  0.00     0.054 A 
BRANCH  80  81
ATOM     81  S   UNL A   1      47.099  25.706  37.082  1.00  0.00     0.124 S 
ATOM     82  O   UNL A   1      47.540  24.972  35.899  1.00  0.00    -0.237 OA
ATOM     83  O   UNL A   1      48.055  26.676  37.609  1.00  0.00    -0.237 OA
ATOM     84  O   UNL A   1      46.407  24.909  38.090  1.00  0.00    -0.744 OA
ENDBRANCH  80  81
ENDBRANCH  61  75
BRANCH  62  85
ATOM     85  C   UNL A   1      36.400  33.468  30.906  1.00  0.00    -0.014 A 
ATOM     86  C   UNL A   1      35.241  33.766  31.644  1.00  0.00     0.010 A 
ATOM     87  C   UNL A   1      36.496  33.901  29.572  1.00  0.00     0.010 A 
ATOM     88  C   UNL A   1      34.190  34.476  31.056  1.00  0.00     0.020 A 
ATOM     89  C   UNL A   1      35.454  34.625  28.986  1.00  0.00     0.020 A 
ATOM     90  C   UNL A   1      34.303  34.900  29.729  1.00  0.00     0.054 A 
BRANCH  90  91
ATOM     91  S   UNL A   1      32.956  35.873  29.000  1.00  0.00     0.124 S 
ATOM     92  O   UNL A   1      32.168  36.228  30.176  1.00  0.00    -0.237 OA
ATOM     93  O   UNL A   1      33.667  36.976  28.358  1.00  0.00    -0.237 OA
ATOM     94  O   UNL A   1      32.321  34.933  28.078  1.00  0.00    -0.744 OA
ENDBRANCH  90  91
ENDBRANCH  62  85
BRANCH  74  95
ATOM     95  C   UNL A   1      39.805  34.179  36.939  1.00  0.00    -0.014 A 
ATOM     96  C   UNL A   1      40.320  35.480  36.802  1.00  0.00     0.010 A 
ATOM     97  C   UNL A   1      39.122  33.826  38.117  1.00  0.00     0.010 A 
ATOM     98  C   UNL A   1      40.171  36.407  37.835  1.00  0.00     0.020 A 
ATOM     99  C   UNL A   1      38.958  34.756  39.145  1.00  0.00     0.020 A 
ATOM    100  C   UNL A   1      39.493  36.039  39.002  1.00  0.00     0.054 A 
BRANCH 100 101
ATOM    101  S   UNL A   1      39.264  37.272  40.311  1.00  0.00     0.124 S 
ATOM    102  O   UNL A   1      38.497  36.523  41.302  1.00  0.00    -0.237 OA
ATOM    103  O   UNL A   1      40.636  37.599  40.695  1.00  0.00    -0.237 OA
ATOM    104  O   UNL A   1      38.538  38.350  39.643  1.00  0.00    -0.744 OA
ENDBRANCH 100 101
ENDBRANCH  74  95
ENDBRANCH  48  49
ENDBRANCH  40  43
ENDBRANCH  38  39
ENDBRANCH  37  38
ENDBRANCH   1  37
TORSDOF 19
ENDMDL
