MODEL 1
REMARK VINA RESULT:     -10.6      0.000      0.000
REMARK SMILES O=C(C[NH+]1CCN(c2ncc(C(F)(F)F)cc2Cl)CC1)NCCCNC(=O)c1ccc(-c2c3nc(c(-c4ccc(S(=O)(=O)[O-])cc4)c4ccc([nH]4)c(-c4ccc(S(=O)(=O)[O-])cc4)c4nc(c(-c5ccc(S(=O)(=O)[O-])cc5)c5ccc2[nH]5)C=C4)C=C3)cc1
REMARK SMILES IDX 23 1 22 2 21 3 1 4 2 5 3 7 4 8 5 9 20 10 6 12 19 13 7 14
REMARK SMILES IDX 8 15 9 16 17 17 10 18 16 19 18 20 11 21 12 22 13 23 14 24
REMARK SMILES IDX 15 25 24 26 25 27 26 28 27 30 28 31 29 32 87 33 30 34 86 35
REMARK SMILES IDX 31 36 32 37 33 38 80 39 34 40 85 41 79 42 81 43 35 44 84 45
REMARK SMILES IDX 78 46 77 47 36 49 66 50 47 51 65 52 48 53 51 54 64 55 82 56
REMARK SMILES IDX 49 57 50 58 63 60 83 61 52 62 37 63 38 64 46 65 39 66 45 67
REMARK SMILES IDX 40 68 41 69 42 70 43 71 44 72 67 73 68 74 76 75 69 76 75 77
REMARK SMILES IDX 70 78 71 79 72 80 73 81 74 82 53 83 54 84 62 85 55 86 61 87
REMARK SMILES IDX 56 88 57 89 58 90 59 91 60 92
REMARK H PARENT 21 6 4 11 25 29 81 48 51 59
REMARK Flexibility Score: inf
ROOT
ATOM      1  C   UNL A   1      35.905  23.547  25.958  1.00  0.00     0.042 C 
ENDROOT
BRANCH   1   2
ATOM      2  C   UNL A   1      34.815  22.580  25.511  1.00  0.00     0.118 C 
BRANCH   2   3
ATOM      3  N   UNL A   1      34.370  22.811  24.153  1.00  0.00    -0.351 N 
ATOM      4  O   UNL A   1      32.315  21.835  24.465  1.00  0.00    -0.269 OA
ATOM      5  C   UNL A   1      33.103  22.444  23.745  1.00  0.00     0.275 C 
ATOM      6  H   UNL A   1      34.981  23.237  23.508  1.00  0.00     0.163 HD
BRANCH   5   7
ATOM      7  C   UNL A   1      32.755  22.892  22.326  1.00  0.00     0.363 C 
BRANCH   7   8
ATOM      8  N   UNL A   1      31.927  24.110  22.224  1.00  0.00    -0.324 N 
ATOM      9  C   UNL A   1      31.089  24.488  23.381  1.00  0.00     0.284 C 
ATOM     10  C   UNL A   1      32.682  25.280  21.734  1.00  0.00     0.284 C 
ATOM     11  H   UNL A   1      31.248  23.808  21.524  1.00  0.00     0.348 HD
ATOM     12  C   UNL A   1      31.772  25.326  24.496  1.00  0.00     0.179 C 
ATOM     13  C   UNL A   1      33.469  26.032  22.830  1.00  0.00     0.179 C 
ATOM     14  N   UNL A   1      32.551  26.415  23.904  1.00  0.00    -0.344 N 
BRANCH  14  15
ATOM     15  C   UNL A   1      32.964  27.433  24.753  1.00  0.00     0.147 A 
ATOM     16  N   UNL A   1      33.862  27.125  25.719  1.00  0.00    -0.237 NA
ATOM     17  C   UNL A   1      32.440  28.735  24.648  1.00  0.00     0.084 A 
ATOM     18  C   UNL A   1      34.239  28.102  26.584  1.00  0.00     0.126 A 
ATOM     19  C   UNL A   1      32.855  29.721  25.544  1.00  0.00     0.039 A 
ATOM     20  Cl  UNL A   1      31.219  29.159  23.496  1.00  0.00    -0.080 Cl
ATOM     21  C   UNL A   1      33.775  29.405  26.543  1.00  0.00     0.075 A 
BRANCH  21  22
ATOM     22  C   UNL A   1      34.260  30.404  27.547  1.00  0.00     0.417 C 
ATOM     23  F   UNL A   1      35.224  31.223  27.045  1.00  0.00    -0.166 F 
ATOM     24  F   UNL A   1      33.265  31.216  27.991  1.00  0.00    -0.166 F 
ATOM     25  F   UNL A   1      34.803  29.828  28.654  1.00  0.00    -0.166 F 
ENDBRANCH  21  22
ENDBRANCH  14  15
ENDBRANCH   7   8
ENDBRANCH   5   7
ENDBRANCH   2   3
ENDBRANCH   1   2
BRANCH   1  26
ATOM     26  C   UNL A   1      37.125  23.622  25.044  1.00  0.00     0.118 C 
BRANCH  26  27
ATOM     27  N   UNL A   1      38.200  22.723  25.425  1.00  0.00    -0.352 N 
ATOM     28  C   UNL A   1      39.318  22.954  26.185  1.00  0.00     0.251 C 
ATOM     29  H   UNL A   1      38.112  21.803  25.084  1.00  0.00     0.163 HD
ATOM     30  O   UNL A   1      40.135  22.043  26.345  1.00  0.00    -0.269 OA
BRANCH  28  31
ATOM     31  C   UNL A   1      39.575  24.269  26.819  1.00  0.00     0.039 A 
ATOM     32  C   UNL A   1      39.071  24.489  28.105  1.00  0.00     0.014 A 
ATOM     33  C   UNL A   1      40.261  25.297  26.165  1.00  0.00     0.014 A 
ATOM     34  C   UNL A   1      39.332  25.692  28.764  1.00  0.00     0.010 A 
ATOM     35  C   UNL A   1      40.582  26.473  26.848  1.00  0.00     0.010 A 
ATOM     36  C   UNL A   1      40.136  26.676  28.162  1.00  0.00    -0.014 A 
BRANCH  36  37
ATOM     37  C   UNL A   1      40.569  27.868  28.939  1.00  0.00     0.031 A 
ATOM     38  C   UNL A   1      41.926  27.939  29.582  1.00  0.00     0.074 A 
ATOM     39  C   UNL A   1      39.700  28.888  29.093  1.00  0.00     0.049 A 
ATOM     40  N   UNL A   1      42.467  28.927  30.248  1.00  0.00    -0.248 NA
ATOM     41  C   UNL A   1      42.777  26.742  29.486  1.00  0.00     0.031 C 
ATOM     42  C   UNL A   1      38.328  28.915  28.580  1.00  0.00     0.029 A 
ATOM     43  N   UNL A   1      39.843  30.102  29.718  1.00  0.00    -0.354 N 
ATOM     44  C   UNL A   1      43.717  28.475  30.656  1.00  0.00     0.074 A 
ATOM     45  C   UNL A   1      43.833  27.105  30.202  1.00  0.00     0.031 C 
ATOM     46  C   UNL A   1      37.771  30.101  28.871  1.00  0.00     0.029 A 
ATOM     47  C   UNL A   1      38.733  30.908  29.615  1.00  0.00     0.049 A 
ATOM     48  H   UNL A   1      40.660  30.371  30.196  1.00  0.00     0.167 HD
ATOM     49  C   UNL A   1      44.686  29.144  31.329  1.00  0.00     0.031 A 
ATOM     50  C   UNL A   1      38.512  32.161  30.055  1.00  0.00     0.031 A 
ATOM     51  C   UNL A   1      44.570  30.508  31.778  1.00  0.00     0.049 A 
ATOM     52  C   UNL A   1      39.614  32.894  30.766  1.00  0.00     0.074 A 
ATOM     53  C   UNL A   1      45.518  31.288  32.418  1.00  0.00     0.029 A 
ATOM     54  N   UNL A   1      43.438  31.296  31.635  1.00  0.00    -0.354 N 
ATOM     55  N   UNL A   1      40.818  32.473  31.072  1.00  0.00    -0.248 NA
ATOM     56  C   UNL A   1      39.333  34.276  31.172  1.00  0.00     0.031 C 
ATOM     57  C   UNL A   1      44.945  32.534  32.700  1.00  0.00     0.029 A 
ATOM     58  C   UNL A   1      43.658  32.548  32.190  1.00  0.00     0.049 A 
ATOM     59  H   UNL A   1      42.600  31.010  31.204  1.00  0.00     0.167 HD
ATOM     60  C   UNL A   1      41.447  33.549  31.687  1.00  0.00     0.074 A 
ATOM     61  C   UNL A   1      40.498  34.643  31.690  1.00  0.00     0.031 C 
ATOM     62  C   UNL A   1      42.701  33.624  32.201  1.00  0.00     0.031 A 
BRANCH  49  63
ATOM     63  C   UNL A   1      45.965  28.402  31.624  1.00  0.00    -0.014 A 
ATOM     64  C   UNL A   1      47.035  28.414  30.710  1.00  0.00     0.010 A 
ATOM     65  C   UNL A   1      46.116  27.720  32.844  1.00  0.00     0.010 A 
ATOM     66  C   UNL A   1      48.215  27.721  30.992  1.00  0.00     0.020 A 
ATOM     67  C   UNL A   1      47.306  27.046  33.141  1.00  0.00     0.020 A 
ATOM     68  C   UNL A   1      48.341  27.035  32.204  1.00  0.00     0.054 A 
BRANCH  68  69
ATOM     69  S   UNL A   1      49.888  26.154  32.550  1.00  0.00     0.124 S 
ATOM     70  O   UNL A   1      49.676  25.706  33.924  1.00  0.00    -0.237 OA
ATOM     71  O   UNL A   1      49.891  25.100  31.540  1.00  0.00    -0.237 OA
ATOM     72  O   UNL A   1      50.916  27.178  32.381  1.00  0.00    -0.744 OA
ENDBRANCH  68  69
ENDBRANCH  49  63
BRANCH  50  73
ATOM     73  C   UNL A   1      37.203  32.818  29.792  1.00  0.00    -0.014 A 
ATOM     74  C   UNL A   1      36.155  32.711  30.722  1.00  0.00     0.010 A 
ATOM     75  C   UNL A   1      37.007  33.569  28.620  1.00  0.00     0.010 A 
ATOM     76  C   UNL A   1      34.926  33.331  30.478  1.00  0.00     0.020 A 
ATOM     77  C   UNL A   1      35.789  34.212  28.384  1.00  0.00     0.020 A 
ATOM     78  C   UNL A   1      34.751  34.078  29.310  1.00  0.00     0.054 A 
BRANCH  78  79
ATOM     79  S   UNL A   1      33.169  34.923  29.037  1.00  0.00     0.124 S 
ATOM     80  O   UNL A   1      33.602  36.247  28.605  1.00  0.00    -0.237 OA
ATOM     81  O   UNL A   1      32.540  34.095  28.011  1.00  0.00    -0.237 OA
ATOM     82  O   UNL A   1      32.526  34.869  30.348  1.00  0.00    -0.744 OA
ENDBRANCH  78  79
ENDBRANCH  50  73
BRANCH  62  83
ATOM     83  C   UNL A   1      43.118  34.947  32.786  1.00  0.00    -0.014 A 
ATOM     84  C   UNL A   1      42.857  35.263  34.131  1.00  0.00     0.010 A 
ATOM     85  C   UNL A   1      43.786  35.884  31.979  1.00  0.00     0.010 A 
ATOM     86  C   UNL A   1      43.208  36.515  34.644  1.00  0.00     0.020 A 
ATOM     87  C   UNL A   1      44.163  37.127  32.495  1.00  0.00     0.020 A 
ATOM     88  C   UNL A   1      43.849  37.443  33.819  1.00  0.00     0.054 A 
BRANCH  88  89
ATOM     89  S   UNL A   1      44.298  39.062  34.502  1.00  0.00     0.124 S 
ATOM     90  O   UNL A   1      43.260  39.924  33.944  1.00  0.00    -0.237 OA
ATOM     91  O   UNL A   1      44.222  38.838  35.944  1.00  0.00    -0.237 OA
ATOM     92  O   UNL A   1      45.646  39.294  33.985  1.00  0.00    -0.744 OA
ENDBRANCH  88  89
ENDBRANCH  62  83
ENDBRANCH  36  37
ENDBRANCH  28  31
ENDBRANCH  26  27
ENDBRANCH   1  26
TORSDOF 16
ENDMDL
MODEL 2
REMARK VINA RESULT:     -10.6      3.591      4.560
REMARK SMILES O=C(C[NH+]1CCN(c2ncc(C(F)(F)F)cc2Cl)CC1)NCCCNC(=O)c1ccc(-c2c3nc(c(-c4ccc(S(=O)(=O)[O-])cc4)c4ccc([nH]4)c(-c4ccc(S(=O)(=O)[O-])cc4)c4nc(c(-c5ccc(S(=O)(=O)[O-])cc5)c5ccc2[nH]5)C=C4)C=C3)cc1
REMARK SMILES IDX 23 1 22 2 21 3 1 4 2 5 3 7 4 8 5 9 20 10 6 12 19 13 7 14
REMARK SMILES IDX 8 15 9 16 17 17 10 18 16 19 18 20 11 21 12 22 13 23 14 24
REMARK SMILES IDX 15 25 24 26 25 27 26 28 27 30 28 31 29 32 87 33 30 34 86 35
REMARK SMILES IDX 31 36 32 37 33 38 80 39 34 40 85 41 79 42 81 43 35 44 84 45
REMARK SMILES IDX 78 46 77 47 36 49 66 50 47 51 65 52 48 53 51 54 64 55 82 56
REMARK SMILES IDX 49 57 50 58 63 60 83 61 52 62 37 63 38 64 46 65 39 66 45 67
REMARK SMILES IDX 40 68 41 69 42 70 43 71 44 72 67 73 68 74 76 75 69 76 75 77
REMARK SMILES IDX 70 78 71 79 72 80 73 81 74 82 53 83 54 84 62 85 55 86 61 87
REMARK SMILES IDX 56 88 57 89 58 90 59 91 60 92
REMARK H PARENT 21 6 4 11 25 29 81 48 51 59
REMARK Flexibility Score: inf
ROOT
ATOM      1  C   UNL A   1      40.298  22.386  27.454  1.00  0.00     0.042 C 
ENDROOT
BRANCH   1   2
ATOM      2  C   UNL A   1      39.811  21.599  26.244  1.00  0.00     0.118 C 
BRANCH   2   3
ATOM      3  N   UNL A   1      38.784  22.287  25.491  1.00  0.00    -0.351 N 
ATOM      4  O   UNL A   1      37.654  20.369  24.927  1.00  0.00    -0.269 OA
ATOM      5  C   UNL A   1      37.738  21.595  24.913  1.00  0.00     0.275 C 
ATOM      6  H   UNL A   1      38.832  23.266  25.388  1.00  0.00     0.163 HD
BRANCH   5   7
ATOM      7  C   UNL A   1      36.675  22.493  24.283  1.00  0.00     0.363 C 
BRANCH   7   8
ATOM      8  N   UNL A   1      35.360  22.498  24.953  1.00  0.00    -0.324 N 
ATOM      9  C   UNL A   1      35.052  23.601  25.887  1.00  0.00     0.284 C 
ATOM     10  C   UNL A   1      34.236  22.291  24.017  1.00  0.00     0.284 C 
ATOM     11  H   UNL A   1      35.466  21.688  25.564  1.00  0.00     0.348 HD
ATOM     12  C   UNL A   1      34.482  24.906  25.266  1.00  0.00     0.179 C 
ATOM     13  C   UNL A   1      33.761  23.574  23.301  1.00  0.00     0.179 C 
ATOM     14  N   UNL A   1      33.426  24.587  24.303  1.00  0.00    -0.344 N 
BRANCH  14  15
ATOM     15  C   UNL A   1      32.605  25.629  23.894  1.00  0.00     0.147 A 
ATOM     16  N   UNL A   1      33.113  26.885  23.928  1.00  0.00    -0.237 NA
ATOM     17  C   UNL A   1      31.273  25.404  23.498  1.00  0.00     0.084 A 
ATOM     18  C   UNL A   1      32.305  27.917  23.574  1.00  0.00     0.126 A 
ATOM     19  C   UNL A   1      30.470  26.484  23.128  1.00  0.00     0.039 A 
ATOM     20  Cl  UNL A   1      30.545  23.835  23.529  1.00  0.00    -0.080 Cl
ATOM     21  C   UNL A   1      30.990  27.778  23.168  1.00  0.00     0.075 A 
BRANCH  21  22
ATOM     22  C   UNL A   1      30.189  28.987  22.797  1.00  0.00     0.417 C 
ATOM     23  F   UNL A   1      30.773  29.718  21.809  1.00  0.00    -0.166 F 
ATOM     24  F   UNL A   1      28.947  28.666  22.349  1.00  0.00    -0.166 F 
ATOM     25  F   UNL A   1      30.007  29.846  23.836  1.00  0.00    -0.166 F 
ENDBRANCH  21  22
ENDBRANCH  14  15
ENDBRANCH   7   8
ENDBRANCH   5   7
ENDBRANCH   2   3
ENDBRANCH   1   2
BRANCH   1  26
ATOM     26  C   UNL A   1      41.557  23.220  27.226  1.00  0.00     0.118 C 
BRANCH  26  27
ATOM     27  N   UNL A   1      41.435  24.186  26.149  1.00  0.00    -0.352 N 
ATOM     28  C   UNL A   1      41.197  25.535  26.196  1.00  0.00     0.251 C 
ATOM     29  H   UNL A   1      41.539  23.813  25.244  1.00  0.00     0.163 HD
ATOM     30  O   UNL A   1      41.084  26.164  25.139  1.00  0.00    -0.269 OA
BRANCH  28  31
ATOM     31  C   UNL A   1      41.069  26.263  27.481  1.00  0.00     0.039 A 
ATOM     32  C   UNL A   1      42.083  27.159  27.833  1.00  0.00     0.014 A 
ATOM     33  C   UNL A   1      40.001  26.055  28.359  1.00  0.00     0.014 A 
ATOM     34  C   UNL A   1      41.981  27.907  29.009  1.00  0.00     0.010 A 
ATOM     35  C   UNL A   1      39.863  26.852  29.499  1.00  0.00     0.010 A 
ATOM     36  C   UNL A   1      40.843  27.799  29.827  1.00  0.00    -0.014 A 
BRANCH  36  37
ATOM     37  C   UNL A   1      40.651  28.732  30.969  1.00  0.00     0.031 A 
ATOM     38  C   UNL A   1      41.489  28.636  32.213  1.00  0.00     0.074 A 
ATOM     39  C   UNL A   1      39.675  29.660  30.888  1.00  0.00     0.049 A 
ATOM     40  N   UNL A   1      41.477  29.405  33.272  1.00  0.00    -0.248 NA
ATOM     41  C   UNL A   1      42.448  27.522  32.291  1.00  0.00     0.031 C 
ATOM     42  C   UNL A   1      38.746  29.814  29.766  1.00  0.00     0.029 A 
ATOM     43  N   UNL A   1      39.306  30.653  31.761  1.00  0.00    -0.354 N 
ATOM     44  C   UNL A   1      42.418  28.871  34.145  1.00  0.00     0.074 A 
ATOM     45  C   UNL A   1      42.948  27.683  33.509  1.00  0.00     0.031 C 
ATOM     46  C   UNL A   1      37.945  30.866  29.998  1.00  0.00     0.029 A 
ATOM     47  C   UNL A   1      38.283  31.444  31.294  1.00  0.00     0.049 A 
ATOM     48  H   UNL A   1      39.733  30.787  32.638  1.00  0.00     0.167 HD
ATOM     49  C   UNL A   1      42.818  29.336  35.354  1.00  0.00     0.031 A 
ATOM     50  C   UNL A   1      37.688  32.523  31.837  1.00  0.00     0.031 A 
ATOM     51  C   UNL A   1      42.291  30.520  35.984  1.00  0.00     0.049 A 
ATOM     52  C   UNL A   1      38.173  33.040  33.162  1.00  0.00     0.074 A 
ATOM     53  C   UNL A   1      42.671  31.101  37.182  1.00  0.00     0.029 A 
ATOM     54  N   UNL A   1      41.270  31.305  35.470  1.00  0.00    -0.354 N 
ATOM     55  N   UNL A   1      39.120  32.564  33.934  1.00  0.00    -0.248 NA
ATOM     56  C   UNL A   1      37.522  34.252  33.676  1.00  0.00     0.031 C 
ATOM     57  C   UNL A   1      41.852  32.213  37.411  1.00  0.00     0.029 A 
ATOM     58  C   UNL A   1      40.996  32.355  36.333  1.00  0.00     0.049 A 
ATOM     59  H   UNL A   1      40.806  31.141  34.617  1.00  0.00     0.167 HD
ATOM     60  C   UNL A   1      39.194  33.433  35.016  1.00  0.00     0.074 A 
ATOM     61  C   UNL A   1      38.212  34.472  34.786  1.00  0.00     0.031 C 
ATOM     62  C   UNL A   1      40.006  33.375  36.102  1.00  0.00     0.031 A 
BRANCH  49  63
ATOM     63  C   UNL A   1      43.883  28.555  36.081  1.00  0.00    -0.014 A 
ATOM     64  C   UNL A   1      45.243  28.889  35.947  1.00  0.00     0.010 A 
ATOM     65  C   UNL A   1      43.520  27.503  36.940  1.00  0.00     0.010 A 
ATOM     66  C   UNL A   1      46.222  28.158  36.623  1.00  0.00     0.020 A 
ATOM     67  C   UNL A   1      44.496  26.784  37.638  1.00  0.00     0.020 A 
ATOM     68  C   UNL A   1      45.843  27.105  37.460  1.00  0.00     0.054 A 
BRANCH  68  69
ATOM     69  S   UNL A   1      47.134  26.179  38.336  1.00  0.00     0.124 S 
ATOM     70  O   UNL A   1      46.470  25.862  39.598  1.00  0.00    -0.237 OA
ATOM     71  O   UNL A   1      47.372  25.043  37.450  1.00  0.00    -0.237 OA
ATOM     72  O   UNL A   1      48.237  27.131  38.434  1.00  0.00    -0.744 OA
ENDBRANCH  68  69
ENDBRANCH  49  63
BRANCH  50  73
ATOM     73  C   UNL A   1      36.594  33.212  31.101  1.00  0.00    -0.014 A 
ATOM     74  C   UNL A   1      35.338  33.399  31.705  1.00  0.00     0.010 A 
ATOM     75  C   UNL A   1      36.810  33.703  29.802  1.00  0.00     0.010 A 
ATOM     76  C   UNL A   1      34.311  34.050  31.015  1.00  0.00     0.020 A 
ATOM     77  C   UNL A   1      35.794  34.378  29.119  1.00  0.00     0.020 A 
ATOM     78  C   UNL A   1      34.546  34.536  29.726  1.00  0.00     0.054 A 
BRANCH  78  79
ATOM     79  S   UNL A   1      33.219  35.429  28.869  1.00  0.00     0.124 S 
ATOM     80  O   UNL A   1      33.961  36.466  28.159  1.00  0.00    -0.237 OA
ATOM     81  O   UNL A   1      32.625  34.389  28.034  1.00  0.00    -0.237 OA
ATOM     82  O   UNL A   1      32.369  35.901  29.960  1.00  0.00    -0.744 OA
ENDBRANCH  78  79
ENDBRANCH  50  73
BRANCH  62  83
ATOM     83  C   UNL A   1      39.875  34.487  37.108  1.00  0.00    -0.014 A 
ATOM     84  C   UNL A   1      40.605  35.681  36.974  1.00  0.00     0.010 A 
ATOM     85  C   UNL A   1      39.005  34.335  38.202  1.00  0.00     0.010 A 
ATOM     86  C   UNL A   1      40.508  36.682  37.944  1.00  0.00     0.020 A 
ATOM     87  C   UNL A   1      38.884  35.345  39.160  1.00  0.00     0.020 A 
ATOM     88  C   UNL A   1      39.656  36.503  39.037  1.00  0.00     0.054 A 
BRANCH  88  89
ATOM     89  S   UNL A   1      39.542  37.813  40.285  1.00  0.00     0.124 S 
ATOM     90  O   UNL A   1      39.059  37.079  41.452  1.00  0.00    -0.237 OA
ATOM     91  O   UNL A   1      40.917  38.298  40.373  1.00  0.00    -0.237 OA
ATOM     92  O   UNL A   1      38.591  38.760  39.707  1.00  0.00    -0.744 OA
ENDBRANCH  88  89
ENDBRANCH  62  83
ENDBRANCH  36  37
ENDBRANCH  28  31
ENDBRANCH  26  27
ENDBRANCH   1  26
TORSDOF 16
ENDMDL
MODEL 3
REMARK VINA RESULT:     -10.4      3.712      4.538
REMARK SMILES O=C(C[NH+]1CCN(c2ncc(C(F)(F)F)cc2Cl)CC1)NCCCNC(=O)c1ccc(-c2c3nc(c(-c4ccc(S(=O)(=O)[O-])cc4)c4ccc([nH]4)c(-c4ccc(S(=O)(=O)[O-])cc4)c4nc(c(-c5ccc(S(=O)(=O)[O-])cc5)c5ccc2[nH]5)C=C4)C=C3)cc1
REMARK SMILES IDX 23 1 22 2 21 3 1 4 2 5 3 7 4 8 5 9 20 10 6 12 19 13 7 14
REMARK SMILES IDX 8 15 9 16 17 17 10 18 16 19 18 20 11 21 12 22 13 23 14 24
REMARK SMILES IDX 15 25 24 26 25 27 26 28 27 30 28 31 29 32 87 33 30 34 86 35
REMARK SMILES IDX 31 36 32 37 33 38 80 39 34 40 85 41 79 42 81 43 35 44 84 45
REMARK SMILES IDX 78 46 77 47 36 49 66 50 47 51 65 52 48 53 51 54 64 55 82 56
REMARK SMILES IDX 49 57 50 58 63 60 83 61 52 62 37 63 38 64 46 65 39 66 45 67
REMARK SMILES IDX 40 68 41 69 42 70 43 71 44 72 67 73 68 74 76 75 69 76 75 77
REMARK SMILES IDX 70 78 71 79 72 80 73 81 74 82 53 83 54 84 62 85 55 86 61 87
REMARK SMILES IDX 56 88 57 89 58 90 59 91 60 92
REMARK H PARENT 21 6 4 11 25 29 81 48 51 59
REMARK Flexibility Score: inf
ROOT
ATOM      1  C   UNL A   1      37.886  23.719  26.330  1.00  0.00     0.042 C 
ENDROOT
BRANCH   1   2
ATOM      2  C   UNL A   1      37.372  22.388  25.793  1.00  0.00     0.118 C 
BRANCH   2   3
ATOM      3  N   UNL A   1      36.163  22.519  25.007  1.00  0.00    -0.351 N 
ATOM      4  O   UNL A   1      34.764  22.547  26.828  1.00  0.00    -0.269 OA
ATOM      5  C   UNL A   1      34.927  22.632  25.613  1.00  0.00     0.275 C 
ATOM      6  H   UNL A   1      36.223  22.527  24.023  1.00  0.00     0.163 HD
BRANCH   5   7
ATOM      7  C   UNL A   1      33.783  22.906  24.637  1.00  0.00     0.363 C 
BRANCH   7   8
ATOM      8  N   UNL A   1      34.022  23.981  23.655  1.00  0.00    -0.324 N 
ATOM      9  C   UNL A   1      33.155  24.044  22.459  1.00  0.00     0.284 C 
ATOM     10  C   UNL A   1      34.133  25.315  24.278  1.00  0.00     0.284 C 
ATOM     11  H   UNL A   1      34.925  23.688  23.282  1.00  0.00     0.348 HD
ATOM     12  C   UNL A   1      31.806  24.799  22.612  1.00  0.00     0.179 C 
ATOM     13  C   UNL A   1      32.778  26.004  24.550  1.00  0.00     0.179 C 
ATOM     14  N   UNL A   1      32.014  26.073  23.303  1.00  0.00    -0.344 N 
BRANCH  14  15
ATOM     15  C   UNL A   1      30.985  27.002  23.245  1.00  0.00     0.147 A 
ATOM     16  N   UNL A   1      29.727  26.569  23.502  1.00  0.00    -0.237 NA
ATOM     17  C   UNL A   1      31.223  28.343  22.888  1.00  0.00     0.084 A 
ATOM     18  C   UNL A   1      28.706  27.458  23.403  1.00  0.00     0.126 A 
ATOM     19  C   UNL A   1      30.155  29.237  22.806  1.00  0.00     0.039 A 
ATOM     20  Cl  UNL A   1      32.794  28.926  22.455  1.00  0.00    -0.080 Cl
ATOM     21  C   UNL A   1      28.859  28.791  23.066  1.00  0.00     0.075 A 
BRANCH  21  22
ATOM     22  C   UNL A   1      27.661  29.686  22.989  1.00  0.00     0.417 C 
ATOM     23  F   UNL A   1      26.493  29.013  23.172  1.00  0.00    -0.166 F 
ATOM     24  F   UNL A   1      27.687  30.666  23.929  1.00  0.00    -0.166 F 
ATOM     25  F   UNL A   1      27.541  30.316  21.788  1.00  0.00    -0.166 F 
ENDBRANCH  21  22
ENDBRANCH  14  15
ENDBRANCH   7   8
ENDBRANCH   5   7
ENDBRANCH   2   3
ENDBRANCH   1   2
BRANCH   1  26
ATOM     26  C   UNL A   1      39.348  23.724  26.769  1.00  0.00     0.118 C 
BRANCH  26  27
ATOM     27  N   UNL A   1      40.222  24.478  25.887  1.00  0.00    -0.352 N 
ATOM     28  C   UNL A   1      40.876  25.665  26.097  1.00  0.00     0.251 C 
ATOM     29  H   UNL A   1      40.368  24.073  25.002  1.00  0.00     0.163 HD
ATOM     30  O   UNL A   1      41.540  26.157  25.179  1.00  0.00    -0.269 OA
BRANCH  28  31
ATOM     31  C   UNL A   1      40.807  26.379  27.394  1.00  0.00     0.039 A 
ATOM     32  C   UNL A   1      41.764  27.364  27.655  1.00  0.00     0.014 A 
ATOM     33  C   UNL A   1      39.852  26.074  28.370  1.00  0.00     0.014 A 
ATOM     34  C   UNL A   1      41.708  28.100  28.841  1.00  0.00     0.010 A 
ATOM     35  C   UNL A   1      39.753  26.855  29.524  1.00  0.00     0.010 A 
ATOM     36  C   UNL A   1      40.669  27.888  29.764  1.00  0.00    -0.014 A 
BRANCH  36  37
ATOM     37  C   UNL A   1      40.505  28.800  30.927  1.00  0.00     0.031 A 
ATOM     38  C   UNL A   1      41.355  28.665  32.160  1.00  0.00     0.074 A 
ATOM     39  C   UNL A   1      39.543  29.745  30.876  1.00  0.00     0.049 A 
ATOM     40  N   UNL A   1      41.366  29.413  33.234  1.00  0.00    -0.248 NA
ATOM     41  C   UNL A   1      42.296  27.536  32.204  1.00  0.00     0.031 C 
ATOM     42  C   UNL A   1      38.604  29.937  29.768  1.00  0.00     0.029 A 
ATOM     43  N   UNL A   1      39.199  30.725  31.774  1.00  0.00    -0.354 N 
ATOM     44  C   UNL A   1      42.308  28.846  34.085  1.00  0.00     0.074 A 
ATOM     45  C   UNL A   1      42.812  27.663  33.420  1.00  0.00     0.031 C 
ATOM     46  C   UNL A   1      37.823  30.996  30.030  1.00  0.00     0.029 A 
ATOM     47  C   UNL A   1      38.183  31.541  31.334  1.00  0.00     0.049 A 
ATOM     48  H   UNL A   1      39.638  30.834  32.648  1.00  0.00     0.167 HD
ATOM     49  C   UNL A   1      42.728  29.280  35.299  1.00  0.00     0.031 A 
ATOM     50  C   UNL A   1      37.611  32.618  31.906  1.00  0.00     0.031 A 
ATOM     51  C   UNL A   1      42.226  30.458  35.959  1.00  0.00     0.049 A 
ATOM     52  C   UNL A   1      38.118  33.100  33.235  1.00  0.00     0.074 A 
ATOM     53  C   UNL A   1      42.629  31.008  37.165  1.00  0.00     0.029 A 
ATOM     54  N   UNL A   1      41.212  31.269  35.473  1.00  0.00    -0.354 N 
ATOM     55  N   UNL A   1      39.066  32.593  33.987  1.00  0.00    -0.248 NA
ATOM     56  C   UNL A   1      37.493  34.311  33.781  1.00  0.00     0.031 C 
ATOM     57  C   UNL A   1      41.830  32.128  37.426  1.00  0.00     0.029 A 
ATOM     58  C   UNL A   1      40.964  32.305  36.360  1.00  0.00     0.049 A 
ATOM     59  H   UNL A   1      40.737  31.130  34.622  1.00  0.00     0.167 HD
ATOM     60  C   UNL A   1      39.166  33.438  35.086  1.00  0.00     0.074 A 
ATOM     61  C   UNL A   1      38.198  34.497  34.889  1.00  0.00     0.031 C 
ATOM     62  C   UNL A   1      39.988  33.345  36.161  1.00  0.00     0.031 A 
BRANCH  49  63
ATOM     63  C   UNL A   1      43.788  28.467  35.998  1.00  0.00    -0.014 A 
ATOM     64  C   UNL A   1      43.441  27.387  36.831  1.00  0.00     0.010 A 
ATOM     65  C   UNL A   1      45.148  28.758  35.789  1.00  0.00     0.010 A 
ATOM     66  C   UNL A   1      44.431  26.643  37.476  1.00  0.00     0.020 A 
ATOM     67  C   UNL A   1      46.143  27.998  36.414  1.00  0.00     0.020 A 
ATOM     68  C   UNL A   1      45.777  26.957  37.268  1.00  0.00     0.054 A 
BRANCH  68  69
ATOM     69  S   UNL A   1      47.043  25.966  38.108  1.00  0.00     0.124 S 
ATOM     70  O   UNL A   1      48.151  26.029  37.158  1.00  0.00    -0.237 OA
ATOM     71  O   UNL A   1      47.246  26.695  39.357  1.00  0.00    -0.237 OA
ATOM     72  O   UNL A   1      46.418  24.653  38.250  1.00  0.00    -0.744 OA
ENDBRANCH  68  69
ENDBRANCH  49  63
BRANCH  50  73
ATOM     73  C   UNL A   1      36.520  33.339  31.196  1.00  0.00    -0.014 A 
ATOM     74  C   UNL A   1      36.729  33.852  29.904  1.00  0.00     0.010 A 
ATOM     75  C   UNL A   1      35.261  33.498  31.802  1.00  0.00     0.010 A 
ATOM     76  C   UNL A   1      35.703  34.526  29.236  1.00  0.00     0.020 A 
ATOM     77  C   UNL A   1      34.225  34.148  31.126  1.00  0.00     0.020 A 
ATOM     78  C   UNL A   1      34.457  34.670  29.852  1.00  0.00     0.054 A 
BRANCH  78  79
ATOM     79  S   UNL A   1      33.121  35.497  28.945  1.00  0.00     0.124 S 
ATOM     80  O   UNL A   1      33.853  36.485  28.161  1.00  0.00    -0.237 OA
ATOM     81  O   UNL A   1      32.525  34.400  28.186  1.00  0.00    -0.237 OA
ATOM     82  O   UNL A   1      32.276  36.039  30.007  1.00  0.00    -0.744 OA
ENDBRANCH  78  79
ENDBRANCH  50  73
BRANCH  62  83
ATOM     83  C   UNL A   1      39.886  34.438  37.192  1.00  0.00    -0.014 A 
ATOM     84  C   UNL A   1      39.113  34.273  38.354  1.00  0.00     0.010 A 
ATOM     85  C   UNL A   1      40.580  35.645  36.996  1.00  0.00     0.010 A 
ATOM     86  C   UNL A   1      38.991  35.316  39.276  1.00  0.00     0.020 A 
ATOM     87  C   UNL A   1      40.483  36.681  37.928  1.00  0.00     0.020 A 
ATOM     88  C   UNL A   1      39.669  36.518  39.051  1.00  0.00     0.054 A 
BRANCH  88  89
ATOM     89  S   UNL A   1      39.499  37.860  40.259  1.00  0.00     0.124 S 
ATOM     90  O   UNL A   1      38.375  38.617  39.715  1.00  0.00    -0.237 OA
ATOM     91  O   UNL A   1      39.231  37.144  41.504  1.00  0.00    -0.237 OA
ATOM     92  O   UNL A   1      40.793  38.539  40.205  1.00  0.00    -0.744 OA
ENDBRANCH  88  89
ENDBRANCH  62  83
ENDBRANCH  36  37
ENDBRANCH  28  31
ENDBRANCH  26  27
ENDBRANCH   1  26
TORSDOF 16
ENDMDL
