MODEL 1
REMARK VINA RESULT:     -11.7      0.000      0.000
REMARK SMILES C[C@@H]1Oc2c(C(=O)NCCCNC(=O)c3ccc(-c4c5nc(c(-c6ccc(S(=O)(=O)[O-])cc6)c6ccc([nH]6)c(-c6ccc(S(=O)(=O)[O-])cc6)c6nc(c(-c7ccc(S(=O)(=O)[O-])cc7)c7ccc4[nH]7)C=C6)C=C5)cc3)cccc2[C@@H]1C
REMARK SMILES IDX 12 1 13 2 14 3 11 5 10 6 9 7 8 8 6 9 7 10 5 12 1 13 2 14
REMARK SMILES IDX 3 15 79 16 4 17 78 18 80 19 77 20 75 21 76 22 15 23 16 24
REMARK SMILES IDX 74 25 17 26 73 27 18 28 19 29 20 30 67 31 21 32 72 33 66 34
REMARK SMILES IDX 68 35 22 36 71 37 65 38 64 39 23 41 53 42 34 43 52 44 35 45
REMARK SMILES IDX 38 46 51 47 69 48 36 49 37 50 50 52 70 53 39 54 24 55 25 56
REMARK SMILES IDX 33 57 26 58 32 59 27 60 28 61 29 62 30 63 31 64 54 65 55 66
REMARK SMILES IDX 63 67 56 68 62 69 57 70 58 71 59 72 60 73 61 74 40 75 41 76
REMARK SMILES IDX 49 77 42 78 48 79 43 80 44 81 45 82 46 83 47 84
REMARK H PARENT 12 4 8 11 68 40 38 51
REMARK Flexibility Score: inf
ROOT
ATOM      1  N   UNL A   1      33.276  29.685  27.404  1.00  0.00    -0.352 N 
ATOM      2  C   UNL A   1      34.199  30.552  27.938  1.00  0.00     0.251 C 
ATOM      3  O   UNL A   1      33.862  31.706  28.182  1.00  0.00    -0.269 OA
ATOM      4  H   UNL A   1      32.451  30.112  27.081  1.00  0.00     0.163 HD
ENDROOT
BRANCH   1   5
ATOM      5  C   UNL A   1      33.315  28.235  27.237  1.00  0.00     0.118 C 
BRANCH   5   6
ATOM      6  C   UNL A   1      31.924  27.646  27.020  1.00  0.00     0.042 C 
BRANCH   6   7
ATOM      7  C   UNL A   1      31.940  26.406  26.128  1.00  0.00     0.118 C 
BRANCH   7   8
ATOM      8  N   UNL A   1      31.009  25.407  26.616  1.00  0.00    -0.352 N 
ATOM      9  C   UNL A   1      31.082  24.055  26.843  1.00  0.00     0.255 C 
ATOM     10  O   UNL A   1      30.041  23.542  27.257  1.00  0.00    -0.269 OA
ATOM     11  H   UNL A   1      30.125  25.783  26.833  1.00  0.00     0.163 HD
BRANCH   9  12
ATOM     12  C   UNL A   1      32.323  23.234  26.663  1.00  0.00     0.082 A 
ATOM     13  C   UNL A   1      33.300  23.980  22.060  1.00  0.00     0.053 C 
ATOM     14  C   UNL A   1      33.039  22.929  23.132  1.00  0.00     0.177 C 
ATOM     15  O   UNL A   1      32.331  23.563  24.223  1.00  0.00    -0.489 OA
ATOM     16  C   UNL A   1      34.276  22.192  23.695  1.00  0.00     0.060 C 
ATOM     17  C   UNL A   1      32.810  22.993  25.376  1.00  0.00     0.136 A 
ATOM     18  C   UNL A   1      33.914  22.177  25.140  1.00  0.00     0.001 A 
ATOM     19  C   UNL A   1      35.629  22.869  23.495  1.00  0.00     0.017 C 
ATOM     20  C   UNL A   1      34.583  21.557  26.180  1.00  0.00     0.008 A 
ATOM     21  C   UNL A   1      33.074  22.687  27.713  1.00  0.00     0.018 A 
ATOM     22  C   UNL A   1      34.169  21.835  27.477  1.00  0.00     0.001 A 
ENDBRANCH   9  12
ENDBRANCH   7   8
ENDBRANCH   6   7
ENDBRANCH   5   6
ENDBRANCH   1   5
BRANCH   2  23
ATOM     23  C   UNL A   1      35.580  30.104  28.230  1.00  0.00     0.039 A 
ATOM     24  C   UNL A   1      35.925  29.611  29.488  1.00  0.00     0.014 A 
ATOM     25  C   UNL A   1      36.539  30.141  27.212  1.00  0.00     0.014 A 
ATOM     26  C   UNL A   1      37.254  29.322  29.776  1.00  0.00     0.010 A 
ATOM     27  C   UNL A   1      37.855  29.748  27.475  1.00  0.00     0.010 A 
ATOM     28  C   UNL A   1      38.236  29.375  28.772  1.00  0.00    -0.014 A 
BRANCH  28  29
ATOM     29  C   UNL A   1      39.637  29.004  29.108  1.00  0.00     0.031 A 
ATOM     30  C   UNL A   1      40.501  29.913  29.940  1.00  0.00     0.074 A 
ATOM     31  C   UNL A   1      40.105  27.802  28.712  1.00  0.00     0.049 A 
ATOM     32  N   UNL A   1      41.715  29.707  30.385  1.00  0.00    -0.248 NA
ATOM     33  C   UNL A   1      39.942  31.220  30.323  1.00  0.00     0.031 C 
ATOM     34  C   UNL A   1      39.353  26.835  27.907  1.00  0.00     0.029 A 
ATOM     35  N   UNL A   1      41.296  27.168  28.962  1.00  0.00    -0.354 N 
ATOM     36  C   UNL A   1      42.064  30.852  31.092  1.00  0.00     0.074 A 
ATOM     37  C   UNL A   1      40.955  31.770  30.981  1.00  0.00     0.031 C 
ATOM     38  C   UNL A   1      40.066  25.706  27.796  1.00  0.00     0.029 A 
ATOM     39  C   UNL A   1      41.356  25.890  28.451  1.00  0.00     0.049 A 
ATOM     40  H   UNL A   1      42.037  27.586  29.457  1.00  0.00     0.167 HD
ATOM     41  C   UNL A   1      43.200  31.102  31.787  1.00  0.00     0.031 A 
ATOM     42  C   UNL A   1      42.336  24.965  28.499  1.00  0.00     0.031 A 
ATOM     43  C   UNL A   1      44.294  30.170  31.903  1.00  0.00     0.049 A 
ATOM     44  C   UNL A   1      43.604  25.288  29.236  1.00  0.00     0.074 A 
ATOM     45  C   UNL A   1      45.476  30.324  32.607  1.00  0.00     0.029 A 
ATOM     46  N   UNL A   1      44.345  28.916  31.310  1.00  0.00    -0.354 N 
ATOM     47  N   UNL A   1      43.901  26.366  29.923  1.00  0.00    -0.248 NA
ATOM     48  C   UNL A   1      44.667  24.276  29.210  1.00  0.00     0.031 C 
ATOM     49  C   UNL A   1      46.272  29.202  32.377  1.00  0.00     0.029 A 
ATOM     50  C   UNL A   1      45.554  28.305  31.603  1.00  0.00     0.049 A 
ATOM     51  H   UNL A   1      43.628  28.519  30.764  1.00  0.00     0.167 HD
ATOM     52  C   UNL A   1      45.183  26.158  30.418  1.00  0.00     0.074 A 
ATOM     53  C   UNL A   1      45.588  24.837  29.983  1.00  0.00     0.031 C 
ATOM     54  C   UNL A   1      45.956  26.993  31.156  1.00  0.00     0.031 A 
BRANCH  41  55
ATOM     55  C   UNL A   1      43.335  32.425  32.501  1.00  0.00    -0.014 A 
ATOM     56  C   UNL A   1      42.836  32.565  33.811  1.00  0.00     0.010 A 
ATOM     57  C   UNL A   1      43.815  33.563  31.830  1.00  0.00     0.010 A 
ATOM     58  C   UNL A   1      42.769  33.824  34.416  1.00  0.00     0.020 A 
ATOM     59  C   UNL A   1      43.779  34.819  32.444  1.00  0.00     0.020 A 
ATOM     60  C   UNL A   1      43.228  34.946  33.722  1.00  0.00     0.054 A 
BRANCH  60  61
ATOM     61  S   UNL A   1      43.073  36.579  34.497  1.00  0.00     0.124 S 
ATOM     62  O   UNL A   1      44.125  36.543  35.507  1.00  0.00    -0.237 OA
ATOM     63  O   UNL A   1      43.303  37.486  33.375  1.00  0.00    -0.237 OA
ATOM     64  O   UNL A   1      41.706  36.582  35.017  1.00  0.00    -0.744 OA
ENDBRANCH  60  61
ENDBRANCH  41  55
BRANCH  42  65
ATOM     65  C   UNL A   1      42.124  23.643  27.841  1.00  0.00    -0.014 A 
ATOM     66  C   UNL A   1      41.498  22.592  28.539  1.00  0.00     0.010 A 
ATOM     67  C   UNL A   1      42.619  23.399  26.549  1.00  0.00     0.010 A 
ATOM     68  C   UNL A   1      41.436  21.309  27.991  1.00  0.00     0.020 A 
ATOM     69  C   UNL A   1      42.522  22.125  25.978  1.00  0.00     0.020 A 
ATOM     70  C   UNL A   1      41.962  21.081  26.718  1.00  0.00     0.054 A 
BRANCH  70  71
ATOM     71  S   UNL A   1      41.921  19.395  26.052  1.00  0.00     0.124 S 
ATOM     72  O   UNL A   1      42.464  18.621  27.165  1.00  0.00    -0.237 OA
ATOM     73  O   UNL A   1      40.499  19.194  25.781  1.00  0.00    -0.237 OA
ATOM     74  O   UNL A   1      42.774  19.472  24.869  1.00  0.00    -0.744 OA
ENDBRANCH  70  71
ENDBRANCH  42  65
BRANCH  54  75
ATOM     75  C   UNL A   1      47.338  26.524  31.537  1.00  0.00    -0.014 A 
ATOM     76  C   UNL A   1      48.397  26.636  30.616  1.00  0.00     0.010 A 
ATOM     77  C   UNL A   1      47.563  25.865  32.758  1.00  0.00     0.010 A 
ATOM     78  C   UNL A   1      49.643  26.068  30.893  1.00  0.00     0.020 A 
ATOM     79  C   UNL A   1      48.819  25.328  33.055  1.00  0.00     0.020 A 
ATOM     80  C   UNL A   1      49.843  25.411  32.109  1.00  0.00     0.054 A 
BRANCH  80  81
ATOM     81  S   UNL A   1      51.460  24.659  32.441  1.00  0.00     0.124 S 
ATOM     82  O   UNL A   1      51.237  23.269  32.055  1.00  0.00    -0.237 OA
ATOM     83  O   UNL A   1      52.352  25.420  31.569  1.00  0.00    -0.237 OA
ATOM     84  O   UNL A   1      51.658  24.886  33.871  1.00  0.00    -0.744 OA
ENDBRANCH  80  81
ENDBRANCH  54  75
ENDBRANCH  28  29
ENDBRANCH   2  23
TORSDOF 13
ENDMDL
MODEL 2
REMARK VINA RESULT:     -11.6      1.601      8.715
REMARK SMILES C[C@@H]1Oc2c(C(=O)NCCCNC(=O)c3ccc(-c4c5nc(c(-c6ccc(S(=O)(=O)[O-])cc6)c6ccc([nH]6)c(-c6ccc(S(=O)(=O)[O-])cc6)c6nc(c(-c7ccc(S(=O)(=O)[O-])cc7)c7ccc4[nH]7)C=C6)C=C5)cc3)cccc2[C@@H]1C
REMARK SMILES IDX 12 1 13 2 14 3 11 5 10 6 9 7 8 8 6 9 7 10 5 12 1 13 2 14
REMARK SMILES IDX 3 15 79 16 4 17 78 18 80 19 77 20 75 21 76 22 15 23 16 24
REMARK SMILES IDX 74 25 17 26 73 27 18 28 19 29 20 30 67 31 21 32 72 33 66 34
REMARK SMILES IDX 68 35 22 36 71 37 65 38 64 39 23 41 53 42 34 43 52 44 35 45
REMARK SMILES IDX 38 46 51 47 69 48 36 49 37 50 50 52 70 53 39 54 24 55 25 56
REMARK SMILES IDX 33 57 26 58 32 59 27 60 28 61 29 62 30 63 31 64 54 65 55 66
REMARK SMILES IDX 63 67 56 68 62 69 57 70 58 71 59 72 60 73 61 74 40 75 41 76
REMARK SMILES IDX 49 77 42 78 48 79 43 80 44 81 45 82 46 83 47 84
REMARK H PARENT 12 4 8 11 68 40 38 51
REMARK Flexibility Score: inf
ROOT
ATOM      1  N   UNL A   1      33.637  29.868  27.560  1.00  0.00    -0.352 N 
ATOM      2  C   UNL A   1      34.541  30.638  28.254  1.00  0.00     0.251 C 
ATOM      3  O   UNL A   1      34.184  31.727  28.692  1.00  0.00    -0.269 OA
ATOM      4  H   UNL A   1      32.811  30.337  27.303  1.00  0.00     0.163 HD
ENDROOT
BRANCH   1   5
ATOM      5  C   UNL A   1      33.699  28.472  27.141  1.00  0.00     0.118 C 
BRANCH   5   6
ATOM      6  C   UNL A   1      33.762  28.333  25.622  1.00  0.00     0.042 C 
BRANCH   6   7
ATOM      7  C   UNL A   1      33.479  26.909  25.146  1.00  0.00     0.118 C 
BRANCH   7   8
ATOM      8  N   UNL A   1      33.577  26.818  23.703  1.00  0.00    -0.352 N 
ATOM      9  C   UNL A   1      33.575  25.781  22.803  1.00  0.00     0.255 C 
ATOM     10  O   UNL A   1      33.700  26.117  21.624  1.00  0.00    -0.269 OA
ATOM     11  H   UNL A   1      33.667  27.698  23.269  1.00  0.00     0.163 HD
BRANCH   9  12
ATOM     12  C   UNL A   1      33.387  24.341  23.174  1.00  0.00     0.082 A 
ATOM     13  C   UNL A   1      37.176  23.572  25.959  1.00  0.00     0.053 C 
ATOM     14  C   UNL A   1      36.415  23.112  24.720  1.00  0.00     0.177 C 
ATOM     15  O   UNL A   1      35.591  24.209  24.263  1.00  0.00    -0.489 OA
ATOM     16  C   UNL A   1      35.534  21.852  24.878  1.00  0.00     0.060 C 
ATOM     17  C   UNL A   1      34.424  23.651  23.807  1.00  0.00     0.136 A 
ATOM     18  C   UNL A   1      34.337  22.294  24.109  1.00  0.00     0.001 A 
ATOM     19  C   UNL A   1      35.136  21.465  26.300  1.00  0.00     0.017 C 
ATOM     20  C   UNL A   1      33.211  21.558  23.788  1.00  0.00     0.008 A 
ATOM     21  C   UNL A   1      32.212  23.609  22.952  1.00  0.00     0.018 A 
ATOM     22  C   UNL A   1      32.133  22.231  23.225  1.00  0.00     0.001 A 
ENDBRANCH   9  12
ENDBRANCH   7   8
ENDBRANCH   6   7
ENDBRANCH   5   6
ENDBRANCH   1   5
BRANCH   2  23
ATOM     23  C   UNL A   1      35.923  30.161  28.486  1.00  0.00     0.039 A 
ATOM     24  C   UNL A   1      36.307  29.642  29.721  1.00  0.00     0.014 A 
ATOM     25  C   UNL A   1      36.843  30.196  27.432  1.00  0.00     0.014 A 
ATOM     26  C   UNL A   1      37.640  29.324  29.954  1.00  0.00     0.010 A 
ATOM     27  C   UNL A   1      38.161  29.776  27.638  1.00  0.00     0.010 A 
ATOM     28  C   UNL A   1      38.584  29.375  28.914  1.00  0.00    -0.014 A 
BRANCH  28  29
ATOM     29  C   UNL A   1      39.989  28.974  29.190  1.00  0.00     0.031 A 
ATOM     30  C   UNL A   1      40.502  27.616  28.792  1.00  0.00     0.074 A 
ATOM     31  C   UNL A   1      40.826  29.876  29.745  1.00  0.00     0.049 A 
ATOM     32  N   UNL A   1      41.716  27.138  28.891  1.00  0.00    -0.248 NA
ATOM     33  C   UNL A   1      39.535  26.669  28.212  1.00  0.00     0.031 C 
ATOM     34  C   UNL A   1      40.442  31.226  30.165  1.00  0.00     0.029 A 
ATOM     35  N   UNL A   1      42.171  29.818  30.013  1.00  0.00    -0.354 N 
ATOM     36  C   UNL A   1      41.660  25.841  28.394  1.00  0.00     0.074 A 
ATOM     37  C   UNL A   1      40.284  25.587  28.033  1.00  0.00     0.031 C 
ATOM     38  C   UNL A   1      41.535  31.892  30.562  1.00  0.00     0.029 A 
ATOM     39  C   UNL A   1      42.686  30.998  30.502  1.00  0.00     0.049 A 
ATOM     40  H   UNL A   1      42.716  29.010  29.869  1.00  0.00     0.167 HD
ATOM     41  C   UNL A   1      42.670  24.953  28.233  1.00  0.00     0.031 A 
ATOM     42  C   UNL A   1      43.940  31.330  30.866  1.00  0.00     0.031 A 
ATOM     43  C   UNL A   1      44.042  25.224  28.582  1.00  0.00     0.049 A 
ATOM     44  C   UNL A   1      45.033  30.309  30.721  1.00  0.00     0.074 A 
ATOM     45  C   UNL A   1      45.141  24.395  28.432  1.00  0.00     0.029 A 
ATOM     46  N   UNL A   1      44.509  26.405  29.143  1.00  0.00    -0.354 N 
ATOM     47  N   UNL A   1      44.962  29.099  30.220  1.00  0.00    -0.248 NA
ATOM     48  C   UNL A   1      46.371  30.694  31.187  1.00  0.00     0.031 C 
ATOM     49  C   UNL A   1      46.254  25.041  28.972  1.00  0.00     0.029 A 
ATOM     50  C   UNL A   1      45.871  26.309  29.379  1.00  0.00     0.049 A 
ATOM     51  H   UNL A   1      43.954  27.194  29.342  1.00  0.00     0.167 HD
ATOM     52  C   UNL A   1      46.249  28.580  30.302  1.00  0.00     0.074 A 
ATOM     53  C   UNL A   1      47.083  29.622  30.866  1.00  0.00     0.031 C 
ATOM     54  C   UNL A   1      46.694  27.348  29.952  1.00  0.00     0.031 A 
BRANCH  41  55
ATOM     55  C   UNL A   1      42.358  23.600  27.639  1.00  0.00    -0.014 A 
ATOM     56  C   UNL A   1      42.035  22.524  28.487  1.00  0.00     0.010 A 
ATOM     57  C   UNL A   1      42.531  23.357  26.265  1.00  0.00     0.010 A 
ATOM     58  C   UNL A   1      41.939  21.223  27.981  1.00  0.00     0.020 A 
ATOM     59  C   UNL A   1      42.404  22.063  25.751  1.00  0.00     0.020 A 
ATOM     60  C   UNL A   1      42.138  21.000  26.617  1.00  0.00     0.054 A 
BRANCH  60  61
ATOM     61  S   UNL A   1      42.074  19.298  25.990  1.00  0.00     0.124 S 
ATOM     62  O   UNL A   1      42.557  18.530  27.133  1.00  0.00    -0.237 OA
ATOM     63  O   UNL A   1      40.659  19.132  25.669  1.00  0.00    -0.237 OA
ATOM     64  O   UNL A   1      42.967  19.326  24.833  1.00  0.00    -0.744 OA
ENDBRANCH  60  61
ENDBRANCH  41  55
BRANCH  42  65
ATOM     65  C   UNL A   1      44.212  32.706  31.376  1.00  0.00    -0.014 A 
ATOM     66  C   UNL A   1      43.883  33.052  32.701  1.00  0.00     0.010 A 
ATOM     67  C   UNL A   1      44.722  33.698  30.522  1.00  0.00     0.010 A 
ATOM     68  C   UNL A   1      43.988  34.373  33.140  1.00  0.00     0.020 A 
ATOM     69  C   UNL A   1      44.869  35.016  30.970  1.00  0.00     0.020 A 
ATOM     70  C   UNL A   1      44.468  35.351  32.265  1.00  0.00     0.054 A 
BRANCH  70  71
ATOM     71  S   UNL A   1      44.540  37.069  32.840  1.00  0.00     0.124 S 
ATOM     72  O   UNL A   1      44.635  37.802  31.581  1.00  0.00    -0.237 OA
ATOM     73  O   UNL A   1      43.277  37.217  33.561  1.00  0.00    -0.237 OA
ATOM     74  O   UNL A   1      45.738  37.101  33.675  1.00  0.00    -0.744 OA
ENDBRANCH  70  71
ENDBRANCH  42  65
BRANCH  54  75
ATOM     75  C   UNL A   1      48.151  27.031  30.180  1.00  0.00    -0.014 A 
ATOM     76  C   UNL A   1      48.560  26.437  31.388  1.00  0.00     0.010 A 
ATOM     77  C   UNL A   1      49.127  27.429  29.249  1.00  0.00     0.010 A 
ATOM     78  C   UNL A   1      49.918  26.280  31.679  1.00  0.00     0.020 A 
ATOM     79  C   UNL A   1      50.486  27.238  29.520  1.00  0.00     0.020 A 
ATOM     80  C   UNL A   1      50.873  26.689  30.744  1.00  0.00     0.054 A 
BRANCH  80  81
ATOM     81  S   UNL A   1      52.629  26.498  31.149  1.00  0.00     0.124 S 
ATOM     82  O   UNL A   1      53.231  26.325  29.829  1.00  0.00    -0.237 OA
ATOM     83  O   UNL A   1      52.942  27.755  31.824  1.00  0.00    -0.237 OA
ATOM     84  O   UNL A   1      52.658  25.315  32.007  1.00  0.00    -0.744 OA
ENDBRANCH  80  81
ENDBRANCH  54  75
ENDBRANCH  28  29
ENDBRANCH   2  23
TORSDOF 13
ENDMDL
MODEL 3
REMARK VINA RESULT:     -11.5      2.730      9.558
REMARK SMILES C[C@@H]1Oc2c(C(=O)NCCCNC(=O)c3ccc(-c4c5nc(c(-c6ccc(S(=O)(=O)[O-])cc6)c6ccc([nH]6)c(-c6ccc(S(=O)(=O)[O-])cc6)c6nc(c(-c7ccc(S(=O)(=O)[O-])cc7)c7ccc4[nH]7)C=C6)C=C5)cc3)cccc2[C@@H]1C
REMARK SMILES IDX 12 1 13 2 14 3 11 5 10 6 9 7 8 8 6 9 7 10 5 12 1 13 2 14
REMARK SMILES IDX 3 15 79 16 4 17 78 18 80 19 77 20 75 21 76 22 15 23 16 24
REMARK SMILES IDX 74 25 17 26 73 27 18 28 19 29 20 30 67 31 21 32 72 33 66 34
REMARK SMILES IDX 68 35 22 36 71 37 65 38 64 39 23 41 53 42 34 43 52 44 35 45
REMARK SMILES IDX 38 46 51 47 69 48 36 49 37 50 50 52 70 53 39 54 24 55 25 56
REMARK SMILES IDX 33 57 26 58 32 59 27 60 28 61 29 62 30 63 31 64 54 65 55 66
REMARK SMILES IDX 63 67 56 68 62 69 57 70 58 71 59 72 60 73 61 74 40 75 41 76
REMARK SMILES IDX 49 77 42 78 48 79 43 80 44 81 45 82 46 83 47 84
REMARK H PARENT 12 4 8 11 68 40 38 51
REMARK Flexibility Score: inf
ROOT
ATOM      1  N   UNL A   1      37.756  22.730  25.570  1.00  0.00    -0.352 N 
ATOM      2  C   UNL A   1      38.992  22.896  26.149  1.00  0.00     0.251 C 
ATOM      3  O   UNL A   1      39.799  21.974  26.107  1.00  0.00    -0.269 OA
ATOM      4  H   UNL A   1      37.540  21.802  25.323  1.00  0.00     0.163 HD
ENDROOT
BRANCH   1   5
ATOM      5  C   UNL A   1      36.709  23.699  25.263  1.00  0.00     0.118 C 
BRANCH   5   6
ATOM      6  C   UNL A   1      35.500  23.548  26.183  1.00  0.00     0.042 C 
BRANCH   6   7
ATOM      7  C   UNL A   1      34.195  23.988  25.522  1.00  0.00     0.118 C 
BRANCH   7   8
ATOM      8  N   UNL A   1      33.058  23.671  26.363  1.00  0.00    -0.352 N 
ATOM      9  C   UNL A   1      31.809  24.215  26.535  1.00  0.00     0.255 C 
ATOM     10  O   UNL A   1      31.112  23.655  27.384  1.00  0.00    -0.269 OA
ATOM     11  H   UNL A   1      33.217  22.890  26.942  1.00  0.00     0.163 HD
BRANCH   9  12
ATOM     12  C   UNL A   1      31.273  25.368  25.742  1.00  0.00     0.082 A 
ATOM     13  C   UNL A   1      34.147  28.903  27.135  1.00  0.00     0.053 C 
ATOM     14  C   UNL A   1      32.700  28.440  27.004  1.00  0.00     0.177 C 
ATOM     15  O   UNL A   1      32.694  26.996  26.920  1.00  0.00    -0.489 OA
ATOM     16  C   UNL A   1      31.893  29.017  25.819  1.00  0.00     0.060 C 
ATOM     17  C   UNL A   1      31.698  26.665  26.037  1.00  0.00     0.136 A 
ATOM     18  C   UNL A   1      31.180  27.783  25.386  1.00  0.00     0.001 A 
ATOM     19  C   UNL A   1      32.698  29.598  24.659  1.00  0.00     0.017 C 
ATOM     20  C   UNL A   1      30.207  27.658  24.410  1.00  0.00     0.008 A 
ATOM     21  C   UNL A   1      30.367  25.249  24.679  1.00  0.00     0.018 A 
ATOM     22  C   UNL A   1      29.816  26.376  24.042  1.00  0.00     0.001 A 
ENDBRANCH   9  12
ENDBRANCH   7   8
ENDBRANCH   6   7
ENDBRANCH   5   6
ENDBRANCH   1   5
BRANCH   2  23
ATOM     23  C   UNL A   1      39.356  24.173  26.804  1.00  0.00     0.039 A 
ATOM     24  C   UNL A   1      40.063  25.159  26.115  1.00  0.00     0.014 A 
ATOM     25  C   UNL A   1      38.947  24.405  28.122  1.00  0.00     0.014 A 
ATOM     26  C   UNL A   1      40.507  26.290  26.790  1.00  0.00     0.010 A 
ATOM     27  C   UNL A   1      39.305  25.594  28.767  1.00  0.00     0.010 A 
ATOM     28  C   UNL A   1      40.125  26.530  28.121  1.00  0.00    -0.014 A 
BRANCH  28  29
ATOM     29  C   UNL A   1      40.576  27.780  28.790  1.00  0.00     0.031 A 
ATOM     30  C   UNL A   1      42.011  27.963  29.206  1.00  0.00     0.074 A 
ATOM     31  C   UNL A   1      39.689  28.783  28.960  1.00  0.00     0.049 A 
ATOM     32  N   UNL A   1      42.583  29.018  29.730  1.00  0.00    -0.248 NA
ATOM     33  C   UNL A   1      42.925  26.825  29.015  1.00  0.00     0.031 C 
ATOM     34  C   UNL A   1      38.273  28.720  28.589  1.00  0.00     0.029 A 
ATOM     35  N   UNL A   1      39.847  30.058  29.443  1.00  0.00    -0.354 N 
ATOM     36  C   UNL A   1      43.913  28.671  29.935  1.00  0.00     0.074 A 
ATOM     37  C   UNL A   1      44.058  27.294  29.521  1.00  0.00     0.031 C 
ATOM     38  C   UNL A   1      37.713  29.922  28.783  1.00  0.00     0.029 A 
ATOM     39  C   UNL A   1      38.703  30.821  29.366  1.00  0.00     0.049 A 
ATOM     40  H   UNL A   1      40.696  30.395  29.810  1.00  0.00     0.167 HD
ATOM     41  C   UNL A   1      44.924  29.440  30.405  1.00  0.00     0.031 A 
ATOM     42  C   UNL A   1      38.468  32.099  29.723  1.00  0.00     0.031 A 
ATOM     43  C   UNL A   1      44.770  30.818  30.800  1.00  0.00     0.049 A 
ATOM     44  C   UNL A   1      39.597  32.914  30.286  1.00  0.00     0.074 A 
ATOM     45  C   UNL A   1      45.742  31.687  31.264  1.00  0.00     0.029 A 
ATOM     46  N   UNL A   1      43.579  31.531  30.775  1.00  0.00    -0.354 N 
ATOM     47  N   UNL A   1      40.855  32.575  30.442  1.00  0.00    -0.248 NA
ATOM     48  C   UNL A   1      39.281  34.282  30.719  1.00  0.00     0.031 C 
ATOM     49  C   UNL A   1      45.128  32.895  31.594  1.00  0.00     0.029 A 
ATOM     50  C   UNL A   1      43.788  32.815  31.252  1.00  0.00     0.049 A 
ATOM     51  H   UNL A   1      42.715  31.177  30.463  1.00  0.00     0.167 HD
ATOM     52  C   UNL A   1      41.482  33.691  30.985  1.00  0.00     0.074 A 
ATOM     53  C   UNL A   1      40.474  34.725  31.093  1.00  0.00     0.031 C 
ATOM     54  C   UNL A   1      42.776  33.837  31.367  1.00  0.00     0.031 A 
BRANCH  41  55
ATOM     55  C   UNL A   1      46.304  28.837  30.512  1.00  0.00    -0.014 A 
ATOM     56  C   UNL A   1      47.171  28.876  29.403  1.00  0.00     0.010 A 
ATOM     57  C   UNL A   1      46.686  28.103  31.649  1.00  0.00     0.010 A 
ATOM     58  C   UNL A   1      48.369  28.154  29.410  1.00  0.00     0.020 A 
ATOM     59  C   UNL A   1      47.898  27.406  31.672  1.00  0.00     0.020 A 
ATOM     60  C   UNL A   1      48.718  27.412  30.541  1.00  0.00     0.054 A 
BRANCH  60  61
ATOM     61  S   UNL A   1      50.243  26.430  30.506  1.00  0.00     0.124 S 
ATOM     62  O   UNL A   1      51.150  27.295  29.759  1.00  0.00    -0.237 OA
ATOM     63  O   UNL A   1      50.548  26.269  31.926  1.00  0.00    -0.237 OA
ATOM     64  O   UNL A   1      49.844  25.202  29.821  1.00  0.00    -0.744 OA
ENDBRANCH  60  61
ENDBRANCH  41  55
BRANCH  42  65
ATOM     65  C   UNL A   1      37.105  32.674  29.527  1.00  0.00    -0.014 A 
ATOM     66  C   UNL A   1      36.696  33.118  28.254  1.00  0.00     0.010 A 
ATOM     67  C   UNL A   1      36.242  32.857  30.620  1.00  0.00     0.010 A 
ATOM     68  C   UNL A   1      35.487  33.797  28.091  1.00  0.00     0.020 A 
ATOM     69  C   UNL A   1      35.010  33.501  30.454  1.00  0.00     0.020 A 
ATOM     70  C   UNL A   1      34.657  33.997  29.197  1.00  0.00     0.054 A 
BRANCH  70  71
ATOM     71  S   UNL A   1      33.121  34.933  28.970  1.00  0.00     0.124 S 
ATOM     72  O   UNL A   1      32.430  34.134  27.963  1.00  0.00    -0.237 OA
ATOM     73  O   UNL A   1      32.532  34.906  30.308  1.00  0.00    -0.237 OA
ATOM     74  O   UNL A   1      33.581  36.245  28.521  1.00  0.00    -0.744 OA
ENDBRANCH  70  71
ENDBRANCH  42  65
BRANCH  54  75
ATOM     75  C   UNL A   1      43.190  35.159  31.963  1.00  0.00    -0.014 A 
ATOM     76  C   UNL A   1      42.975  35.413  33.330  1.00  0.00     0.010 A 
ATOM     77  C   UNL A   1      43.683  36.193  31.146  1.00  0.00     0.010 A 
ATOM     78  C   UNL A   1      43.210  36.683  33.863  1.00  0.00     0.020 A 
ATOM     79  C   UNL A   1      43.955  37.454  31.684  1.00  0.00     0.020 A 
ATOM     80  C   UNL A   1      43.692  37.699  33.033  1.00  0.00     0.054 A 
BRANCH  80  81
ATOM     81  S   UNL A   1      43.968  39.346  33.738  1.00  0.00     0.124 S 
ATOM     82  O   UNL A   1      44.007  39.065  35.170  1.00  0.00    -0.237 OA
ATOM     83  O   UNL A   1      45.240  39.743  33.139  1.00  0.00    -0.237 OA
ATOM     84  O   UNL A   1      42.809  40.113  33.285  1.00  0.00    -0.744 OA
ENDBRANCH  80  81
ENDBRANCH  54  75
ENDBRANCH  28  29
ENDBRANCH   2  23
TORSDOF 13
ENDMDL
