MODEL 1
REMARK VINA RESULT:     -13.2      0.000      0.000
REMARK SMILES C[C@@H]1C(C(=O)NCCCNC(=O)c2ccc(-c3c4nc(c(-c5ccc(S(=O)(=O)[O-])cc5)c5ccc([nH]5)c(-c5ccc(S(=O)(=O)[O-])cc5)c5nc(c(-c6ccc(S(=O)(=O)[O-])cc6)c6ccc3[nH]6)C=C5)C=C4)cc2)=NC2=C1C(=O)C[C@H](c1ccccc1)C2
REMARK SMILES IDX 9 1 8 2 7 3 6 4 4 5 5 6 3 8 1 9 2 10 75 11 73 12 74 13 76 14
REMARK SMILES IDX 86 15 77 16 78 17 79 18 80 19 81 20 85 21 82 22 84 23 83 24
REMARK SMILES IDX 10 25 11 26 12 28 13 29 14 30 72 31 15 32 71 33 16 34 17 35
REMARK SMILES IDX 18 36 65 37 19 38 70 39 64 40 66 41 20 42 69 43 63 44 62 45
REMARK SMILES IDX 21 47 51 48 32 49 50 50 33 51 36 52 49 53 67 54 34 55 35 56
REMARK SMILES IDX 48 58 68 59 37 60 22 61 23 62 31 63 24 64 30 65 25 66 26 67
REMARK SMILES IDX 27 68 28 69 29 70 52 71 53 72 61 73 54 74 60 75 55 76 56 77
REMARK SMILES IDX 57 78 58 79 59 80 38 81 39 82 47 83 40 84 46 85 41 86 42 87
REMARK SMILES IDX 43 88 44 89 45 90
REMARK H PARENT 6 7 10 27 66 46 36 57
REMARK Flexibility Score: inf
ROOT
ATOM      1  C   UNL A   1      38.528  23.339  26.184  1.00  0.00     0.118 C 
ENDROOT
BRANCH   1   2
ATOM      2  C   UNL A   1      37.380  22.676  25.444  1.00  0.00     0.042 C 
BRANCH   2   3
ATOM      3  C   UNL A   1      36.355  23.707  24.965  1.00  0.00     0.118 C 
BRANCH   3   4
ATOM      4  N   UNL A   1      35.311  24.032  25.927  1.00  0.00    -0.351 N 
ATOM      5  C   UNL A   1      34.219  23.248  26.268  1.00  0.00     0.266 C 
ATOM      6  O   UNL A   1      33.965  23.027  27.446  1.00  0.00    -0.268 OA
ATOM      7  H   UNL A   1      35.389  24.901  26.384  1.00  0.00     0.163 HD
BRANCH   5   8
ATOM      8  C   UNL A   1      33.192  22.880  25.202  1.00  0.00     0.113 C 
ATOM      9  C   UNL A   1      33.218  20.669  24.105  1.00  0.00     0.020 C 
ATOM     10  C   UNL A   1      33.541  22.151  23.936  1.00  0.00     0.076 C 
ATOM     11  C   UNL A   1      32.518  22.896  23.156  1.00  0.00     0.026 C 
ATOM     12  N   UNL A   1      31.941  23.262  25.278  1.00  0.00    -0.251 NA
ATOM     13  C   UNL A   1      31.538  23.319  23.959  1.00  0.00     0.049 C 
ATOM     14  C   UNL A   1      32.928  23.832  22.086  1.00  0.00     0.161 C 
ATOM     15  C   UNL A   1      30.585  24.379  23.494  1.00  0.00     0.065 C 
ATOM     16  O   UNL A   1      33.718  23.439  21.227  1.00  0.00    -0.294 OA
ATOM     17  C   UNL A   1      32.481  25.302  22.158  1.00  0.00     0.089 C 
ATOM     18  C   UNL A   1      31.404  25.661  23.233  1.00  0.00     0.033 C 
BRANCH  18  19
ATOM     19  C   UNL A   1      31.914  26.333  24.525  1.00  0.00    -0.044 A 
ATOM     20  C   UNL A   1      33.286  26.602  24.714  1.00  0.00     0.004 A 
ATOM     21  C   UNL A   1      31.060  26.670  25.583  1.00  0.00     0.004 A 
ATOM     22  C   UNL A   1      33.763  27.307  25.820  1.00  0.00     0.000 A 
ATOM     23  C   UNL A   1      31.539  27.354  26.711  1.00  0.00     0.000 A 
ATOM     24  C   UNL A   1      32.883  27.700  26.814  1.00  0.00     0.000 A 
ENDBRANCH  18  19
ENDBRANCH   5   8
ENDBRANCH   3   4
ENDBRANCH   2   3
ENDBRANCH   1   2
BRANCH   1  25
ATOM     25  N   UNL A   1      39.735  22.494  26.303  1.00  0.00    -0.352 N 
ATOM     26  C   UNL A   1      41.060  22.892  26.433  1.00  0.00     0.251 C 
ATOM     27  H   UNL A   1      39.580  21.522  26.288  1.00  0.00     0.163 HD
ATOM     28  O   UNL A   1      41.979  22.086  26.316  1.00  0.00    -0.269 OA
BRANCH  26  29
ATOM     29  C   UNL A   1      41.321  24.309  26.724  1.00  0.00     0.039 A 
ATOM     30  C   UNL A   1      41.127  25.343  25.805  1.00  0.00     0.014 A 
ATOM     31  C   UNL A   1      41.625  24.581  28.045  1.00  0.00     0.014 A 
ATOM     32  C   UNL A   1      41.148  26.654  26.280  1.00  0.00     0.010 A 
ATOM     33  C   UNL A   1      41.289  25.798  28.542  1.00  0.00     0.010 A 
ATOM     34  C   UNL A   1      41.206  26.864  27.666  1.00  0.00    -0.014 A 
BRANCH  34  35
ATOM     35  C   UNL A   1      41.149  28.171  28.296  1.00  0.00     0.031 A 
ATOM     36  C   UNL A   1      42.220  29.108  27.894  1.00  0.00     0.074 A 
ATOM     37  C   UNL A   1      40.055  28.582  28.977  1.00  0.00     0.049 A 
ATOM     38  N   UNL A   1      43.248  29.455  28.589  1.00  0.00    -0.248 NA
ATOM     39  C   UNL A   1      42.242  29.600  26.507  1.00  0.00     0.031 C 
ATOM     40  C   UNL A   1      38.769  27.891  29.183  1.00  0.00     0.029 A 
ATOM     41  N   UNL A   1      39.821  29.792  29.539  1.00  0.00    -0.354 N 
ATOM     42  C   UNL A   1      43.920  30.402  27.827  1.00  0.00     0.074 A 
ATOM     43  C   UNL A   1      43.388  30.286  26.492  1.00  0.00     0.031 C 
ATOM     44  C   UNL A   1      37.835  28.772  29.604  1.00  0.00     0.029 A 
ATOM     45  C   UNL A   1      38.498  30.027  29.894  1.00  0.00     0.049 A 
ATOM     46  H   UNL A   1      40.534  30.455  29.685  1.00  0.00     0.167 HD
ATOM     47  C   UNL A   1      44.666  31.380  28.414  1.00  0.00     0.031 A 
ATOM     48  C   UNL A   1      37.988  31.176  30.399  1.00  0.00     0.031 A 
ATOM     49  C   UNL A   1      44.840  31.133  29.826  1.00  0.00     0.049 A 
ATOM     50  C   UNL A   1      39.133  31.910  30.994  1.00  0.00     0.074 A 
ATOM     51  C   UNL A   1      45.404  30.116  30.572  1.00  0.00     0.029 A 
ATOM     52  N   UNL A   1      43.993  31.804  30.682  1.00  0.00    -0.354 N 
ATOM     53  N   UNL A   1      39.821  31.449  32.004  1.00  0.00    -0.248 NA
ATOM     54  C   UNL A   1      39.826  32.888  30.169  1.00  0.00     0.031 C 
ATOM     55  C   UNL A   1      44.509  29.930  31.668  1.00  0.00     0.029 A 
ATOM     56  C   UNL A   1      43.498  30.891  31.579  1.00  0.00     0.049 A 
ATOM     57  H   UNL A   1      43.782  32.765  30.653  1.00  0.00     0.167 HD
ATOM     58  C   UNL A   1      41.145  31.731  31.698  1.00  0.00     0.074 A 
ATOM     59  C   UNL A   1      41.077  32.705  30.607  1.00  0.00     0.031 C 
ATOM     60  C   UNL A   1      42.166  30.944  32.155  1.00  0.00     0.031 A 
BRANCH  47  61
ATOM     61  C   UNL A   1      44.893  32.746  27.817  1.00  0.00    -0.014 A 
ATOM     62  C   UNL A   1      46.193  33.092  27.400  1.00  0.00     0.010 A 
ATOM     63  C   UNL A   1      43.946  33.787  27.890  1.00  0.00     0.010 A 
ATOM     64  C   UNL A   1      46.544  34.423  27.140  1.00  0.00     0.020 A 
ATOM     65  C   UNL A   1      44.273  35.111  27.593  1.00  0.00     0.020 A 
ATOM     66  C   UNL A   1      45.581  35.425  27.255  1.00  0.00     0.054 A 
BRANCH  66  67
ATOM     67  S   UNL A   1      46.070  37.152  27.030  1.00  0.00     0.124 S 
ATOM     68  O   UNL A   1      44.778  37.807  26.849  1.00  0.00    -0.237 OA
ATOM     69  O   UNL A   1      46.759  37.444  28.284  1.00  0.00    -0.237 OA
ATOM     70  O   UNL A   1      46.926  37.115  25.848  1.00  0.00    -0.744 OA
ENDBRANCH  66  67
ENDBRANCH  47  61
BRANCH  48  71
ATOM     71  C   UNL A   1      36.678  31.797  30.083  1.00  0.00    -0.014 A 
ATOM     72  C   UNL A   1      35.907  32.427  31.078  1.00  0.00     0.010 A 
ATOM     73  C   UNL A   1      36.312  32.019  28.738  1.00  0.00     0.010 A 
ATOM     74  C   UNL A   1      34.854  33.295  30.739  1.00  0.00     0.020 A 
ATOM     75  C   UNL A   1      35.265  32.881  28.392  1.00  0.00     0.020 A 
ATOM     76  C   UNL A   1      34.555  33.535  29.394  1.00  0.00     0.054 A 
BRANCH  76  77
ATOM     77  S   UNL A   1      33.319  34.799  28.960  1.00  0.00     0.124 S 
ATOM     78  O   UNL A   1      32.519  34.118  27.947  1.00  0.00    -0.237 OA
ATOM     79  O   UNL A   1      32.652  35.041  30.236  1.00  0.00    -0.237 OA
ATOM     80  O   UNL A   1      34.128  35.914  28.468  1.00  0.00    -0.744 OA
ENDBRANCH  76  77
ENDBRANCH  48  71
BRANCH  60  81
ATOM     81  C   UNL A   1      41.844  29.875  33.183  1.00  0.00    -0.014 A 
ATOM     82  C   UNL A   1      41.329  28.605  32.850  1.00  0.00     0.010 A 
ATOM     83  C   UNL A   1      42.251  30.097  34.509  1.00  0.00     0.010 A 
ATOM     84  C   UNL A   1      41.215  27.593  33.819  1.00  0.00     0.020 A 
ATOM     85  C   UNL A   1      42.154  29.090  35.475  1.00  0.00     0.020 A 
ATOM     86  C   UNL A   1      41.634  27.844  35.128  1.00  0.00     0.054 A 
BRANCH  86  87
ATOM     87  S   UNL A   1      41.552  26.514  36.364  1.00  0.00     0.124 S 
ATOM     88  O   UNL A   1      40.714  27.100  37.406  1.00  0.00    -0.237 OA
ATOM     89  O   UNL A   1      40.951  25.411  35.619  1.00  0.00    -0.237 OA
ATOM     90  O   UNL A   1      42.950  26.304  36.742  1.00  0.00    -0.744 OA
ENDBRANCH  86  87
ENDBRANCH  60  81
ENDBRANCH  34  35
ENDBRANCH  26  29
ENDBRANCH   1  25
TORSDOF 14
ENDMDL
MODEL 2
REMARK VINA RESULT:     -13.1      3.571      7.885
REMARK SMILES C[C@@H]1C(C(=O)NCCCNC(=O)c2ccc(-c3c4nc(c(-c5ccc(S(=O)(=O)[O-])cc5)c5ccc([nH]5)c(-c5ccc(S(=O)(=O)[O-])cc5)c5nc(c(-c6ccc(S(=O)(=O)[O-])cc6)c6ccc3[nH]6)C=C5)C=C4)cc2)=NC2=C1C(=O)C[C@H](c1ccccc1)C2
REMARK SMILES IDX 9 1 8 2 7 3 6 4 4 5 5 6 3 8 1 9 2 10 75 11 73 12 74 13 76 14
REMARK SMILES IDX 86 15 77 16 78 17 79 18 80 19 81 20 85 21 82 22 84 23 83 24
REMARK SMILES IDX 10 25 11 26 12 28 13 29 14 30 72 31 15 32 71 33 16 34 17 35
REMARK SMILES IDX 18 36 65 37 19 38 70 39 64 40 66 41 20 42 69 43 63 44 62 45
REMARK SMILES IDX 21 47 51 48 32 49 50 50 33 51 36 52 49 53 67 54 34 55 35 56
REMARK SMILES IDX 48 58 68 59 37 60 22 61 23 62 31 63 24 64 30 65 25 66 26 67
REMARK SMILES IDX 27 68 28 69 29 70 52 71 53 72 61 73 54 74 60 75 55 76 56 77
REMARK SMILES IDX 57 78 58 79 59 80 38 81 39 82 47 83 40 84 46 85 41 86 42 87
REMARK SMILES IDX 43 88 44 89 45 90
REMARK H PARENT 6 7 10 27 66 46 36 57
REMARK Flexibility Score: inf
ROOT
ATOM      1  C   UNL A   1      38.372  21.267  25.460  1.00  0.00     0.118 C 
ENDROOT
BRANCH   1   2
ATOM      2  C   UNL A   1      37.039  21.194  24.737  1.00  0.00     0.042 C 
BRANCH   2   3
ATOM      3  C   UNL A   1      35.866  21.303  25.715  1.00  0.00     0.118 C 
BRANCH   3   4
ATOM      4  N   UNL A   1      35.351  22.651  25.912  1.00  0.00    -0.351 N 
ATOM      5  C   UNL A   1      34.028  23.017  26.106  1.00  0.00     0.266 C 
ATOM      6  O   UNL A   1      33.722  23.748  27.040  1.00  0.00    -0.268 OA
ATOM      7  H   UNL A   1      36.013  23.380  25.907  1.00  0.00     0.163 HD
BRANCH   5   8
ATOM      8  C   UNL A   1      32.998  22.728  25.018  1.00  0.00     0.113 C 
ATOM      9  C   UNL A   1      32.932  20.550  23.858  1.00  0.00     0.020 C 
ATOM     10  C   UNL A   1      33.327  22.019  23.736  1.00  0.00     0.076 C 
ATOM     11  C   UNL A   1      32.351  22.833  22.965  1.00  0.00     0.026 C 
ATOM     12  N   UNL A   1      31.765  23.168  25.091  1.00  0.00    -0.251 NA
ATOM     13  C   UNL A   1      31.382  23.280  23.769  1.00  0.00     0.049 C 
ATOM     14  C   UNL A   1      32.819  23.778  21.927  1.00  0.00     0.161 C 
ATOM     15  C   UNL A   1      30.487  24.398  23.323  1.00  0.00     0.065 C 
ATOM     16  O   UNL A   1      33.600  23.372  21.067  1.00  0.00    -0.294 OA
ATOM     17  C   UNL A   1      32.441  25.265  22.036  1.00  0.00     0.089 C 
ATOM     18  C   UNL A   1      31.369  25.646  23.109  1.00  0.00     0.033 C 
BRANCH  18  19
ATOM     19  C   UNL A   1      31.894  26.256  24.425  1.00  0.00    -0.044 A 
ATOM     20  C   UNL A   1      33.278  26.418  24.653  1.00  0.00     0.004 A 
ATOM     21  C   UNL A   1      31.040  26.639  25.468  1.00  0.00     0.004 A 
ATOM     22  C   UNL A   1      33.777  27.067  25.782  1.00  0.00     0.000 A 
ATOM     23  C   UNL A   1      31.540  27.266  26.619  1.00  0.00     0.000 A 
ATOM     24  C   UNL A   1      32.903  27.509  26.762  1.00  0.00     0.000 A 
ENDBRANCH  18  19
ENDBRANCH   5   8
ENDBRANCH   3   4
ENDBRANCH   2   3
ENDBRANCH   1   2
BRANCH   1  25
ATOM     25  N   UNL A   1      39.081  19.974  25.548  1.00  0.00    -0.352 N 
ATOM     26  C   UNL A   1      40.404  19.734  25.898  1.00  0.00     0.251 C 
ATOM     27  H   UNL A   1      38.546  19.177  25.329  1.00  0.00     0.163 HD
ATOM     28  O   UNL A   1      40.916  18.631  25.730  1.00  0.00    -0.269 OA
BRANCH  26  29
ATOM     29  C   UNL A   1      41.167  20.848  26.483  1.00  0.00     0.039 A 
ATOM     30  C   UNL A   1      41.979  21.710  25.743  1.00  0.00     0.014 A 
ATOM     31  C   UNL A   1      40.898  21.094  27.817  1.00  0.00     0.014 A 
ATOM     32  C   UNL A   1      42.427  22.878  26.362  1.00  0.00     0.010 A 
ATOM     33  C   UNL A   1      41.029  22.365  28.272  1.00  0.00     0.010 A 
ATOM     34  C   UNL A   1      41.918  23.204  27.628  1.00  0.00    -0.014 A 
BRANCH  34  35
ATOM     35  C   UNL A   1      42.234  24.428  28.342  1.00  0.00     0.031 A 
ATOM     36  C   UNL A   1      41.273  25.535  28.146  1.00  0.00     0.074 A 
ATOM     37  C   UNL A   1      43.173  24.458  29.316  1.00  0.00     0.049 A 
ATOM     38  N   UNL A   1      41.443  26.591  27.427  1.00  0.00    -0.248 NA
ATOM     39  C   UNL A   1      39.910  25.387  28.678  1.00  0.00     0.031 C 
ATOM     40  C   UNL A   1      43.986  23.356  29.863  1.00  0.00     0.029 A 
ATOM     41  N   UNL A   1      43.515  25.491  30.122  1.00  0.00    -0.354 N 
ATOM     42  C   UNL A   1      40.305  27.364  27.613  1.00  0.00     0.074 A 
ATOM     43  C   UNL A   1      39.322  26.487  28.202  1.00  0.00     0.031 C 
ATOM     44  C   UNL A   1      44.531  23.728  31.042  1.00  0.00     0.029 A 
ATOM     45  C   UNL A   1      44.282  25.143  31.227  1.00  0.00     0.049 A 
ATOM     46  H   UNL A   1      43.240  26.419  29.939  1.00  0.00     0.167 HD
ATOM     47  C   UNL A   1      40.350  28.722  27.513  1.00  0.00     0.031 A 
ATOM     48  C   UNL A   1      44.688  25.968  32.222  1.00  0.00     0.031 A 
ATOM     49  C   UNL A   1      41.611  29.168  26.970  1.00  0.00     0.049 A 
ATOM     50  C   UNL A   1      44.643  27.342  31.663  1.00  0.00     0.074 A 
ATOM     51  C   UNL A   1      42.288  28.957  25.784  1.00  0.00     0.029 A 
ATOM     52  N   UNL A   1      42.561  29.591  27.876  1.00  0.00    -0.354 N 
ATOM     53  N   UNL A   1      45.394  27.726  30.666  1.00  0.00    -0.248 NA
ATOM     54  C   UNL A   1      43.433  28.126  31.863  1.00  0.00     0.031 C 
ATOM     55  C   UNL A   1      43.652  28.788  26.167  1.00  0.00     0.029 A 
ATOM     56  C   UNL A   1      43.749  28.986  27.547  1.00  0.00     0.049 A 
ATOM     57  H   UNL A   1      42.413  30.215  28.623  1.00  0.00     0.167 HD
ATOM     58  C   UNL A   1      44.562  28.493  29.861  1.00  0.00     0.074 A 
ATOM     59  C   UNL A   1      43.398  28.785  30.699  1.00  0.00     0.031 C 
ATOM     60  C   UNL A   1      44.757  28.578  28.510  1.00  0.00     0.031 A 
BRANCH  47  61
ATOM     61  C   UNL A   1      39.440  29.658  28.267  1.00  0.00    -0.014 A 
ATOM     62  C   UNL A   1      39.812  30.060  29.565  1.00  0.00     0.010 A 
ATOM     63  C   UNL A   1      38.122  29.948  27.861  1.00  0.00     0.010 A 
ATOM     64  C   UNL A   1      38.890  30.655  30.435  1.00  0.00     0.020 A 
ATOM     65  C   UNL A   1      37.206  30.578  28.705  1.00  0.00     0.020 A 
ATOM     66  C   UNL A   1      37.587  30.895  30.001  1.00  0.00     0.054 A 
BRANCH  66  67
ATOM     67  S   UNL A   1      36.372  31.556  31.167  1.00  0.00     0.124 S 
ATOM     68  O   UNL A   1      37.105  32.669  31.762  1.00  0.00    -0.237 OA
ATOM     69  O   UNL A   1      35.266  31.923  30.287  1.00  0.00    -0.237 OA
ATOM     70  O   UNL A   1      36.106  30.431  32.059  1.00  0.00    -0.744 OA
ENDBRANCH  66  67
ENDBRANCH  47  61
BRANCH  48  71
ATOM     71  C   UNL A   1      44.764  25.664  33.672  1.00  0.00    -0.014 A 
ATOM     72  C   UNL A   1      45.911  25.973  34.426  1.00  0.00     0.010 A 
ATOM     73  C   UNL A   1      43.591  25.322  34.380  1.00  0.00     0.010 A 
ATOM     74  C   UNL A   1      45.868  26.004  35.832  1.00  0.00     0.020 A 
ATOM     75  C   UNL A   1      43.541  25.349  35.779  1.00  0.00     0.020 A 
ATOM     76  C   UNL A   1      44.675  25.713  36.499  1.00  0.00     0.054 A 
BRANCH  76  77
ATOM     77  S   UNL A   1      44.576  25.936  38.303  1.00  0.00     0.124 S 
ATOM     78  O   UNL A   1      44.883  24.598  38.799  1.00  0.00    -0.237 OA
ATOM     79  O   UNL A   1      45.594  26.953  38.553  1.00  0.00    -0.237 OA
ATOM     80  O   UNL A   1      43.199  26.378  38.519  1.00  0.00    -0.744 OA
ENDBRANCH  76  77
ENDBRANCH  48  71
BRANCH  60  81
ATOM     81  C   UNL A   1      46.030  27.990  27.929  1.00  0.00    -0.014 A 
ATOM     82  C   UNL A   1      47.224  28.724  27.770  1.00  0.00     0.010 A 
ATOM     83  C   UNL A   1      46.071  26.603  27.710  1.00  0.00     0.010 A 
ATOM     84  C   UNL A   1      48.420  28.088  27.393  1.00  0.00     0.020 A 
ATOM     85  C   UNL A   1      47.260  25.962  27.348  1.00  0.00     0.020 A 
ATOM     86  C   UNL A   1      48.429  26.706  27.188  1.00  0.00     0.054 A 
BRANCH  86  87
ATOM     87  S   UNL A   1      49.989  25.873  26.769  1.00  0.00     0.124 S 
ATOM     88  O   UNL A   1      50.989  26.747  27.377  1.00  0.00    -0.237 OA
ATOM     89  O   UNL A   1      49.837  24.562  27.393  1.00  0.00    -0.237 OA
ATOM     90  O   UNL A   1      49.992  25.856  25.306  1.00  0.00    -0.744 OA
ENDBRANCH  86  87
ENDBRANCH  60  81
ENDBRANCH  34  35
ENDBRANCH  26  29
ENDBRANCH   1  25
TORSDOF 14
ENDMDL
MODEL 3
REMARK VINA RESULT:     -13.0      1.069      1.668
REMARK SMILES C[C@@H]1C(C(=O)NCCCNC(=O)c2ccc(-c3c4nc(c(-c5ccc(S(=O)(=O)[O-])cc5)c5ccc([nH]5)c(-c5ccc(S(=O)(=O)[O-])cc5)c5nc(c(-c6ccc(S(=O)(=O)[O-])cc6)c6ccc3[nH]6)C=C5)C=C4)cc2)=NC2=C1C(=O)C[C@H](c1ccccc1)C2
REMARK SMILES IDX 9 1 8 2 7 3 6 4 4 5 5 6 3 8 1 9 2 10 75 11 73 12 74 13 76 14
REMARK SMILES IDX 86 15 77 16 78 17 79 18 80 19 81 20 85 21 82 22 84 23 83 24
REMARK SMILES IDX 10 25 11 26 12 28 13 29 14 30 72 31 15 32 71 33 16 34 17 35
REMARK SMILES IDX 18 36 65 37 19 38 70 39 64 40 66 41 20 42 69 43 63 44 62 45
REMARK SMILES IDX 21 47 51 48 32 49 50 50 33 51 36 52 49 53 67 54 34 55 35 56
REMARK SMILES IDX 48 58 68 59 37 60 22 61 23 62 31 63 24 64 30 65 25 66 26 67
REMARK SMILES IDX 27 68 28 69 29 70 52 71 53 72 61 73 54 74 60 75 55 76 56 77
REMARK SMILES IDX 57 78 58 79 59 80 38 81 39 82 47 83 40 84 46 85 41 86 42 87
REMARK SMILES IDX 43 88 44 89 45 90
REMARK H PARENT 6 7 10 27 66 46 36 57
REMARK Flexibility Score: inf
ROOT
ATOM      1  C   UNL A   1      38.274  22.434  26.139  1.00  0.00     0.118 C 
ENDROOT
BRANCH   1   2
ATOM      2  C   UNL A   1      37.244  22.241  25.040  1.00  0.00     0.042 C 
BRANCH   2   3
ATOM      3  C   UNL A   1      36.562  23.562  24.676  1.00  0.00     0.118 C 
BRANCH   3   4
ATOM      4  N   UNL A   1      35.569  24.029  25.634  1.00  0.00    -0.351 N 
ATOM      5  C   UNL A   1      34.456  23.337  26.085  1.00  0.00     0.266 C 
ATOM      6  O   UNL A   1      34.235  23.243  27.286  1.00  0.00    -0.268 OA
ATOM      7  H   UNL A   1      35.704  24.933  26.001  1.00  0.00     0.163 HD
BRANCH   5   8
ATOM      8  C   UNL A   1      33.375  22.918  25.093  1.00  0.00     0.113 C 
ATOM      9  C   UNL A   1      33.392  20.685  24.042  1.00  0.00     0.020 C 
ATOM     10  C   UNL A   1      33.663  22.171  23.823  1.00  0.00     0.076 C 
ATOM     11  C   UNL A   1      32.574  22.872  23.093  1.00  0.00     0.026 C 
ATOM     12  N   UNL A   1      32.121  23.271  25.240  1.00  0.00    -0.251 NA
ATOM     13  C   UNL A   1      31.635  23.288  23.948  1.00  0.00     0.049 C 
ATOM     14  C   UNL A   1      32.892  23.794  21.981  1.00  0.00     0.161 C 
ATOM     15  C   UNL A   1      30.627  24.313  23.521  1.00  0.00     0.065 C 
ATOM     16  O   UNL A   1      33.637  23.403  21.082  1.00  0.00    -0.294 OA
ATOM     17  C   UNL A   1      32.411  25.254  22.050  1.00  0.00     0.089 C 
ATOM     18  C   UNL A   1      31.394  25.609  23.184  1.00  0.00     0.033 C 
BRANCH  18  19
ATOM     19  C   UNL A   1      31.965  26.322  24.427  1.00  0.00    -0.044 A 
ATOM     20  C   UNL A   1      31.124  26.732  25.484  1.00  0.00     0.004 A 
ATOM     21  C   UNL A   1      33.325  26.634  24.554  1.00  0.00     0.004 A 
ATOM     22  C   UNL A   1      31.624  27.277  26.666  1.00  0.00     0.000 A 
ATOM     23  C   UNL A   1      33.829  27.210  25.731  1.00  0.00     0.000 A 
ATOM     24  C   UNL A   1      32.984  27.501  26.798  1.00  0.00     0.000 A 
ENDBRANCH  18  19
ENDBRANCH   5   8
ENDBRANCH   3   4
ENDBRANCH   2   3
ENDBRANCH   1   2
BRANCH   1  25
ATOM     25  N   UNL A   1      39.608  21.887  25.817  1.00  0.00    -0.352 N 
ATOM     26  C   UNL A   1      40.856  22.393  26.157  1.00  0.00     0.251 C 
ATOM     27  H   UNL A   1      39.613  21.054  25.292  1.00  0.00     0.163 HD
ATOM     28  O   UNL A   1      41.882  21.949  25.648  1.00  0.00    -0.269 OA
BRANCH  26  29
ATOM     29  C   UNL A   1      40.906  23.475  27.151  1.00  0.00     0.039 A 
ATOM     30  C   UNL A   1      41.868  23.565  28.160  1.00  0.00     0.014 A 
ATOM     31  C   UNL A   1      40.017  24.510  26.923  1.00  0.00     0.014 A 
ATOM     32  C   UNL A   1      41.971  24.767  28.861  1.00  0.00     0.010 A 
ATOM     33  C   UNL A   1      40.360  25.753  27.344  1.00  0.00     0.010 A 
ATOM     34  C   UNL A   1      41.220  25.867  28.420  1.00  0.00    -0.014 A 
BRANCH  34  35
ATOM     35  C   UNL A   1      41.298  27.194  29.004  1.00  0.00     0.031 A 
ATOM     36  C   UNL A   1      42.446  28.011  28.555  1.00  0.00     0.074 A 
ATOM     37  C   UNL A   1      40.260  27.730  29.686  1.00  0.00     0.049 A 
ATOM     38  N   UNL A   1      43.515  28.280  29.223  1.00  0.00    -0.248 NA
ATOM     39  C   UNL A   1      42.491  28.452  27.152  1.00  0.00     0.031 C 
ATOM     40  C   UNL A   1      38.918  27.172  29.935  1.00  0.00     0.029 A 
ATOM     41  N   UNL A   1      40.152  28.975  30.209  1.00  0.00    -0.354 N 
ATOM     42  C   UNL A   1      44.260  29.133  28.419  1.00  0.00     0.074 A 
ATOM     43  C   UNL A   1      43.696  29.024  27.096  1.00  0.00     0.031 C 
ATOM     44  C   UNL A   1      38.080  28.152  30.338  1.00  0.00     0.029 A 
ATOM     45  C   UNL A   1      38.864  29.346  30.575  1.00  0.00     0.049 A 
ATOM     46  H   UNL A   1      40.927  29.571  30.322  1.00  0.00     0.167 HD
ATOM     47  C   UNL A   1      45.106  30.054  28.960  1.00  0.00     0.031 A 
ATOM     48  C   UNL A   1      38.474  30.555  31.047  1.00  0.00     0.031 A 
ATOM     49  C   UNL A   1      45.281  29.839  30.377  1.00  0.00     0.049 A 
ATOM     50  C   UNL A   1      39.694  31.195  31.600  1.00  0.00     0.074 A 
ATOM     51  C   UNL A   1      45.758  28.798  31.150  1.00  0.00     0.029 A 
ATOM     52  N   UNL A   1      44.516  30.616  31.221  1.00  0.00    -0.354 N 
ATOM     53  N   UNL A   1      40.353  30.705  32.615  1.00  0.00    -0.248 NA
ATOM     54  C   UNL A   1      40.462  32.075  30.731  1.00  0.00     0.031 C 
ATOM     55  C   UNL A   1      44.869  28.735  32.265  1.00  0.00     0.029 A 
ATOM     56  C   UNL A   1      43.953  29.785  32.157  1.00  0.00     0.049 A 
ATOM     57  H   UNL A   1      44.397  31.591  31.163  1.00  0.00     0.167 HD
ATOM     58  C   UNL A   1      41.693  30.849  32.281  1.00  0.00     0.074 A 
ATOM     59  C   UNL A   1      41.697  31.787  31.157  1.00  0.00     0.031 C 
ATOM     60  C   UNL A   1      42.642  29.983  32.750  1.00  0.00     0.031 A 
BRANCH  47  61
ATOM     61  C   UNL A   1      45.450  31.372  28.313  1.00  0.00    -0.014 A 
ATOM     62  C   UNL A   1      44.404  32.261  27.998  1.00  0.00     0.010 A 
ATOM     63  C   UNL A   1      46.719  31.657  27.769  1.00  0.00     0.010 A 
ATOM     64  C   UNL A   1      44.604  33.339  27.125  1.00  0.00     0.020 A 
ATOM     65  C   UNL A   1      46.939  32.752  26.931  1.00  0.00     0.020 A 
ATOM     66  C   UNL A   1      45.870  33.565  26.586  1.00  0.00     0.054 A 
BRANCH  66  67
ATOM     67  S   UNL A   1      46.092  34.886  25.371  1.00  0.00     0.124 S 
ATOM     68  O   UNL A   1      45.169  34.481  24.316  1.00  0.00    -0.237 OA
ATOM     69  O   UNL A   1      45.706  36.073  26.130  1.00  0.00    -0.237 OA
ATOM     70  O   UNL A   1      47.509  34.804  25.030  1.00  0.00    -0.744 OA
ENDBRANCH  66  67
ENDBRANCH  47  61
BRANCH  48  71
ATOM     71  C   UNL A   1      37.223  31.287  30.729  1.00  0.00    -0.014 A 
ATOM     72  C   UNL A   1      36.867  32.461  31.419  1.00  0.00     0.010 A 
ATOM     73  C   UNL A   1      36.515  30.985  29.546  1.00  0.00     0.010 A 
ATOM     74  C   UNL A   1      35.885  33.331  30.910  1.00  0.00     0.020 A 
ATOM     75  C   UNL A   1      35.536  31.845  29.034  1.00  0.00     0.020 A 
ATOM     76  C   UNL A   1      35.242  33.028  29.706  1.00  0.00     0.054 A 
BRANCH  76  77
ATOM     77  S   UNL A   1      34.113  34.244  28.959  1.00  0.00     0.124 S 
ATOM     78  O   UNL A   1      33.322  34.679  30.106  1.00  0.00    -0.237 OA
ATOM     79  O   UNL A   1      35.034  35.237  28.412  1.00  0.00    -0.237 OA
ATOM     80  O   UNL A   1      33.382  33.466  27.960  1.00  0.00    -0.744 OA
ENDBRANCH  76  77
ENDBRANCH  48  71
BRANCH  60  81
ATOM     81  C   UNL A   1      42.238  28.984  33.819  1.00  0.00    -0.014 A 
ATOM     82  C   UNL A   1      41.769  27.685  33.533  1.00  0.00     0.010 A 
ATOM     83  C   UNL A   1      42.519  29.307  35.157  1.00  0.00     0.010 A 
ATOM     84  C   UNL A   1      41.578  26.743  34.558  1.00  0.00     0.020 A 
ATOM     85  C   UNL A   1      42.344  28.370  36.181  1.00  0.00     0.020 A 
ATOM     86  C   UNL A   1      41.871  27.093  35.878  1.00  0.00     0.054 A 
BRANCH  86  87
ATOM     87  S   UNL A   1      41.691  25.853  37.195  1.00  0.00     0.124 S 
ATOM     88  O   UNL A   1      41.919  24.599  36.483  1.00  0.00    -0.237 OA
ATOM     89  O   UNL A   1      42.730  26.234  38.147  1.00  0.00    -0.237 OA
ATOM     90  O   UNL A   1      40.322  26.051  37.674  1.00  0.00    -0.744 OA
ENDBRANCH  86  87
ENDBRANCH  60  81
ENDBRANCH  34  35
ENDBRANCH  26  29
ENDBRANCH   1  25
TORSDOF 14
ENDMDL
