MODEL 1
REMARK VINA RESULT:     -11.6      0.000      0.000
REMARK SMILES Cc1cc(N2N=C(C(=O)NCCCNC(=O)c3ccc(-c4c5nc(c(-c6ccc(S(=O)(=O)[O-])cc6)c6ccc([nH]6)c(-c6ccc(S(=O)(=O)[O-])cc6)c6nc(c(-c7ccc(S(=O)(=O)[O-])cc7)c7ccc4[nH]7)C=C6)C=C5)cc3)C[C@H]2c2ccccc2)c([N+](=O)[O-])cc1C
REMARK SMILES IDX 12 1 11 2 10 3 8 4 9 5 7 7 5 8 6 9 78 10 77 11 4 12 1 13
REMARK SMILES IDX 2 14 3 15 90 16 89 17 91 18 85 19 86 20 87 21 88 22 79 23
REMARK SMILES IDX 80 24 84 25 81 26 83 27 82 28 13 29 14 30 15 31 16 33 17 34
REMARK SMILES IDX 18 35 76 36 19 37 75 38 20 39 21 40 22 41 69 42 23 43 74 44
REMARK SMILES IDX 68 45 70 46 24 47 73 48 67 49 66 50 25 52 55 53 36 54 54 55
REMARK SMILES IDX 37 56 40 57 53 58 71 59 38 60 39 61 52 63 72 64 41 65 26 66
REMARK SMILES IDX 27 67 35 68 28 69 34 70 29 71 30 72 31 73 32 74 33 75 56 76
REMARK SMILES IDX 57 77 65 78 58 79 64 80 59 81 60 82 61 83 62 84 63 85 42 86
REMARK SMILES IDX 43 87 51 88 44 89 50 90 45 91 46 92 47 93 48 94 49 95
REMARK H PARENT 10 6 14 32 70 51 40 62
REMARK Flexibility Score: inf
ROOT
ATOM      1  C   UNL A   1      33.501  27.747  25.175  1.00  0.00     0.042 C 
ENDROOT
BRANCH   1   2
ATOM      2  C   UNL A   1      32.378  26.718  25.198  1.00  0.00     0.118 C 
BRANCH   2   3
ATOM      3  N   UNL A   1      31.959  26.375  23.856  1.00  0.00    -0.351 N 
ATOM      4  C   UNL A   1      32.273  25.365  22.988  1.00  0.00     0.267 C 
ATOM      5  O   UNL A   1      31.752  25.393  21.874  1.00  0.00    -0.268 OA
ATOM      6  H   UNL A   1      31.301  27.008  23.485  1.00  0.00     0.163 HD
BRANCH   4   7
ATOM      7  C   UNL A   1      33.169  24.187  23.335  1.00  0.00     0.128 C 
ATOM      8  N   UNL A   1      33.742  22.367  24.290  1.00  0.00    -0.250 N 
ATOM      9  N   UNL A   1      32.741  23.270  24.155  1.00  0.00    -0.171 NA
ATOM     10  C   UNL A   1      34.944  22.689  23.512  1.00  0.00     0.144 C 
ATOM     11  C   UNL A   1      34.499  23.914  22.704  1.00  0.00     0.096 C 
BRANCH   8  12
ATOM     12  C   UNL A   1      33.449  21.044  24.611  1.00  0.00     0.138 A 
ATOM     13  C   UNL A   1      32.313  18.065  22.520  1.00  0.00     0.045 C 
ATOM     14  C   UNL A   1      32.715  18.855  23.735  1.00  0.00    -0.046 A 
ATOM     15  C   UNL A   1      33.155  20.176  23.547  1.00  0.00     0.039 A 
ATOM     16  C   UNL A   1      32.646  18.337  25.037  1.00  0.00    -0.041 A 
ATOM     17  C   UNL A   1      32.990  19.168  26.117  1.00  0.00     0.091 A 
ATOM     18  C   UNL A   1      32.230  16.923  25.334  1.00  0.00     0.045 C 
ATOM     19  C   UNL A   1      33.371  20.508  25.901  1.00  0.00     0.294 A 
BRANCH  19  20
ATOM     20  N   UNL A   1      33.600  21.331  27.082  1.00  0.00     0.065 N 
ATOM     21  O   UNL A   1      32.618  21.930  27.550  1.00  0.00    -0.258 OA
ATOM     22  O   UNL A   1      34.768  21.475  27.475  1.00  0.00    -0.258 OA
ENDBRANCH  19  20
ENDBRANCH   8  12
BRANCH  10  23
ATOM     23  C   UNL A   1      36.142  22.882  24.445  1.00  0.00    -0.023 A 
ATOM     24  C   UNL A   1      36.303  23.987  25.296  1.00  0.00     0.006 A 
ATOM     25  C   UNL A   1      37.118  21.868  24.499  1.00  0.00     0.006 A 
ATOM     26  C   UNL A   1      37.412  24.084  26.146  1.00  0.00     0.000 A 
ATOM     27  C   UNL A   1      38.198  21.942  25.380  1.00  0.00     0.000 A 
ATOM     28  C   UNL A   1      38.351  23.057  26.195  1.00  0.00     0.000 A 
ENDBRANCH  10  23
ENDBRANCH   4   7
ENDBRANCH   2   3
ENDBRANCH   1   2
BRANCH   1  29
ATOM     29  C   UNL A   1      33.959  28.126  26.580  1.00  0.00     0.118 C 
BRANCH  29  30
ATOM     30  N   UNL A   1      33.618  29.508  26.906  1.00  0.00    -0.352 N 
ATOM     31  C   UNL A   1      34.260  30.405  27.720  1.00  0.00     0.251 C 
ATOM     32  H   UNL A   1      32.799  29.848  26.474  1.00  0.00     0.163 HD
ATOM     33  O   UNL A   1      33.676  31.423  28.086  1.00  0.00    -0.269 OA
BRANCH  31  34
ATOM     34  C   UNL A   1      35.645  30.140  28.153  1.00  0.00     0.039 A 
ATOM     35  C   UNL A   1      35.886  29.653  29.440  1.00  0.00     0.014 A 
ATOM     36  C   UNL A   1      36.707  30.382  27.279  1.00  0.00     0.014 A 
ATOM     37  C   UNL A   1      37.191  29.342  29.824  1.00  0.00     0.010 A 
ATOM     38  C   UNL A   1      37.988  29.978  27.627  1.00  0.00     0.010 A 
ATOM     39  C   UNL A   1      38.246  29.466  28.906  1.00  0.00    -0.014 A 
BRANCH  39  40
ATOM     40  C   UNL A   1      39.641  29.099  29.250  1.00  0.00     0.031 A 
ATOM     41  C   UNL A   1      40.549  30.131  29.864  1.00  0.00     0.074 A 
ATOM     42  C   UNL A   1      40.116  27.881  28.922  1.00  0.00     0.049 A 
ATOM     43  N   UNL A   1      41.832  30.065  30.101  1.00  0.00    -0.248 NA
ATOM     44  C   UNL A   1      39.937  31.423  30.223  1.00  0.00     0.031 C 
ATOM     45  C   UNL A   1      39.343  26.807  28.295  1.00  0.00     0.029 A 
ATOM     46  N   UNL A   1      41.374  27.349  29.054  1.00  0.00    -0.354 N 
ATOM     47  C   UNL A   1      42.185  31.312  30.607  1.00  0.00     0.074 A 
ATOM     48  C   UNL A   1      40.994  32.130  30.593  1.00  0.00     0.031 C 
ATOM     49  C   UNL A   1      40.137  25.738  28.117  1.00  0.00     0.029 A 
ATOM     50  C   UNL A   1      41.486  26.068  28.565  1.00  0.00     0.049 A 
ATOM     51  H   UNL A   1      42.126  27.837  29.460  1.00  0.00     0.167 HD
ATOM     52  C   UNL A   1      43.389  31.730  31.062  1.00  0.00     0.031 A 
ATOM     53  C   UNL A   1      42.558  25.258  28.472  1.00  0.00     0.031 A 
ATOM     54  C   UNL A   1      44.564  30.902  31.091  1.00  0.00     0.049 A 
ATOM     55  C   UNL A   1      43.890  25.749  28.971  1.00  0.00     0.074 A 
ATOM     56  C   UNL A   1      45.820  31.210  31.582  1.00  0.00     0.029 A 
ATOM     57  N   UNL A   1      44.628  29.604  30.609  1.00  0.00    -0.354 N 
ATOM     58  N   UNL A   1      44.194  26.911  29.497  1.00  0.00    -0.248 NA
ATOM     59  C   UNL A   1      45.022  24.817  28.873  1.00  0.00     0.031 C 
ATOM     60  C   UNL A   1      46.658  30.117  31.347  1.00  0.00     0.029 A 
ATOM     61  C   UNL A   1      45.907  29.103  30.773  1.00  0.00     0.049 A 
ATOM     62  H   UNL A   1      43.874  29.111  30.210  1.00  0.00     0.167 HD
ATOM     63  C   UNL A   1      45.543  26.837  29.829  1.00  0.00     0.074 A 
ATOM     64  C   UNL A   1      45.994  25.514  29.448  1.00  0.00     0.031 C 
ATOM     65  C   UNL A   1      46.333  27.776  30.403  1.00  0.00     0.031 A 
BRANCH  52  66
ATOM     66  C   UNL A   1      43.493  33.148  31.559  1.00  0.00    -0.014 A 
ATOM     67  C   UNL A   1      43.227  33.471  32.903  1.00  0.00     0.010 A 
ATOM     68  C   UNL A   1      43.899  34.168  30.680  1.00  0.00     0.010 A 
ATOM     69  C   UNL A   1      43.320  34.794  33.345  1.00  0.00     0.020 A 
ATOM     70  C   UNL A   1      44.025  35.487  31.126  1.00  0.00     0.020 A 
ATOM     71  C   UNL A   1      43.717  35.793  32.452  1.00  0.00     0.054 A 
BRANCH  71  72
ATOM     72  S   UNL A   1      43.852  37.496  33.062  1.00  0.00     0.124 S 
ATOM     73  O   UNL A   1      45.145  37.469  33.743  1.00  0.00    -0.237 OA
ATOM     74  O   UNL A   1      43.808  38.281  31.832  1.00  0.00    -0.237 OA
ATOM     75  O   UNL A   1      42.691  37.645  33.936  1.00  0.00    -0.744 OA
ENDBRANCH  71  72
ENDBRANCH  52  66
BRANCH  53  76
ATOM     76  C   UNL A   1      42.411  23.892  27.896  1.00  0.00    -0.014 A 
ATOM     77  C   UNL A   1      42.553  23.681  26.513  1.00  0.00     0.010 A 
ATOM     78  C   UNL A   1      42.141  22.790  28.729  1.00  0.00     0.010 A 
ATOM     79  C   UNL A   1      42.409  22.401  25.971  1.00  0.00     0.020 A 
ATOM     80  C   UNL A   1      42.026  21.503  28.195  1.00  0.00     0.020 A 
ATOM     81  C   UNL A   1      42.149  21.319  26.816  1.00  0.00     0.054 A 
BRANCH  81  82
ATOM     82  S   UNL A   1      42.015  19.659  26.094  1.00  0.00     0.124 S 
ATOM     83  O   UNL A   1      42.462  18.813  27.196  1.00  0.00    -0.237 OA
ATOM     84  O   UNL A   1      40.594  19.574  25.767  1.00  0.00    -0.237 OA
ATOM     85  O   UNL A   1      42.910  19.714  24.941  1.00  0.00    -0.744 OA
ENDBRANCH  81  82
ENDBRANCH  53  76
BRANCH  65  86
ATOM     86  C   UNL A   1      47.756  27.399  30.717  1.00  0.00    -0.014 A 
ATOM     87  C   UNL A   1      48.089  26.682  31.879  1.00  0.00     0.010 A 
ATOM     88  C   UNL A   1      48.764  27.694  29.779  1.00  0.00     0.010 A 
ATOM     89  C   UNL A   1      49.408  26.280  32.104  1.00  0.00     0.020 A 
ATOM     90  C   UNL A   1      50.077  27.267  29.986  1.00  0.00     0.020 A 
ATOM     91  C   UNL A   1      50.393  26.569  31.153  1.00  0.00     0.054 A 
BRANCH  91  92
ATOM     92  S   UNL A   1      52.081  25.969  31.434  1.00  0.00     0.124 S 
ATOM     93  O   UNL A   1      52.563  26.889  32.461  1.00  0.00    -0.237 OA
ATOM     94  O   UNL A   1      51.862  24.593  31.874  1.00  0.00    -0.237 OA
ATOM     95  O   UNL A   1      52.720  26.106  30.127  1.00  0.00    -0.744 OA
ENDBRANCH  91  92
ENDBRANCH  65  86
ENDBRANCH  39  40
ENDBRANCH  31  34
ENDBRANCH  29  30
ENDBRANCH   1  29
TORSDOF 16
ENDMDL
MODEL 2
REMARK VINA RESULT:     -11.2      2.739      9.450
REMARK SMILES Cc1cc(N2N=C(C(=O)NCCCNC(=O)c3ccc(-c4c5nc(c(-c6ccc(S(=O)(=O)[O-])cc6)c6ccc([nH]6)c(-c6ccc(S(=O)(=O)[O-])cc6)c6nc(c(-c7ccc(S(=O)(=O)[O-])cc7)c7ccc4[nH]7)C=C6)C=C5)cc3)C[C@H]2c2ccccc2)c([N+](=O)[O-])cc1C
REMARK SMILES IDX 12 1 11 2 10 3 8 4 9 5 7 7 5 8 6 9 78 10 77 11 4 12 1 13
REMARK SMILES IDX 2 14 3 15 90 16 89 17 91 18 85 19 86 20 87 21 88 22 79 23
REMARK SMILES IDX 80 24 84 25 81 26 83 27 82 28 13 29 14 30 15 31 16 33 17 34
REMARK SMILES IDX 18 35 76 36 19 37 75 38 20 39 21 40 22 41 69 42 23 43 74 44
REMARK SMILES IDX 68 45 70 46 24 47 73 48 67 49 66 50 25 52 55 53 36 54 54 55
REMARK SMILES IDX 37 56 40 57 53 58 71 59 38 60 39 61 52 63 72 64 41 65 26 66
REMARK SMILES IDX 27 67 35 68 28 69 34 70 29 71 30 72 31 73 32 74 33 75 56 76
REMARK SMILES IDX 57 77 65 78 58 79 64 80 59 81 60 82 61 83 62 84 63 85 42 86
REMARK SMILES IDX 43 87 51 88 44 89 50 90 45 91 46 92 47 93 48 94 49 95
REMARK H PARENT 10 6 14 32 70 51 40 62
REMARK Flexibility Score: inf
ROOT
ATOM      1  C   UNL A   1      35.082  23.229  26.137  1.00  0.00     0.042 C 
ENDROOT
BRANCH   1   2
ATOM      2  C   UNL A   1      34.295  23.463  24.854  1.00  0.00     0.118 C 
BRANCH   2   3
ATOM      3  N   UNL A   1      32.940  22.968  24.976  1.00  0.00    -0.351 N 
ATOM      4  C   UNL A   1      31.727  23.557  25.213  1.00  0.00     0.267 C 
ATOM      5  O   UNL A   1      30.748  22.819  25.299  1.00  0.00    -0.268 OA
ATOM      6  H   UNL A   1      32.876  21.992  24.863  1.00  0.00     0.163 HD
BRANCH   4   7
ATOM      7  C   UNL A   1      31.511  25.058  25.312  1.00  0.00     0.128 C 
ATOM      8  N   UNL A   1      31.257  27.059  24.613  1.00  0.00    -0.250 N 
ATOM      9  N   UNL A   1      31.432  25.773  24.225  1.00  0.00    -0.171 NA
ATOM     10  C   UNL A   1      31.219  27.242  26.069  1.00  0.00     0.144 C 
ATOM     11  C   UNL A   1      31.250  25.799  26.587  1.00  0.00     0.096 C 
BRANCH   8  12
ATOM     12  C   UNL A   1      30.598  27.956  23.776  1.00  0.00     0.138 A 
ATOM     13  C   UNL A   1      26.907  28.665  23.136  1.00  0.00     0.045 C 
ATOM     14  C   UNL A   1      28.402  28.778  23.005  1.00  0.00    -0.046 A 
ATOM     15  C   UNL A   1      29.199  28.018  23.877  1.00  0.00     0.039 A 
ATOM     16  C   UNL A   1      29.022  29.588  22.042  1.00  0.00    -0.041 A 
ATOM     17  C   UNL A   1      30.425  29.588  21.959  1.00  0.00     0.091 A 
ATOM     18  C   UNL A   1      28.255  30.470  21.096  1.00  0.00     0.045 C 
ATOM     19  C   UNL A   1      31.197  28.769  22.808  1.00  0.00     0.294 A 
BRANCH  19  20
ATOM     20  N   UNL A   1      32.636  28.744  22.576  1.00  0.00     0.065 N 
ATOM     21  O   UNL A   1      33.313  29.614  23.146  1.00  0.00    -0.258 OA
ATOM     22  O   UNL A   1      33.078  27.938  21.742  1.00  0.00    -0.258 OA
ENDBRANCH  19  20
ENDBRANCH   8  12
BRANCH  10  23
ATOM     23  C   UNL A   1      32.360  28.156  26.518  1.00  0.00    -0.023 A 
ATOM     24  C   UNL A   1      32.172  29.384  27.172  1.00  0.00     0.006 A 
ATOM     25  C   UNL A   1      33.685  27.721  26.315  1.00  0.00     0.006 A 
ATOM     26  C   UNL A   1      33.266  30.155  27.581  1.00  0.00     0.000 A 
ATOM     27  C   UNL A   1      34.774  28.468  26.764  1.00  0.00     0.000 A 
ATOM     28  C   UNL A   1      34.565  29.693  27.387  1.00  0.00     0.000 A 
ENDBRANCH  10  23
ENDBRANCH   4   7
ENDBRANCH   2   3
ENDBRANCH   1   2
BRANCH   1  29
ATOM     29  C   UNL A   1      36.491  23.808  26.059  1.00  0.00     0.118 C 
BRANCH  29  30
ATOM     30  N   UNL A   1      37.509  22.762  26.111  1.00  0.00    -0.352 N 
ATOM     31  C   UNL A   1      38.858  22.857  26.340  1.00  0.00     0.251 C 
ATOM     32  H   UNL A   1      37.175  21.848  25.958  1.00  0.00     0.163 HD
ATOM     33  O   UNL A   1      39.590  21.907  26.073  1.00  0.00    -0.269 OA
BRANCH  31  34
ATOM     34  C   UNL A   1      39.420  24.100  26.901  1.00  0.00     0.039 A 
ATOM     35  C   UNL A   1      40.069  25.007  26.061  1.00  0.00     0.014 A 
ATOM     36  C   UNL A   1      39.305  24.362  28.269  1.00  0.00     0.014 A 
ATOM     37  C   UNL A   1      40.542  26.212  26.584  1.00  0.00     0.010 A 
ATOM     38  C   UNL A   1      39.684  25.600  28.765  1.00  0.00     0.010 A 
ATOM     39  C   UNL A   1      40.318  26.533  27.932  1.00  0.00    -0.014 A 
BRANCH  39  40
ATOM     40  C   UNL A   1      40.755  27.822  28.521  1.00  0.00     0.031 A 
ATOM     41  C   UNL A   1      42.142  27.941  29.096  1.00  0.00     0.074 A 
ATOM     42  C   UNL A   1      39.881  28.842  28.629  1.00  0.00     0.049 A 
ATOM     43  N   UNL A   1      42.668  28.920  29.784  1.00  0.00    -0.248 NA
ATOM     44  C   UNL A   1      43.042  26.791  28.901  1.00  0.00     0.031 C 
ATOM     45  C   UNL A   1      38.501  28.836  28.139  1.00  0.00     0.029 A 
ATOM     46  N   UNL A   1      40.021  30.080  29.206  1.00  0.00    -0.354 N 
ATOM     47  C   UNL A   1      43.945  28.491  30.129  1.00  0.00     0.074 A 
ATOM     48  C   UNL A   1      44.095  27.146  29.621  1.00  0.00     0.031 C 
ATOM     49  C   UNL A   1      37.930  30.019  28.417  1.00  0.00     0.029 A 
ATOM     50  C   UNL A   1      38.881  30.847  29.151  1.00  0.00     0.049 A 
ATOM     51  H   UNL A   1      40.859  30.390  29.619  1.00  0.00     0.167 HD
ATOM     52  C   UNL A   1      44.914  29.165  30.792  1.00  0.00     0.031 A 
ATOM     53  C   UNL A   1      38.625  32.071  29.651  1.00  0.00     0.031 A 
ATOM     54  C   UNL A   1      44.763  30.510  31.277  1.00  0.00     0.049 A 
ATOM     55  C   UNL A   1      39.712  32.796  30.398  1.00  0.00     0.074 A 
ATOM     56  C   UNL A   1      45.699  31.304  31.912  1.00  0.00     0.029 A 
ATOM     57  N   UNL A   1      43.600  31.259  31.178  1.00  0.00    -0.354 N 
ATOM     58  N   UNL A   1      40.932  32.398  30.667  1.00  0.00    -0.248 NA
ATOM     59  C   UNL A   1      39.393  34.140  30.899  1.00  0.00     0.031 C 
ATOM     60  C   UNL A   1      45.086  32.515  32.248  1.00  0.00     0.029 A 
ATOM     61  C   UNL A   1      43.789  32.500  31.760  1.00  0.00     0.049 A 
ATOM     62  H   UNL A   1      42.763  30.954  30.758  1.00  0.00     0.167 HD
ATOM     63  C   UNL A   1      41.539  33.456  31.335  1.00  0.00     0.074 A 
ATOM     64  C   UNL A   1      40.552  34.513  31.424  1.00  0.00     0.031 C 
ATOM     65  C   UNL A   1      42.800  33.547  31.823  1.00  0.00     0.031 A 
BRANCH  52  66
ATOM     66  C   UNL A   1      46.219  28.453  31.036  1.00  0.00    -0.014 A 
ATOM     67  C   UNL A   1      47.300  28.587  30.144  1.00  0.00     0.010 A 
ATOM     68  C   UNL A   1      46.380  27.667  32.191  1.00  0.00     0.010 A 
ATOM     69  C   UNL A   1      48.500  27.912  30.381  1.00  0.00     0.020 A 
ATOM     70  C   UNL A   1      47.590  27.017  32.448  1.00  0.00     0.020 A 
ATOM     71  C   UNL A   1      48.637  27.130  31.531  1.00  0.00     0.054 A 
BRANCH  71  72
ATOM     72  S   UNL A   1      50.215  26.286  31.822  1.00  0.00     0.124 S 
ATOM     73  O   UNL A   1      51.135  27.413  31.969  1.00  0.00    -0.237 OA
ATOM     74  O   UNL A   1      49.953  25.529  33.043  1.00  0.00    -0.237 OA
ATOM     75  O   UNL A   1      50.406  25.480  30.620  1.00  0.00    -0.744 OA
ENDBRANCH  71  72
ENDBRANCH  52  66
BRANCH  53  76
ATOM     76  C   UNL A   1      37.287  32.693  29.449  1.00  0.00    -0.014 A 
ATOM     77  C   UNL A   1      36.302  32.610  30.449  1.00  0.00     0.010 A 
ATOM     78  C   UNL A   1      36.993  33.385  28.259  1.00  0.00     0.010 A 
ATOM     79  C   UNL A   1      35.045  33.188  30.257  1.00  0.00     0.020 A 
ATOM     80  C   UNL A   1      35.747  33.991  28.075  1.00  0.00     0.020 A 
ATOM     81  C   UNL A   1      34.775  33.878  29.071  1.00  0.00     0.054 A 
BRANCH  81  82
ATOM     82  S   UNL A   1      33.152  34.662  28.866  1.00  0.00     0.124 S 
ATOM     83  O   UNL A   1      32.644  34.669  30.235  1.00  0.00    -0.237 OA
ATOM     84  O   UNL A   1      33.502  35.969  28.314  1.00  0.00    -0.237 OA
ATOM     85  O   UNL A   1      32.455  33.770  27.943  1.00  0.00    -0.744 OA
ENDBRANCH  81  82
ENDBRANCH  53  76
BRANCH  65  86
ATOM     86  C   UNL A   1      43.218  34.851  32.448  1.00  0.00    -0.014 A 
ATOM     87  C   UNL A   1      43.823  35.869  31.691  1.00  0.00     0.010 A 
ATOM     88  C   UNL A   1      42.914  35.090  33.802  1.00  0.00     0.010 A 
ATOM     89  C   UNL A   1      44.130  37.097  32.282  1.00  0.00     0.020 A 
ATOM     90  C   UNL A   1      43.191  36.326  34.387  1.00  0.00     0.020 A 
ATOM     91  C   UNL A   1      43.807  37.321  33.625  1.00  0.00     0.054 A 
BRANCH  91  92
ATOM     92  S   UNL A   1      44.147  38.950  34.345  1.00  0.00     0.124 S 
ATOM     93  O   UNL A   1      42.921  39.681  34.035  1.00  0.00    -0.237 OA
ATOM     94  O   UNL A   1      44.353  38.638  35.758  1.00  0.00    -0.237 OA
ATOM     95  O   UNL A   1      45.339  39.403  33.632  1.00  0.00    -0.744 OA
ENDBRANCH  91  92
ENDBRANCH  65  86
ENDBRANCH  39  40
ENDBRANCH  31  34
ENDBRANCH  29  30
ENDBRANCH   1  29
TORSDOF 16
ENDMDL
MODEL 3
REMARK VINA RESULT:     -11.0      3.402      9.345
REMARK SMILES Cc1cc(N2N=C(C(=O)NCCCNC(=O)c3ccc(-c4c5nc(c(-c6ccc(S(=O)(=O)[O-])cc6)c6ccc([nH]6)c(-c6ccc(S(=O)(=O)[O-])cc6)c6nc(c(-c7ccc(S(=O)(=O)[O-])cc7)c7ccc4[nH]7)C=C6)C=C5)cc3)C[C@H]2c2ccccc2)c([N+](=O)[O-])cc1C
REMARK SMILES IDX 12 1 11 2 10 3 8 4 9 5 7 7 5 8 6 9 78 10 77 11 4 12 1 13
REMARK SMILES IDX 2 14 3 15 90 16 89 17 91 18 85 19 86 20 87 21 88 22 79 23
REMARK SMILES IDX 80 24 84 25 81 26 83 27 82 28 13 29 14 30 15 31 16 33 17 34
REMARK SMILES IDX 18 35 76 36 19 37 75 38 20 39 21 40 22 41 69 42 23 43 74 44
REMARK SMILES IDX 68 45 70 46 24 47 73 48 67 49 66 50 25 52 55 53 36 54 54 55
REMARK SMILES IDX 37 56 40 57 53 58 71 59 38 60 39 61 52 63 72 64 41 65 26 66
REMARK SMILES IDX 27 67 35 68 28 69 34 70 29 71 30 72 31 73 32 74 33 75 56 76
REMARK SMILES IDX 57 77 65 78 58 79 64 80 59 81 60 82 61 83 62 84 63 85 42 86
REMARK SMILES IDX 43 87 51 88 44 89 50 90 45 91 46 92 47 93 48 94 49 95
REMARK H PARENT 10 6 14 32 70 51 40 62
REMARK Flexibility Score: inf
ROOT
ATOM      1  C   UNL A   1      39.205  19.437  25.736  1.00  0.00     0.042 C 
ENDROOT
BRANCH   1   2
ATOM      2  C   UNL A   1      38.486  20.596  25.058  1.00  0.00     0.118 C 
BRANCH   2   3
ATOM      3  N   UNL A   1      38.821  21.856  25.686  1.00  0.00    -0.351 N 
ATOM      4  C   UNL A   1      38.191  23.067  25.790  1.00  0.00     0.267 C 
ATOM      5  O   UNL A   1      38.790  23.968  26.374  1.00  0.00    -0.268 OA
ATOM      6  H   UNL A   1      39.695  21.839  26.139  1.00  0.00     0.163 HD
BRANCH   4   7
ATOM      7  C   UNL A   1      36.784  23.345  25.286  1.00  0.00     0.128 C 
ATOM      8  N   UNL A   1      34.746  23.968  25.389  1.00  0.00    -0.250 N 
ATOM      9  N   UNL A   1      35.894  23.843  26.096  1.00  0.00    -0.171 NA
ATOM     10  C   UNL A   1      34.852  23.518  23.995  1.00  0.00     0.144 C 
ATOM     11  C   UNL A   1      36.348  23.206  23.860  1.00  0.00     0.096 C 
BRANCH   8  12
ATOM     12  C   UNL A   1      33.810  24.936  25.743  1.00  0.00     0.138 A 
ATOM     13  C   UNL A   1      33.949  28.744  25.870  1.00  0.00     0.045 C 
ATOM     14  C   UNL A   1      33.388  27.355  26.005  1.00  0.00    -0.046 A 
ATOM     15  C   UNL A   1      34.179  26.279  25.567  1.00  0.00     0.039 A 
ATOM     16  C   UNL A   1      32.129  27.093  26.565  1.00  0.00    -0.041 A 
ATOM     17  C   UNL A   1      31.711  25.758  26.699  1.00  0.00     0.091 A 
ATOM     18  C   UNL A   1      31.193  28.179  27.020  1.00  0.00     0.045 C 
ATOM     19  C   UNL A   1      32.552  24.697  26.306  1.00  0.00     0.294 A 
BRANCH  19  20
ATOM     20  N   UNL A   1      32.088  23.344  26.588  1.00  0.00     0.065 N 
ATOM     21  O   UNL A   1      31.230  22.872  25.825  1.00  0.00    -0.258 OA
ATOM     22  O   UNL A   1      32.486  22.796  27.628  1.00  0.00    -0.258 OA
ENDBRANCH  19  20
ENDBRANCH   8  12
BRANCH  10  23
ATOM     23  C   UNL A   1      33.885  22.361  23.737  1.00  0.00    -0.023 A 
ATOM     24  C   UNL A   1      32.920  22.359  22.717  1.00  0.00     0.006 A 
ATOM     25  C   UNL A   1      34.001  21.203  24.529  1.00  0.00     0.006 A 
ATOM     26  C   UNL A   1      32.087  21.251  22.520  1.00  0.00     0.000 A 
ATOM     27  C   UNL A   1      33.202  20.081  24.302  1.00  0.00     0.000 A 
ATOM     28  C   UNL A   1      32.235  20.110  23.304  1.00  0.00     0.000 A 
ENDBRANCH  10  23
ENDBRANCH   4   7
ENDBRANCH   2   3
ENDBRANCH   1   2
BRANCH   1  29
ATOM     29  C   UNL A   1      40.492  19.884  26.422  1.00  0.00     0.118 C 
BRANCH  29  30
ATOM     30  N   UNL A   1      41.630  19.057  26.029  1.00  0.00    -0.352 N 
ATOM     31  C   UNL A   1      42.881  19.425  25.603  1.00  0.00     0.251 C 
ATOM     32  H   UNL A   1      41.475  18.085  26.076  1.00  0.00     0.163 HD
ATOM     33  O   UNL A   1      43.607  18.598  25.056  1.00  0.00    -0.269 OA
BRANCH  31  34
ATOM     34  C   UNL A   1      43.343  20.812  25.801  1.00  0.00     0.039 A 
ATOM     35  C   UNL A   1      43.568  21.631  24.692  1.00  0.00     0.014 A 
ATOM     36  C   UNL A   1      43.559  21.297  27.093  1.00  0.00     0.014 A 
ATOM     37  C   UNL A   1      43.943  22.962  24.885  1.00  0.00     0.010 A 
ATOM     38  C   UNL A   1      43.832  22.643  27.284  1.00  0.00     0.010 A 
ATOM     39  C   UNL A   1      44.040  23.487  26.183  1.00  0.00    -0.014 A 
BRANCH  39  40
ATOM     40  C   UNL A   1      44.383  24.907  26.438  1.00  0.00     0.031 A 
ATOM     41  C   UNL A   1      45.812  25.360  26.296  1.00  0.00     0.074 A 
ATOM     42  C   UNL A   1      43.439  25.756  26.890  1.00  0.00     0.049 A 
ATOM     43  N   UNL A   1      46.348  26.509  26.612  1.00  0.00    -0.248 NA
ATOM     44  C   UNL A   1      46.770  24.376  25.761  1.00  0.00     0.031 C 
ATOM     45  C   UNL A   1      42.028  25.427  27.099  1.00  0.00     0.029 A 
ATOM     46  N   UNL A   1      43.532  27.071  27.274  1.00  0.00    -0.354 N 
ATOM     47  C   UNL A   1      47.707  26.376  26.344  1.00  0.00     0.074 A 
ATOM     48  C   UNL A   1      47.920  25.020  25.891  1.00  0.00     0.031 C 
ATOM     49  C   UNL A   1      41.384  26.515  27.552  1.00  0.00     0.029 A 
ATOM     50  C   UNL A   1      42.344  27.601  27.719  1.00  0.00     0.049 A 
ATOM     51  H   UNL A   1      44.370  27.585  27.236  1.00  0.00     0.167 HD
ATOM     52  C   UNL A   1      48.685  27.305  26.447  1.00  0.00     0.031 A 
ATOM     53  C   UNL A   1      42.062  28.820  28.220  1.00  0.00     0.031 A 
ATOM     54  C   UNL A   1      48.460  28.658  26.881  1.00  0.00     0.049 A 
ATOM     55  C   UNL A   1      43.169  29.833  28.340  1.00  0.00     0.074 A 
ATOM     56  C   UNL A   1      49.371  29.694  26.968  1.00  0.00     0.029 A 
ATOM     57  N   UNL A   1      47.237  29.160  27.297  1.00  0.00    -0.354 N 
ATOM     58  N   UNL A   1      44.437  29.707  28.030  1.00  0.00    -0.248 NA
ATOM     59  C   UNL A   1      42.805  31.156  28.866  1.00  0.00     0.031 C 
ATOM     60  C   UNL A   1      48.710  30.810  27.491  1.00  0.00     0.029 A 
ATOM     61  C   UNL A   1      47.373  30.487  27.663  1.00  0.00     0.049 A 
ATOM     62  H   UNL A   1      46.395  28.648  27.329  1.00  0.00     0.167 HD
ATOM     63  C   UNL A   1      45.015  30.945  28.288  1.00  0.00     0.074 A 
ATOM     64  C   UNL A   1      43.957  31.807  28.773  1.00  0.00     0.031 C 
ATOM     65  C   UNL A   1      46.304  31.335  28.128  1.00  0.00     0.031 A 
BRANCH  52  66
ATOM     66  C   UNL A   1      50.087  26.886  26.090  1.00  0.00    -0.014 A 
ATOM     67  C   UNL A   1      50.588  27.053  24.786  1.00  0.00     0.010 A 
ATOM     68  C   UNL A   1      50.930  26.352  27.082  1.00  0.00     0.010 A 
ATOM     69  C   UNL A   1      51.888  26.649  24.470  1.00  0.00     0.020 A 
ATOM     70  C   UNL A   1      52.241  25.978  26.778  1.00  0.00     0.020 A 
ATOM     71  C   UNL A   1      52.706  26.114  25.468  1.00  0.00     0.054 A 
BRANCH  71  72
ATOM     72  S   UNL A   1      54.397  25.623  25.033  1.00  0.00     0.124 S 
ATOM     73  O   UNL A   1      55.175  26.246  26.102  1.00  0.00    -0.237 OA
ATOM     74  O   UNL A   1      54.328  24.165  25.077  1.00  0.00    -0.237 OA
ATOM     75  O   UNL A   1      54.594  26.196  23.704  1.00  0.00    -0.744 OA
ENDBRANCH  71  72
ENDBRANCH  52  66
BRANCH  53  76
ATOM     76  C   UNL A   1      40.671  29.151  28.633  1.00  0.00    -0.014 A 
ATOM     77  C   UNL A   1      40.333  29.246  29.995  1.00  0.00     0.010 A 
ATOM     78  C   UNL A   1      39.675  29.387  27.666  1.00  0.00     0.010 A 
ATOM     79  C   UNL A   1      39.025  29.552  30.383  1.00  0.00     0.020 A 
ATOM     80  C   UNL A   1      38.374  29.723  28.050  1.00  0.00     0.020 A 
ATOM     81  C   UNL A   1      38.054  29.791  29.407  1.00  0.00     0.054 A 
BRANCH  81  82
ATOM     82  S   UNL A   1      36.375  30.234  29.936  1.00  0.00     0.124 S 
ATOM     83  O   UNL A   1      36.467  31.686  30.052  1.00  0.00    -0.237 OA
ATOM     84  O   UNL A   1      35.557  29.737  28.831  1.00  0.00    -0.237 OA
ATOM     85  O   UNL A   1      36.211  29.512  31.195  1.00  0.00    -0.744 OA
ENDBRANCH  81  82
ENDBRANCH  53  76
BRANCH  65  86
ATOM     86  C   UNL A   1      46.644  32.771  28.423  1.00  0.00    -0.014 A 
ATOM     87  C   UNL A   1      46.520  33.772  27.443  1.00  0.00     0.010 A 
ATOM     88  C   UNL A   1      47.006  33.134  29.734  1.00  0.00     0.010 A 
ATOM     89  C   UNL A   1      46.770  35.108  27.768  1.00  0.00     0.020 A 
ATOM     90  C   UNL A   1      47.226  34.471  30.069  1.00  0.00     0.020 A 
ATOM     91  C   UNL A   1      47.115  35.450  29.080  1.00  0.00     0.054 A 
BRANCH  91  92
ATOM     92  S   UNL A   1      47.358  37.200  29.491  1.00  0.00     0.124 S 
ATOM     93  O   UNL A   1      46.417  37.857  28.588  1.00  0.00    -0.237 OA
ATOM     94  O   UNL A   1      47.008  37.247  30.908  1.00  0.00    -0.237 OA
ATOM     95  O   UNL A   1      48.770  37.433  29.196  1.00  0.00    -0.744 OA
ENDBRANCH  91  92
ENDBRANCH  65  86
ENDBRANCH  39  40
ENDBRANCH  31  34
ENDBRANCH  29  30
ENDBRANCH   1  29
TORSDOF 16
ENDMDL
