MODEL 1
REMARK VINA RESULT:     -11.1      0.000      0.000
REMARK SMILES C[C@@H](C(=O)NCCCNC(=O)c1ccc(-c2c3nc(c(-c4ccc(S(=O)(=O)[O-])cc4)c4ccc([nH]4)c(-c4ccc(S(=O)(=O)[O-])cc4)c4nc(c(-c5ccc(S(=O)(=O)[O-])cc5)c5ccc2[nH]5)C=C4)C=C3)cc1)[N@@H+](C)Cc1ccc(-c2ccccc2)cc1
REMARK SMILES IDX 6 1 5 2 3 3 4 4 2 6 1 7 72 8 73 9 74 11 75 12 76 13 86 14
REMARK SMILES IDX 77 15 85 16 78 17 79 18 80 19 84 20 81 21 83 22 82 23 7 24
REMARK SMILES IDX 8 25 9 26 10 27 11 29 12 30 13 31 71 32 14 33 70 34 15 35
REMARK SMILES IDX 16 36 17 37 64 38 18 39 69 40 63 41 65 42 19 43 68 44 62 45
REMARK SMILES IDX 61 46 20 48 50 49 31 50 49 51 32 52 35 53 48 54 66 55 33 56
REMARK SMILES IDX 34 57 47 59 67 60 36 61 21 62 22 63 30 64 23 65 29 66 24 67
REMARK SMILES IDX 25 68 26 69 27 70 28 71 51 72 52 73 60 74 53 75 59 76 54 77
REMARK SMILES IDX 55 78 56 79 57 80 58 81 37 82 38 83 46 84 39 85 45 86 40 87
REMARK SMILES IDX 41 88 42 89 43 90 44 91
REMARK H PARENT 5 5 72 10 9 28 65 47 35 58
REMARK Flexibility Score: inf
ROOT
ATOM      1  C   UNL A   1      33.073  29.221  24.810  1.00  0.00     0.118 C 
ENDROOT
BRANCH   1   2
ATOM      2  N   UNL A   1      33.548  29.235  23.446  1.00  0.00    -0.351 N 
ATOM      3  C   UNL A   1      33.169  28.418  22.422  1.00  0.00     0.278 C 
ATOM      4  O   UNL A   1      34.091  28.077  21.685  1.00  0.00    -0.268 OA
ATOM      5  H   UNL A   1      34.227  29.915  23.229  1.00  0.00     0.163 HD
BRANCH   3   6
ATOM      6  C   UNL A   1      31.687  28.001  22.258  1.00  0.00     0.271 C 
ATOM      7  C   UNL A   1      30.737  29.188  22.390  1.00  0.00     0.086 C 
BRANCH   6   8
ATOM      8  N   UNL A   1      31.271  26.859  23.113  1.00  0.00    -0.324 N 
ATOM      9  C   UNL A   1      29.990  27.059  23.763  1.00  0.00     0.333 C 
ATOM     10  H   UNL A   1      31.986  26.916  23.839  1.00  0.00     0.348 HD
BRANCH   8  11
ATOM     11  C   UNL A   1      31.573  25.477  22.703  1.00  0.00     0.299 C 
BRANCH  11  12
ATOM     12  C   UNL A   1      32.735  24.742  23.340  1.00  0.00     0.006 A 
ATOM     13  C   UNL A   1      33.503  23.809  22.633  1.00  0.00     0.010 A 
ATOM     14  C   UNL A   1      33.089  25.009  24.675  1.00  0.00     0.010 A 
ATOM     15  C   UNL A   1      34.669  23.274  23.188  1.00  0.00     0.009 A 
ATOM     16  C   UNL A   1      34.242  24.450  25.241  1.00  0.00     0.009 A 
ATOM     17  C   UNL A   1      35.073  23.613  24.486  1.00  0.00    -0.018 A 
BRANCH  17  18
ATOM     18  C   UNL A   1      36.368  23.155  24.998  1.00  0.00    -0.018 A 
ATOM     19  C   UNL A   1      36.809  21.847  24.729  1.00  0.00     0.009 A 
ATOM     20  C   UNL A   1      37.183  23.986  25.778  1.00  0.00     0.009 A 
ATOM     21  C   UNL A   1      38.022  21.378  25.235  1.00  0.00     0.001 A 
ATOM     22  C   UNL A   1      38.397  23.516  26.288  1.00  0.00     0.001 A 
ATOM     23  C   UNL A   1      38.814  22.213  26.020  1.00  0.00     0.000 A 
ENDBRANCH  17  18
ENDBRANCH  11  12
ENDBRANCH   8  11
ENDBRANCH   6   8
ENDBRANCH   3   6
ENDBRANCH   1   2
BRANCH   1  24
ATOM     24  C   UNL A   1      33.902  28.273  25.680  1.00  0.00     0.042 C 
BRANCH  24  25
ATOM     25  C   UNL A   1      33.730  28.453  27.190  1.00  0.00     0.118 C 
BRANCH  25  26
ATOM     26  N   UNL A   1      33.595  29.846  27.584  1.00  0.00    -0.352 N 
ATOM     27  C   UNL A   1      34.481  30.661  28.242  1.00  0.00     0.251 C 
ATOM     28  H   UNL A   1      32.739  30.267  27.341  1.00  0.00     0.163 HD
ATOM     29  O   UNL A   1      34.104  31.769  28.630  1.00  0.00    -0.269 OA
BRANCH  27  30
ATOM     30  C   UNL A   1      35.867  30.221  28.513  1.00  0.00     0.039 A 
ATOM     31  C   UNL A   1      36.807  30.292  27.481  1.00  0.00     0.014 A 
ATOM     32  C   UNL A   1      36.236  29.702  29.757  1.00  0.00     0.014 A 
ATOM     33  C   UNL A   1      38.129  29.897  27.711  1.00  0.00     0.010 A 
ATOM     34  C   UNL A   1      37.567  29.361  30.001  1.00  0.00     0.010 A 
ATOM     35  C   UNL A   1      38.526  29.452  28.981  1.00  0.00    -0.014 A 
BRANCH  35  36
ATOM     36  C   UNL A   1      39.934  29.069  29.263  1.00  0.00     0.031 A 
ATOM     37  C   UNL A   1      40.889  30.074  29.848  1.00  0.00     0.074 A 
ATOM     38  C   UNL A   1      40.375  27.840  28.929  1.00  0.00     0.049 A 
ATOM     39  N   UNL A   1      42.175  29.962  30.066  1.00  0.00    -0.248 NA
ATOM     40  C   UNL A   1      40.327  31.383  30.215  1.00  0.00     0.031 C 
ATOM     41  C   UNL A   1      39.561  26.780  28.333  1.00  0.00     0.029 A 
ATOM     42  N   UNL A   1      41.626  27.283  29.027  1.00  0.00    -0.354 N 
ATOM     43  C   UNL A   1      42.582  31.192  30.567  1.00  0.00     0.074 A 
ATOM     44  C   UNL A   1      41.412  32.045  30.594  1.00  0.00     0.031 C 
ATOM     45  C   UNL A   1      40.331  25.698  28.128  1.00  0.00     0.029 A 
ATOM     46  C   UNL A   1      41.698  25.999  28.541  1.00  0.00     0.049 A 
ATOM     47  H   UNL A   1      42.399  27.758  29.410  1.00  0.00     0.167 HD
ATOM     48  C   UNL A   1      43.815  31.577  30.978  1.00  0.00     0.031 A 
ATOM     49  C   UNL A   1      42.747  25.161  28.426  1.00  0.00     0.031 A 
ATOM     50  C   UNL A   1      44.976  30.730  30.964  1.00  0.00     0.049 A 
ATOM     51  C   UNL A   1      44.104  25.606  28.892  1.00  0.00     0.074 A 
ATOM     52  C   UNL A   1      46.258  31.016  31.401  1.00  0.00     0.029 A 
ATOM     53  N   UNL A   1      44.998  29.426  30.490  1.00  0.00    -0.354 N 
ATOM     54  N   UNL A   1      44.461  26.761  29.400  1.00  0.00    -0.248 NA
ATOM     55  C   UNL A   1      45.198  24.630  28.779  1.00  0.00     0.031 C 
ATOM     56  C   UNL A   1      47.064  29.897  31.159  1.00  0.00     0.029 A 
ATOM     57  C   UNL A   1      46.272  28.899  30.612  1.00  0.00     0.049 A 
ATOM     58  H   UNL A   1      44.221  28.947  30.121  1.00  0.00     0.167 HD
ATOM     59  C   UNL A   1      45.816  26.643  29.690  1.00  0.00     0.074 A 
ATOM     60  C   UNL A   1      46.213  25.304  29.307  1.00  0.00     0.031 C 
ATOM     61  C   UNL A   1      46.653  27.563  30.229  1.00  0.00     0.031 A 
BRANCH  48  62
ATOM     62  C   UNL A   1      43.965  32.996  31.461  1.00  0.00    -0.014 A 
ATOM     63  C   UNL A   1      43.741  33.332  32.808  1.00  0.00     0.010 A 
ATOM     64  C   UNL A   1      44.339  34.005  30.555  1.00  0.00     0.010 A 
ATOM     65  C   UNL A   1      43.832  34.661  33.230  1.00  0.00     0.020 A 
ATOM     66  C   UNL A   1      44.456  35.333  30.980  1.00  0.00     0.020 A 
ATOM     67  C   UNL A   1      44.177  35.655  32.310  1.00  0.00     0.054 A 
BRANCH  67  68
ATOM     68  S   UNL A   1      44.277  37.375  32.876  1.00  0.00     0.124 S 
ATOM     69  O   UNL A   1      43.208  37.425  33.872  1.00  0.00    -0.237 OA
ATOM     70  O   UNL A   1      45.635  37.463  33.409  1.00  0.00    -0.237 OA
ATOM     71  O   UNL A   1      44.037  38.152  31.663  1.00  0.00    -0.744 OA
ENDBRANCH  67  68
ENDBRANCH  48  62
BRANCH  49  72
ATOM     72  C   UNL A   1      42.540  23.805  27.853  1.00  0.00    -0.014 A 
ATOM     73  C   UNL A   1      42.744  23.574  26.483  1.00  0.00     0.010 A 
ATOM     74  C   UNL A   1      42.180  22.728  28.685  1.00  0.00     0.010 A 
ATOM     75  C   UNL A   1      42.591  22.291  25.950  1.00  0.00     0.020 A 
ATOM     76  C   UNL A   1      42.047  21.440  28.160  1.00  0.00     0.020 A 
ATOM     77  C   UNL A   1      42.247  21.230  26.794  1.00  0.00     0.054 A 
BRANCH  77  78
ATOM     78  S   UNL A   1      42.135  19.558  26.099  1.00  0.00     0.124 S 
ATOM     79  O   UNL A   1      42.618  18.736  27.204  1.00  0.00    -0.237 OA
ATOM     80  O   UNL A   1      40.711  19.435  25.794  1.00  0.00    -0.237 OA
ATOM     81  O   UNL A   1      43.009  19.616  24.929  1.00  0.00    -0.744 OA
ENDBRANCH  77  78
ENDBRANCH  49  72
BRANCH  61  82
ATOM     82  C   UNL A   1      48.078  27.145  30.473  1.00  0.00    -0.014 A 
ATOM     83  C   UNL A   1      49.093  27.450  29.550  1.00  0.00     0.010 A 
ATOM     84  C   UNL A   1      48.413  26.495  31.674  1.00  0.00     0.010 A 
ATOM     85  C   UNL A   1      50.418  27.090  29.816  1.00  0.00     0.020 A 
ATOM     86  C   UNL A   1      49.738  26.152  31.952  1.00  0.00     0.020 A 
ATOM     87  C   UNL A   1      50.731  26.442  31.015  1.00  0.00     0.054 A 
BRANCH  87  88
ATOM     88  S   UNL A   1      52.464  26.034  31.364  1.00  0.00     0.124 S 
ATOM     89  O   UNL A   1      52.345  24.727  32.004  1.00  0.00    -0.237 OA
ATOM     90  O   UNL A   1      53.071  26.029  30.035  1.00  0.00    -0.237 OA
ATOM     91  O   UNL A   1      52.905  27.119  32.236  1.00  0.00    -0.744 OA
ENDBRANCH  87  88
ENDBRANCH  61  82
ENDBRANCH  35  36
ENDBRANCH  27  30
ENDBRANCH  25  26
ENDBRANCH  24  25
ENDBRANCH   1  24
TORSDOF 17
ENDMDL
MODEL 2
REMARK VINA RESULT:     -10.7      2.875      8.984
REMARK SMILES C[C@@H](C(=O)NCCCNC(=O)c1ccc(-c2c3nc(c(-c4ccc(S(=O)(=O)[O-])cc4)c4ccc([nH]4)c(-c4ccc(S(=O)(=O)[O-])cc4)c4nc(c(-c5ccc(S(=O)(=O)[O-])cc5)c5ccc2[nH]5)C=C4)C=C3)cc1)[N@@H+](C)Cc1ccc(-c2ccccc2)cc1
REMARK SMILES IDX 6 1 5 2 3 3 4 4 2 6 1 7 72 8 73 9 74 11 75 12 76 13 86 14
REMARK SMILES IDX 77 15 85 16 78 17 79 18 80 19 84 20 81 21 83 22 82 23 7 24
REMARK SMILES IDX 8 25 9 26 10 27 11 29 12 30 13 31 71 32 14 33 70 34 15 35
REMARK SMILES IDX 16 36 17 37 64 38 18 39 69 40 63 41 65 42 19 43 68 44 62 45
REMARK SMILES IDX 61 46 20 48 50 49 31 50 49 51 32 52 35 53 48 54 66 55 33 56
REMARK SMILES IDX 34 57 47 59 67 60 36 61 21 62 22 63 30 64 23 65 29 66 24 67
REMARK SMILES IDX 25 68 26 69 27 70 28 71 51 72 52 73 60 74 53 75 59 76 54 77
REMARK SMILES IDX 55 78 56 79 57 80 58 81 37 82 38 83 46 84 39 85 45 86 40 87
REMARK SMILES IDX 41 88 42 89 43 90 44 91
REMARK H PARENT 5 5 72 10 9 28 65 47 35 58
REMARK Flexibility Score: inf
ROOT
ATOM      1  C   UNL A   1      34.384  24.582  25.496  1.00  0.00     0.118 C 
ENDROOT
BRANCH   1   2
ATOM      2  N   UNL A   1      34.578  25.195  24.202  1.00  0.00    -0.351 N 
ATOM      3  C   UNL A   1      33.637  25.776  23.404  1.00  0.00     0.278 C 
ATOM      4  O   UNL A   1      33.786  25.548  22.207  1.00  0.00    -0.268 OA
ATOM      5  H   UNL A   1      35.500  25.193  23.855  1.00  0.00     0.163 HD
BRANCH   3   6
ATOM      6  C   UNL A   1      32.510  26.641  24.021  1.00  0.00     0.271 C 
ATOM      7  C   UNL A   1      33.041  27.950  24.599  1.00  0.00     0.086 C 
BRANCH   6   8
ATOM      8  N   UNL A   1      31.640  25.921  24.986  1.00  0.00    -0.324 N 
ATOM      9  C   UNL A   1      31.191  26.748  26.090  1.00  0.00     0.333 C 
ATOM     10  H   UNL A   1      32.315  25.256  25.366  1.00  0.00     0.348 HD
BRANCH   8  11
ATOM     11  C   UNL A   1      30.679  24.913  24.508  1.00  0.00     0.299 C 
BRANCH  11  12
ATOM     12  C   UNL A   1      31.120  23.473  24.343  1.00  0.00     0.006 A 
ATOM     13  C   UNL A   1      31.475  22.941  23.096  1.00  0.00     0.010 A 
ATOM     14  C   UNL A   1      31.210  22.632  25.466  1.00  0.00     0.010 A 
ATOM     15  C   UNL A   1      32.039  21.666  22.997  1.00  0.00     0.009 A 
ATOM     16  C   UNL A   1      31.750  21.343  25.362  1.00  0.00     0.009 A 
ATOM     17  C   UNL A   1      32.215  20.863  24.131  1.00  0.00    -0.018 A 
BRANCH  17  18
ATOM     18  C   UNL A   1      32.936  19.591  24.029  1.00  0.00    -0.018 A 
ATOM     19  C   UNL A   1      34.178  19.432  24.666  1.00  0.00     0.009 A 
ATOM     20  C   UNL A   1      32.426  18.517  23.286  1.00  0.00     0.009 A 
ATOM     21  C   UNL A   1      34.899  18.241  24.553  1.00  0.00     0.001 A 
ATOM     22  C   UNL A   1      33.147  17.325  23.170  1.00  0.00     0.001 A 
ATOM     23  C   UNL A   1      34.384  17.189  23.800  1.00  0.00     0.000 A 
ENDBRANCH  17  18
ENDBRANCH  11  12
ENDBRANCH   8  11
ENDBRANCH   6   8
ENDBRANCH   3   6
ENDBRANCH   1   2
BRANCH   1  24
ATOM     24  C   UNL A   1      35.418  23.483  25.754  1.00  0.00     0.042 C 
BRANCH  24  25
ATOM     25  C   UNL A   1      36.802  23.731  25.149  1.00  0.00     0.118 C 
BRANCH  25  26
ATOM     26  N   UNL A   1      37.777  22.724  25.535  1.00  0.00    -0.352 N 
ATOM     27  C   UNL A   1      38.972  22.867  26.192  1.00  0.00     0.251 C 
ATOM     28  H   UNL A   1      37.543  21.800  25.287  1.00  0.00     0.163 HD
ATOM     29  O   UNL A   1      39.733  21.900  26.275  1.00  0.00    -0.269 OA
BRANCH  27  30
ATOM     30  C   UNL A   1      39.370  24.166  26.779  1.00  0.00     0.039 A 
ATOM     31  C   UNL A   1      38.969  24.463  28.085  1.00  0.00     0.014 A 
ATOM     32  C   UNL A   1      40.094  25.106  26.041  1.00  0.00     0.014 A 
ATOM     33  C   UNL A   1      39.342  25.676  28.672  1.00  0.00     0.010 A 
ATOM     34  C   UNL A   1      40.513  26.292  26.647  1.00  0.00     0.010 A 
ATOM     35  C   UNL A   1      40.140  26.590  27.967  1.00  0.00    -0.014 A 
BRANCH  35  36
ATOM     36  C   UNL A   1      40.586  27.866  28.584  1.00  0.00     0.031 A 
ATOM     37  C   UNL A   1      41.974  27.987  29.151  1.00  0.00     0.074 A 
ATOM     38  C   UNL A   1      39.723  28.895  28.698  1.00  0.00     0.049 A 
ATOM     39  N   UNL A   1      42.510  28.977  29.819  1.00  0.00    -0.248 NA
ATOM     40  C   UNL A   1      42.868  26.835  28.960  1.00  0.00     0.031 C 
ATOM     41  C   UNL A   1      38.342  28.902  28.213  1.00  0.00     0.029 A 
ATOM     42  N   UNL A   1      39.877  30.130  29.277  1.00  0.00    -0.354 N 
ATOM     43  C   UNL A   1      43.792  28.558  30.154  1.00  0.00     0.074 A 
ATOM     44  C   UNL A   1      43.942  27.212  29.640  1.00  0.00     0.031 C 
ATOM     45  C   UNL A   1      37.779  30.085  28.506  1.00  0.00     0.029 A 
ATOM     46  C   UNL A   1      38.744  30.906  29.231  1.00  0.00     0.049 A 
ATOM     47  H   UNL A   1      40.720  30.432  29.686  1.00  0.00     0.167 HD
ATOM     48  C   UNL A   1      44.761  29.232  30.820  1.00  0.00     0.031 A 
ATOM     49  C   UNL A   1      38.499  32.135  29.729  1.00  0.00     0.031 A 
ATOM     50  C   UNL A   1      44.619  30.572  31.321  1.00  0.00     0.049 A 
ATOM     51  C   UNL A   1      39.589  32.867  30.460  1.00  0.00     0.074 A 
ATOM     52  C   UNL A   1      45.558  31.354  31.969  1.00  0.00     0.029 A 
ATOM     53  N   UNL A   1      43.463  31.333  31.227  1.00  0.00    -0.354 N 
ATOM     54  N   UNL A   1      40.808  32.468  30.732  1.00  0.00    -0.248 NA
ATOM     55  C   UNL A   1      39.273  34.220  30.940  1.00  0.00     0.031 C 
ATOM     56  C   UNL A   1      44.960  32.576  32.299  1.00  0.00     0.029 A 
ATOM     57  C   UNL A   1      43.660  32.570  31.816  1.00  0.00     0.049 A 
ATOM     58  H   UNL A   1      42.625  31.036  30.804  1.00  0.00     0.167 HD
ATOM     59  C   UNL A   1      41.414  33.530  31.395  1.00  0.00     0.074 A 
ATOM     60  C   UNL A   1      40.430  34.590  31.477  1.00  0.00     0.031 C 
ATOM     61  C   UNL A   1      42.673  33.617  31.888  1.00  0.00     0.031 A 
BRANCH  48  62
ATOM     62  C   UNL A   1      46.059  28.508  31.059  1.00  0.00    -0.014 A 
ATOM     63  C   UNL A   1      46.252  27.724  32.212  1.00  0.00     0.010 A 
ATOM     64  C   UNL A   1      47.099  28.609  30.117  1.00  0.00     0.010 A 
ATOM     65  C   UNL A   1      47.481  27.102  32.446  1.00  0.00     0.020 A 
ATOM     66  C   UNL A   1      48.321  27.967  30.336  1.00  0.00     0.020 A 
ATOM     67  C   UNL A   1      48.512  27.237  31.512  1.00  0.00     0.054 A 
BRANCH  67  68
ATOM     68  S   UNL A   1      50.103  26.432  31.843  1.00  0.00     0.124 S 
ATOM     69  O   UNL A   1      50.804  26.621  30.574  1.00  0.00    -0.237 OA
ATOM     70  O   UNL A   1      50.629  27.200  32.969  1.00  0.00    -0.237 OA
ATOM     71  O   UNL A   1      49.735  25.053  32.152  1.00  0.00    -0.744 OA
ENDBRANCH  67  68
ENDBRANCH  48  62
BRANCH  49  72
ATOM     72  C   UNL A   1      37.160  32.751  29.533  1.00  0.00    -0.014 A 
ATOM     73  C   UNL A   1      36.307  32.956  30.629  1.00  0.00     0.010 A 
ATOM     74  C   UNL A   1      36.752  33.173  28.255  1.00  0.00     0.010 A 
ATOM     75  C   UNL A   1      35.065  33.574  30.453  1.00  0.00     0.020 A 
ATOM     76  C   UNL A   1      35.520  33.810  28.078  1.00  0.00     0.020 A 
ATOM     77  C   UNL A   1      34.681  34.001  29.178  1.00  0.00     0.054 A 
BRANCH  77  78
ATOM     78  S   UNL A   1      33.102  34.874  28.984  1.00  0.00     0.124 S 
ATOM     79  O   UNL A   1      32.567  34.840  30.341  1.00  0.00    -0.237 OA
ATOM     80  O   UNL A   1      33.522  36.187  28.501  1.00  0.00    -0.237 OA
ATOM     81  O   UNL A   1      32.384  34.062  28.004  1.00  0.00    -0.744 OA
ENDBRANCH  77  78
ENDBRANCH  49  72
BRANCH  61  82
ATOM     82  C   UNL A   1      43.078  34.916  32.530  1.00  0.00    -0.014 A 
ATOM     83  C   UNL A   1      43.609  35.970  31.766  1.00  0.00     0.010 A 
ATOM     84  C   UNL A   1      42.863  35.105  33.908  1.00  0.00     0.010 A 
ATOM     85  C   UNL A   1      43.939  37.185  32.376  1.00  0.00     0.020 A 
ATOM     86  C   UNL A   1      43.173  36.323  34.516  1.00  0.00     0.020 A 
ATOM     87  C   UNL A   1      43.720  37.353  33.747  1.00  0.00     0.054 A 
BRANCH  87  88
ATOM     88  S   UNL A   1      44.104  38.955  34.507  1.00  0.00     0.124 S 
ATOM     89  O   UNL A   1      44.011  38.646  35.931  1.00  0.00    -0.237 OA
ATOM     90  O   UNL A   1      45.450  39.235  34.012  1.00  0.00    -0.237 OA
ATOM     91  O   UNL A   1      43.063  39.840  33.990  1.00  0.00    -0.744 OA
ENDBRANCH  87  88
ENDBRANCH  61  82
ENDBRANCH  35  36
ENDBRANCH  27  30
ENDBRANCH  25  26
ENDBRANCH  24  25
ENDBRANCH   1  24
TORSDOF 17
ENDMDL
MODEL 3
REMARK VINA RESULT:     -10.5      4.735     10.542
REMARK SMILES C[C@@H](C(=O)NCCCNC(=O)c1ccc(-c2c3nc(c(-c4ccc(S(=O)(=O)[O-])cc4)c4ccc([nH]4)c(-c4ccc(S(=O)(=O)[O-])cc4)c4nc(c(-c5ccc(S(=O)(=O)[O-])cc5)c5ccc2[nH]5)C=C4)C=C3)cc1)[N@@H+](C)Cc1ccc(-c2ccccc2)cc1
REMARK SMILES IDX 6 1 5 2 3 3 4 4 2 6 1 7 72 8 73 9 74 11 75 12 76 13 86 14
REMARK SMILES IDX 77 15 85 16 78 17 79 18 80 19 84 20 81 21 83 22 82 23 7 24
REMARK SMILES IDX 8 25 9 26 10 27 11 29 12 30 13 31 71 32 14 33 70 34 15 35
REMARK SMILES IDX 16 36 17 37 64 38 18 39 69 40 63 41 65 42 19 43 68 44 62 45
REMARK SMILES IDX 61 46 20 48 50 49 31 50 49 51 32 52 35 53 48 54 66 55 33 56
REMARK SMILES IDX 34 57 47 59 67 60 36 61 21 62 22 63 30 64 23 65 29 66 24 67
REMARK SMILES IDX 25 68 26 69 27 70 28 71 51 72 52 73 60 74 53 75 59 76 54 77
REMARK SMILES IDX 55 78 56 79 57 80 58 81 37 82 38 83 46 84 39 85 45 86 40 87
REMARK SMILES IDX 41 88 42 89 43 90 44 91
REMARK H PARENT 5 5 72 10 9 28 65 47 35 58
REMARK Flexibility Score: inf
ROOT
ATOM      1  C   UNL A   1      36.531  22.910  25.603  1.00  0.00     0.118 C 
ENDROOT
BRANCH   1   2
ATOM      2  N   UNL A   1      35.763  22.407  26.718  1.00  0.00    -0.351 N 
ATOM      3  C   UNL A   1      34.412  22.234  26.791  1.00  0.00     0.278 C 
ATOM      4  O   UNL A   1      33.927  22.530  27.879  1.00  0.00    -0.268 OA
ATOM      5  H   UNL A   1      36.276  22.161  27.522  1.00  0.00     0.163 HD
BRANCH   3   6
ATOM      6  C   UNL A   1      33.623  21.700  25.570  1.00  0.00     0.271 C 
ATOM      7  C   UNL A   1      34.309  20.503  24.920  1.00  0.00     0.086 C 
BRANCH   6   8
ATOM      8  N   UNL A   1      33.255  22.739  24.574  1.00  0.00    -0.324 N 
ATOM      9  C   UNL A   1      33.284  22.262  23.204  1.00  0.00     0.333 C 
ATOM     10  H   UNL A   1      34.046  23.374  24.685  1.00  0.00     0.348 HD
BRANCH   8  11
ATOM     11  C   UNL A   1      32.212  23.730  24.885  1.00  0.00     0.299 C 
BRANCH  11  12
ATOM     12  C   UNL A   1      32.593  25.034  25.557  1.00  0.00     0.006 A 
ATOM     13  C   UNL A   1      33.857  25.614  25.394  1.00  0.00     0.010 A 
ATOM     14  C   UNL A   1      31.654  25.715  26.353  1.00  0.00     0.010 A 
ATOM     15  C   UNL A   1      34.125  26.897  25.883  1.00  0.00     0.009 A 
ATOM     16  C   UNL A   1      31.933  26.988  26.867  1.00  0.00     0.009 A 
ATOM     17  C   UNL A   1      33.156  27.614  26.596  1.00  0.00    -0.018 A 
BRANCH  17  18
ATOM     18  C   UNL A   1      33.404  29.008  26.978  1.00  0.00    -0.018 A 
ATOM     19  C   UNL A   1      32.373  29.959  26.879  1.00  0.00     0.009 A 
ATOM     20  C   UNL A   1      34.662  29.433  27.425  1.00  0.00     0.009 A 
ATOM     21  C   UNL A   1      32.596  31.298  27.204  1.00  0.00     0.001 A 
ATOM     22  C   UNL A   1      34.888  30.775  27.747  1.00  0.00     0.001 A 
ATOM     23  C   UNL A   1      33.857  31.706  27.633  1.00  0.00     0.000 A 
ENDBRANCH  17  18
ENDBRANCH  11  12
ENDBRANCH   8  11
ENDBRANCH   6   8
ENDBRANCH   3   6
ENDBRANCH   1   2
BRANCH   1  24
ATOM     24  C   UNL A   1      37.445  24.062  26.029  1.00  0.00     0.042 C 
BRANCH  24  25
ATOM     25  C   UNL A   1      38.616  23.669  26.932  1.00  0.00     0.118 C 
BRANCH  25  26
ATOM     26  N   UNL A   1      39.907  23.803  26.276  1.00  0.00    -0.352 N 
ATOM     27  C   UNL A   1      40.860  24.780  26.407  1.00  0.00     0.251 C 
ATOM     28  H   UNL A   1      40.131  23.082  25.644  1.00  0.00     0.163 HD
ATOM     29  O   UNL A   1      41.818  24.794  25.632  1.00  0.00    -0.269 OA
BRANCH  27  30
ATOM     30  C   UNL A   1      40.741  25.828  27.446  1.00  0.00     0.039 A 
ATOM     31  C   UNL A   1      39.865  25.616  28.515  1.00  0.00     0.014 A 
ATOM     32  C   UNL A   1      41.451  27.029  27.353  1.00  0.00     0.014 A 
ATOM     33  C   UNL A   1      39.742  26.582  29.519  1.00  0.00     0.010 A 
ATOM     34  C   UNL A   1      41.369  27.965  28.385  1.00  0.00     0.010 A 
ATOM     35  C   UNL A   1      40.513  27.753  29.476  1.00  0.00    -0.014 A 
BRANCH  35  36
ATOM     36  C   UNL A   1      40.434  28.773  30.554  1.00  0.00     0.031 A 
ATOM     37  C   UNL A   1      41.318  28.663  31.766  1.00  0.00     0.074 A 
ATOM     38  C   UNL A   1      39.519  29.760  30.479  1.00  0.00     0.049 A 
ATOM     39  N   UNL A   1      41.322  29.392  32.854  1.00  0.00    -0.248 NA
ATOM     40  C   UNL A   1      42.312  27.580  31.762  1.00  0.00     0.031 C 
ATOM     41  C   UNL A   1      38.584  29.967  29.372  1.00  0.00     0.029 A 
ATOM     42  N   UNL A   1      39.213  30.765  31.363  1.00  0.00    -0.354 N 
ATOM     43  C   UNL A   1      42.297  28.838  33.676  1.00  0.00     0.074 A 
ATOM     44  C   UNL A   1      42.842  27.695  32.972  1.00  0.00     0.031 C 
ATOM     45  C   UNL A   1      37.817  31.037  29.638  1.00  0.00     0.029 A 
ATOM     46  C   UNL A   1      38.178  31.568  30.949  1.00  0.00     0.049 A 
ATOM     47  H   UNL A   1      39.691  30.897  32.214  1.00  0.00     0.167 HD
ATOM     48  C   UNL A   1      42.709  29.246  34.901  1.00  0.00     0.031 A 
ATOM     49  C   UNL A   1      37.574  32.607  31.559  1.00  0.00     0.031 A 
ATOM     50  C   UNL A   1      42.178  30.386  35.597  1.00  0.00     0.049 A 
ATOM     51  C   UNL A   1      38.050  33.047  32.915  1.00  0.00     0.074 A 
ATOM     52  C   UNL A   1      42.561  30.904  36.822  1.00  0.00     0.029 A 
ATOM     53  N   UNL A   1      41.149  31.190  35.128  1.00  0.00    -0.354 N 
ATOM     54  N   UNL A   1      39.000  32.534  33.660  1.00  0.00    -0.248 NA
ATOM     55  C   UNL A   1      37.379  34.212  33.509  1.00  0.00     0.031 C 
ATOM     56  C   UNL A   1      41.740  32.001  37.110  1.00  0.00     0.029 A 
ATOM     57  C   UNL A   1      40.876  32.192  36.044  1.00  0.00     0.049 A 
ATOM     58  H   UNL A   1      40.682  31.066  34.271  1.00  0.00     0.167 HD
ATOM     59  C   UNL A   1      39.058  33.328  34.799  1.00  0.00     0.074 A 
ATOM     60  C   UNL A   1      38.052  34.359  34.643  1.00  0.00     0.031 C 
ATOM     61  C   UNL A   1      39.874  33.214  35.875  1.00  0.00     0.031 A 
BRANCH  48  62
ATOM     62  C   UNL A   1      43.781  28.428  35.571  1.00  0.00    -0.014 A 
ATOM     63  C   UNL A   1      45.144  28.711  35.366  1.00  0.00     0.010 A 
ATOM     64  C   UNL A   1      43.421  27.367  36.421  1.00  0.00     0.010 A 
ATOM     65  C   UNL A   1      46.128  27.910  35.952  1.00  0.00     0.020 A 
ATOM     66  C   UNL A   1      44.403  26.580  37.030  1.00  0.00     0.020 A 
ATOM     67  C   UNL A   1      45.750  26.842  36.771  1.00  0.00     0.054 A 
BRANCH  67  68
ATOM     68  S   UNL A   1      47.044  25.808  37.512  1.00  0.00     0.124 S 
ATOM     69  O   UNL A   1      47.303  26.509  38.769  1.00  0.00    -0.237 OA
ATOM     70  O   UNL A   1      46.386  24.510  37.643  1.00  0.00    -0.237 OA
ATOM     71  O   UNL A   1      48.128  25.858  36.535  1.00  0.00    -0.744 OA
ENDBRANCH  67  68
ENDBRANCH  48  62
BRANCH  49  72
ATOM     72  C   UNL A   1      36.458  33.310  30.874  1.00  0.00    -0.014 A 
ATOM     73  C   UNL A   1      35.158  33.264  31.404  1.00  0.00     0.010 A 
ATOM     74  C   UNL A   1      36.699  34.065  29.712  1.00  0.00     0.010 A 
ATOM     75  C   UNL A   1      34.116  33.959  30.784  1.00  0.00     0.020 A 
ATOM     76  C   UNL A   1      35.664  34.778  29.101  1.00  0.00     0.020 A 
ATOM     77  C   UNL A   1      34.376  34.716  29.638  1.00  0.00     0.054 A 
BRANCH  77  78
ATOM     78  S   UNL A   1      33.028  35.677  28.896  1.00  0.00     0.124 S 
ATOM     79  O   UNL A   1      33.757  36.703  28.158  1.00  0.00    -0.237 OA
ATOM     80  O   UNL A   1      32.338  34.681  28.082  1.00  0.00    -0.237 OA
ATOM     81  O   UNL A   1      32.273  36.152  30.054  1.00  0.00    -0.744 OA
ENDBRANCH  77  78
ENDBRANCH  49  72
BRANCH  61  82
ATOM     82  C   UNL A   1      39.743  34.250  36.958  1.00  0.00    -0.014 A 
ATOM     83  C   UNL A   1      39.168  33.934  38.201  1.00  0.00     0.010 A 
ATOM     84  C   UNL A   1      40.263  35.541  36.748  1.00  0.00     0.010 A 
ATOM     85  C   UNL A   1      39.095  34.901  39.209  1.00  0.00     0.020 A 
ATOM     86  C   UNL A   1      40.209  36.502  37.759  1.00  0.00     0.020 A 
ATOM     87  C   UNL A   1      39.615  36.179  38.981  1.00  0.00     0.054 A 
BRANCH  87  88
ATOM     88  S   UNL A   1      39.560  37.401  40.321  1.00  0.00     0.124 S 
ATOM     89  O   UNL A   1      38.691  36.744  41.295  1.00  0.00    -0.237 OA
ATOM     90  O   UNL A   1      40.963  37.518  40.711  1.00  0.00    -0.237 OA
ATOM     91  O   UNL A   1      38.998  38.588  39.683  1.00  0.00    -0.744 OA
ENDBRANCH  87  88
ENDBRANCH  61  82
ENDBRANCH  35  36
ENDBRANCH  27  30
ENDBRANCH  25  26
ENDBRANCH  24  25
ENDBRANCH   1  24
TORSDOF 17
ENDMDL
