MODEL 1
REMARK VINA RESULT:     -10.5      0.000      0.000
REMARK SMILES CC[C@](O)(c1ccc(O)cc1)[C@H](F)C(=O)NCCCNC(=O)c1ccc(-c2c3nc(c(-c4ccc(S(=O)(=O)[O-])cc4)c4ccc([nH]4)c(-c4ccc(S(=O)(=O)[O-])cc4)c4nc(c(-c5ccc(S(=O)(=O)[O-])cc5)c5ccc2[nH]5)C=C4)C=C3)cc1
REMARK SMILES IDX 18 1 17 2 16 3 14 4 15 5 12 7 13 8 3 9 2 10 1 11 5 12 6 13
REMARK SMILES IDX 11 14 7 15 10 16 8 17 9 18 4 20 19 22 20 23 21 24 22 26
REMARK SMILES IDX 23 27 24 28 82 29 25 30 81 31 26 32 27 33 28 34 75 35 29 36
REMARK SMILES IDX 80 37 74 38 76 39 30 40 79 41 73 42 72 43 31 45 61 46 42 47
REMARK SMILES IDX 60 48 43 49 46 50 59 51 77 52 44 53 45 54 58 56 78 57 47 58
REMARK SMILES IDX 32 59 33 60 41 61 34 62 40 63 35 64 36 65 37 66 38 67 39 68
REMARK SMILES IDX 62 69 63 70 71 71 64 72 70 73 65 74 66 75 67 76 68 77 69 78
REMARK SMILES IDX 48 79 49 80 57 81 50 82 56 83 51 84 52 85 53 86 54 87 55 88
REMARK H PARENT 16 6 9 19 4 21 20 25 76 44 46 55
REMARK Flexibility Score: inf
ROOT
ATOM      1  C   UNL A   1      32.029  27.930  27.072  1.00  0.00     0.042 C 
ENDROOT
BRANCH   1   2
ATOM      2  C   UNL A   1      31.922  26.915  25.948  1.00  0.00     0.117 C 
BRANCH   2   3
ATOM      3  N   UNL A   1      31.129  25.752  26.299  1.00  0.00    -0.353 N 
ATOM      4  C   UNL A   1      31.574  24.523  26.686  1.00  0.00     0.257 C 
ATOM      5  O   UNL A   1      30.746  23.725  27.141  1.00  0.00    -0.272 OA
ATOM      6  H   UNL A   1      30.152  25.863  26.252  1.00  0.00     0.163 HD
BRANCH   4   7
ATOM      7  C   UNL A   1      33.044  24.138  26.572  1.00  0.00     0.291 C 
ATOM      8  F   UNL A   1      33.402  23.265  27.579  1.00  0.00    -0.233 F 
BRANCH   7   9
ATOM      9  C   UNL A   1      33.581  23.553  25.220  1.00  0.00     0.130 C 
BRANCH   9  10
ATOM     10  C   UNL A   1      32.678  22.387  24.735  1.00  0.00     0.040 C 
ATOM     11  C   UNL A   1      32.207  22.515  23.287  1.00  0.00     0.007 C 
ENDBRANCH   9  10
BRANCH   9  12
ATOM     12  C   UNL A   1      35.043  23.079  25.165  1.00  0.00    -0.013 A 
ATOM     13  C   UNL A   1      35.399  21.760  24.828  1.00  0.00     0.010 A 
ATOM     14  C   UNL A   1      36.094  23.972  25.467  1.00  0.00     0.010 A 
ATOM     15  C   UNL A   1      36.726  21.318  24.933  1.00  0.00     0.046 A 
ATOM     16  C   UNL A   1      37.420  23.543  25.537  1.00  0.00     0.046 A 
ATOM     17  C   UNL A   1      37.720  22.212  25.307  1.00  0.00     0.115 A 
BRANCH  17  18
ATOM     18  O   UNL A   1      39.014  21.819  25.458  1.00  0.00    -0.508 OA
ATOM     19  H   UNL A   1      39.567  21.729  24.707  1.00  0.00     0.293 HD
ENDBRANCH  17  18
ENDBRANCH   9  12
BRANCH   9  20
ATOM     20  O   UNL A   1      33.443  24.601  24.220  1.00  0.00    -0.382 OA
ATOM     21  H   UNL A   1      33.806  24.291  23.376  1.00  0.00     0.212 HD
ENDBRANCH   9  20
ENDBRANCH   7   9
ENDBRANCH   4   7
ENDBRANCH   2   3
ENDBRANCH   1   2
BRANCH   1  22
ATOM     22  C   UNL A   1      33.415  28.537  27.250  1.00  0.00     0.118 C 
BRANCH  22  23
ATOM     23  N   UNL A   1      33.415  29.919  27.713  1.00  0.00    -0.352 N 
ATOM     24  C   UNL A   1      34.456  30.656  28.241  1.00  0.00     0.251 C 
ATOM     25  H   UNL A   1      32.555  30.392  27.639  1.00  0.00     0.163 HD
ATOM     26  O   UNL A   1      34.278  31.811  28.601  1.00  0.00    -0.269 OA
BRANCH  24  27
ATOM     27  C   UNL A   1      35.780  30.014  28.410  1.00  0.00     0.039 A 
ATOM     28  C   UNL A   1      36.693  30.057  27.353  1.00  0.00     0.014 A 
ATOM     29  C   UNL A   1      36.143  29.443  29.632  1.00  0.00     0.014 A 
ATOM     30  C   UNL A   1      38.006  29.620  27.558  1.00  0.00     0.010 A 
ATOM     31  C   UNL A   1      37.470  29.090  29.857  1.00  0.00     0.010 A 
ATOM     32  C   UNL A   1      38.420  29.185  28.828  1.00  0.00    -0.014 A 
BRANCH  32  33
ATOM     33  C   UNL A   1      39.837  28.835  29.112  1.00  0.00     0.031 A 
ATOM     34  C   UNL A   1      40.762  29.863  29.708  1.00  0.00     0.074 A 
ATOM     35  C   UNL A   1      40.319  27.626  28.754  1.00  0.00     0.049 A 
ATOM     36  N   UNL A   1      42.052  29.791  29.917  1.00  0.00    -0.248 NA
ATOM     37  C   UNL A   1      40.163  31.153  30.088  1.00  0.00     0.031 C 
ATOM     38  C   UNL A   1      39.545  26.551  28.126  1.00  0.00     0.029 A 
ATOM     39  N   UNL A   1      41.585  27.101  28.859  1.00  0.00    -0.354 N 
ATOM     40  C   UNL A   1      42.422  31.030  30.425  1.00  0.00     0.074 A 
ATOM     41  C   UNL A   1      41.230  31.850  30.447  1.00  0.00     0.031 C 
ATOM     42  C   UNL A   1      40.344  25.489  27.931  1.00  0.00     0.029 A 
ATOM     43  C   UNL A   1      41.694  25.818  28.378  1.00  0.00     0.049 A 
ATOM     44  H   UNL A   1      42.343  27.598  29.243  1.00  0.00     0.167 HD
ATOM     45  C   UNL A   1      43.637  31.447  30.853  1.00  0.00     0.031 A 
ATOM     46  C   UNL A   1      42.759  24.997  28.299  1.00  0.00     0.031 A 
ATOM     47  C   UNL A   1      44.817  30.626  30.861  1.00  0.00     0.049 A 
ATOM     48  C   UNL A   1      44.097  25.475  28.796  1.00  0.00     0.074 A 
ATOM     49  C   UNL A   1      46.083  30.942  31.322  1.00  0.00     0.029 A 
ATOM     50  N   UNL A   1      44.875  29.322  30.393  1.00  0.00    -0.354 N 
ATOM     51  N   UNL A   1      44.414  26.639  29.311  1.00  0.00    -0.248 NA
ATOM     52  C   UNL A   1      45.215  24.526  28.710  1.00  0.00     0.031 C 
ATOM     53  C   UNL A   1      46.914  29.837  31.108  1.00  0.00     0.029 A 
ATOM     54  C   UNL A   1      46.156  28.820  30.550  1.00  0.00     0.049 A 
ATOM     55  H   UNL A   1      44.117  28.826  30.008  1.00  0.00     0.167 HD
ATOM     56  C   UNL A   1      45.764  26.551  29.634  1.00  0.00     0.074 A 
ATOM     57  C   UNL A   1      46.199  25.219  29.267  1.00  0.00     0.031 C 
ATOM     58  C   UNL A   1      46.571  27.490  30.187  1.00  0.00     0.031 A 
BRANCH  45  59
ATOM     59  C   UNL A   1      43.742  32.861  31.355  1.00  0.00    -0.014 A 
ATOM     60  C   UNL A   1      43.536  33.162  32.714  1.00  0.00     0.010 A 
ATOM     61  C   UNL A   1      44.069  33.900  30.465  1.00  0.00     0.010 A 
ATOM     62  C   UNL A   1      43.602  34.483  33.163  1.00  0.00     0.020 A 
ATOM     63  C   UNL A   1      44.164  35.220  30.917  1.00  0.00     0.020 A 
ATOM     64  C   UNL A   1      43.909  35.505  32.260  1.00  0.00     0.054 A 
BRANCH  64  65
ATOM     65  S   UNL A   1      43.996  37.210  32.871  1.00  0.00     0.124 S 
ATOM     66  O   UNL A   1      45.323  37.242  33.482  1.00  0.00    -0.237 OA
ATOM     67  O   UNL A   1      43.848  37.999  31.650  1.00  0.00    -0.237 OA
ATOM     68  O   UNL A   1      42.877  37.300  33.806  1.00  0.00    -0.744 OA
ENDBRANCH  64  65
ENDBRANCH  45  59
BRANCH  46  69
ATOM     69  C   UNL A   1      42.605  23.623  27.748  1.00  0.00    -0.014 A 
ATOM     70  C   UNL A   1      42.908  23.363  26.399  1.00  0.00     0.010 A 
ATOM     71  C   UNL A   1      42.157  22.569  28.564  1.00  0.00     0.010 A 
ATOM     72  C   UNL A   1      42.748  22.079  25.872  1.00  0.00     0.020 A 
ATOM     73  C   UNL A   1      42.017  21.279  28.045  1.00  0.00     0.020 A 
ATOM     74  C   UNL A   1      42.302  21.045  26.698  1.00  0.00     0.054 A 
BRANCH  74  75
ATOM     75  S   UNL A   1      42.144  19.374  26.007  1.00  0.00     0.124 S 
ATOM     76  O   UNL A   1      42.961  19.467  24.801  1.00  0.00    -0.237 OA
ATOM     77  O   UNL A   1      42.684  18.536  27.074  1.00  0.00    -0.237 OA
ATOM     78  O   UNL A   1      40.707  19.234  25.783  1.00  0.00    -0.744 OA
ENDBRANCH  74  75
ENDBRANCH  46  69
BRANCH  58  79
ATOM     79  C   UNL A   1      47.996  27.101  30.468  1.00  0.00    -0.014 A 
ATOM     80  C   UNL A   1      49.030  27.443  29.580  1.00  0.00     0.010 A 
ATOM     81  C   UNL A   1      48.307  26.433  31.666  1.00  0.00     0.010 A 
ATOM     82  C   UNL A   1      50.353  27.100  29.875  1.00  0.00     0.020 A 
ATOM     83  C   UNL A   1      49.631  26.109  31.974  1.00  0.00     0.020 A 
ATOM     84  C   UNL A   1      50.644  26.434  31.070  1.00  0.00     0.054 A 
BRANCH  84  85
ATOM     85  S   UNL A   1      52.374  26.044  31.457  1.00  0.00     0.124 S 
ATOM     86  O   UNL A   1      52.259  24.716  32.052  1.00  0.00    -0.237 OA
ATOM     87  O   UNL A   1      53.017  26.092  30.146  1.00  0.00    -0.237 OA
ATOM     88  O   UNL A   1      52.770  27.108  32.377  1.00  0.00    -0.744 OA
ENDBRANCH  84  85
ENDBRANCH  58  79
ENDBRANCH  32  33
ENDBRANCH  24  27
ENDBRANCH  22  23
ENDBRANCH   1  22
TORSDOF 18
ENDMDL
MODEL 2
REMARK VINA RESULT:      -9.9      2.834      3.489
REMARK SMILES CC[C@](O)(c1ccc(O)cc1)[C@H](F)C(=O)NCCCNC(=O)c1ccc(-c2c3nc(c(-c4ccc(S(=O)(=O)[O-])cc4)c4ccc([nH]4)c(-c4ccc(S(=O)(=O)[O-])cc4)c4nc(c(-c5ccc(S(=O)(=O)[O-])cc5)c5ccc2[nH]5)C=C4)C=C3)cc1
REMARK SMILES IDX 18 1 17 2 16 3 14 4 15 5 12 7 13 8 3 9 2 10 1 11 5 12 6 13
REMARK SMILES IDX 11 14 7 15 10 16 8 17 9 18 4 20 19 22 20 23 21 24 22 26
REMARK SMILES IDX 23 27 24 28 82 29 25 30 81 31 26 32 27 33 28 34 75 35 29 36
REMARK SMILES IDX 80 37 74 38 76 39 30 40 79 41 73 42 72 43 31 45 61 46 42 47
REMARK SMILES IDX 60 48 43 49 46 50 59 51 77 52 44 53 45 54 58 56 78 57 47 58
REMARK SMILES IDX 32 59 33 60 41 61 34 62 40 63 35 64 36 65 37 66 38 67 39 68
REMARK SMILES IDX 62 69 63 70 71 71 64 72 70 73 65 74 66 75 67 76 68 77 69 78
REMARK SMILES IDX 48 79 49 80 57 81 50 82 56 83 51 84 52 85 53 86 54 87 55 88
REMARK H PARENT 16 6 9 19 4 21 20 25 76 44 46 55
REMARK Flexibility Score: inf
ROOT
ATOM      1  C   UNL A   1      33.997  28.203  25.561  1.00  0.00     0.042 C 
ENDROOT
BRANCH   1   2
ATOM      2  C   UNL A   1      32.972  27.639  24.594  1.00  0.00     0.117 C 
BRANCH   2   3
ATOM      3  N   UNL A   1      33.504  27.407  23.265  1.00  0.00    -0.353 N 
ATOM      4  C   UNL A   1      33.229  26.370  22.424  1.00  0.00     0.257 C 
ATOM      5  O   UNL A   1      33.620  26.455  21.254  1.00  0.00    -0.272 OA
ATOM      6  H   UNL A   1      34.139  28.080  22.929  1.00  0.00     0.163 HD
BRANCH   4   7
ATOM      7  C   UNL A   1      32.458  25.145  22.899  1.00  0.00     0.291 C 
ATOM      8  F   UNL A   1      31.271  25.014  22.208  1.00  0.00    -0.233 F 
BRANCH   7   9
ATOM      9  C   UNL A   1      33.167  23.746  22.898  1.00  0.00     0.130 C 
BRANCH   9  10
ATOM     10  C   UNL A   1      32.194  22.642  23.390  1.00  0.00     0.040 C 
ATOM     11  C   UNL A   1      32.127  21.411  22.486  1.00  0.00     0.007 C 
ENDBRANCH   9  10
BRANCH   9  12
ATOM     12  C   UNL A   1      34.486  23.601  23.676  1.00  0.00    -0.013 A 
ATOM     13  C   UNL A   1      34.663  24.122  24.971  1.00  0.00     0.010 A 
ATOM     14  C   UNL A   1      35.586  22.933  23.095  1.00  0.00     0.010 A 
ATOM     15  C   UNL A   1      35.919  24.107  25.593  1.00  0.00     0.046 A 
ATOM     16  C   UNL A   1      36.829  22.885  23.728  1.00  0.00     0.046 A 
ATOM     17  C   UNL A   1      36.995  23.506  24.954  1.00  0.00     0.115 A 
BRANCH  17  18
ATOM     18  O   UNL A   1      38.241  23.500  25.503  1.00  0.00    -0.508 OA
ATOM     19  H   UNL A   1      38.816  24.228  25.367  1.00  0.00     0.293 HD
ENDBRANCH  17  18
ENDBRANCH   9  12
BRANCH   9  20
ATOM     20  O   UNL A   1      33.463  23.421  21.510  1.00  0.00    -0.382 OA
ATOM     21  H   UNL A   1      34.404  23.204  21.423  1.00  0.00     0.212 HD
ENDBRANCH   9  20
ENDBRANCH   7   9
ENDBRANCH   4   7
ENDBRANCH   2   3
ENDBRANCH   1   2
BRANCH   1  22
ATOM     22  C   UNL A   1      33.419  28.703  26.879  1.00  0.00     0.118 C 
BRANCH  22  23
ATOM     23  N   UNL A   1      33.464  30.150  27.050  1.00  0.00    -0.352 N 
ATOM     24  C   UNL A   1      34.454  30.926  27.618  1.00  0.00     0.251 C 
ATOM     25  H   UNL A   1      32.680  30.641  26.714  1.00  0.00     0.163 HD
ATOM     26  O   UNL A   1      34.322  32.138  27.699  1.00  0.00    -0.269 OA
BRANCH  24  27
ATOM     27  C   UNL A   1      35.659  30.264  28.170  1.00  0.00     0.039 A 
ATOM     28  C   UNL A   1      36.838  30.270  27.420  1.00  0.00     0.014 A 
ATOM     29  C   UNL A   1      35.642  29.713  29.453  1.00  0.00     0.014 A 
ATOM     30  C   UNL A   1      38.026  29.814  28.000  1.00  0.00     0.010 A 
ATOM     31  C   UNL A   1      36.840  29.342  30.056  1.00  0.00     0.010 A 
ATOM     32  C   UNL A   1      38.048  29.399  29.342  1.00  0.00    -0.014 A 
BRANCH  32  33
ATOM     33  C   UNL A   1      39.316  29.031  30.027  1.00  0.00     0.031 A 
ATOM     34  C   UNL A   1      39.761  29.791  31.247  1.00  0.00     0.074 A 
ATOM     35  C   UNL A   1      40.112  28.074  29.505  1.00  0.00     0.049 A 
ATOM     36  N   UNL A   1      40.885  29.702  31.912  1.00  0.00    -0.248 NA
ATOM     37  C   UNL A   1      38.834  30.808  31.770  1.00  0.00     0.031 C 
ATOM     38  C   UNL A   1      39.826  27.289  28.301  1.00  0.00     0.029 A 
ATOM     39  N   UNL A   1      41.337  27.607  29.918  1.00  0.00    -0.354 N 
ATOM     40  C   UNL A   1      40.812  30.668  32.909  1.00  0.00     0.074 A 
ATOM     41  C   UNL A   1      39.555  31.362  32.732  1.00  0.00     0.031 C 
ATOM     42  C   UNL A   1      40.829  26.420  28.092  1.00  0.00     0.029 A 
ATOM     43  C   UNL A   1      41.848  26.612  29.118  1.00  0.00     0.049 A 
ATOM     44  H   UNL A   1      41.804  27.952  30.712  1.00  0.00     0.167 HD
ATOM     45  C   UNL A   1      41.699  30.942  33.895  1.00  0.00     0.031 A 
ATOM     46  C   UNL A   1      43.009  25.933  29.195  1.00  0.00     0.031 A 
ATOM     47  C   UNL A   1      42.935  30.235  34.092  1.00  0.00     0.049 A 
ATOM     48  C   UNL A   1      43.973  26.243  30.310  1.00  0.00     0.074 A 
ATOM     49  C   UNL A   1      43.875  30.405  35.092  1.00  0.00     0.029 A 
ATOM     50  N   UNL A   1      43.399  29.213  33.276  1.00  0.00    -0.354 N 
ATOM     51  N   UNL A   1      43.863  27.133  31.266  1.00  0.00    -0.248 NA
ATOM     52  C   UNL A   1      45.209  25.451  30.358  1.00  0.00     0.031 C 
ATOM     53  C   UNL A   1      44.922  29.506  34.866  1.00  0.00     0.029 A 
ATOM     54  C   UNL A   1      44.614  28.748  33.747  1.00  0.00     0.049 A 
ATOM     55  H   UNL A   1      42.932  28.870  32.480  1.00  0.00     0.167 HD
ATOM     56  C   UNL A   1      45.005  26.989  32.046  1.00  0.00     0.074 A 
ATOM     57  C   UNL A   1      45.785  25.921  31.456  1.00  0.00     0.031 C 
ATOM     58  C   UNL A   1      45.374  27.679  33.154  1.00  0.00     0.031 A 
BRANCH  45  59
ATOM     59  C   UNL A   1      41.351  32.059  34.841  1.00  0.00    -0.014 A 
ATOM     60  C   UNL A   1      40.668  31.800  36.044  1.00  0.00     0.010 A 
ATOM     61  C   UNL A   1      41.728  33.379  34.538  1.00  0.00     0.010 A 
ATOM     62  C   UNL A   1      40.320  32.848  36.899  1.00  0.00     0.020 A 
ATOM     63  C   UNL A   1      41.407  34.428  35.405  1.00  0.00     0.020 A 
ATOM     64  C   UNL A   1      40.685  34.157  36.571  1.00  0.00     0.054 A 
BRANCH  64  65
ATOM     65  S   UNL A   1      40.228  35.499  37.702  1.00  0.00     0.124 S 
ATOM     66  O   UNL A   1      40.039  36.616  36.779  1.00  0.00    -0.237 OA
ATOM     67  O   UNL A   1      39.010  34.991  38.330  1.00  0.00    -0.237 OA
ATOM     68  O   UNL A   1      41.382  35.610  38.589  1.00  0.00    -0.744 OA
ENDBRANCH  64  65
ENDBRANCH  45  59
BRANCH  46  69
ATOM     69  C   UNL A   1      43.321  24.870  28.201  1.00  0.00    -0.014 A 
ATOM     70  C   UNL A   1      44.028  25.185  27.027  1.00  0.00     0.010 A 
ATOM     71  C   UNL A   1      42.916  23.541  28.421  1.00  0.00     0.010 A 
ATOM     72  C   UNL A   1      44.307  24.194  26.081  1.00  0.00     0.020 A 
ATOM     73  C   UNL A   1      43.214  22.544  27.488  1.00  0.00     0.020 A 
ATOM     74  C   UNL A   1      43.898  22.880  26.317  1.00  0.00     0.054 A 
BRANCH  74  75
ATOM     75  S   UNL A   1      44.310  21.599  25.099  1.00  0.00     0.124 S 
ATOM     76  O   UNL A   1      43.294  20.587  25.369  1.00  0.00    -0.237 OA
ATOM     77  O   UNL A   1      44.173  22.311  23.831  1.00  0.00    -0.237 OA
ATOM     78  O   UNL A   1      45.678  21.226  25.449  1.00  0.00    -0.744 OA
ENDBRANCH  74  75
ENDBRANCH  46  69
BRANCH  58  79
ATOM     79  C   UNL A   1      46.658  27.276  33.825  1.00  0.00    -0.014 A 
ATOM     80  C   UNL A   1      46.680  26.271  34.807  1.00  0.00     0.010 A 
ATOM     81  C   UNL A   1      47.866  27.875  33.424  1.00  0.00     0.010 A 
ATOM     82  C   UNL A   1      47.888  25.887  35.395  1.00  0.00     0.020 A 
ATOM     83  C   UNL A   1      49.078  27.478  33.994  1.00  0.00     0.020 A 
ATOM     84  C   UNL A   1      49.079  26.495  34.986  1.00  0.00     0.054 A 
BRANCH  84  85
ATOM     85  S   UNL A   1      50.643  25.946  35.726  1.00  0.00     0.124 S 
ATOM     86  O   UNL A   1      50.322  24.581  36.133  1.00  0.00    -0.237 OA
ATOM     87  O   UNL A   1      51.585  26.066  34.616  1.00  0.00    -0.237 OA
ATOM     88  O   UNL A   1      50.857  26.890  36.820  1.00  0.00    -0.744 OA
ENDBRANCH  84  85
ENDBRANCH  58  79
ENDBRANCH  32  33
ENDBRANCH  24  27
ENDBRANCH  22  23
ENDBRANCH   1  22
TORSDOF 18
ENDMDL
MODEL 3
REMARK VINA RESULT:      -9.9      1.058      2.166
REMARK SMILES CC[C@](O)(c1ccc(O)cc1)[C@H](F)C(=O)NCCCNC(=O)c1ccc(-c2c3nc(c(-c4ccc(S(=O)(=O)[O-])cc4)c4ccc([nH]4)c(-c4ccc(S(=O)(=O)[O-])cc4)c4nc(c(-c5ccc(S(=O)(=O)[O-])cc5)c5ccc2[nH]5)C=C4)C=C3)cc1
REMARK SMILES IDX 18 1 17 2 16 3 14 4 15 5 12 7 13 8 3 9 2 10 1 11 5 12 6 13
REMARK SMILES IDX 11 14 7 15 10 16 8 17 9 18 4 20 19 22 20 23 21 24 22 26
REMARK SMILES IDX 23 27 24 28 82 29 25 30 81 31 26 32 27 33 28 34 75 35 29 36
REMARK SMILES IDX 80 37 74 38 76 39 30 40 79 41 73 42 72 43 31 45 61 46 42 47
REMARK SMILES IDX 60 48 43 49 46 50 59 51 77 52 44 53 45 54 58 56 78 57 47 58
REMARK SMILES IDX 32 59 33 60 41 61 34 62 40 63 35 64 36 65 37 66 38 67 39 68
REMARK SMILES IDX 62 69 63 70 71 71 64 72 70 73 65 74 66 75 67 76 68 77 69 78
REMARK SMILES IDX 48 79 49 80 57 81 50 82 56 83 51 84 52 85 53 86 54 87 55 88
REMARK H PARENT 16 6 9 19 4 21 20 25 76 44 46 55
REMARK Flexibility Score: inf
ROOT
ATOM      1  C   UNL A   1      33.946  27.337  25.247  1.00  0.00     0.042 C 
ENDROOT
BRANCH   1   2
ATOM      2  C   UNL A   1      34.038  25.838  25.025  1.00  0.00     0.117 C 
BRANCH   2   3
ATOM      3  N   UNL A   1      32.993  25.093  25.700  1.00  0.00    -0.353 N 
ATOM      4  C   UNL A   1      33.131  24.004  26.508  1.00  0.00     0.257 C 
ATOM      5  O   UNL A   1      32.145  23.635  27.156  1.00  0.00    -0.272 OA
ATOM      6  H   UNL A   1      32.073  25.412  25.559  1.00  0.00     0.163 HD
BRANCH   4   7
ATOM      7  C   UNL A   1      34.458  23.264  26.623  1.00  0.00     0.291 C 
ATOM      8  F   UNL A   1      34.523  22.554  27.805  1.00  0.00    -0.233 F 
BRANCH   7   9
ATOM      9  C   UNL A   1      34.903  22.304  25.465  1.00  0.00     0.130 C 
BRANCH   9  10
ATOM     10  C   UNL A   1      36.151  22.871  24.738  1.00  0.00     0.040 C 
ATOM     11  C   UNL A   1      37.116  23.635  25.643  1.00  0.00     0.007 C 
ENDBRANCH   9  10
BRANCH   9  12
ATOM     12  C   UNL A   1      33.862  21.922  24.400  1.00  0.00    -0.013 A 
ATOM     13  C   UNL A   1      33.093  20.746  24.478  1.00  0.00     0.010 A 
ATOM     14  C   UNL A   1      33.648  22.756  23.281  1.00  0.00     0.010 A 
ATOM     15  C   UNL A   1      32.264  20.350  23.419  1.00  0.00     0.046 A 
ATOM     16  C   UNL A   1      32.795  22.381  22.241  1.00  0.00     0.046 A 
ATOM     17  C   UNL A   1      32.141  21.164  22.301  1.00  0.00     0.115 A 
BRANCH  17  18
ATOM     18  O   UNL A   1      31.377  20.802  21.235  1.00  0.00    -0.508 OA
ATOM     19  H   UNL A   1      30.859  21.444  20.790  1.00  0.00     0.293 HD
ENDBRANCH  17  18
ENDBRANCH   9  12
BRANCH   9  20
ATOM     20  O   UNL A   1      35.338  21.063  26.087  1.00  0.00    -0.382 OA
ATOM     21  H   UNL A   1      36.291  20.950  25.950  1.00  0.00     0.212 HD
ENDBRANCH   9  20
ENDBRANCH   7   9
ENDBRANCH   4   7
ENDBRANCH   2   3
ENDBRANCH   1   2
BRANCH   1  22
ATOM     22  C   UNL A   1      34.237  27.788  26.673  1.00  0.00     0.118 C 
BRANCH  22  23
ATOM     23  N   UNL A   1      33.633  29.062  27.040  1.00  0.00    -0.352 N 
ATOM     24  C   UNL A   1      34.207  30.141  27.682  1.00  0.00     0.251 C 
ATOM     25  H   UNL A   1      32.685  29.168  26.796  1.00  0.00     0.163 HD
ATOM     26  O   UNL A   1      33.544  31.137  27.933  1.00  0.00    -0.269 OA
BRANCH  24  27
ATOM     27  C   UNL A   1      35.623  30.057  28.105  1.00  0.00     0.039 A 
ATOM     28  C   UNL A   1      35.918  29.618  29.399  1.00  0.00     0.014 A 
ATOM     29  C   UNL A   1      36.653  30.333  27.203  1.00  0.00     0.014 A 
ATOM     30  C   UNL A   1      37.246  29.359  29.753  1.00  0.00     0.010 A 
ATOM     31  C   UNL A   1      37.961  29.991  27.531  1.00  0.00     0.010 A 
ATOM     32  C   UNL A   1      38.273  29.489  28.804  1.00  0.00    -0.014 A 
BRANCH  32  33
ATOM     33  C   UNL A   1      39.675  29.099  29.109  1.00  0.00     0.031 A 
ATOM     34  C   UNL A   1      40.622  30.103  29.710  1.00  0.00     0.074 A 
ATOM     35  C   UNL A   1      40.124  27.873  28.767  1.00  0.00     0.049 A 
ATOM     36  N   UNL A   1      41.907  29.994  29.937  1.00  0.00    -0.248 NA
ATOM     37  C   UNL A   1      40.058  31.413  30.073  1.00  0.00     0.031 C 
ATOM     38  C   UNL A   1      39.327  26.818  28.136  1.00  0.00     0.029 A 
ATOM     39  N   UNL A   1      41.373  27.312  28.892  1.00  0.00    -0.354 N 
ATOM     40  C   UNL A   1      42.308  31.225  30.440  1.00  0.00     0.074 A 
ATOM     41  C   UNL A   1      41.141  32.081  30.440  1.00  0.00     0.031 C 
ATOM     42  C   UNL A   1      40.096  25.730  27.960  1.00  0.00     0.029 A 
ATOM     43  C   UNL A   1      41.448  26.021  28.422  1.00  0.00     0.049 A 
ATOM     44  H   UNL A   1      42.140  27.788  29.282  1.00  0.00     0.167 HD
ATOM     45  C   UNL A   1      43.529  31.609  30.881  1.00  0.00     0.031 A 
ATOM     46  C   UNL A   1      42.490  25.168  28.363  1.00  0.00     0.031 A 
ATOM     47  C   UNL A   1      44.684  30.752  30.910  1.00  0.00     0.049 A 
ATOM     48  C   UNL A   1      43.835  25.610  28.874  1.00  0.00     0.074 A 
ATOM     49  C   UNL A   1      45.953  31.033  31.386  1.00  0.00     0.029 A 
ATOM     50  N   UNL A   1      44.709  29.443  30.453  1.00  0.00    -0.354 N 
ATOM     51  N   UNL A   1      44.181  26.767  29.384  1.00  0.00    -0.248 NA
ATOM     52  C   UNL A   1      44.925  24.626  28.809  1.00  0.00     0.031 C 
ATOM     53  C   UNL A   1      46.753  29.902  31.191  1.00  0.00     0.029 A 
ATOM     54  C   UNL A   1      45.971  28.905  30.630  1.00  0.00     0.049 A 
ATOM     55  H   UNL A   1      43.941  28.968  30.061  1.00  0.00     0.167 HD
ATOM     56  C   UNL A   1      45.523  26.642  29.726  1.00  0.00     0.074 A 
ATOM     57  C   UNL A   1      45.922  25.294  29.374  1.00  0.00     0.031 C 
ATOM     58  C   UNL A   1      46.350  27.560  30.283  1.00  0.00     0.031 A 
BRANCH  45  59
ATOM     59  C   UNL A   1      43.671  33.023  31.374  1.00  0.00    -0.014 A 
ATOM     60  C   UNL A   1      44.109  34.047  30.514  1.00  0.00     0.010 A 
ATOM     61  C   UNL A   1      43.346  33.338  32.705  1.00  0.00     0.010 A 
ATOM     62  C   UNL A   1      44.270  35.350  30.992  1.00  0.00     0.020 A 
ATOM     63  C   UNL A   1      43.479  34.646  33.179  1.00  0.00     0.020 A 
ATOM     64  C   UNL A   1      43.961  35.640  32.324  1.00  0.00     0.054 A 
BRANCH  64  65
ATOM     65  S   UNL A   1      44.172  37.341  32.917  1.00  0.00     0.124 S 
ATOM     66  O   UNL A   1      43.887  38.115  31.711  1.00  0.00    -0.237 OA
ATOM     67  O   UNL A   1      43.173  37.440  33.977  1.00  0.00    -0.237 OA
ATOM     68  O   UNL A   1      45.561  37.379  33.368  1.00  0.00    -0.744 OA
ENDBRANCH  64  65
ENDBRANCH  45  59
BRANCH  46  69
ATOM     69  C   UNL A   1      42.301  23.795  27.820  1.00  0.00    -0.014 A 
ATOM     70  C   UNL A   1      42.602  23.519  26.474  1.00  0.00     0.010 A 
ATOM     71  C   UNL A   1      41.822  22.759  28.642  1.00  0.00     0.010 A 
ATOM     72  C   UNL A   1      42.410  22.236  25.955  1.00  0.00     0.020 A 
ATOM     73  C   UNL A   1      41.650  21.470  28.130  1.00  0.00     0.020 A 
ATOM     74  C   UNL A   1      41.933  21.219  26.785  1.00  0.00     0.054 A 
BRANCH  74  75
ATOM     75  S   UNL A   1      41.733  19.549  26.104  1.00  0.00     0.124 S 
ATOM     76  O   UNL A   1      42.588  19.600  24.922  1.00  0.00    -0.237 OA
ATOM     77  O   UNL A   1      42.210  18.702  27.194  1.00  0.00    -0.237 OA
ATOM     78  O   UNL A   1      40.299  19.460  25.839  1.00  0.00    -0.744 OA
ENDBRANCH  74  75
ENDBRANCH  46  69
BRANCH  58  79
ATOM     79  C   UNL A   1      47.759  27.130  30.585  1.00  0.00    -0.014 A 
ATOM     80  C   UNL A   1      48.803  27.369  29.674  1.00  0.00     0.010 A 
ATOM     81  C   UNL A   1      48.048  26.529  31.823  1.00  0.00     0.010 A 
ATOM     82  C   UNL A   1      50.112  26.991  29.988  1.00  0.00     0.020 A 
ATOM     83  C   UNL A   1      49.359  26.170  32.149  1.00  0.00     0.020 A 
ATOM     84  C   UNL A   1      50.380  26.392  31.223  1.00  0.00     0.054 A 
BRANCH  84  85
ATOM     85  S   UNL A   1      52.094  25.956  31.631  1.00  0.00     0.124 S 
ATOM     86  O   UNL A   1      52.414  26.929  32.672  1.00  0.00    -0.237 OA
ATOM     87  O   UNL A   1      51.976  24.571  32.080  1.00  0.00    -0.237 OA
ATOM     88  O   UNL A   1      52.806  26.136  30.368  1.00  0.00    -0.744 OA
ENDBRANCH  84  85
ENDBRANCH  58  79
ENDBRANCH  32  33
ENDBRANCH  24  27
ENDBRANCH  22  23
ENDBRANCH   1  22
TORSDOF 18
ENDMDL
