MODEL 1
REMARK VINA RESULT:     -12.7      0.000      0.000
REMARK SMILES CNC(=O)c1ccc(-n2nc(C)c(C(=O)NCCCNC(=O)c3ccc(-c4c5nc(c(-c6ccc(S(=O)(=O)[O-])cc6)c6ccc([nH]6)c(-c6ccc(S(=O)(=O)[O-])cc6)c6nc(c(-c7ccc(S(=O)(=O)[O-])cc7)c7ccc4[nH]7)C=C6)C=C5)cc3)c2C)nn1
REMARK SMILES IDX 18 1 17 2 16 3 14 4 15 5 13 7 9 8 10 9 83 10 11 11 84 12
REMARK SMILES IDX 12 13 8 14 5 15 6 16 86 17 7 18 85 19 3 20 1 21 2 22 4 24
REMARK SMILES IDX 19 25 20 26 21 27 22 29 23 30 24 31 82 32 25 33 81 34 26 35
REMARK SMILES IDX 27 36 28 37 75 38 29 39 80 40 74 41 76 42 30 43 79 44 73 45
REMARK SMILES IDX 72 46 31 48 61 49 42 50 60 51 43 52 46 53 59 54 77 55 44 56
REMARK SMILES IDX 45 57 58 59 78 60 47 61 32 62 33 63 41 64 34 65 40 66 35 67
REMARK SMILES IDX 36 68 37 69 38 70 39 71 62 72 63 73 71 74 64 75 70 76 65 77
REMARK SMILES IDX 66 78 67 79 68 80 69 81 48 82 49 83 57 84 50 85 56 86 51 87
REMARK SMILES IDX 52 88 53 89 54 90 55 91
REMARK H PARENT 16 6 2 23 20 28 76 47 46 58
REMARK Flexibility Score: inf
ROOT
ATOM      1  C   UNL A   1      37.890  19.941  24.905  1.00  0.00     0.042 C 
ENDROOT
BRANCH   1   2
ATOM      2  C   UNL A   1      36.644  20.824  25.069  1.00  0.00     0.118 C 
BRANCH   2   3
ATOM      3  N   UNL A   1      35.423  20.043  25.023  1.00  0.00    -0.352 N 
ATOM      4  C   UNL A   1      34.088  20.356  24.968  1.00  0.00     0.255 C 
ATOM      5  O   UNL A   1      33.338  19.385  24.866  1.00  0.00    -0.269 OA
ATOM      6  H   UNL A   1      35.589  19.073  25.033  1.00  0.00     0.163 HD
BRANCH   4   7
ATOM      7  C   UNL A   1      33.552  21.723  24.963  1.00  0.00     0.084 A 
ATOM      8  N   UNL A   1      32.945  23.840  25.328  1.00  0.00    -0.217 N 
ATOM      9  N   UNL A   1      32.381  23.558  24.148  1.00  0.00    -0.171 NA
ATOM     10  C   UNL A   1      33.506  22.725  25.928  1.00  0.00     0.056 A 
ATOM     11  C   UNL A   1      32.752  22.291  23.902  1.00  0.00     0.073 A 
ATOM     12  C   UNL A   1      33.796  22.782  27.379  1.00  0.00     0.068 C 
ATOM     13  C   UNL A   1      32.269  21.662  22.639  1.00  0.00     0.069 C 
BRANCH   8  14
ATOM     14  C   UNL A   1      32.909  25.129  25.922  1.00  0.00     0.175 A 
ATOM     15  C   UNL A   1      32.373  27.782  26.111  1.00  0.00     0.150 A 
ATOM     16  C   UNL A   1      31.400  26.887  26.526  1.00  0.00     0.040 A 
ATOM     17  N   UNL A   1      33.580  27.373  25.652  1.00  0.00    -0.143 NA
ATOM     18  C   UNL A   1      31.683  25.531  26.454  1.00  0.00     0.053 A 
ATOM     19  N   UNL A   1      33.855  26.025  25.558  1.00  0.00    -0.130 NA
BRANCH  15  20
ATOM     20  C   UNL A   1      32.095  29.240  26.067  1.00  0.00     0.271 C 
ATOM     21  C   UNL A   1      31.135  29.177  23.708  1.00  0.00     0.143 C 
ATOM     22  N   UNL A   1      31.615  29.817  24.911  1.00  0.00    -0.354 N 
ATOM     23  H   UNL A   1      31.597  30.800  24.905  1.00  0.00     0.163 HD
ATOM     24  O   UNL A   1      32.326  29.955  27.039  1.00  0.00    -0.267 OA
ENDBRANCH  15  20
ENDBRANCH   8  14
ENDBRANCH   4   7
ENDBRANCH   2   3
ENDBRANCH   1   2
BRANCH   1  25
ATOM     25  C   UNL A   1      39.089  20.386  25.690  1.00  0.00     0.118 C 
BRANCH  25  26
ATOM     26  N   UNL A   1      40.027  19.282  25.946  1.00  0.00    -0.352 N 
ATOM     27  C   UNL A   1      41.410  19.344  26.117  1.00  0.00     0.251 C 
ATOM     28  H   UNL A   1      39.627  18.384  26.006  1.00  0.00     0.163 HD
ATOM     29  O   UNL A   1      42.109  18.365  25.963  1.00  0.00    -0.269 OA
BRANCH  27  30
ATOM     30  C   UNL A   1      41.974  20.652  26.500  1.00  0.00     0.039 A 
ATOM     31  C   UNL A   1      42.507  21.582  25.605  1.00  0.00     0.014 A 
ATOM     32  C   UNL A   1      41.794  20.978  27.827  1.00  0.00     0.014 A 
ATOM     33  C   UNL A   1      42.800  22.858  26.092  1.00  0.00     0.010 A 
ATOM     34  C   UNL A   1      41.614  22.286  28.116  1.00  0.00     0.010 A 
ATOM     35  C   UNL A   1      42.343  23.188  27.372  1.00  0.00    -0.014 A 
BRANCH  35  36
ATOM     36  C   UNL A   1      42.528  24.458  28.048  1.00  0.00     0.031 A 
ATOM     37  C   UNL A   1      41.395  25.392  27.881  1.00  0.00     0.074 A 
ATOM     38  C   UNL A   1      43.432  24.572  29.052  1.00  0.00     0.049 A 
ATOM     39  N   UNL A   1      41.338  26.431  27.118  1.00  0.00    -0.248 NA
ATOM     40  C   UNL A   1      40.095  25.007  28.463  1.00  0.00     0.031 C 
ATOM     41  C   UNL A   1      44.325  23.540  29.613  1.00  0.00     0.029 A 
ATOM     42  N   UNL A   1      43.633  25.608  29.901  1.00  0.00    -0.354 N 
ATOM     43  C   UNL A   1      40.085  26.983  27.355  1.00  0.00     0.074 A 
ATOM     44  C   UNL A   1      39.292  25.923  27.919  1.00  0.00     0.031 C 
ATOM     45  C   UNL A   1      44.772  23.930  30.828  1.00  0.00     0.029 A 
ATOM     46  C   UNL A   1      44.346  25.298  31.056  1.00  0.00     0.049 A 
ATOM     47  H   UNL A   1      43.299  26.515  29.716  1.00  0.00     0.167 HD
ATOM     48  C   UNL A   1      39.900  28.333  27.402  1.00  0.00     0.031 A 
ATOM     49  C   UNL A   1      44.530  26.103  32.135  1.00  0.00     0.031 A 
ATOM     50  C   UNL A   1      41.083  29.035  26.957  1.00  0.00     0.049 A 
ATOM     51  C   UNL A   1      44.230  27.488  31.683  1.00  0.00     0.074 A 
ATOM     52  C   UNL A   1      41.842  29.024  25.804  1.00  0.00     0.029 A 
ATOM     53  N   UNL A   1      41.895  29.558  27.941  1.00  0.00    -0.354 N 
ATOM     54  N   UNL A   1      44.928  28.109  30.770  1.00  0.00    -0.248 NA
ATOM     55  C   UNL A   1      42.872  27.981  31.863  1.00  0.00     0.031 C 
ATOM     56  C   UNL A   1      43.195  29.072  26.257  1.00  0.00     0.029 A 
ATOM     57  C   UNL A   1      43.191  29.212  27.647  1.00  0.00     0.049 A 
ATOM     58  H   UNL A   1      41.598  30.086  28.717  1.00  0.00     0.167 HD
ATOM     59  C   UNL A   1      43.988  28.750  29.972  1.00  0.00     0.074 A 
ATOM     60  C   UNL A   1      42.750  28.715  30.751  1.00  0.00     0.031 C 
ATOM     61  C   UNL A   1      44.221  28.975  28.643  1.00  0.00     0.031 A 
BRANCH  48  62
ATOM     62  C   UNL A   1      38.851  29.017  28.252  1.00  0.00    -0.014 A 
ATOM     63  C   UNL A   1      37.853  29.773  27.604  1.00  0.00     0.010 A 
ATOM     64  C   UNL A   1      38.944  29.161  29.652  1.00  0.00     0.010 A 
ATOM     65  C   UNL A   1      37.058  30.686  28.309  1.00  0.00     0.020 A 
ATOM     66  C   UNL A   1      38.127  30.032  30.370  1.00  0.00     0.020 A 
ATOM     67  C   UNL A   1      37.214  30.820  29.688  1.00  0.00     0.054 A 
BRANCH  67  68
ATOM     68  S   UNL A   1      36.268  32.082  30.571  1.00  0.00     0.124 S 
ATOM     69  O   UNL A   1      37.323  32.985  31.019  1.00  0.00    -0.237 OA
ATOM     70  O   UNL A   1      35.390  32.596  29.525  1.00  0.00    -0.237 OA
ATOM     71  O   UNL A   1      35.596  31.327  31.628  1.00  0.00    -0.744 OA
ENDBRANCH  67  68
ENDBRANCH  48  62
BRANCH  49  72
ATOM     72  C   UNL A   1      44.611  25.711  33.568  1.00  0.00    -0.014 A 
ATOM     73  C   UNL A   1      45.833  25.719  34.269  1.00  0.00     0.010 A 
ATOM     74  C   UNL A   1      43.430  25.585  34.330  1.00  0.00     0.010 A 
ATOM     75  C   UNL A   1      45.867  25.658  35.676  1.00  0.00     0.020 A 
ATOM     76  C   UNL A   1      43.455  25.521  35.730  1.00  0.00     0.020 A 
ATOM     77  C   UNL A   1      44.674  25.580  36.399  1.00  0.00     0.054 A 
BRANCH  77  78
ATOM     78  S   UNL A   1      44.713  25.675  38.217  1.00  0.00     0.124 S 
ATOM     79  O   UNL A   1      44.748  24.267  38.602  1.00  0.00    -0.237 OA
ATOM     80  O   UNL A   1      45.936  26.429  38.471  1.00  0.00    -0.237 OA
ATOM     81  O   UNL A   1      43.475  26.378  38.552  1.00  0.00    -0.744 OA
ENDBRANCH  77  78
ENDBRANCH  49  72
BRANCH  61  82
ATOM     82  C   UNL A   1      45.620  28.752  28.105  1.00  0.00    -0.014 A 
ATOM     83  C   UNL A   1      46.075  27.529  27.568  1.00  0.00     0.010 A 
ATOM     84  C   UNL A   1      46.452  29.879  27.984  1.00  0.00     0.010 A 
ATOM     85  C   UNL A   1      47.334  27.437  26.950  1.00  0.00     0.020 A 
ATOM     86  C   UNL A   1      47.696  29.798  27.357  1.00  0.00     0.020 A 
ATOM     87  C   UNL A   1      48.138  28.576  26.851  1.00  0.00     0.054 A 
BRANCH  87  88
ATOM     88  S   UNL A   1      49.749  28.468  26.020  1.00  0.00     0.124 S 
ATOM     89  O   UNL A   1      49.385  28.019  24.679  1.00  0.00    -0.237 OA
ATOM     90  O   UNL A   1      50.255  29.836  26.109  1.00  0.00    -0.237 OA
ATOM     91  O   UNL A   1      50.488  27.491  26.819  1.00  0.00    -0.744 OA
ENDBRANCH  87  88
ENDBRANCH  61  82
ENDBRANCH  35  36
ENDBRANCH  27  30
ENDBRANCH  25  26
ENDBRANCH   1  25
TORSDOF 15
ENDMDL
MODEL 2
REMARK VINA RESULT:     -12.7      4.406     10.303
REMARK SMILES CNC(=O)c1ccc(-n2nc(C)c(C(=O)NCCCNC(=O)c3ccc(-c4c5nc(c(-c6ccc(S(=O)(=O)[O-])cc6)c6ccc([nH]6)c(-c6ccc(S(=O)(=O)[O-])cc6)c6nc(c(-c7ccc(S(=O)(=O)[O-])cc7)c7ccc4[nH]7)C=C6)C=C5)cc3)c2C)nn1
REMARK SMILES IDX 18 1 17 2 16 3 14 4 15 5 13 7 9 8 10 9 83 10 11 11 84 12
REMARK SMILES IDX 12 13 8 14 5 15 6 16 86 17 7 18 85 19 3 20 1 21 2 22 4 24
REMARK SMILES IDX 19 25 20 26 21 27 22 29 23 30 24 31 82 32 25 33 81 34 26 35
REMARK SMILES IDX 27 36 28 37 75 38 29 39 80 40 74 41 76 42 30 43 79 44 73 45
REMARK SMILES IDX 72 46 31 48 61 49 42 50 60 51 43 52 46 53 59 54 77 55 44 56
REMARK SMILES IDX 45 57 58 59 78 60 47 61 32 62 33 63 41 64 34 65 40 66 35 67
REMARK SMILES IDX 36 68 37 69 38 70 39 71 62 72 63 73 71 74 64 75 70 76 65 77
REMARK SMILES IDX 66 78 67 79 68 80 69 81 48 82 49 83 57 84 50 85 56 86 51 87
REMARK SMILES IDX 52 88 53 89 54 90 55 91
REMARK H PARENT 16 6 2 23 20 28 76 47 46 58
REMARK Flexibility Score: inf
ROOT
ATOM      1  C   UNL A   1      31.460  31.827  26.704  1.00  0.00     0.042 C 
ENDROOT
BRANCH   1   2
ATOM      2  C   UNL A   1      31.686  30.451  26.059  1.00  0.00     0.118 C 
BRANCH   2   3
ATOM      3  N   UNL A   1      30.993  30.333  24.791  1.00  0.00    -0.352 N 
ATOM      4  C   UNL A   1      30.821  29.316  23.886  1.00  0.00     0.255 C 
ATOM      5  O   UNL A   1      30.086  29.593  22.938  1.00  0.00    -0.269 OA
ATOM      6  H   UNL A   1      30.547  31.167  24.519  1.00  0.00     0.163 HD
BRANCH   4   7
ATOM      7  C   UNL A   1      31.392  27.970  24.025  1.00  0.00     0.084 A 
ATOM      8  N   UNL A   1      32.635  26.132  24.261  1.00  0.00    -0.217 N 
ATOM      9  N   UNL A   1      31.388  25.653  24.196  1.00  0.00    -0.171 NA
ATOM     10  C   UNL A   1      32.697  27.489  23.991  1.00  0.00     0.056 A 
ATOM     11  C   UNL A   1      30.622  26.748  24.073  1.00  0.00     0.073 A 
ATOM     12  C   UNL A   1      34.009  28.071  23.626  1.00  0.00     0.068 C 
ATOM     13  C   UNL A   1      29.148  26.553  23.965  1.00  0.00     0.069 C 
BRANCH   8  14
ATOM     14  C   UNL A   1      33.771  25.318  24.513  1.00  0.00     0.175 A 
ATOM     15  C   UNL A   1      35.148  23.050  25.079  1.00  0.00     0.150 A 
ATOM     16  C   UNL A   1      34.882  23.339  23.749  1.00  0.00     0.040 A 
ATOM     17  N   UNL A   1      34.774  23.875  26.085  1.00  0.00    -0.143 NA
ATOM     18  C   UNL A   1      34.201  24.512  23.458  1.00  0.00     0.053 A 
ATOM     19  N   UNL A   1      34.076  25.029  25.799  1.00  0.00    -0.130 NA
BRANCH  15  20
ATOM     20  C   UNL A   1      35.782  21.763  25.464  1.00  0.00     0.271 C 
ATOM     21  C   UNL A   1      33.573  20.502  25.609  1.00  0.00     0.143 C 
ATOM     22  N   UNL A   1      34.998  20.673  25.775  1.00  0.00    -0.354 N 
ATOM     23  H   UNL A   1      35.475  19.906  26.164  1.00  0.00     0.163 HD
ATOM     24  O   UNL A   1      37.004  21.664  25.550  1.00  0.00    -0.267 OA
ENDBRANCH  15  20
ENDBRANCH   8  14
ENDBRANCH   4   7
ENDBRANCH   2   3
ENDBRANCH   1   2
BRANCH   1  25
ATOM     25  C   UNL A   1      32.691  32.472  27.269  1.00  0.00     0.118 C 
BRANCH  25  26
ATOM     26  N   UNL A   1      32.492  33.904  27.546  1.00  0.00    -0.352 N 
ATOM     27  C   UNL A   1      33.043  34.670  28.572  1.00  0.00     0.251 C 
ATOM     28  H   UNL A   1      31.894  34.382  26.927  1.00  0.00     0.163 HD
ATOM     29  O   UNL A   1      32.542  35.719  28.915  1.00  0.00    -0.269 OA
BRANCH  27  30
ATOM     30  C   UNL A   1      34.265  34.146  29.210  1.00  0.00     0.039 A 
ATOM     31  C   UNL A   1      34.288  33.379  30.377  1.00  0.00     0.014 A 
ATOM     32  C   UNL A   1      35.414  34.334  28.471  1.00  0.00     0.014 A 
ATOM     33  C   UNL A   1      35.496  32.776  30.734  1.00  0.00     0.010 A 
ATOM     34  C   UNL A   1      36.363  33.376  28.562  1.00  0.00     0.010 A 
ATOM     35  C   UNL A   1      36.536  32.795  29.799  1.00  0.00    -0.014 A 
BRANCH  35  36
ATOM     36  C   UNL A   1      37.854  32.213  29.969  1.00  0.00     0.031 A 
ATOM     37  C   UNL A   1      37.957  30.820  29.488  1.00  0.00     0.074 A 
ATOM     38  C   UNL A   1      38.936  33.012  30.143  1.00  0.00     0.049 A 
ATOM     39  N   UNL A   1      37.993  29.743  30.197  1.00  0.00    -0.248 NA
ATOM     40  C   UNL A   1      37.782  30.577  28.042  1.00  0.00     0.031 C 
ATOM     41  C   UNL A   1      38.999  34.485  30.191  1.00  0.00     0.029 A 
ATOM     42  N   UNL A   1      40.248  32.675  30.155  1.00  0.00    -0.354 N 
ATOM     43  C   UNL A   1      38.133  28.710  29.278  1.00  0.00     0.074 A 
ATOM     44  C   UNL A   1      37.689  29.247  28.018  1.00  0.00     0.031 C 
ATOM     45  C   UNL A   1      40.269  34.899  29.984  1.00  0.00     0.029 A 
ATOM     46  C   UNL A   1      41.133  33.733  29.964  1.00  0.00     0.049 A 
ATOM     47  H   UNL A   1      40.554  31.750  30.290  1.00  0.00     0.167 HD
ATOM     48  C   UNL A   1      38.922  27.629  29.538  1.00  0.00     0.031 A 
ATOM     49  C   UNL A   1      42.473  33.641  29.762  1.00  0.00     0.031 A 
ATOM     50  C   UNL A   1      39.354  27.622  30.918  1.00  0.00     0.049 A 
ATOM     51  C   UNL A   1      42.876  32.285  30.222  1.00  0.00     0.074 A 
ATOM     52  C   UNL A   1      38.709  27.639  32.138  1.00  0.00     0.029 A 
ATOM     53  N   UNL A   1      40.639  28.061  31.162  1.00  0.00    -0.354 N 
ATOM     54  N   UNL A   1      42.769  31.891  31.463  1.00  0.00    -0.248 NA
ATOM     55  C   UNL A   1      42.909  31.216  29.235  1.00  0.00     0.031 C 
ATOM     56  C   UNL A   1      39.471  28.540  32.941  1.00  0.00     0.029 A 
ATOM     57  C   UNL A   1      40.591  28.945  32.211  1.00  0.00     0.049 A 
ATOM     58  H   UNL A   1      41.448  27.788  30.670  1.00  0.00     0.167 HD
ATOM     59  C   UNL A   1      42.283  30.591  31.387  1.00  0.00     0.074 A 
ATOM     60  C   UNL A   1      42.483  30.198  29.991  1.00  0.00     0.031 C 
ATOM     61  C   UNL A   1      41.493  30.070  32.375  1.00  0.00     0.031 A 
BRANCH  48  62
ATOM     62  C   UNL A   1      39.658  26.841  28.478  1.00  0.00    -0.014 A 
ATOM     63  C   UNL A   1      39.524  25.438  28.471  1.00  0.00     0.010 A 
ATOM     64  C   UNL A   1      40.667  27.383  27.653  1.00  0.00     0.010 A 
ATOM     65  C   UNL A   1      40.407  24.623  27.750  1.00  0.00     0.020 A 
ATOM     66  C   UNL A   1      41.523  26.584  26.895  1.00  0.00     0.020 A 
ATOM     67  C   UNL A   1      41.412  25.205  26.980  1.00  0.00     0.054 A 
BRANCH  67  68
ATOM     68  S   UNL A   1      42.620  24.148  26.147  1.00  0.00     0.124 S 
ATOM     69  O   UNL A   1      41.826  22.957  25.865  1.00  0.00    -0.237 OA
ATOM     70  O   UNL A   1      42.990  24.956  24.990  1.00  0.00    -0.237 OA
ATOM     71  O   UNL A   1      43.672  23.980  27.148  1.00  0.00    -0.744 OA
ENDBRANCH  67  68
ENDBRANCH  48  62
BRANCH  49  72
ATOM     72  C   UNL A   1      43.333  34.502  28.905  1.00  0.00    -0.014 A 
ATOM     73  C   UNL A   1      42.808  35.209  27.805  1.00  0.00     0.010 A 
ATOM     74  C   UNL A   1      44.634  34.843  29.332  1.00  0.00     0.010 A 
ATOM     75  C   UNL A   1      43.534  36.251  27.196  1.00  0.00     0.020 A 
ATOM     76  C   UNL A   1      45.363  35.877  28.730  1.00  0.00     0.020 A 
ATOM     77  C   UNL A   1      44.801  36.592  27.676  1.00  0.00     0.054 A 
BRANCH  77  78
ATOM     78  S   UNL A   1      45.661  38.047  26.999  1.00  0.00     0.124 S 
ATOM     79  O   UNL A   1      44.556  38.855  26.491  1.00  0.00    -0.237 OA
ATOM     80  O   UNL A   1      46.349  38.584  28.170  1.00  0.00    -0.237 OA
ATOM     81  O   UNL A   1      46.538  37.483  25.975  1.00  0.00    -0.744 OA
ENDBRANCH  77  78
ENDBRANCH  49  72
BRANCH  61  82
ATOM     82  C   UNL A   1      41.367  30.834  33.679  1.00  0.00    -0.014 A 
ATOM     83  C   UNL A   1      40.418  31.852  33.910  1.00  0.00     0.010 A 
ATOM     84  C   UNL A   1      42.130  30.379  34.768  1.00  0.00     0.010 A 
ATOM     85  C   UNL A   1      40.258  32.411  35.189  1.00  0.00     0.020 A 
ATOM     86  C   UNL A   1      41.965  30.919  36.045  1.00  0.00     0.020 A 
ATOM     87  C   UNL A   1      41.036  31.939  36.250  1.00  0.00     0.054 A 
BRANCH  87  88
ATOM     88  S   UNL A   1      40.805  32.635  37.911  1.00  0.00     0.124 S 
ATOM     89  O   UNL A   1      41.156  34.039  37.719  1.00  0.00    -0.237 OA
ATOM     90  O   UNL A   1      39.393  32.371  38.182  1.00  0.00    -0.237 OA
ATOM     91  O   UNL A   1      41.738  31.873  38.741  1.00  0.00    -0.744 OA
ENDBRANCH  87  88
ENDBRANCH  61  82
ENDBRANCH  35  36
ENDBRANCH  27  30
ENDBRANCH  25  26
ENDBRANCH   1  25
TORSDOF 15
ENDMDL
MODEL 3
REMARK VINA RESULT:     -12.5      1.084      1.853
REMARK SMILES CNC(=O)c1ccc(-n2nc(C)c(C(=O)NCCCNC(=O)c3ccc(-c4c5nc(c(-c6ccc(S(=O)(=O)[O-])cc6)c6ccc([nH]6)c(-c6ccc(S(=O)(=O)[O-])cc6)c6nc(c(-c7ccc(S(=O)(=O)[O-])cc7)c7ccc4[nH]7)C=C6)C=C5)cc3)c2C)nn1
REMARK SMILES IDX 18 1 17 2 16 3 14 4 15 5 13 7 9 8 10 9 83 10 11 11 84 12
REMARK SMILES IDX 12 13 8 14 5 15 6 16 86 17 7 18 85 19 3 20 1 21 2 22 4 24
REMARK SMILES IDX 19 25 20 26 21 27 22 29 23 30 24 31 82 32 25 33 81 34 26 35
REMARK SMILES IDX 27 36 28 37 75 38 29 39 80 40 74 41 76 42 30 43 79 44 73 45
REMARK SMILES IDX 72 46 31 48 61 49 42 50 60 51 43 52 46 53 59 54 77 55 44 56
REMARK SMILES IDX 45 57 58 59 78 60 47 61 32 62 33 63 41 64 34 65 40 66 35 67
REMARK SMILES IDX 36 68 37 69 38 70 39 71 62 72 63 73 71 74 64 75 70 76 65 77
REMARK SMILES IDX 66 78 67 79 68 80 69 81 48 82 49 83 57 84 50 85 56 86 51 87
REMARK SMILES IDX 52 88 53 89 54 90 55 91
REMARK H PARENT 16 6 2 23 20 28 76 47 46 58
REMARK Flexibility Score: inf
ROOT
ATOM      1  C   UNL A   1      37.780  19.903  25.000  1.00  0.00     0.042 C 
ENDROOT
BRANCH   1   2
ATOM      2  C   UNL A   1      36.617  20.904  25.053  1.00  0.00     0.118 C 
BRANCH   2   3
ATOM      3  N   UNL A   1      35.332  20.232  25.083  1.00  0.00    -0.352 N 
ATOM      4  C   UNL A   1      34.028  20.655  24.999  1.00  0.00     0.255 C 
ATOM      5  O   UNL A   1      33.196  19.748  24.991  1.00  0.00    -0.269 OA
ATOM      6  H   UNL A   1      35.412  19.257  25.188  1.00  0.00     0.163 HD
BRANCH   4   7
ATOM      7  C   UNL A   1      33.614  22.056  24.860  1.00  0.00     0.084 A 
ATOM      8  N   UNL A   1      32.844  24.064  24.263  1.00  0.00    -0.217 N 
ATOM      9  N   UNL A   1      33.308  24.269  25.501  1.00  0.00    -0.171 NA
ATOM     10  C   UNL A   1      33.162  22.806  23.778  1.00  0.00     0.056 A 
ATOM     11  C   UNL A   1      33.758  23.064  25.885  1.00  0.00     0.073 A 
ATOM     12  C   UNL A   1      33.085  22.579  22.317  1.00  0.00     0.068 C 
ATOM     13  C   UNL A   1      34.359  22.952  27.245  1.00  0.00     0.069 C 
BRANCH   8  14
ATOM     14  C   UNL A   1      32.162  25.058  23.511  1.00  0.00     0.175 A 
ATOM     15  C   UNL A   1      31.119  27.500  22.959  1.00  0.00     0.150 A 
ATOM     16  C   UNL A   1      32.436  27.255  22.602  1.00  0.00     0.040 A 
ATOM     17  N   UNL A   1      30.341  26.554  23.537  1.00  0.00    -0.143 NA
ATOM     18  C   UNL A   1      32.961  25.998  22.860  1.00  0.00     0.053 A 
ATOM     19  N   UNL A   1      30.869  25.312  23.816  1.00  0.00    -0.130 NA
BRANCH  15  20
ATOM     20  C   UNL A   1      30.528  28.854  22.803  1.00  0.00     0.271 C 
ATOM     21  C   UNL A   1      31.343  29.676  25.073  1.00  0.00     0.143 C 
ATOM     22  N   UNL A   1      30.594  29.759  23.841  1.00  0.00    -0.354 N 
ATOM     23  H   UNL A   1      30.056  30.575  23.725  1.00  0.00     0.163 HD
ATOM     24  O   UNL A   1      29.942  29.171  21.771  1.00  0.00    -0.267 OA
ENDBRANCH  15  20
ENDBRANCH   8  14
ENDBRANCH   4   7
ENDBRANCH   2   3
ENDBRANCH   1   2
BRANCH   1  25
ATOM     25  C   UNL A   1      39.070  20.400  25.584  1.00  0.00     0.118 C 
BRANCH  25  26
ATOM     26  N   UNL A   1      40.017  19.306  25.853  1.00  0.00    -0.352 N 
ATOM     27  C   UNL A   1      41.394  19.386  26.058  1.00  0.00     0.251 C 
ATOM     28  H   UNL A   1      39.629  18.402  25.893  1.00  0.00     0.163 HD
ATOM     29  O   UNL A   1      42.111  18.419  25.912  1.00  0.00    -0.269 OA
BRANCH  27  30
ATOM     30  C   UNL A   1      41.929  20.698  26.469  1.00  0.00     0.039 A 
ATOM     31  C   UNL A   1      42.468  21.647  25.598  1.00  0.00     0.014 A 
ATOM     32  C   UNL A   1      41.715  21.006  27.796  1.00  0.00     0.014 A 
ATOM     33  C   UNL A   1      42.731  22.921  26.106  1.00  0.00     0.010 A 
ATOM     34  C   UNL A   1      41.509  22.307  28.095  1.00  0.00     0.010 A 
ATOM     35  C   UNL A   1      42.240  23.228  27.379  1.00  0.00    -0.014 A 
BRANCH  35  36
ATOM     36  C   UNL A   1      42.390  24.493  28.074  1.00  0.00     0.031 A 
ATOM     37  C   UNL A   1      41.239  25.404  27.908  1.00  0.00     0.074 A 
ATOM     38  C   UNL A   1      43.282  24.614  29.088  1.00  0.00     0.049 A 
ATOM     39  N   UNL A   1      41.166  26.452  27.159  1.00  0.00    -0.248 NA
ATOM     40  C   UNL A   1      39.942  24.982  28.472  1.00  0.00     0.031 C 
ATOM     41  C   UNL A   1      44.193  23.594  29.644  1.00  0.00     0.029 A 
ATOM     42  N   UNL A   1      43.452  25.642  29.953  1.00  0.00    -0.354 N 
ATOM     43  C   UNL A   1      39.898  26.973  27.390  1.00  0.00     0.074 A 
ATOM     44  C   UNL A   1      39.124  25.888  27.933  1.00  0.00     0.031 C 
ATOM     45  C   UNL A   1      44.620  23.978  30.868  1.00  0.00     0.029 A 
ATOM     46  C   UNL A   1      44.161  25.333  31.110  1.00  0.00     0.049 A 
ATOM     47  H   UNL A   1      43.100  26.544  29.776  1.00  0.00     0.167 HD
ATOM     48  C   UNL A   1      39.683  28.318  27.454  1.00  0.00     0.031 A 
ATOM     49  C   UNL A   1      44.317  26.127  32.201  1.00  0.00     0.031 A 
ATOM     50  C   UNL A   1      40.855  29.051  27.030  1.00  0.00     0.049 A 
ATOM     51  C   UNL A   1      43.990  27.511  31.765  1.00  0.00     0.074 A 
ATOM     52  C   UNL A   1      41.625  29.073  25.884  1.00  0.00     0.029 A 
ATOM     53  N   UNL A   1      41.646  29.579  28.028  1.00  0.00    -0.354 N 
ATOM     54  N   UNL A   1      44.683  28.159  30.867  1.00  0.00    -0.248 NA
ATOM     55  C   UNL A   1      42.621  27.971  31.938  1.00  0.00     0.031 C 
ATOM     56  C   UNL A   1      42.971  29.145  26.351  1.00  0.00     0.029 A 
ATOM     57  C   UNL A   1      42.951  29.266  27.743  1.00  0.00     0.049 A 
ATOM     58  H   UNL A   1      41.330  30.090  28.809  1.00  0.00     0.167 HD
ATOM     59  C   UNL A   1      43.737  28.790  30.068  1.00  0.00     0.074 A 
ATOM     60  C   UNL A   1      42.492  28.717  30.835  1.00  0.00     0.031 C 
ATOM     61  C   UNL A   1      43.977  29.038  28.745  1.00  0.00     0.031 A 
BRANCH  48  62
ATOM     62  C   UNL A   1      38.612  28.967  28.302  1.00  0.00    -0.014 A 
ATOM     63  C   UNL A   1      37.618  29.730  27.657  1.00  0.00     0.010 A 
ATOM     64  C   UNL A   1      38.677  29.072  29.708  1.00  0.00     0.010 A 
ATOM     65  C   UNL A   1      36.799  30.615  28.372  1.00  0.00     0.020 A 
ATOM     66  C   UNL A   1      37.837  29.915  30.434  1.00  0.00     0.020 A 
ATOM     67  C   UNL A   1      36.928  30.712  29.756  1.00  0.00     0.054 A 
BRANCH  67  68
ATOM     68  S   UNL A   1      35.952  31.939  30.657  1.00  0.00     0.124 S 
ATOM     69  O   UNL A   1      34.830  32.149  29.749  1.00  0.00    -0.237 OA
ATOM     70  O   UNL A   1      35.645  31.236  31.898  1.00  0.00    -0.237 OA
ATOM     71  O   UNL A   1      36.870  33.069  30.795  1.00  0.00    -0.744 OA
ENDBRANCH  67  68
ENDBRANCH  48  62
BRANCH  49  72
ATOM     72  C   UNL A   1      44.393  25.717  33.630  1.00  0.00    -0.014 A 
ATOM     73  C   UNL A   1      45.614  25.348  34.229  1.00  0.00     0.010 A 
ATOM     74  C   UNL A   1      43.296  25.949  34.487  1.00  0.00     0.010 A 
ATOM     75  C   UNL A   1      45.743  25.269  35.630  1.00  0.00     0.020 A 
ATOM     76  C   UNL A   1      43.416  25.870  35.881  1.00  0.00     0.020 A 
ATOM     77  C   UNL A   1      44.646  25.551  36.448  1.00  0.00     0.054 A 
BRANCH  77  78
ATOM     78  S   UNL A   1      44.861  25.615  38.255  1.00  0.00     0.124 S 
ATOM     79  O   UNL A   1      43.656  26.316  38.689  1.00  0.00    -0.237 OA
ATOM     80  O   UNL A   1      44.935  24.203  38.618  1.00  0.00    -0.237 OA
ATOM     81  O   UNL A   1      46.108  26.360  38.427  1.00  0.00    -0.744 OA
ENDBRANCH  77  78
ENDBRANCH  49  72
BRANCH  61  82
ATOM     82  C   UNL A   1      45.386  28.853  28.218  1.00  0.00    -0.014 A 
ATOM     83  C   UNL A   1      46.374  29.860  28.230  1.00  0.00     0.010 A 
ATOM     84  C   UNL A   1      45.772  27.551  27.853  1.00  0.00     0.010 A 
ATOM     85  C   UNL A   1      47.700  29.574  27.865  1.00  0.00     0.020 A 
ATOM     86  C   UNL A   1      47.091  27.256  27.506  1.00  0.00     0.020 A 
ATOM     87  C   UNL A   1      48.049  28.270  27.503  1.00  0.00     0.054 A 
BRANCH  87  88
ATOM     88  S   UNL A   1      49.770  27.889  27.068  1.00  0.00     0.124 S 
ATOM     89  O   UNL A   1      50.498  28.287  28.270  1.00  0.00    -0.237 OA
ATOM     90  O   UNL A   1      49.731  26.452  26.804  1.00  0.00    -0.237 OA
ATOM     91  O   UNL A   1      50.024  28.719  25.890  1.00  0.00    -0.744 OA
ENDBRANCH  87  88
ENDBRANCH  61  82
ENDBRANCH  35  36
ENDBRANCH  27  30
ENDBRANCH  25  26
ENDBRANCH   1  25
TORSDOF 15
ENDMDL
