MODEL 1
REMARK VINA RESULT:     -12.0      0.000      0.000
REMARK SMILES Cc1cc(C)c2c(=O)n(CCCC(=O)NCCCNC(=O)c3ccc(-c4c5nc(c(-c6ccc(S(=O)(=O)[O-])cc6)c6ccc([nH]6)c(-c6ccc(S(=O)(=O)[O-])cc6)c6nc(c(-c7ccc(S(=O)(=O)[O-])cc7)c7ccc4[nH]7)C=C6)C=C5)cc3)sc2n1
REMARK SMILES IDX 17 1 16 2 15 3 13 4 14 5 12 7 11 8 10 9 9 10 1 11 2 12 3 13
REMARK SMILES IDX 84 14 4 15 83 16 5 17 6 18 82 19 7 20 8 21 18 22 19 23 20 24
REMARK SMILES IDX 21 26 22 27 23 28 81 29 24 30 80 31 25 32 26 33 27 34 74 35
REMARK SMILES IDX 28 36 79 37 73 38 75 39 29 40 78 41 72 42 71 43 30 45 60 46
REMARK SMILES IDX 41 47 59 48 42 49 45 50 58 51 76 52 43 53 44 54 57 56 77 57
REMARK SMILES IDX 46 58 31 59 32 60 40 61 33 62 39 63 34 64 35 65 36 66 37 67
REMARK SMILES IDX 38 68 61 69 62 70 70 71 63 72 69 73 64 74 65 75 66 76 67 77
REMARK SMILES IDX 68 78 47 79 48 80 56 81 49 82 55 83 50 84 51 85 52 86 53 87
REMARK SMILES IDX 54 88
REMARK H PARENT 15 6 19 25 75 44 45 55
REMARK Flexibility Score: inf
ROOT
ATOM      1  C   UNL A   1      38.936  22.323  26.217  1.00  0.00     0.042 C 
ENDROOT
BRANCH   1   2
ATOM      2  C   UNL A   1      37.869  23.379  25.916  1.00  0.00     0.117 C 
BRANCH   2   3
ATOM      3  N   UNL A   1      37.528  23.404  24.505  1.00  0.00    -0.356 N 
ATOM      4  C   UNL A   1      36.489  22.829  23.841  1.00  0.00     0.220 C 
ATOM      5  O   UNL A   1      36.445  22.943  22.616  1.00  0.00    -0.275 OA
ATOM      6  H   UNL A   1      38.148  23.917  23.938  1.00  0.00     0.163 HD
BRANCH   4   7
ATOM      7  C   UNL A   1      35.370  22.139  24.592  1.00  0.00     0.102 C 
BRANCH   7   8
ATOM      8  C   UNL A   1      34.021  21.978  23.883  1.00  0.00     0.033 C 
BRANCH   8   9
ATOM      9  C   UNL A   1      33.136  23.196  23.582  1.00  0.00     0.139 C 
BRANCH   9  10
ATOM     10  N   UNL A   1      33.376  24.489  24.205  1.00  0.00    -0.262 N 
ATOM     11  C   UNL A   1      32.453  29.755  27.163  1.00  0.00     0.067 C 
ATOM     12  C   UNL A   1      32.864  28.746  26.133  1.00  0.00     0.039 A 
ATOM     13  C   UNL A   1      33.331  29.149  24.874  1.00  0.00     0.027 A 
ATOM     14  N   UNL A   1      32.806  27.447  26.508  1.00  0.00    -0.241 NA
ATOM     15  C   UNL A   1      33.683  28.186  23.913  1.00  0.00    -0.033 A 
ATOM     16  C   UNL A   1      33.142  26.549  25.565  1.00  0.00     0.146 A 
ATOM     17  C   UNL A   1      34.236  28.597  22.585  1.00  0.00     0.045 C 
ATOM     18  C   UNL A   1      33.510  26.854  24.269  1.00  0.00     0.081 A 
ATOM     19  S   UNL A   1      33.214  24.806  25.875  1.00  0.00    -0.035 S 
ATOM     20  C   UNL A   1      33.609  25.633  23.438  1.00  0.00     0.270 A 
ATOM     21  O   UNL A   1      33.780  25.670  22.229  1.00  0.00    -0.268 OA
ENDBRANCH   9  10
ENDBRANCH   8   9
ENDBRANCH   7   8
ENDBRANCH   4   7
ENDBRANCH   2   3
ENDBRANCH   1   2
BRANCH   1  22
ATOM     22  C   UNL A   1      40.169  22.918  26.853  1.00  0.00     0.118 C 
BRANCH  22  23
ATOM     23  N   UNL A   1      41.416  22.546  26.175  1.00  0.00    -0.352 N 
ATOM     24  C   UNL A   1      42.364  23.412  25.633  1.00  0.00     0.251 C 
ATOM     25  H   UNL A   1      41.601  21.582  26.093  1.00  0.00     0.163 HD
ATOM     26  O   UNL A   1      43.188  23.037  24.831  1.00  0.00    -0.269 OA
BRANCH  24  27
ATOM     27  C   UNL A   1      42.315  24.814  26.100  1.00  0.00     0.039 A 
ATOM     28  C   UNL A   1      41.483  25.781  25.530  1.00  0.00     0.014 A 
ATOM     29  C   UNL A   1      43.041  25.082  27.249  1.00  0.00     0.014 A 
ATOM     30  C   UNL A   1      41.328  27.001  26.196  1.00  0.00     0.010 A 
ATOM     31  C   UNL A   1      42.666  26.137  28.022  1.00  0.00     0.010 A 
ATOM     32  C   UNL A   1      41.916  27.161  27.457  1.00  0.00    -0.014 A 
BRANCH  32  33
ATOM     33  C   UNL A   1      41.792  28.373  28.258  1.00  0.00     0.031 A 
ATOM     34  C   UNL A   1      42.825  29.425  28.049  1.00  0.00     0.074 A 
ATOM     35  C   UNL A   1      40.634  28.643  28.906  1.00  0.00     0.049 A 
ATOM     36  N   UNL A   1      43.668  29.892  28.910  1.00  0.00    -0.248 NA
ATOM     37  C   UNL A   1      42.997  29.974  26.693  1.00  0.00     0.031 C 
ATOM     38  C   UNL A   1      39.384  27.860  28.919  1.00  0.00     0.029 A 
ATOM     39  N   UNL A   1      40.268  29.774  29.555  1.00  0.00    -0.354 N 
ATOM     40  C   UNL A   1      44.351  30.923  28.269  1.00  0.00     0.074 A 
ATOM     41  C   UNL A   1      44.015  30.819  26.871  1.00  0.00     0.031 C 
ATOM     42  C   UNL A   1      38.353  28.653  29.282  1.00  0.00     0.029 A 
ATOM     43  C   UNL A   1      38.898  29.913  29.742  1.00  0.00     0.049 A 
ATOM     44  H   UNL A   1      40.919  30.443  29.868  1.00  0.00     0.167 HD
ATOM     45  C   UNL A   1      44.978  31.921  28.958  1.00  0.00     0.031 A 
ATOM     46  C   UNL A   1      38.255  31.001  30.226  1.00  0.00     0.031 A 
ATOM     47  C   UNL A   1      45.057  31.632  30.365  1.00  0.00     0.049 A 
ATOM     48  C   UNL A   1      39.270  31.797  30.956  1.00  0.00     0.074 A 
ATOM     49  C   UNL A   1      45.654  30.649  31.127  1.00  0.00     0.029 A 
ATOM     50  N   UNL A   1      44.098  32.204  31.172  1.00  0.00    -0.354 N 
ATOM     51  N   UNL A   1      39.885  31.366  32.023  1.00  0.00    -0.248 NA
ATOM     52  C   UNL A   1      39.937  32.877  30.247  1.00  0.00     0.031 C 
ATOM     53  C   UNL A   1      44.705  30.352  32.149  1.00  0.00     0.029 A 
ATOM     54  C   UNL A   1      43.617  31.215  31.995  1.00  0.00     0.049 A 
ATOM     55  H   UNL A   1      43.812  33.145  31.162  1.00  0.00     0.167 HD
ATOM     56  C   UNL A   1      41.194  31.806  31.883  1.00  0.00     0.074 A 
ATOM     57  C   UNL A   1      41.137  32.821  30.832  1.00  0.00     0.031 C 
ATOM     58  C   UNL A   1      42.238  31.111  32.430  1.00  0.00     0.031 A 
BRANCH  45  59
ATOM     59  C   UNL A   1      45.204  33.313  28.422  1.00  0.00    -0.014 A 
ATOM     60  C   UNL A   1      46.513  33.838  28.395  1.00  0.00     0.010 A 
ATOM     61  C   UNL A   1      44.147  34.215  28.185  1.00  0.00     0.010 A 
ATOM     62  C   UNL A   1      46.744  35.206  28.187  1.00  0.00     0.020 A 
ATOM     63  C   UNL A   1      44.368  35.571  27.933  1.00  0.00     0.020 A 
ATOM     64  C   UNL A   1      45.665  36.066  27.969  1.00  0.00     0.054 A 
BRANCH  64  65
ATOM     65  S   UNL A   1      45.965  37.844  27.813  1.00  0.00     0.124 S 
ATOM     66  O   UNL A   1      46.236  37.980  26.384  1.00  0.00    -0.237 OA
ATOM     67  O   UNL A   1      44.703  38.414  28.275  1.00  0.00    -0.237 OA
ATOM     68  O   UNL A   1      47.108  38.078  28.692  1.00  0.00    -0.744 OA
ENDBRANCH  64  65
ENDBRANCH  45  59
BRANCH  46  69
ATOM     69  C   UNL A   1      36.928  31.537  29.845  1.00  0.00    -0.014 A 
ATOM     70  C   UNL A   1      35.999  31.903  30.835  1.00  0.00     0.010 A 
ATOM     71  C   UNL A   1      36.690  31.973  28.524  1.00  0.00     0.010 A 
ATOM     72  C   UNL A   1      34.920  32.749  30.533  1.00  0.00     0.020 A 
ATOM     73  C   UNL A   1      35.613  32.812  28.215  1.00  0.00     0.020 A 
ATOM     74  C   UNL A   1      34.751  33.223  29.230  1.00  0.00     0.054 A 
BRANCH  74  75
ATOM     75  S   UNL A   1      33.485  34.487  28.906  1.00  0.00     0.124 S 
ATOM     76  O   UNL A   1      32.608  33.813  27.954  1.00  0.00    -0.237 OA
ATOM     77  O   UNL A   1      32.920  34.712  30.234  1.00  0.00    -0.237 OA
ATOM     78  O   UNL A   1      34.247  35.610  28.362  1.00  0.00    -0.744 OA
ENDBRANCH  74  75
ENDBRANCH  46  69
BRANCH  58  79
ATOM     79  C   UNL A   1      41.919  29.975  33.382  1.00  0.00    -0.014 A 
ATOM     80  C   UNL A   1      41.661  28.654  32.960  1.00  0.00     0.010 A 
ATOM     81  C   UNL A   1      42.046  30.218  34.760  1.00  0.00     0.010 A 
ATOM     82  C   UNL A   1      41.514  27.613  33.891  1.00  0.00     0.020 A 
ATOM     83  C   UNL A   1      41.916  29.184  35.693  1.00  0.00     0.020 A 
ATOM     84  C   UNL A   1      41.644  27.886  35.255  1.00  0.00     0.054 A 
BRANCH  84  85
ATOM     85  S   UNL A   1      41.500  26.531  36.454  1.00  0.00     0.124 S 
ATOM     86  O   UNL A   1      40.613  27.094  37.468  1.00  0.00    -0.237 OA
ATOM     87  O   UNL A   1      40.931  25.448  35.654  1.00  0.00    -0.237 OA
ATOM     88  O   UNL A   1      42.877  26.306  36.894  1.00  0.00    -0.744 OA
ENDBRANCH  84  85
ENDBRANCH  58  79
ENDBRANCH  32  33
ENDBRANCH  24  27
ENDBRANCH  22  23
ENDBRANCH   1  22
TORSDOF 16
ENDMDL
MODEL 2
REMARK VINA RESULT:     -11.7      3.637      8.312
REMARK SMILES Cc1cc(C)c2c(=O)n(CCCC(=O)NCCCNC(=O)c3ccc(-c4c5nc(c(-c6ccc(S(=O)(=O)[O-])cc6)c6ccc([nH]6)c(-c6ccc(S(=O)(=O)[O-])cc6)c6nc(c(-c7ccc(S(=O)(=O)[O-])cc7)c7ccc4[nH]7)C=C6)C=C5)cc3)sc2n1
REMARK SMILES IDX 17 1 16 2 15 3 13 4 14 5 12 7 11 8 10 9 9 10 1 11 2 12 3 13
REMARK SMILES IDX 84 14 4 15 83 16 5 17 6 18 82 19 7 20 8 21 18 22 19 23 20 24
REMARK SMILES IDX 21 26 22 27 23 28 81 29 24 30 80 31 25 32 26 33 27 34 74 35
REMARK SMILES IDX 28 36 79 37 73 38 75 39 29 40 78 41 72 42 71 43 30 45 60 46
REMARK SMILES IDX 41 47 59 48 42 49 45 50 58 51 76 52 43 53 44 54 57 56 77 57
REMARK SMILES IDX 46 58 31 59 32 60 40 61 33 62 39 63 34 64 35 65 36 66 37 67
REMARK SMILES IDX 38 68 61 69 62 70 70 71 63 72 69 73 64 74 65 75 66 76 67 77
REMARK SMILES IDX 68 78 47 79 48 80 56 81 49 82 55 83 50 84 51 85 52 86 53 87
REMARK SMILES IDX 54 88
REMARK H PARENT 15 6 19 25 75 44 45 55
REMARK Flexibility Score: inf
ROOT
ATOM      1  C   UNL A   1      37.793  19.936  24.883  1.00  0.00     0.042 C 
ENDROOT
BRANCH   1   2
ATOM      2  C   UNL A   1      36.844  21.135  24.780  1.00  0.00     0.117 C 
BRANCH   2   3
ATOM      3  N   UNL A   1      35.916  21.175  25.895  1.00  0.00    -0.356 N 
ATOM      4  C   UNL A   1      34.557  21.092  25.912  1.00  0.00     0.220 C 
ATOM      5  O   UNL A   1      33.979  21.212  26.992  1.00  0.00    -0.275 OA
ATOM      6  H   UNL A   1      36.335  21.279  26.780  1.00  0.00     0.163 HD
BRANCH   4   7
ATOM      7  C   UNL A   1      33.780  20.775  24.652  1.00  0.00     0.102 C 
BRANCH   7   8
ATOM      8  C   UNL A   1      32.874  21.866  24.072  1.00  0.00     0.033 C 
BRANCH   8   9
ATOM      9  C   UNL A   1      33.464  23.055  23.300  1.00  0.00     0.139 C 
BRANCH   9  10
ATOM     10  N   UNL A   1      33.687  24.345  23.937  1.00  0.00    -0.262 N 
ATOM     11  C   UNL A   1      32.741  29.472  27.121  1.00  0.00     0.067 C 
ATOM     12  C   UNL A   1      33.111  28.515  26.029  1.00  0.00     0.039 A 
ATOM     13  C   UNL A   1      33.436  28.976  24.745  1.00  0.00     0.027 A 
ATOM     14  N   UNL A   1      33.163  27.206  26.369  1.00  0.00    -0.241 NA
ATOM     15  C   UNL A   1      33.752  28.059  23.728  1.00  0.00    -0.033 A 
ATOM     16  C   UNL A   1      33.461  26.353  25.373  1.00  0.00     0.146 A 
ATOM     17  C   UNL A   1      34.155  28.535  22.367  1.00  0.00     0.045 C 
ATOM     18  C   UNL A   1      33.690  26.711  24.059  1.00  0.00     0.081 A 
ATOM     19  S   UNL A   1      33.662  24.611  25.624  1.00  0.00    -0.035 S 
ATOM     20  C   UNL A   1      33.781  25.519  23.186  1.00  0.00     0.270 A 
ATOM     21  O   UNL A   1      33.836  25.596  21.968  1.00  0.00    -0.268 OA
ENDBRANCH   9  10
ENDBRANCH   8   9
ENDBRANCH   7   8
ENDBRANCH   4   7
ENDBRANCH   2   3
ENDBRANCH   1   2
BRANCH   1  22
ATOM     22  C   UNL A   1      39.046  20.262  25.659  1.00  0.00     0.118 C 
BRANCH  22  23
ATOM     23  N   UNL A   1      39.986  19.139  25.752  1.00  0.00    -0.352 N 
ATOM     24  C   UNL A   1      41.360  19.215  25.972  1.00  0.00     0.251 C 
ATOM     25  H   UNL A   1      39.605  18.237  25.647  1.00  0.00     0.163 HD
ATOM     26  O   UNL A   1      42.099  18.290  25.726  1.00  0.00    -0.269 OA
BRANCH  24  27
ATOM     27  C   UNL A   1      41.867  20.486  26.531  1.00  0.00     0.039 A 
ATOM     28  C   UNL A   1      42.538  21.445  25.767  1.00  0.00     0.014 A 
ATOM     29  C   UNL A   1      41.500  20.745  27.842  1.00  0.00     0.014 A 
ATOM     30  C   UNL A   1      42.754  22.708  26.325  1.00  0.00     0.010 A 
ATOM     31  C   UNL A   1      41.458  22.039  28.260  1.00  0.00     0.010 A 
ATOM     32  C   UNL A   1      42.192  23.000  27.575  1.00  0.00    -0.014 A 
BRANCH  32  33
ATOM     33  C   UNL A   1      42.321  24.292  28.237  1.00  0.00     0.031 A 
ATOM     34  C   UNL A   1      41.206  25.261  28.044  1.00  0.00     0.074 A 
ATOM     35  C   UNL A   1      43.241  24.464  29.215  1.00  0.00     0.049 A 
ATOM     36  N   UNL A   1      41.256  26.428  27.493  1.00  0.00    -0.248 NA
ATOM     37  C   UNL A   1      39.850  24.851  28.444  1.00  0.00     0.031 C 
ATOM     38  C   UNL A   1      44.190  23.480  29.769  1.00  0.00     0.029 A 
ATOM     39  N   UNL A   1      43.406  25.517  30.050  1.00  0.00    -0.354 N 
ATOM     40  C   UNL A   1      39.987  26.984  27.641  1.00  0.00     0.074 A 
ATOM     41  C   UNL A   1      39.128  25.913  28.081  1.00  0.00     0.031 C 
ATOM     42  C   UNL A   1      44.602  23.879  30.990  1.00  0.00     0.029 A 
ATOM     43  C   UNL A   1      44.135  25.233  31.199  1.00  0.00     0.049 A 
ATOM     44  H   UNL A   1      43.039  26.411  29.859  1.00  0.00     0.167 HD
ATOM     45  C   UNL A   1      39.771  28.331  27.596  1.00  0.00     0.031 A 
ATOM     46  C   UNL A   1      44.323  26.053  32.259  1.00  0.00     0.031 A 
ATOM     47  C   UNL A   1      40.934  29.044  27.136  1.00  0.00     0.049 A 
ATOM     48  C   UNL A   1      44.045  27.429  31.780  1.00  0.00     0.074 A 
ATOM     49  C   UNL A   1      41.667  29.062  25.968  1.00  0.00     0.029 A 
ATOM     50  N   UNL A   1      41.747  29.596  28.100  1.00  0.00    -0.354 N 
ATOM     51  N   UNL A   1      44.758  28.024  30.864  1.00  0.00    -0.248 NA
ATOM     52  C   UNL A   1      42.711  27.969  31.980  1.00  0.00     0.031 C 
ATOM     53  C   UNL A   1      43.026  29.154  26.392  1.00  0.00     0.029 A 
ATOM     54  C   UNL A   1      43.040  29.257  27.785  1.00  0.00     0.049 A 
ATOM     55  H   UNL A   1      41.457  30.135  28.871  1.00  0.00     0.167 HD
ATOM     56  C   UNL A   1      43.838  28.714  30.088  1.00  0.00     0.074 A 
ATOM     57  C   UNL A   1      42.614  28.734  30.888  1.00  0.00     0.031 C 
ATOM     58  C   UNL A   1      44.069  28.958  28.762  1.00  0.00     0.031 A 
BRANCH  45  59
ATOM     59  C   UNL A   1      38.639  29.036  28.300  1.00  0.00    -0.014 A 
ATOM     60  C   UNL A   1      37.772  29.865  27.556  1.00  0.00     0.010 A 
ATOM     61  C   UNL A   1      38.552  29.116  29.705  1.00  0.00     0.010 A 
ATOM     62  C   UNL A   1      36.898  30.759  28.191  1.00  0.00     0.020 A 
ATOM     63  C   UNL A   1      37.654  29.971  30.347  1.00  0.00     0.020 A 
ATOM     64  C   UNL A   1      36.854  30.814  29.585  1.00  0.00     0.054 A 
BRANCH  64  65
ATOM     65  S   UNL A   1      35.806  32.049  30.393  1.00  0.00     0.124 S 
ATOM     66  O   UNL A   1      35.630  31.472  31.723  1.00  0.00    -0.237 OA
ATOM     67  O   UNL A   1      36.633  33.250  30.328  1.00  0.00    -0.237 OA
ATOM     68  O   UNL A   1      34.607  32.079  29.559  1.00  0.00    -0.744 OA
ENDBRANCH  64  65
ENDBRANCH  45  59
BRANCH  46  69
ATOM     69  C   UNL A   1      44.423  25.702  33.695  1.00  0.00    -0.014 A 
ATOM     70  C   UNL A   1      43.785  24.552  34.191  1.00  0.00     0.010 A 
ATOM     71  C   UNL A   1      45.390  26.326  34.512  1.00  0.00     0.010 A 
ATOM     72  C   UNL A   1      44.164  23.993  35.422  1.00  0.00     0.020 A 
ATOM     73  C   UNL A   1      45.768  25.776  35.743  1.00  0.00     0.020 A 
ATOM     74  C   UNL A   1      45.175  24.592  36.176  1.00  0.00     0.054 A 
BRANCH  74  75
ATOM     75  S   UNL A   1      45.803  23.735  37.652  1.00  0.00     0.124 S 
ATOM     76  O   UNL A   1      47.211  24.120  37.661  1.00  0.00    -0.237 OA
ATOM     77  O   UNL A   1      44.985  24.307  38.719  1.00  0.00    -0.237 OA
ATOM     78  O   UNL A   1      45.547  22.324  37.369  1.00  0.00    -0.744 OA
ENDBRANCH  74  75
ENDBRANCH  46  69
BRANCH  58  79
ATOM     79  C   UNL A   1      45.449  28.657  28.211  1.00  0.00    -0.014 A 
ATOM     80  C   UNL A   1      46.490  29.608  28.158  1.00  0.00     0.010 A 
ATOM     81  C   UNL A   1      45.752  27.324  27.889  1.00  0.00     0.010 A 
ATOM     82  C   UNL A   1      47.789  29.238  27.773  1.00  0.00     0.020 A 
ATOM     83  C   UNL A   1      47.047  26.945  27.519  1.00  0.00     0.020 A 
ATOM     84  C   UNL A   1      48.059  27.905  27.456  1.00  0.00     0.054 A 
BRANCH  84  85
ATOM     85  S   UNL A   1      49.749  27.419  27.004  1.00  0.00     0.124 S 
ATOM     86  O   UNL A   1      50.328  28.676  26.537  1.00  0.00    -0.237 OA
ATOM     87  O   UNL A   1      50.288  26.908  28.262  1.00  0.00    -0.237 OA
ATOM     88  O   UNL A   1      49.555  26.407  25.966  1.00  0.00    -0.744 OA
ENDBRANCH  84  85
ENDBRANCH  58  79
ENDBRANCH  32  33
ENDBRANCH  24  27
ENDBRANCH  22  23
ENDBRANCH   1  22
TORSDOF 16
ENDMDL
MODEL 3
REMARK VINA RESULT:     -11.7      3.965     10.972
REMARK SMILES Cc1cc(C)c2c(=O)n(CCCC(=O)NCCCNC(=O)c3ccc(-c4c5nc(c(-c6ccc(S(=O)(=O)[O-])cc6)c6ccc([nH]6)c(-c6ccc(S(=O)(=O)[O-])cc6)c6nc(c(-c7ccc(S(=O)(=O)[O-])cc7)c7ccc4[nH]7)C=C6)C=C5)cc3)sc2n1
REMARK SMILES IDX 17 1 16 2 15 3 13 4 14 5 12 7 11 8 10 9 9 10 1 11 2 12 3 13
REMARK SMILES IDX 84 14 4 15 83 16 5 17 6 18 82 19 7 20 8 21 18 22 19 23 20 24
REMARK SMILES IDX 21 26 22 27 23 28 81 29 24 30 80 31 25 32 26 33 27 34 74 35
REMARK SMILES IDX 28 36 79 37 73 38 75 39 29 40 78 41 72 42 71 43 30 45 60 46
REMARK SMILES IDX 41 47 59 48 42 49 45 50 58 51 76 52 43 53 44 54 57 56 77 57
REMARK SMILES IDX 46 58 31 59 32 60 40 61 33 62 39 63 34 64 35 65 36 66 37 67
REMARK SMILES IDX 38 68 61 69 62 70 70 71 63 72 69 73 64 74 65 75 66 76 67 77
REMARK SMILES IDX 68 78 47 79 48 80 56 81 49 82 55 83 50 84 51 85 52 86 53 87
REMARK SMILES IDX 54 88
REMARK H PARENT 15 6 19 25 75 44 45 55
REMARK Flexibility Score: inf
ROOT
ATOM      1  C   UNL A   1      34.412  34.655  27.846  1.00  0.00     0.042 C 
ENDROOT
BRANCH   1   2
ATOM      2  C   UNL A   1      33.446  34.856  29.018  1.00  0.00     0.117 C 
BRANCH   2   3
ATOM      3  N   UNL A   1      33.528  36.204  29.549  1.00  0.00    -0.356 N 
ATOM      4  C   UNL A   1      32.963  36.748  30.661  1.00  0.00     0.220 C 
ATOM      5  O   UNL A   1      33.132  37.948  30.874  1.00  0.00    -0.275 OA
ATOM      6  H   UNL A   1      34.080  36.825  29.019  1.00  0.00     0.163 HD
BRANCH   4   7
ATOM      7  C   UNL A   1      32.217  35.886  31.657  1.00  0.00     0.102 C 
BRANCH   7   8
ATOM      8  C   UNL A   1      33.030  35.179  32.748  1.00  0.00     0.033 C 
BRANCH   8   9
ATOM      9  C   UNL A   1      34.555  35.050  32.637  1.00  0.00     0.139 C 
BRANCH   9  10
ATOM     10  N   UNL A   1      35.273  33.931  33.231  1.00  0.00    -0.262 N 
ATOM     11  C   UNL A   1      39.790  30.485  35.478  1.00  0.00     0.067 C 
ATOM     12  C   UNL A   1      38.614  30.957  34.677  1.00  0.00     0.039 A 
ATOM     13  C   UNL A   1      38.129  30.206  33.597  1.00  0.00     0.027 A 
ATOM     14  N   UNL A   1      38.029  32.106  35.089  1.00  0.00    -0.241 NA
ATOM     15  C   UNL A   1      37.044  30.682  32.841  1.00  0.00    -0.033 A 
ATOM     16  C   UNL A   1      36.999  32.539  34.342  1.00  0.00     0.146 A 
ATOM     17  C   UNL A   1      36.477  29.868  31.720  1.00  0.00     0.045 C 
ATOM     18  C   UNL A   1      36.524  31.919  33.202  1.00  0.00     0.081 A 
ATOM     19  S   UNL A   1      36.043  33.972  34.755  1.00  0.00    -0.035 S 
ATOM     20  C   UNL A   1      35.526  32.763  32.507  1.00  0.00     0.270 A 
ATOM     21  O   UNL A   1      35.078  32.484  31.406  1.00  0.00    -0.268 OA
ENDBRANCH   9  10
ENDBRANCH   8   9
ENDBRANCH   7   8
ENDBRANCH   4   7
ENDBRANCH   2   3
ENDBRANCH   1   2
BRANCH   1  22
ATOM     22  C   UNL A   1      35.286  33.437  28.025  1.00  0.00     0.118 C 
BRANCH  22  23
ATOM     23  N   UNL A   1      34.529  32.190  28.182  1.00  0.00    -0.352 N 
ATOM     24  C   UNL A   1      35.023  30.892  28.066  1.00  0.00     0.251 C 
ATOM     25  H   UNL A   1      33.570  32.281  28.390  1.00  0.00     0.163 HD
ATOM     26  O   UNL A   1      34.292  29.942  27.899  1.00  0.00    -0.269 OA
BRANCH  24  27
ATOM     27  C   UNL A   1      36.489  30.735  28.167  1.00  0.00     0.039 A 
ATOM     28  C   UNL A   1      37.309  31.636  28.851  1.00  0.00     0.014 A 
ATOM     29  C   UNL A   1      36.994  29.546  27.667  1.00  0.00     0.014 A 
ATOM     30  C   UNL A   1      38.636  31.272  29.099  1.00  0.00     0.010 A 
ATOM     31  C   UNL A   1      38.178  29.087  28.156  1.00  0.00     0.010 A 
ATOM     32  C   UNL A   1      39.056  29.980  28.758  1.00  0.00    -0.014 A 
BRANCH  32  33
ATOM     33  C   UNL A   1      40.403  29.478  29.002  1.00  0.00     0.031 A 
ATOM     34  C   UNL A   1      40.774  29.208  30.419  1.00  0.00     0.074 A 
ATOM     35  C   UNL A   1      41.142  28.992  27.976  1.00  0.00     0.049 A 
ATOM     36  N   UNL A   1      41.709  29.765  31.114  1.00  0.00    -0.248 NA
ATOM     37  C   UNL A   1      39.953  28.254  31.184  1.00  0.00     0.031 C 
ATOM     38  C   UNL A   1      40.770  28.865  26.554  1.00  0.00     0.029 A 
ATOM     39  N   UNL A   1      42.329  28.341  28.019  1.00  0.00    -0.354 N 
ATOM     40  C   UNL A   1      41.727  29.108  32.343  1.00  0.00     0.074 A 
ATOM     41  C   UNL A   1      40.528  28.309  32.388  1.00  0.00     0.031 C 
ATOM     42  C   UNL A   1      41.561  27.949  25.956  1.00  0.00     0.029 A 
ATOM     43  C   UNL A   1      42.623  27.604  26.877  1.00  0.00     0.049 A 
ATOM     44  H   UNL A   1      42.933  28.387  28.794  1.00  0.00     0.167 HD
ATOM     45  C   UNL A   1      42.828  29.100  33.149  1.00  0.00     0.031 A 
ATOM     46  C   UNL A   1      43.662  26.753  26.711  1.00  0.00     0.031 A 
ATOM     47  C   UNL A   1      43.827  30.034  32.702  1.00  0.00     0.049 A 
ATOM     48  C   UNL A   1      44.667  27.112  27.741  1.00  0.00     0.074 A 
ATOM     49  C   UNL A   1      43.879  31.404  32.543  1.00  0.00     0.029 A 
ATOM     50  N   UNL A   1      44.857  29.528  31.942  1.00  0.00    -0.354 N 
ATOM     51  N   UNL A   1      45.280  28.264  27.771  1.00  0.00    -0.248 NA
ATOM     52  C   UNL A   1      44.656  26.380  28.996  1.00  0.00     0.031 C 
ATOM     53  C   UNL A   1      44.600  31.604  31.329  1.00  0.00     0.029 A 
ATOM     54  C   UNL A   1      45.005  30.353  30.854  1.00  0.00     0.049 A 
ATOM     55  H   UNL A   1      45.389  28.725  32.141  1.00  0.00     0.167 HD
ATOM     56  C   UNL A   1      45.352  28.595  29.117  1.00  0.00     0.074 A 
ATOM     57  C   UNL A   1      45.055  27.350  29.824  1.00  0.00     0.031 C 
ATOM     58  C   UNL A   1      45.368  29.899  29.526  1.00  0.00     0.031 A 
BRANCH  45  59
ATOM     59  C   UNL A   1      43.156  28.004  34.132  1.00  0.00    -0.014 A 
ATOM     60  C   UNL A   1      43.429  28.338  35.475  1.00  0.00     0.010 A 
ATOM     61  C   UNL A   1      43.456  26.687  33.727  1.00  0.00     0.010 A 
ATOM     62  C   UNL A   1      44.015  27.413  36.351  1.00  0.00     0.020 A 
ATOM     63  C   UNL A   1      43.999  25.744  34.602  1.00  0.00     0.020 A 
ATOM     64  C   UNL A   1      44.307  26.123  35.903  1.00  0.00     0.054 A 
BRANCH  64  65
ATOM     65  S   UNL A   1      45.165  24.972  37.006  1.00  0.00     0.124 S 
ATOM     66  O   UNL A   1      44.358  25.061  38.220  1.00  0.00    -0.237 OA
ATOM     67  O   UNL A   1      45.072  23.712  36.275  1.00  0.00    -0.237 OA
ATOM     68  O   UNL A   1      46.511  25.531  37.106  1.00  0.00    -0.744 OA
ENDBRANCH  64  65
ENDBRANCH  45  59
BRANCH  46  69
ATOM     69  C   UNL A   1      43.707  25.487  25.944  1.00  0.00    -0.014 A 
ATOM     70  C   UNL A   1      44.849  25.149  25.197  1.00  0.00     0.010 A 
ATOM     71  C   UNL A   1      42.756  24.473  26.191  1.00  0.00     0.010 A 
ATOM     72  C   UNL A   1      45.077  23.826  24.786  1.00  0.00     0.020 A 
ATOM     73  C   UNL A   1      42.975  23.152  25.779  1.00  0.00     0.020 A 
ATOM     74  C   UNL A   1      44.152  22.830  25.107  1.00  0.00     0.054 A 
BRANCH  74  75
ATOM     75  S   UNL A   1      44.568  21.093  24.762  1.00  0.00     0.124 S 
ATOM     76  O   UNL A   1      43.435  20.380  25.345  1.00  0.00    -0.237 OA
ATOM     77  O   UNL A   1      44.643  21.073  23.304  1.00  0.00    -0.237 OA
ATOM     78  O   UNL A   1      45.844  20.900  25.449  1.00  0.00    -0.744 OA
ENDBRANCH  74  75
ENDBRANCH  46  69
BRANCH  58  79
ATOM     79  C   UNL A   1      45.533  30.977  28.472  1.00  0.00    -0.014 A 
ATOM     80  C   UNL A   1      44.455  31.535  27.753  1.00  0.00     0.010 A 
ATOM     81  C   UNL A   1      46.802  31.559  28.321  1.00  0.00     0.010 A 
ATOM     82  C   UNL A   1      44.648  32.629  26.894  1.00  0.00     0.020 A 
ATOM     83  C   UNL A   1      46.999  32.658  27.479  1.00  0.00     0.020 A 
ATOM     84  C   UNL A   1      45.922  33.185  26.763  1.00  0.00     0.054 A 
BRANCH  84  85
ATOM     85  S   UNL A   1      46.160  34.628  25.688  1.00  0.00     0.124 S 
ATOM     86  O   UNL A   1      47.574  34.534  25.334  1.00  0.00    -0.237 OA
ATOM     87  O   UNL A   1      45.222  34.378  24.595  1.00  0.00    -0.237 OA
ATOM     88  O   UNL A   1      45.812  35.762  26.543  1.00  0.00    -0.744 OA
ENDBRANCH  84  85
ENDBRANCH  58  79
ENDBRANCH  32  33
ENDBRANCH  24  27
ENDBRANCH  22  23
ENDBRANCH   1  22
TORSDOF 16
ENDMDL
