MODEL 1
REMARK VINA RESULT:     -12.1      0.000      0.000
REMARK SMILES C[C@@H]1CCC[C@H](C)[N@H+]1Cc1cc2c(cc1Cl)C=C(C(=O)NCCCNC(=O)c1ccc(-c3c4nc(c(-c5ccc(S(=O)(=O)[O-])cc5)c5ccc([nH]5)c(-c5ccc(S(=O)(=O)[O-])cc5)c5nc(c(-c6ccc(S(=O)(=O)[O-])cc6)c6ccc3[nH]6)C=C5)C=C4)cc1)[C@@H](C(F)(F)F)O2
REMARK SMILES IDX 23 1 22 2 21 3 19 4 20 5 18 7 10 8 11 9 15 10 12 11 14 12
REMARK SMILES IDX 16 13 13 14 93 15 17 16 88 17 9 18 8 19 7 20 6 21 5 22 4 23
REMARK SMILES IDX 2 24 3 26 1 27 89 28 90 29 91 30 92 31 24 32 25 33 26 34
REMARK SMILES IDX 27 36 28 37 29 38 87 39 30 40 86 41 31 42 32 43 33 44 80 45
REMARK SMILES IDX 34 46 85 47 79 48 81 49 35 50 84 51 78 52 77 53 36 55 66 56
REMARK SMILES IDX 47 57 65 58 48 59 51 60 64 61 82 62 49 63 50 64 63 66 83 67
REMARK SMILES IDX 52 68 37 69 38 70 46 71 39 72 45 73 40 74 41 75 42 76 43 77
REMARK SMILES IDX 44 78 67 79 68 80 76 81 69 82 75 83 70 84 71 85 72 86 73 87
REMARK SMILES IDX 74 88 53 89 54 90 62 91 55 92 61 93 56 94 57 95 58 96 59 97
REMARK SMILES IDX 60 98
REMARK H PARENT 21 6 8 25 25 35 81 54 51 65
REMARK Flexibility Score: inf
ROOT
ATOM      1  C   UNL A   1      32.876  29.044  25.766  1.00  0.00     0.042 C 
ENDROOT
BRANCH   1   2
ATOM      2  C   UNL A   1      31.818  30.125  25.903  1.00  0.00     0.118 C 
BRANCH   2   3
ATOM      3  N   UNL A   1      31.038  30.269  24.685  1.00  0.00    -0.352 N 
ATOM      4  C   UNL A   1      30.498  29.444  23.764  1.00  0.00     0.251 C 
ATOM      5  O   UNL A   1      29.849  29.997  22.870  1.00  0.00    -0.270 OA
ATOM      6  H   UNL A   1      30.858  31.215  24.478  1.00  0.00     0.163 HD
BRANCH   4   7
ATOM      7  C   UNL A   1      30.637  27.964  23.763  1.00  0.00     0.067 C 
ATOM      8  C   UNL A   1      32.495  23.316  23.195  1.00  0.00     0.029 A 
ATOM      9  C   UNL A   1      31.735  23.957  24.188  1.00  0.00     0.058 A 
ATOM     10  C   UNL A   1      32.743  24.016  21.999  1.00  0.00     0.050 A 
ATOM     11  C   UNL A   1      31.371  25.291  24.045  1.00  0.00     0.128 A 
ATOM     12  C   UNL A   1      32.427  25.373  21.885  1.00  0.00     0.033 A 
ATOM     13  Cl  UNL A   1      33.454  23.271  20.610  1.00  0.00    -0.084 Cl
ATOM     14  C   UNL A   1      31.777  26.023  22.929  1.00  0.00     0.019 A 
ATOM     15  O   UNL A   1      30.645  25.860  25.056  1.00  0.00    -0.475 OA
ATOM     16  C   UNL A   1      31.554  27.463  22.915  1.00  0.00     0.025 C 
ATOM     17  C   UNL A   1      29.862  27.018  24.639  1.00  0.00     0.314 C 
BRANCH   8  18
ATOM     18  C   UNL A   1      33.075  21.949  23.498  1.00  0.00     0.301 C 
BRANCH  18  19
ATOM     19  N   UNL A   1      34.490  21.913  23.926  1.00  0.00    -0.327 N 
ATOM     20  C   UNL A   1      36.013  20.308  25.029  1.00  0.00     0.075 C 
ATOM     21  C   UNL A   1      34.757  21.182  25.176  1.00  0.00     0.181 C 
ATOM     22  C   UNL A   1      34.862  22.064  26.434  1.00  0.00     0.065 C 
ATOM     23  C   UNL A   1      35.711  23.313  26.232  1.00  0.00     0.012 C 
ATOM     24  C   UNL A   1      35.232  23.168  23.732  1.00  0.00     0.181 C 
ATOM     25  H   UNL A   1      34.928  21.300  23.237  1.00  0.00     0.348 HD
ATOM     26  C   UNL A   1      35.283  24.064  24.980  1.00  0.00     0.065 C 
ATOM     27  C   UNL A   1      36.643  22.901  23.192  1.00  0.00     0.075 C 
ENDBRANCH  18  19
ENDBRANCH   8  18
BRANCH  17  28
ATOM     28  C   UNL A   1      28.544  26.564  23.970  1.00  0.00     0.429 C 
ATOM     29  F   UNL A   1      28.045  27.545  23.179  1.00  0.00    -0.167 F 
ATOM     30  F   UNL A   1      28.716  25.477  23.178  1.00  0.00    -0.167 F 
ATOM     31  F   UNL A   1      27.578  26.235  24.859  1.00  0.00    -0.167 F 
ENDBRANCH  17  28
ENDBRANCH   4   7
ENDBRANCH   2   3
ENDBRANCH   1   2
BRANCH   1  32
ATOM     32  C   UNL A   1      33.897  29.090  26.892  1.00  0.00     0.118 C 
BRANCH  32  33
ATOM     33  N   UNL A   1      33.832  30.344  27.640  1.00  0.00    -0.352 N 
ATOM     34  C   UNL A   1      34.726  30.888  28.532  1.00  0.00     0.251 C 
ATOM     35  H   UNL A   1      33.024  30.884  27.479  1.00  0.00     0.163 HD
ATOM     36  O   UNL A   1      34.389  31.839  29.232  1.00  0.00    -0.269 OA
BRANCH  34  37
ATOM     37  C   UNL A   1      36.077  30.307  28.659  1.00  0.00     0.039 A 
ATOM     38  C   UNL A   1      36.454  29.674  29.843  1.00  0.00     0.014 A 
ATOM     39  C   UNL A   1      36.982  30.414  27.600  1.00  0.00     0.014 A 
ATOM     40  C   UNL A   1      37.785  29.344  30.047  1.00  0.00     0.010 A 
ATOM     41  C   UNL A   1      38.296  29.965  27.766  1.00  0.00     0.010 A 
ATOM     42  C   UNL A   1      38.722  29.476  29.011  1.00  0.00    -0.014 A 
BRANCH  42  43
ATOM     43  C   UNL A   1      40.132  29.078  29.263  1.00  0.00     0.031 A 
ATOM     44  C   UNL A   1      40.652  27.741  28.810  1.00  0.00     0.074 A 
ATOM     45  C   UNL A   1      40.964  29.971  29.836  1.00  0.00     0.049 A 
ATOM     46  N   UNL A   1      41.867  27.264  28.900  1.00  0.00    -0.248 NA
ATOM     47  C   UNL A   1      39.695  26.816  28.179  1.00  0.00     0.031 C 
ATOM     48  C   UNL A   1      40.571  31.309  30.290  1.00  0.00     0.029 A 
ATOM     49  N   UNL A   1      42.311  29.921  30.086  1.00  0.00    -0.354 N 
ATOM     50  C   UNL A   1      41.814  25.979  28.373  1.00  0.00     0.074 A 
ATOM     51  C   UNL A   1      40.444  25.740  27.980  1.00  0.00     0.031 C 
ATOM     52  C   UNL A   1      41.665  31.982  30.668  1.00  0.00     0.029 A 
ATOM     53  C   UNL A   1      42.823  31.100  30.574  1.00  0.00     0.049 A 
ATOM     54  H   UNL A   1      42.859  29.117  29.931  1.00  0.00     0.167 HD
ATOM     55  C   UNL A   1      42.820  25.086  28.226  1.00  0.00     0.031 A 
ATOM     56  C   UNL A   1      44.081  31.443  30.916  1.00  0.00     0.031 A 
ATOM     57  C   UNL A   1      44.188  25.350  28.592  1.00  0.00     0.049 A 
ATOM     58  C   UNL A   1      45.172  30.426  30.773  1.00  0.00     0.074 A 
ATOM     59  C   UNL A   1      45.286  24.521  28.447  1.00  0.00     0.029 A 
ATOM     60  N   UNL A   1      44.647  26.525  29.170  1.00  0.00    -0.354 N 
ATOM     61  N   UNL A   1      45.100  29.216  30.274  1.00  0.00    -0.248 NA
ATOM     62  C   UNL A   1      46.507  30.809  31.248  1.00  0.00     0.031 C 
ATOM     63  C   UNL A   1      46.396  25.166  28.998  1.00  0.00     0.029 A 
ATOM     64  C   UNL A   1      46.006  26.428  29.420  1.00  0.00     0.049 A 
ATOM     65  H   UNL A   1      44.090  27.311  29.371  1.00  0.00     0.167 HD
ATOM     66  C   UNL A   1      46.381  28.688  30.375  1.00  0.00     0.074 A 
ATOM     67  C   UNL A   1      47.213  29.721  30.961  1.00  0.00     0.031 C 
ATOM     68  C   UNL A   1      46.821  27.457  30.018  1.00  0.00     0.031 A 
BRANCH  55  69
ATOM     69  C   UNL A   1      42.498  23.725  27.664  1.00  0.00    -0.014 A 
ATOM     70  C   UNL A   1      42.281  22.648  28.545  1.00  0.00     0.010 A 
ATOM     71  C   UNL A   1      42.513  23.481  26.279  1.00  0.00     0.010 A 
ATOM     72  C   UNL A   1      42.109  21.351  28.056  1.00  0.00     0.020 A 
ATOM     73  C   UNL A   1      42.314  22.188  25.784  1.00  0.00     0.020 A 
ATOM     74  C   UNL A   1      42.135  21.127  26.678  1.00  0.00     0.054 A 
BRANCH  74  75
ATOM     75  S   UNL A   1      41.918  19.435  26.059  1.00  0.00     0.124 S 
ATOM     76  O   UNL A   1      40.485  19.389  25.786  1.00  0.00    -0.237 OA
ATOM     77  O   UNL A   1      42.787  19.409  24.884  1.00  0.00    -0.237 OA
ATOM     78  O   UNL A   1      42.371  18.605  27.173  1.00  0.00    -0.744 OA
ENDBRANCH  74  75
ENDBRANCH  55  69
BRANCH  56  79
ATOM     79  C   UNL A   1      44.340  32.828  31.395  1.00  0.00    -0.014 A 
ATOM     80  C   UNL A   1      44.297  33.125  32.771  1.00  0.00     0.010 A 
ATOM     81  C   UNL A   1      44.486  33.878  30.473  1.00  0.00     0.010 A 
ATOM     82  C   UNL A   1      44.307  34.450  33.211  1.00  0.00     0.020 A 
ATOM     83  C   UNL A   1      44.529  35.206  30.913  1.00  0.00     0.020 A 
ATOM     84  C   UNL A   1      44.399  35.483  32.276  1.00  0.00     0.054 A 
BRANCH  84  85
ATOM     85  S   UNL A   1      44.304  37.197  32.861  1.00  0.00     0.124 S 
ATOM     86  O   UNL A   1      43.008  37.210  33.535  1.00  0.00    -0.237 OA
ATOM     87  O   UNL A   1      45.470  37.302  33.734  1.00  0.00    -0.237 OA
ATOM     88  O   UNL A   1      44.376  37.983  31.631  1.00  0.00    -0.744 OA
ENDBRANCH  84  85
ENDBRANCH  56  79
BRANCH  68  89
ATOM     89  C   UNL A   1      48.269  27.128  30.258  1.00  0.00    -0.014 A 
ATOM     90  C   UNL A   1      48.663  26.563  31.486  1.00  0.00     0.010 A 
ATOM     91  C   UNL A   1      49.253  27.506  29.328  1.00  0.00     0.010 A 
ATOM     92  C   UNL A   1      50.017  26.421  31.797  1.00  0.00     0.020 A 
ATOM     93  C   UNL A   1      50.609  27.339  29.625  1.00  0.00     0.020 A 
ATOM     94  C   UNL A   1      50.981  26.824  30.869  1.00  0.00     0.054 A 
BRANCH  94  95
ATOM     95  S   UNL A   1      52.734  26.673  31.309  1.00  0.00     0.124 S 
ATOM     96  O   UNL A   1      53.297  26.051  30.115  1.00  0.00    -0.237 OA
ATOM     97  O   UNL A   1      53.127  28.062  31.542  1.00  0.00    -0.237 OA
ATOM     98  O   UNL A   1      52.715  25.832  32.504  1.00  0.00    -0.744 OA
ENDBRANCH  94  95
ENDBRANCH  68  89
ENDBRANCH  42  43
ENDBRANCH  34  37
ENDBRANCH  32  33
ENDBRANCH   1  32
TORSDOF 16
ENDMDL
MODEL 2
REMARK VINA RESULT:     -12.1      6.618     10.523
REMARK SMILES C[C@@H]1CCC[C@H](C)[N@H+]1Cc1cc2c(cc1Cl)C=C(C(=O)NCCCNC(=O)c1ccc(-c3c4nc(c(-c5ccc(S(=O)(=O)[O-])cc5)c5ccc([nH]5)c(-c5ccc(S(=O)(=O)[O-])cc5)c5nc(c(-c6ccc(S(=O)(=O)[O-])cc6)c6ccc3[nH]6)C=C5)C=C4)cc1)[C@@H](C(F)(F)F)O2
REMARK SMILES IDX 23 1 22 2 21 3 19 4 20 5 18 7 10 8 11 9 15 10 12 11 14 12
REMARK SMILES IDX 16 13 13 14 93 15 17 16 88 17 9 18 8 19 7 20 6 21 5 22 4 23
REMARK SMILES IDX 2 24 3 26 1 27 89 28 90 29 91 30 92 31 24 32 25 33 26 34
REMARK SMILES IDX 27 36 28 37 29 38 87 39 30 40 86 41 31 42 32 43 33 44 80 45
REMARK SMILES IDX 34 46 85 47 79 48 81 49 35 50 84 51 78 52 77 53 36 55 66 56
REMARK SMILES IDX 47 57 65 58 48 59 51 60 64 61 82 62 49 63 50 64 63 66 83 67
REMARK SMILES IDX 52 68 37 69 38 70 46 71 39 72 45 73 40 74 41 75 42 76 43 77
REMARK SMILES IDX 44 78 67 79 68 80 76 81 69 82 75 83 70 84 71 85 72 86 73 87
REMARK SMILES IDX 74 88 53 89 54 90 62 91 55 92 61 93 56 94 57 95 58 96 59 97
REMARK SMILES IDX 60 98
REMARK H PARENT 21 6 8 25 25 35 81 54 51 65
REMARK Flexibility Score: inf
ROOT
ATOM      1  C   UNL A   1      46.423  23.965  24.887  1.00  0.00     0.042 C 
ENDROOT
BRANCH   1   2
ATOM      2  C   UNL A   1      46.131  22.910  25.940  1.00  0.00     0.118 C 
BRANCH   2   3
ATOM      3  N   UNL A   1      44.985  22.094  25.577  1.00  0.00    -0.352 N 
ATOM      4  C   UNL A   1      43.651  22.129  25.785  1.00  0.00     0.251 C 
ATOM      5  O   UNL A   1      43.006  21.226  25.244  1.00  0.00    -0.270 OA
ATOM      6  H   UNL A   1      45.250  21.311  25.040  1.00  0.00     0.163 HD
BRANCH   4   7
ATOM      7  C   UNL A   1      42.945  23.152  26.600  1.00  0.00     0.067 C 
ATOM      8  C   UNL A   1      39.964  26.971  27.978  1.00  0.00     0.029 A 
ATOM      9  C   UNL A   1      40.270  25.714  28.528  1.00  0.00     0.058 A 
ATOM     10  C   UNL A   1      40.692  27.394  26.851  1.00  0.00     0.050 A 
ATOM     11  C   UNL A   1      41.161  24.863  27.884  1.00  0.00     0.128 A 
ATOM     12  C   UNL A   1      41.541  26.511  26.175  1.00  0.00     0.033 A 
ATOM     13  Cl  UNL A   1      40.588  28.999  26.219  1.00  0.00    -0.084 Cl
ATOM     14  C   UNL A   1      41.742  25.227  26.670  1.00  0.00     0.019 A 
ATOM     15  O   UNL A   1      41.403  23.646  28.463  1.00  0.00    -0.475 OA
ATOM     16  C   UNL A   1      42.502  24.230  25.928  1.00  0.00     0.025 C 
ATOM     17  C   UNL A   1      42.678  23.054  28.076  1.00  0.00     0.314 C 
BRANCH   8  18
ATOM     18  C   UNL A   1      38.815  27.759  28.574  1.00  0.00     0.301 C 
BRANCH  18  19
ATOM     19  N   UNL A   1      39.168  28.777  29.587  1.00  0.00    -0.327 N 
ATOM     20  C   UNL A   1      40.965  30.439  29.938  1.00  0.00     0.075 C 
ATOM     21  C   UNL A   1      40.610  28.947  29.838  1.00  0.00     0.181 C 
ATOM     22  C   UNL A   1      41.149  28.184  31.063  1.00  0.00     0.065 C 
ATOM     23  C   UNL A   1      40.266  28.315  32.298  1.00  0.00     0.012 C 
ATOM     24  C   UNL A   1      38.291  28.816  30.766  1.00  0.00     0.181 C 
ATOM     25  H   UNL A   1      38.941  29.658  29.124  1.00  0.00     0.348 HD
ATOM     26  C   UNL A   1      38.815  28.006  31.963  1.00  0.00     0.065 C 
ATOM     27  C   UNL A   1      37.977  30.260  31.177  1.00  0.00     0.075 C 
ENDBRANCH  18  19
ENDBRANCH   8  18
BRANCH  17  28
ATOM     28  C   UNL A   1      43.830  23.662  28.910  1.00  0.00     0.429 C 
ATOM     29  F   UNL A   1      44.697  22.699  29.306  1.00  0.00    -0.167 F 
ATOM     30  F   UNL A   1      44.552  24.568  28.206  1.00  0.00    -0.167 F 
ATOM     31  F   UNL A   1      43.404  24.303  30.024  1.00  0.00    -0.167 F 
ENDBRANCH  17  28
ENDBRANCH   4   7
ENDBRANCH   2   3
ENDBRANCH   1   2
BRANCH   1  32
ATOM     32  C   UNL A   1      47.683  24.756  25.196  1.00  0.00     0.118 C 
BRANCH  32  33
ATOM     33  N   UNL A   1      48.039  25.667  24.110  1.00  0.00    -0.352 N 
ATOM     34  C   UNL A   1      47.651  26.967  23.884  1.00  0.00     0.251 C 
ATOM     35  H   UNL A   1      48.653  25.293  23.437  1.00  0.00     0.163 HD
ATOM     36  O   UNL A   1      47.873  27.490  22.795  1.00  0.00    -0.269 OA
BRANCH  34  37
ATOM     37  C   UNL A   1      46.947  27.715  24.944  1.00  0.00     0.039 A 
ATOM     38  C   UNL A   1      47.669  28.528  25.818  1.00  0.00     0.014 A 
ATOM     39  C   UNL A   1      45.563  27.589  25.083  1.00  0.00     0.014 A 
ATOM     40  C   UNL A   1      47.048  29.036  26.948  1.00  0.00     0.010 A 
ATOM     41  C   UNL A   1      44.917  28.208  26.157  1.00  0.00     0.010 A 
ATOM     42  C   UNL A   1      45.664  28.891  27.130  1.00  0.00    -0.014 A 
BRANCH  42  43
ATOM     43  C   UNL A   1      45.033  29.482  28.339  1.00  0.00     0.031 A 
ATOM     44  C   UNL A   1      44.991  28.726  29.639  1.00  0.00     0.074 A 
ATOM     45  C   UNL A   1      44.566  30.746  28.274  1.00  0.00     0.049 A 
ATOM     46  N   UNL A   1      44.531  29.121  30.799  1.00  0.00    -0.248 NA
ATOM     47  C   UNL A   1      45.528  27.355  29.647  1.00  0.00     0.031 C 
ATOM     48  C   UNL A   1      44.581  31.582  27.070  1.00  0.00     0.029 A 
ATOM     49  N   UNL A   1      44.045  31.568  29.239  1.00  0.00    -0.354 N 
ATOM     50  C   UNL A   1      44.689  28.041  31.660  1.00  0.00     0.074 A 
ATOM     51  C   UNL A   1      45.272  26.967  30.889  1.00  0.00     0.031 C 
ATOM     52  C   UNL A   1      44.186  32.820  27.390  1.00  0.00     0.029 A 
ATOM     53  C   UNL A   1      43.801  32.847  28.797  1.00  0.00     0.049 A 
ATOM     54  H   UNL A   1      43.861  31.271  30.160  1.00  0.00     0.167 HD
ATOM     55  C   UNL A   1      44.381  27.961  32.976  1.00  0.00     0.031 A 
ATOM     56  C   UNL A   1      43.317  33.928  29.441  1.00  0.00     0.031 A 
ATOM     57  C   UNL A   1      43.831  29.051  33.740  1.00  0.00     0.049 A 
ATOM     58  C   UNL A   1      42.954  33.804  30.890  1.00  0.00     0.074 A 
ATOM     59  C   UNL A   1      43.520  29.077  35.088  1.00  0.00     0.029 A 
ATOM     60  N   UNL A   1      43.513  30.301  33.231  1.00  0.00    -0.354 N 
ATOM     61  N   UNL A   1      43.110  32.774  31.686  1.00  0.00    -0.248 NA
ATOM     62  C   UNL A   1      42.341  34.976  31.526  1.00  0.00     0.031 C 
ATOM     63  C   UNL A   1      42.952  30.319  35.381  1.00  0.00     0.029 A 
ATOM     64  C   UNL A   1      42.975  31.095  34.232  1.00  0.00     0.049 A 
ATOM     65  H   UNL A   1      43.649  30.583  32.298  1.00  0.00     0.167 HD
ATOM     66  C   UNL A   1      42.613  33.171  32.919  1.00  0.00     0.074 A 
ATOM     67  C   UNL A   1      42.173  34.544  32.771  1.00  0.00     0.031 C 
ATOM     68  C   UNL A   1      42.526  32.456  34.067  1.00  0.00     0.031 A 
BRANCH  55  69
ATOM     69  C   UNL A   1      44.606  26.652  33.688  1.00  0.00    -0.014 A 
ATOM     70  C   UNL A   1      45.868  26.380  34.251  1.00  0.00     0.010 A 
ATOM     71  C   UNL A   1      43.620  25.650  33.713  1.00  0.00     0.010 A 
ATOM     72  C   UNL A   1      46.149  25.127  34.802  1.00  0.00     0.020 A 
ATOM     73  C   UNL A   1      43.887  24.404  34.289  1.00  0.00     0.020 A 
ATOM     74  C   UNL A   1      45.158  24.143  34.810  1.00  0.00     0.054 A 
BRANCH  74  75
ATOM     75  S   UNL A   1      45.540  22.519  35.523  1.00  0.00     0.124 S 
ATOM     76  O   UNL A   1      45.330  22.751  36.948  1.00  0.00    -0.237 OA
ATOM     77  O   UNL A   1      44.565  21.646  34.873  1.00  0.00    -0.237 OA
ATOM     78  O   UNL A   1      46.927  22.290  35.123  1.00  0.00    -0.744 OA
ENDBRANCH  74  75
ENDBRANCH  55  69
BRANCH  56  79
ATOM     79  C   UNL A   1      43.189  35.208  28.694  1.00  0.00    -0.014 A 
ATOM     80  C   UNL A   1      44.237  36.149  28.707  1.00  0.00     0.010 A 
ATOM     81  C   UNL A   1      41.968  35.555  28.089  1.00  0.00     0.010 A 
ATOM     82  C   UNL A   1      44.039  37.438  28.210  1.00  0.00     0.020 A 
ATOM     83  C   UNL A   1      41.777  36.835  27.561  1.00  0.00     0.020 A 
ATOM     84  C   UNL A   1      42.801  37.780  27.661  1.00  0.00     0.054 A 
BRANCH  84  85
ATOM     85  S   UNL A   1      42.532  39.489  27.118  1.00  0.00     0.124 S 
ATOM     86  O   UNL A   1      42.418  40.193  28.393  1.00  0.00    -0.237 OA
ATOM     87  O   UNL A   1      43.740  39.774  26.348  1.00  0.00    -0.237 OA
ATOM     88  O   UNL A   1      41.301  39.411  26.336  1.00  0.00    -0.744 OA
ENDBRANCH  84  85
ENDBRANCH  56  79
BRANCH  68  89
ATOM     89  C   UNL A   1      41.917  33.123  35.271  1.00  0.00    -0.014 A 
ATOM     90  C   UNL A   1      40.529  33.039  35.489  1.00  0.00     0.010 A 
ATOM     91  C   UNL A   1      42.696  33.947  36.103  1.00  0.00     0.010 A 
ATOM     92  C   UNL A   1      39.923  33.800  36.490  1.00  0.00     0.020 A 
ATOM     93  C   UNL A   1      42.096  34.688  37.125  1.00  0.00     0.020 A 
ATOM     94  C   UNL A   1      40.710  34.630  37.293  1.00  0.00     0.054 A 
BRANCH  94  95
ATOM     95  S   UNL A   1      39.899  35.644  38.559  1.00  0.00     0.124 S 
ATOM     96  O   UNL A   1      38.699  34.867  38.853  1.00  0.00    -0.237 OA
ATOM     97  O   UNL A   1      40.898  35.688  39.626  1.00  0.00    -0.237 OA
ATOM     98  O   UNL A   1      39.669  36.919  37.882  1.00  0.00    -0.744 OA
ENDBRANCH  94  95
ENDBRANCH  68  89
ENDBRANCH  42  43
ENDBRANCH  34  37
ENDBRANCH  32  33
ENDBRANCH   1  32
TORSDOF 16
ENDMDL
MODEL 3
REMARK VINA RESULT:     -11.9      2.323      8.393
REMARK SMILES C[C@@H]1CCC[C@H](C)[N@H+]1Cc1cc2c(cc1Cl)C=C(C(=O)NCCCNC(=O)c1ccc(-c3c4nc(c(-c5ccc(S(=O)(=O)[O-])cc5)c5ccc([nH]5)c(-c5ccc(S(=O)(=O)[O-])cc5)c5nc(c(-c6ccc(S(=O)(=O)[O-])cc6)c6ccc3[nH]6)C=C5)C=C4)cc1)[C@@H](C(F)(F)F)O2
REMARK SMILES IDX 23 1 22 2 21 3 19 4 20 5 18 7 10 8 11 9 15 10 12 11 14 12
REMARK SMILES IDX 16 13 13 14 93 15 17 16 88 17 9 18 8 19 7 20 6 21 5 22 4 23
REMARK SMILES IDX 2 24 3 26 1 27 89 28 90 29 91 30 92 31 24 32 25 33 26 34
REMARK SMILES IDX 27 36 28 37 29 38 87 39 30 40 86 41 31 42 32 43 33 44 80 45
REMARK SMILES IDX 34 46 85 47 79 48 81 49 35 50 84 51 78 52 77 53 36 55 66 56
REMARK SMILES IDX 47 57 65 58 48 59 51 60 64 61 82 62 49 63 50 64 63 66 83 67
REMARK SMILES IDX 52 68 37 69 38 70 46 71 39 72 45 73 40 74 41 75 42 76 43 77
REMARK SMILES IDX 44 78 67 79 68 80 76 81 69 82 75 83 70 84 71 85 72 86 73 87
REMARK SMILES IDX 74 88 53 89 54 90 62 91 55 92 61 93 56 94 57 95 58 96 59 97
REMARK SMILES IDX 60 98
REMARK H PARENT 21 6 8 25 25 35 81 54 51 65
REMARK Flexibility Score: inf
ROOT
ATOM      1  C   UNL A   1      32.504  28.821  25.244  1.00  0.00     0.042 C 
ENDROOT
BRANCH   1   2
ATOM      2  C   UNL A   1      31.426  27.973  25.896  1.00  0.00     0.118 C 
BRANCH   2   3
ATOM      3  N   UNL A   1      30.508  27.424  24.911  1.00  0.00    -0.352 N 
ATOM      4  C   UNL A   1      30.453  26.326  24.129  1.00  0.00     0.251 C 
ATOM      5  O   UNL A   1      29.434  26.217  23.438  1.00  0.00    -0.270 OA
ATOM      6  H   UNL A   1      29.722  28.004  24.782  1.00  0.00     0.163 HD
BRANCH   4   7
ATOM      7  C   UNL A   1      31.509  25.283  24.052  1.00  0.00     0.067 C 
ATOM      8  C   UNL A   1      34.323  21.220  25.024  1.00  0.00     0.029 A 
ATOM      9  C   UNL A   1      33.830  21.817  23.851  1.00  0.00     0.058 A 
ATOM     10  C   UNL A   1      34.138  21.902  26.242  1.00  0.00     0.050 A 
ATOM     11  C   UNL A   1      33.057  22.971  23.921  1.00  0.00     0.128 A 
ATOM     12  C   UNL A   1      33.311  23.027  26.312  1.00  0.00     0.033 A 
ATOM     13  Cl  UNL A   1      34.892  21.406  27.715  1.00  0.00    -0.084 Cl
ATOM     14  C   UNL A   1      32.734  23.537  25.154  1.00  0.00     0.019 A 
ATOM     15  O   UNL A   1      32.594  23.492  22.744  1.00  0.00    -0.475 OA
ATOM     16  C   UNL A   1      31.757  24.618  25.195  1.00  0.00     0.025 C 
ATOM     17  C   UNL A   1      32.278  24.914  22.814  1.00  0.00     0.314 C 
BRANCH   8  18
ATOM     18  C   UNL A   1      34.947  19.842  24.925  1.00  0.00     0.301 C 
BRANCH  18  19
ATOM     19  N   UNL A   1      34.117  18.785  24.309  1.00  0.00    -0.327 N 
ATOM     20  C   UNL A   1      31.789  18.539  23.513  1.00  0.00     0.075 C 
ATOM     21  C   UNL A   1      32.704  18.764  24.727  1.00  0.00     0.181 C 
ATOM     22  C   UNL A   1      32.372  17.756  25.842  1.00  0.00     0.065 C 
ATOM     23  C   UNL A   1      32.994  16.381  25.625  1.00  0.00     0.012 C 
ATOM     24  C   UNL A   1      34.775  17.478  24.167  1.00  0.00     0.181 C 
ATOM     25  H   UNL A   1      34.034  19.087  23.338  1.00  0.00     0.348 HD
ATOM     26  C   UNL A   1      34.479  16.500  25.315  1.00  0.00     0.065 C 
ATOM     27  C   UNL A   1      34.456  16.840  22.809  1.00  0.00     0.075 C 
ENDBRANCH  18  19
ENDBRANCH   8  18
BRANCH  17  28
ATOM     28  C   UNL A   1      33.565  25.760  22.664  1.00  0.00     0.429 C 
ATOM     29  F   UNL A   1      33.508  26.526  21.548  1.00  0.00    -0.167 F 
ATOM     30  F   UNL A   1      33.748  26.607  23.707  1.00  0.00    -0.167 F 
ATOM     31  F   UNL A   1      34.690  25.013  22.582  1.00  0.00    -0.167 F 
ENDBRANCH  17  28
ENDBRANCH   4   7
ENDBRANCH   2   3
ENDBRANCH   1   2
BRANCH   1  32
ATOM     32  C   UNL A   1      33.680  29.073  26.173  1.00  0.00     0.118 C 
BRANCH  32  33
ATOM     33  N   UNL A   1      33.583  30.368  26.843  1.00  0.00    -0.352 N 
ATOM     34  C   UNL A   1      34.392  30.930  27.802  1.00  0.00     0.251 C 
ATOM     35  H   UNL A   1      32.821  30.925  26.562  1.00  0.00     0.163 HD
ATOM     36  O   UNL A   1      34.017  31.931  28.408  1.00  0.00    -0.269 OA
BRANCH  34  37
ATOM     37  C   UNL A   1      35.696  30.312  28.113  1.00  0.00     0.039 A 
ATOM     38  C   UNL A   1      35.876  29.638  29.321  1.00  0.00     0.014 A 
ATOM     39  C   UNL A   1      36.752  30.422  27.206  1.00  0.00     0.014 A 
ATOM     40  C   UNL A   1      37.153  29.269  29.713  1.00  0.00     0.010 A 
ATOM     41  C   UNL A   1      38.015  29.934  27.554  1.00  0.00     0.010 A 
ATOM     42  C   UNL A   1      38.238  29.403  28.834  1.00  0.00    -0.014 A 
BRANCH  42  43
ATOM     43  C   UNL A   1      39.585  28.962  29.282  1.00  0.00     0.031 A 
ATOM     44  C   UNL A   1      40.366  29.760  30.290  1.00  0.00     0.074 A 
ATOM     45  C   UNL A   1      40.065  27.785  28.829  1.00  0.00     0.049 A 
ATOM     46  N   UNL A   1      41.526  29.484  30.828  1.00  0.00    -0.248 NA
ATOM     47  C   UNL A   1      39.781  31.029  30.755  1.00  0.00     0.031 C 
ATOM     48  C   UNL A   1      39.378  26.916  27.869  1.00  0.00     0.029 A 
ATOM     49  N   UNL A   1      41.203  27.090  29.148  1.00  0.00    -0.354 N 
ATOM     50  C   UNL A   1      41.824  30.554  31.664  1.00  0.00     0.074 A 
ATOM     51  C   UNL A   1      40.734  31.495  31.550  1.00  0.00     0.031 C 
ATOM     52  C   UNL A   1      40.056  25.768  27.754  1.00  0.00     0.029 A 
ATOM     53  C   UNL A   1      41.272  25.851  28.556  1.00  0.00     0.049 A 
ATOM     54  H   UNL A   1      41.903  27.445  29.743  1.00  0.00     0.167 HD
ATOM     55  C   UNL A   1      42.908  30.728  32.456  1.00  0.00     0.031 A 
ATOM     56  C   UNL A   1      42.206  24.883  28.639  1.00  0.00     0.031 A 
ATOM     57  C   UNL A   1      43.972  29.766  32.584  1.00  0.00     0.049 A 
ATOM     58  C   UNL A   1      43.412  25.113  29.499  1.00  0.00     0.074 A 
ATOM     59  C   UNL A   1      45.094  29.836  33.391  1.00  0.00     0.029 A 
ATOM     60  N   UNL A   1      44.048  28.565  31.896  1.00  0.00    -0.354 N 
ATOM     61  N   UNL A   1      43.676  26.133  30.279  1.00  0.00    -0.248 NA
ATOM     62  C   UNL A   1      44.450  24.076  29.483  1.00  0.00     0.031 C 
ATOM     63  C   UNL A   1      45.882  28.711  33.141  1.00  0.00     0.029 A 
ATOM     64  C   UNL A   1      45.217  27.901  32.233  1.00  0.00     0.049 A 
ATOM     65  H   UNL A   1      43.373  28.232  31.263  1.00  0.00     0.167 HD
ATOM     66  C   UNL A   1      44.913  25.864  30.849  1.00  0.00     0.074 A 
ATOM     67  C   UNL A   1      45.333  24.572  30.342  1.00  0.00     0.031 C 
ATOM     68  C   UNL A   1      45.633  26.623  31.709  1.00  0.00     0.031 A 
BRANCH  55  69
ATOM     69  C   UNL A   1      43.026  32.009  33.241  1.00  0.00    -0.014 A 
ATOM     70  C   UNL A   1      42.281  32.166  34.425  1.00  0.00     0.010 A 
ATOM     71  C   UNL A   1      43.782  33.096  32.764  1.00  0.00     0.010 A 
ATOM     72  C   UNL A   1      42.267  33.386  35.104  1.00  0.00     0.020 A 
ATOM     73  C   UNL A   1      43.793  34.311  33.455  1.00  0.00     0.020 A 
ATOM     74  C   UNL A   1      43.018  34.456  34.609  1.00  0.00     0.054 A 
BRANCH  74  75
ATOM     75  S   UNL A   1      42.984  36.037  35.499  1.00  0.00     0.124 S 
ATOM     76  O   UNL A   1      44.400  36.382  35.567  1.00  0.00    -0.237 OA
ATOM     77  O   UNL A   1      42.169  36.879  34.626  1.00  0.00    -0.237 OA
ATOM     78  O   UNL A   1      42.361  35.695  36.776  1.00  0.00    -0.744 OA
ENDBRANCH  74  75
ENDBRANCH  55  69
BRANCH  56  79
ATOM     79  C   UNL A   1      41.989  23.613  27.894  1.00  0.00    -0.014 A 
ATOM     80  C   UNL A   1      41.265  22.558  28.480  1.00  0.00     0.010 A 
ATOM     81  C   UNL A   1      42.627  23.401  26.659  1.00  0.00     0.010 A 
ATOM     82  C   UNL A   1      41.254  21.292  27.892  1.00  0.00     0.020 A 
ATOM     83  C   UNL A   1      42.591  22.142  26.050  1.00  0.00     0.020 A 
ATOM     84  C   UNL A   1      41.938  21.087  26.693  1.00  0.00     0.054 A 
BRANCH  84  85
ATOM     85  S   UNL A   1      42.000  19.411  26.002  1.00  0.00     0.124 S 
ATOM     86  O   UNL A   1      42.539  18.646  27.124  1.00  0.00    -0.237 OA
ATOM     87  O   UNL A   1      40.601  19.148  25.675  1.00  0.00    -0.237 OA
ATOM     88  O   UNL A   1      42.891  19.547  24.852  1.00  0.00    -0.744 OA
ENDBRANCH  84  85
ENDBRANCH  56  79
BRANCH  68  89
ATOM     89  C   UNL A   1      46.970  26.102  32.163  1.00  0.00    -0.014 A 
ATOM     90  C   UNL A   1      48.103  26.284  31.347  1.00  0.00     0.010 A 
ATOM     91  C   UNL A   1      47.076  25.314  33.322  1.00  0.00     0.010 A 
ATOM     92  C   UNL A   1      49.308  25.652  31.660  1.00  0.00     0.020 A 
ATOM     93  C   UNL A   1      48.289  24.703  33.653  1.00  0.00     0.020 A 
ATOM     94  C   UNL A   1      49.389  24.854  32.804  1.00  0.00     0.054 A 
BRANCH  94  95
ATOM     95  S   UNL A   1      50.949  24.006  33.170  1.00  0.00     0.124 S 
ATOM     96  O   UNL A   1      51.113  23.148  32.000  1.00  0.00    -0.237 OA
ATOM     97  O   UNL A   1      51.899  25.112  33.278  1.00  0.00    -0.237 OA
ATOM     98  O   UNL A   1      50.674  23.308  34.424  1.00  0.00    -0.744 OA
ENDBRANCH  94  95
ENDBRANCH  68  89
ENDBRANCH  42  43
ENDBRANCH  34  37
ENDBRANCH  32  33
ENDBRANCH   1  32
TORSDOF 16
ENDMDL
