MODEL 1
REMARK VINA RESULT:     -12.2      0.000      0.000
REMARK SMILES O=C(Cc1ccn[nH]1)Nc1sc2c(c1C(=O)NCCCNC(=O)c1ccc(-c3c4nc(c(-c5ccc(S(=O)(=O)[O-])cc5)c5ccc([nH]5)c(-c5ccc(S(=O)(=O)[O-])cc5)c5nc(c(-c6ccc(S(=O)(=O)[O-])cc6)c6ccc3[nH]6)C=C5)C=C4)cc1)CCC2
REMARK SMILES IDX 19 1 18 2 17 3 15 4 16 5 14 7 10 8 11 9 12 10 13 11 86 12
REMARK SMILES IDX 84 13 85 14 9 15 1 16 2 17 3 19 4 20 5 21 8 22 6 23 7 24
REMARK SMILES IDX 20 26 21 27 22 28 23 30 24 31 25 32 83 33 26 34 82 35 27 36
REMARK SMILES IDX 28 37 29 38 76 39 30 40 81 41 75 42 77 43 31 44 80 45 74 46
REMARK SMILES IDX 73 47 32 49 62 50 43 51 61 52 44 53 47 54 60 55 78 56 45 57
REMARK SMILES IDX 46 58 59 60 79 61 48 62 33 63 34 64 42 65 35 66 41 67 36 68
REMARK SMILES IDX 37 69 38 70 39 71 40 72 63 73 64 74 72 75 65 76 71 77 66 78
REMARK SMILES IDX 67 79 68 80 69 81 70 82 49 83 50 84 58 85 51 86 57 87 52 88
REMARK SMILES IDX 53 89 54 90 55 91 56 92
REMARK H PARENT 17 6 9 18 8 25 21 29 77 48 47 59
REMARK Flexibility Score: inf
ROOT
ATOM      1  C   UNL A   1      32.508  30.155  27.086  1.00  0.00     0.042 C 
ENDROOT
BRANCH   1   2
ATOM      2  C   UNL A   1      32.733  28.654  26.904  1.00  0.00     0.118 C 
BRANCH   2   3
ATOM      3  N   UNL A   1      33.353  28.325  25.646  1.00  0.00    -0.352 N 
ATOM      4  C   UNL A   1      33.353  27.182  24.890  1.00  0.00     0.254 C 
ATOM      5  O   UNL A   1      33.477  27.406  23.680  1.00  0.00    -0.269 OA
ATOM      6  H   UNL A   1      33.878  29.061  25.256  1.00  0.00     0.163 HD
BRANCH   4   7
ATOM      7  C   UNL A   1      33.136  25.811  25.410  1.00  0.00     0.078 A 
ATOM      8  C   UNL A   1      31.833  25.374  25.700  1.00  0.00     0.108 A 
ATOM      9  S   UNL A   1      31.737  23.926  26.604  1.00  0.00    -0.122 S 
ATOM     10  C   UNL A   1      33.368  23.687  26.383  1.00  0.00     0.011 A 
ATOM     11  C   UNL A   1      34.019  24.716  25.749  1.00  0.00    -0.019 A 
ATOM     12  C   UNL A   1      34.220  22.549  26.799  1.00  0.00     0.047 C 
ATOM     13  C   UNL A   1      35.463  24.361  25.657  1.00  0.00     0.038 C 
ATOM     14  C   UNL A   1      35.522  22.855  26.031  1.00  0.00     0.010 C 
BRANCH   8  15
ATOM     15  N   UNL A   1      30.576  25.874  25.430  1.00  0.00    -0.317 N 
ATOM     16  O   UNL A   1      30.589  25.391  23.162  1.00  0.00    -0.274 OA
ATOM     17  C   UNL A   1      30.094  25.958  24.133  1.00  0.00     0.230 C 
ATOM     18  H   UNL A   1      30.010  26.178  26.175  1.00  0.00     0.170 HD
BRANCH  17  19
ATOM     19  C   UNL A   1      28.757  26.680  24.046  1.00  0.00     0.155 C 
BRANCH  19  20
ATOM     20  C   UNL A   1      28.850  27.904  23.192  1.00  0.00     0.044 A 
ATOM     21  C   UNL A   1      27.906  28.859  22.874  1.00  0.00     0.045 A 
ATOM     22  N   UNL A   1      30.008  28.320  22.583  1.00  0.00    -0.282 N 
ATOM     23  C   UNL A   1      28.569  29.747  22.008  1.00  0.00     0.135 A 
ATOM     24  N   UNL A   1      29.834  29.388  21.785  1.00  0.00    -0.184 NA
ATOM     25  H   UNL A   1      30.879  27.880  22.717  1.00  0.00     0.190 HD
ENDBRANCH  19  20
ENDBRANCH  17  19
ENDBRANCH   8  15
ENDBRANCH   4   7
ENDBRANCH   2   3
ENDBRANCH   1   2
BRANCH   1  26
ATOM     26  C   UNL A   1      33.798  30.929  27.263  1.00  0.00     0.118 C 
BRANCH  26  27
ATOM     27  N   UNL A   1      33.767  31.774  28.459  1.00  0.00    -0.352 N 
ATOM     28  C   UNL A   1      34.688  31.845  29.487  1.00  0.00     0.251 C 
ATOM     29  H   UNL A   1      32.988  32.370  28.541  1.00  0.00     0.163 HD
ATOM     30  O   UNL A   1      34.374  32.318  30.569  1.00  0.00    -0.269 OA
BRANCH  28  31
ATOM     31  C   UNL A   1      36.044  31.322  29.249  1.00  0.00     0.039 A 
ATOM     32  C   UNL A   1      37.155  32.166  29.234  1.00  0.00     0.014 A 
ATOM     33  C   UNL A   1      36.192  29.946  29.106  1.00  0.00     0.014 A 
ATOM     34  C   UNL A   1      38.423  31.594  29.173  1.00  0.00     0.010 A 
ATOM     35  C   UNL A   1      37.431  29.381  29.244  1.00  0.00     0.010 A 
ATOM     36  C   UNL A   1      38.554  30.195  29.214  1.00  0.00    -0.014 A 
BRANCH  36  37
ATOM     37  C   UNL A   1      39.861  29.565  29.354  1.00  0.00     0.031 A 
ATOM     38  C   UNL A   1      40.254  29.295  30.760  1.00  0.00     0.074 A 
ATOM     39  C   UNL A   1      40.577  29.083  28.315  1.00  0.00     0.049 A 
ATOM     40  N   UNL A   1      41.096  29.968  31.469  1.00  0.00    -0.248 NA
ATOM     41  C   UNL A   1      39.501  28.287  31.526  1.00  0.00     0.031 C 
ATOM     42  C   UNL A   1      40.193  28.989  26.901  1.00  0.00     0.029 A 
ATOM     43  N   UNL A   1      41.785  28.460  28.331  1.00  0.00    -0.354 N 
ATOM     44  C   UNL A   1      41.177  29.307  32.687  1.00  0.00     0.074 A 
ATOM     45  C   UNL A   1      40.029  28.435  32.744  1.00  0.00     0.031 C 
ATOM     46  C   UNL A   1      41.027  28.141  26.259  1.00  0.00     0.029 A 
ATOM     47  C   UNL A   1      42.106  27.782  27.160  1.00  0.00     0.049 A 
ATOM     48  H   UNL A   1      42.386  28.486  29.110  1.00  0.00     0.167 HD
ATOM     49  C   UNL A   1      42.327  29.321  33.419  1.00  0.00     0.031 A 
ATOM     50  C   UNL A   1      43.174  26.971  26.955  1.00  0.00     0.031 A 
ATOM     51  C   UNL A   1      43.263  30.294  32.910  1.00  0.00     0.049 A 
ATOM     52  C   UNL A   1      44.190  27.338  27.972  1.00  0.00     0.074 A 
ATOM     53  C   UNL A   1      43.234  31.659  32.699  1.00  0.00     0.029 A 
ATOM     54  N   UNL A   1      44.289  29.811  32.129  1.00  0.00    -0.354 N 
ATOM     55  N   UNL A   1      44.793  28.493  27.992  1.00  0.00    -0.248 NA
ATOM     56  C   UNL A   1      44.194  26.611  29.231  1.00  0.00     0.031 C 
ATOM     57  C   UNL A   1      43.910  31.852  31.458  1.00  0.00     0.029 A 
ATOM     58  C   UNL A   1      44.393  30.616  31.024  1.00  0.00     0.049 A 
ATOM     59  H   UNL A   1      44.848  29.025  32.328  1.00  0.00     0.167 HD
ATOM     60  C   UNL A   1      44.841  28.842  29.334  1.00  0.00     0.074 A 
ATOM     61  C   UNL A   1      44.555  27.601  30.054  1.00  0.00     0.031 C 
ATOM     62  C   UNL A   1      44.826  30.152  29.722  1.00  0.00     0.031 A 
BRANCH  49  63
ATOM     63  C   UNL A   1      42.777  28.180  34.297  1.00  0.00    -0.014 A 
ATOM     64  C   UNL A   1      43.267  28.473  35.586  1.00  0.00     0.010 A 
ATOM     65  C   UNL A   1      42.994  26.874  33.813  1.00  0.00     0.010 A 
ATOM     66  C   UNL A   1      43.991  27.528  36.322  1.00  0.00     0.020 A 
ATOM     67  C   UNL A   1      43.675  25.909  34.557  1.00  0.00     0.020 A 
ATOM     68  C   UNL A   1      44.196  26.252  35.795  1.00  0.00     0.054 A 
BRANCH  68  69
ATOM     69  S   UNL A   1      45.196  25.063  36.722  1.00  0.00     0.124 S 
ATOM     70  O   UNL A   1      44.599  25.138  38.051  1.00  0.00    -0.237 OA
ATOM     71  O   UNL A   1      44.957  23.824  35.987  1.00  0.00    -0.237 OA
ATOM     72  O   UNL A   1      46.551  25.596  36.609  1.00  0.00    -0.744 OA
ENDBRANCH  68  69
ENDBRANCH  49  63
BRANCH  50  73
ATOM     73  C   UNL A   1      43.253  25.714  26.168  1.00  0.00    -0.014 A 
ATOM     74  C   UNL A   1      44.320  25.496  25.273  1.00  0.00     0.010 A 
ATOM     75  C   UNL A   1      42.468  24.601  26.532  1.00  0.00     0.010 A 
ATOM     76  C   UNL A   1      44.646  24.202  24.834  1.00  0.00     0.020 A 
ATOM     77  C   UNL A   1      42.782  23.310  26.091  1.00  0.00     0.020 A 
ATOM     78  C   UNL A   1      43.890  23.111  25.271  1.00  0.00     0.054 A 
BRANCH  78  79
ATOM     79  S   UNL A   1      44.451  21.424  24.884  1.00  0.00     0.124 S 
ATOM     80  O   UNL A   1      45.723  21.347  25.597  1.00  0.00    -0.237 OA
ATOM     81  O   UNL A   1      43.373  20.599  25.420  1.00  0.00    -0.237 OA
ATOM     82  O   UNL A   1      44.558  21.424  23.425  1.00  0.00    -0.744 OA
ENDBRANCH  78  79
ENDBRANCH  50  73
BRANCH  62  83
ATOM     83  C   UNL A   1      45.093  31.214  28.676  1.00  0.00    -0.014 A 
ATOM     84  C   UNL A   1      44.097  31.856  27.912  1.00  0.00     0.010 A 
ATOM     85  C   UNL A   1      46.422  31.654  28.542  1.00  0.00     0.010 A 
ATOM     86  C   UNL A   1      44.435  32.872  27.002  1.00  0.00     0.020 A 
ATOM     87  C   UNL A   1      46.761  32.677  27.655  1.00  0.00     0.020 A 
ATOM     88  C   UNL A   1      45.769  33.269  26.873  1.00  0.00     0.054 A 
BRANCH  88  89
ATOM     89  S   UNL A   1      46.211  34.570  25.689  1.00  0.00     0.124 S 
ATOM     90  O   UNL A   1      47.615  34.284  25.409  1.00  0.00    -0.237 OA
ATOM     91  O   UNL A   1      45.287  34.329  24.582  1.00  0.00    -0.237 OA
ATOM     92  O   UNL A   1      45.969  35.810  26.425  1.00  0.00    -0.744 OA
ENDBRANCH  88  89
ENDBRANCH  62  83
ENDBRANCH  36  37
ENDBRANCH  28  31
ENDBRANCH  26  27
ENDBRANCH   1  26
TORSDOF 16
ENDMDL
MODEL 2
REMARK VINA RESULT:     -12.0      3.411      7.912
REMARK SMILES O=C(Cc1ccn[nH]1)Nc1sc2c(c1C(=O)NCCCNC(=O)c1ccc(-c3c4nc(c(-c5ccc(S(=O)(=O)[O-])cc5)c5ccc([nH]5)c(-c5ccc(S(=O)(=O)[O-])cc5)c5nc(c(-c6ccc(S(=O)(=O)[O-])cc6)c6ccc3[nH]6)C=C5)C=C4)cc1)CCC2
REMARK SMILES IDX 19 1 18 2 17 3 15 4 16 5 14 7 10 8 11 9 12 10 13 11 86 12
REMARK SMILES IDX 84 13 85 14 9 15 1 16 2 17 3 19 4 20 5 21 8 22 6 23 7 24
REMARK SMILES IDX 20 26 21 27 22 28 23 30 24 31 25 32 83 33 26 34 82 35 27 36
REMARK SMILES IDX 28 37 29 38 76 39 30 40 81 41 75 42 77 43 31 44 80 45 74 46
REMARK SMILES IDX 73 47 32 49 62 50 43 51 61 52 44 53 47 54 60 55 78 56 45 57
REMARK SMILES IDX 46 58 59 60 79 61 48 62 33 63 34 64 42 65 35 66 41 67 36 68
REMARK SMILES IDX 37 69 38 70 39 71 40 72 63 73 64 74 72 75 65 76 71 77 66 78
REMARK SMILES IDX 67 79 68 80 69 81 70 82 49 83 50 84 58 85 51 86 57 87 52 88
REMARK SMILES IDX 53 89 54 90 55 91 56 92
REMARK H PARENT 17 6 9 18 8 25 21 29 77 48 47 59
REMARK Flexibility Score: inf
ROOT
ATOM      1  C   UNL A   1      33.996  28.840  23.907  1.00  0.00     0.042 C 
ENDROOT
BRANCH   1   2
ATOM      2  C   UNL A   1      33.052  28.917  22.707  1.00  0.00     0.118 C 
BRANCH   2   3
ATOM      3  N   UNL A   1      33.004  27.692  21.950  1.00  0.00    -0.352 N 
ATOM      4  C   UNL A   1      32.302  26.528  22.123  1.00  0.00     0.254 C 
ATOM      5  O   UNL A   1      32.056  25.952  21.058  1.00  0.00    -0.269 OA
ATOM      6  H   UNL A   1      33.588  27.691  21.157  1.00  0.00     0.163 HD
BRANCH   4   7
ATOM      7  C   UNL A   1      31.789  26.024  23.420  1.00  0.00     0.078 A 
ATOM      8  C   UNL A   1      30.505  26.392  23.852  1.00  0.00     0.108 A 
ATOM      9  S   UNL A   1      30.161  26.039  25.489  1.00  0.00    -0.122 S 
ATOM     10  C   UNL A   1      31.558  25.141  25.583  1.00  0.00     0.011 A 
ATOM     11  C   UNL A   1      32.346  25.185  24.459  1.00  0.00    -0.019 A 
ATOM     12  C   UNL A   1      32.088  24.335  26.707  1.00  0.00     0.047 C 
ATOM     13  C   UNL A   1      33.561  24.361  24.716  1.00  0.00     0.038 C 
ATOM     14  C   UNL A   1      33.233  23.570  26.011  1.00  0.00     0.010 C 
BRANCH   8  15
ATOM     15  N   UNL A   1      29.434  27.011  23.243  1.00  0.00    -0.317 N 
ATOM     16  O   UNL A   1      30.032  29.178  23.815  1.00  0.00    -0.274 OA
ATOM     17  C   UNL A   1      29.211  28.373  23.382  1.00  0.00     0.230 C 
ATOM     18  H   UNL A   1      28.815  26.475  22.698  1.00  0.00     0.170 HD
BRANCH  17  19
ATOM     19  C   UNL A   1      27.896  28.822  22.762  1.00  0.00     0.155 C 
BRANCH  19  20
ATOM     20  C   UNL A   1      27.921  30.277  22.416  1.00  0.00     0.044 A 
ATOM     21  C   UNL A   1      28.029  30.916  21.198  1.00  0.00     0.045 A 
ATOM     22  N   UNL A   1      27.780  31.281  23.343  1.00  0.00    -0.282 N 
ATOM     23  C   UNL A   1      28.029  32.287  21.509  1.00  0.00     0.135 A 
ATOM     24  N   UNL A   1      27.935  32.510  22.821  1.00  0.00    -0.184 NA
ATOM     25  H   UNL A   1      27.585  31.116  24.294  1.00  0.00     0.190 HD
ENDBRANCH  19  20
ENDBRANCH  17  19
ENDBRANCH   8  15
ENDBRANCH   4   7
ENDBRANCH   2   3
ENDBRANCH   1   2
BRANCH   1  26
ATOM     26  C   UNL A   1      33.264  28.820  25.234  1.00  0.00     0.118 C 
BRANCH  26  27
ATOM     27  N   UNL A   1      32.467  30.033  25.435  1.00  0.00    -0.352 N 
ATOM     28  C   UNL A   1      32.530  30.942  26.474  1.00  0.00     0.251 C 
ATOM     29  H   UNL A   1      31.799  30.227  24.738  1.00  0.00     0.163 HD
ATOM     30  O   UNL A   1      31.594  31.694  26.698  1.00  0.00    -0.269 OA
BRANCH  28  31
ATOM     31  C   UNL A   1      33.743  30.965  27.311  1.00  0.00     0.039 A 
ATOM     32  C   UNL A   1      34.322  29.786  27.782  1.00  0.00     0.014 A 
ATOM     33  C   UNL A   1      34.334  32.200  27.560  1.00  0.00     0.014 A 
ATOM     34  C   UNL A   1      35.556  29.863  28.422  1.00  0.00     0.010 A 
ATOM     35  C   UNL A   1      35.626  32.252  28.009  1.00  0.00     0.010 A 
ATOM     36  C   UNL A   1      36.219  31.099  28.500  1.00  0.00    -0.014 A 
BRANCH  36  37
ATOM     37  C   UNL A   1      37.593  31.186  28.980  1.00  0.00     0.031 A 
ATOM     38  C   UNL A   1      38.383  29.945  28.781  1.00  0.00     0.074 A 
ATOM     39  C   UNL A   1      38.175  32.335  29.388  1.00  0.00     0.049 A 
ATOM     40  N   UNL A   1      38.690  29.072  29.681  1.00  0.00    -0.248 NA
ATOM     41  C   UNL A   1      38.714  29.527  27.408  1.00  0.00     0.031 C 
ATOM     42  C   UNL A   1      37.634  33.700  29.352  1.00  0.00     0.029 A 
ATOM     43  N   UNL A   1      39.445  32.537  29.829  1.00  0.00    -0.354 N 
ATOM     44  C   UNL A   1      39.479  28.128  29.038  1.00  0.00     0.074 A 
ATOM     45  C   UNL A   1      39.273  28.333  27.625  1.00  0.00     0.031 C 
ATOM     46  C   UNL A   1      38.637  34.591  29.515  1.00  0.00     0.029 A 
ATOM     47  C   UNL A   1      39.848  33.867  29.852  1.00  0.00     0.049 A 
ATOM     48  H   UNL A   1      40.033  31.799  30.109  1.00  0.00     0.167 HD
ATOM     49  C   UNL A   1      40.449  27.448  29.710  1.00  0.00     0.031 A 
ATOM     50  C   UNL A   1      41.095  34.336  30.114  1.00  0.00     0.031 A 
ATOM     51  C   UNL A   1      40.332  27.636  31.136  1.00  0.00     0.049 A 
ATOM     52  C   UNL A   1      41.801  33.271  30.867  1.00  0.00     0.074 A 
ATOM     53  C   UNL A   1      39.344  27.403  32.073  1.00  0.00     0.029 A 
ATOM     54  N   UNL A   1      41.192  28.546  31.710  1.00  0.00    -0.354 N 
ATOM     55  N   UNL A   1      41.453  32.895  32.065  1.00  0.00    -0.248 NA
ATOM     56  C   UNL A   1      42.590  32.308  30.116  1.00  0.00     0.031 C 
ATOM     57  C   UNL A   1      39.395  28.528  32.948  1.00  0.00     0.029 A 
ATOM     58  C   UNL A   1      40.463  29.340  32.557  1.00  0.00     0.049 A 
ATOM     59  H   UNL A   1      42.159  28.616  31.540  1.00  0.00     0.167 HD
ATOM     60  C   UNL A   1      41.569  31.513  32.048  1.00  0.00     0.074 A 
ATOM     61  C   UNL A   1      42.373  31.219  30.861  1.00  0.00     0.031 C 
ATOM     62  C   UNL A   1      40.770  30.729  32.831  1.00  0.00     0.031 A 
BRANCH  49  63
ATOM     63  C   UNL A   1      41.740  26.984  29.081  1.00  0.00    -0.014 A 
ATOM     64  C   UNL A   1      42.749  27.935  28.831  1.00  0.00     0.010 A 
ATOM     65  C   UNL A   1      41.892  25.717  28.482  1.00  0.00     0.010 A 
ATOM     66  C   UNL A   1      43.819  27.653  27.973  1.00  0.00     0.020 A 
ATOM     67  C   UNL A   1      42.979  25.409  27.662  1.00  0.00     0.020 A 
ATOM     68  C   UNL A   1      43.921  26.390  27.388  1.00  0.00     0.054 A 
BRANCH  68  69
ATOM     69  S   UNL A   1      45.266  26.060  26.225  1.00  0.00     0.124 S 
ATOM     70  O   UNL A   1      44.542  25.547  25.066  1.00  0.00    -0.237 OA
ATOM     71  O   UNL A   1      45.865  27.382  26.066  1.00  0.00    -0.237 OA
ATOM     72  O   UNL A   1      46.096  25.087  26.931  1.00  0.00    -0.744 OA
ENDBRANCH  68  69
ENDBRANCH  49  63
BRANCH  50  73
ATOM     73  C   UNL A   1      41.809  35.482  29.497  1.00  0.00    -0.014 A 
ATOM     74  C   UNL A   1      42.830  36.152  30.201  1.00  0.00     0.010 A 
ATOM     75  C   UNL A   1      41.715  35.709  28.109  1.00  0.00     0.010 A 
ATOM     76  C   UNL A   1      43.776  36.943  29.528  1.00  0.00     0.020 A 
ATOM     77  C   UNL A   1      42.650  36.503  27.433  1.00  0.00     0.020 A 
ATOM     78  C   UNL A   1      43.697  37.090  28.141  1.00  0.00     0.054 A 
BRANCH  78  79
ATOM     79  S   UNL A   1      45.048  37.923  27.253  1.00  0.00     0.124 S 
ATOM     80  O   UNL A   1      44.336  38.940  26.484  1.00  0.00    -0.237 OA
ATOM     81  O   UNL A   1      45.884  38.423  28.341  1.00  0.00    -0.237 OA
ATOM     82  O   UNL A   1      45.648  36.852  26.457  1.00  0.00    -0.744 OA
ENDBRANCH  78  79
ENDBRANCH  50  73
BRANCH  62  83
ATOM     83  C   UNL A   1      39.996  31.387  33.954  1.00  0.00    -0.014 A 
ATOM     84  C   UNL A   1      38.712  31.952  33.819  1.00  0.00     0.010 A 
ATOM     85  C   UNL A   1      40.567  31.331  35.238  1.00  0.00     0.010 A 
ATOM     86  C   UNL A   1      38.046  32.494  34.932  1.00  0.00     0.020 A 
ATOM     87  C   UNL A   1      39.902  31.848  36.351  1.00  0.00     0.020 A 
ATOM     88  C   UNL A   1      38.652  32.445  36.191  1.00  0.00     0.054 A 
BRANCH  88  89
ATOM     89  S   UNL A   1      37.802  33.157  37.627  1.00  0.00     0.124 S 
ATOM     90  O   UNL A   1      38.498  34.427  37.812  1.00  0.00    -0.237 OA
ATOM     91  O   UNL A   1      36.418  33.258  37.168  1.00  0.00    -0.237 OA
ATOM     92  O   UNL A   1      38.022  32.172  38.686  1.00  0.00    -0.744 OA
ENDBRANCH  88  89
ENDBRANCH  62  83
ENDBRANCH  36  37
ENDBRANCH  28  31
ENDBRANCH  26  27
ENDBRANCH   1  26
TORSDOF 16
ENDMDL
MODEL 3
REMARK VINA RESULT:     -11.9      3.096      9.358
REMARK SMILES O=C(Cc1ccn[nH]1)Nc1sc2c(c1C(=O)NCCCNC(=O)c1ccc(-c3c4nc(c(-c5ccc(S(=O)(=O)[O-])cc5)c5ccc([nH]5)c(-c5ccc(S(=O)(=O)[O-])cc5)c5nc(c(-c6ccc(S(=O)(=O)[O-])cc6)c6ccc3[nH]6)C=C5)C=C4)cc1)CCC2
REMARK SMILES IDX 19 1 18 2 17 3 15 4 16 5 14 7 10 8 11 9 12 10 13 11 86 12
REMARK SMILES IDX 84 13 85 14 9 15 1 16 2 17 3 19 4 20 5 21 8 22 6 23 7 24
REMARK SMILES IDX 20 26 21 27 22 28 23 30 24 31 25 32 83 33 26 34 82 35 27 36
REMARK SMILES IDX 28 37 29 38 76 39 30 40 81 41 75 42 77 43 31 44 80 45 74 46
REMARK SMILES IDX 73 47 32 49 62 50 43 51 61 52 44 53 47 54 60 55 78 56 45 57
REMARK SMILES IDX 46 58 59 60 79 61 48 62 33 63 34 64 42 65 35 66 41 67 36 68
REMARK SMILES IDX 37 69 38 70 39 71 40 72 63 73 64 74 72 75 65 76 71 77 66 78
REMARK SMILES IDX 67 79 68 80 69 81 70 82 49 83 50 84 58 85 51 86 57 87 52 88
REMARK SMILES IDX 53 89 54 90 55 91 56 92
REMARK H PARENT 17 6 9 18 8 25 21 29 77 48 47 59
REMARK Flexibility Score: inf
ROOT
ATOM      1  C   UNL A   1      37.448  22.681  25.261  1.00  0.00     0.042 C 
ENDROOT
BRANCH   1   2
ATOM      2  C   UNL A   1      36.505  21.495  25.462  1.00  0.00     0.118 C 
BRANCH   2   3
ATOM      3  N   UNL A   1      35.272  21.860  26.113  1.00  0.00    -0.352 N 
ATOM      4  C   UNL A   1      33.979  21.438  25.940  1.00  0.00     0.254 C 
ATOM      5  O   UNL A   1      33.309  21.505  26.977  1.00  0.00    -0.269 OA
ATOM      6  H   UNL A   1      35.379  22.542  26.814  1.00  0.00     0.163 HD
BRANCH   4   7
ATOM      7  C   UNL A   1      33.426  20.867  24.690  1.00  0.00     0.078 A 
ATOM      8  C   UNL A   1      32.900  21.719  23.706  1.00  0.00     0.108 A 
ATOM      9  S   UNL A   1      31.992  20.944  22.482  1.00  0.00    -0.122 S 
ATOM     10  C   UNL A   1      32.510  19.467  23.042  1.00  0.00     0.011 A 
ATOM     11  C   UNL A   1      33.255  19.517  24.195  1.00  0.00    -0.019 A 
ATOM     12  C   UNL A   1      32.257  18.111  22.502  1.00  0.00     0.047 C 
ATOM     13  C   UNL A   1      33.611  18.121  24.575  1.00  0.00     0.038 C 
ATOM     14  C   UNL A   1      33.254  17.270  23.327  1.00  0.00     0.010 C 
BRANCH   8  15
ATOM     15  N   UNL A   1      32.934  23.084  23.509  1.00  0.00    -0.317 N 
ATOM     16  O   UNL A   1      35.083  23.165  22.640  1.00  0.00    -0.274 OA
ATOM     17  C   UNL A   1      34.092  23.728  23.100  1.00  0.00     0.230 C 
ATOM     18  H   UNL A   1      32.118  23.612  23.661  1.00  0.00     0.170 HD
BRANCH  17  19
ATOM     19  C   UNL A   1      33.954  25.243  23.094  1.00  0.00     0.155 C 
BRANCH  19  20
ATOM     20  C   UNL A   1      33.246  25.734  24.317  1.00  0.00     0.044 A 
ATOM     21  C   UNL A   1      33.710  25.988  25.591  1.00  0.00     0.045 A 
ATOM     22  N   UNL A   1      31.917  26.080  24.338  1.00  0.00    -0.282 N 
ATOM     23  C   UNL A   1      32.575  26.395  26.314  1.00  0.00     0.135 A 
ATOM     24  N   UNL A   1      31.471  26.396  25.566  1.00  0.00    -0.184 NA
ATOM     25  H   UNL A   1      31.348  26.094  23.534  1.00  0.00     0.190 HD
ENDBRANCH  19  20
ENDBRANCH  17  19
ENDBRANCH   8  15
ENDBRANCH   4   7
ENDBRANCH   2   3
ENDBRANCH   1   2
BRANCH   1  26
ATOM     26  C   UNL A   1      38.304  22.967  26.477  1.00  0.00     0.118 C 
BRANCH  26  27
ATOM     27  N   UNL A   1      39.560  22.213  26.449  1.00  0.00    -0.352 N 
ATOM     28  C   UNL A   1      40.855  22.696  26.446  1.00  0.00     0.251 C 
ATOM     29  H   UNL A   1      39.470  21.233  26.432  1.00  0.00     0.163 HD
ATOM     30  O   UNL A   1      41.779  21.991  26.072  1.00  0.00    -0.269 OA
BRANCH  28  31
ATOM     31  C   UNL A   1      41.085  24.084  26.886  1.00  0.00     0.039 A 
ATOM     32  C   UNL A   1      40.370  25.148  26.334  1.00  0.00     0.014 A 
ATOM     33  C   UNL A   1      41.992  24.293  27.920  1.00  0.00     0.014 A 
ATOM     34  C   UNL A   1      40.509  26.409  26.908  1.00  0.00     0.010 A 
ATOM     35  C   UNL A   1      41.977  25.481  28.601  1.00  0.00     0.010 A 
ATOM     36  C   UNL A   1      41.290  26.560  28.066  1.00  0.00    -0.014 A 
BRANCH  36  37
ATOM     37  C   UNL A   1      41.301  27.815  28.809  1.00  0.00     0.031 A 
ATOM     38  C   UNL A   1      42.351  28.768  28.368  1.00  0.00     0.074 A 
ATOM     39  C   UNL A   1      40.336  28.180  29.680  1.00  0.00     0.049 A 
ATOM     40  N   UNL A   1      43.464  29.022  28.970  1.00  0.00    -0.248 NA
ATOM     41  C   UNL A   1      42.246  29.369  27.028  1.00  0.00     0.031 C 
ATOM     42  C   UNL A   1      39.075  27.495  29.993  1.00  0.00     0.029 A 
ATOM     43  N   UNL A   1      40.232  29.326  30.404  1.00  0.00    -0.354 N 
ATOM     44  C   UNL A   1      44.081  30.013  28.219  1.00  0.00     0.074 A 
ATOM     45  C   UNL A   1      43.409  30.022  26.942  1.00  0.00     0.031 C 
ATOM     46  C   UNL A   1      38.243  28.344  30.636  1.00  0.00     0.029 A 
ATOM     47  C   UNL A   1      38.973  29.559  30.946  1.00  0.00     0.049 A 
ATOM     48  H   UNL A   1      40.988  29.943  30.533  1.00  0.00     0.167 HD
ATOM     49  C   UNL A   1      44.899  30.931  28.805  1.00  0.00     0.031 A 
ATOM     50  C   UNL A   1      38.558  30.681  31.588  1.00  0.00     0.031 A 
ATOM     51  C   UNL A   1      45.226  30.557  30.160  1.00  0.00     0.049 A 
ATOM     52  C   UNL A   1      39.778  31.373  32.069  1.00  0.00     0.074 A 
ATOM     53  C   UNL A   1      45.823  29.463  30.753  1.00  0.00     0.029 A 
ATOM     54  N   UNL A   1      44.527  31.196  31.160  1.00  0.00    -0.354 N 
ATOM     55  N   UNL A   1      40.566  30.878  32.981  1.00  0.00    -0.248 NA
ATOM     56  C   UNL A   1      40.376  32.385  31.212  1.00  0.00     0.031 C 
ATOM     57  C   UNL A   1      45.071  29.234  31.943  1.00  0.00     0.029 A 
ATOM     58  C   UNL A   1      44.118  30.247  32.061  1.00  0.00     0.049 A 
ATOM     59  H   UNL A   1      44.350  32.163  31.217  1.00  0.00     0.167 HD
ATOM     60  C   UNL A   1      41.847  31.158  32.530  1.00  0.00     0.074 A 
ATOM     61  C   UNL A   1      41.666  32.177  31.496  1.00  0.00     0.031 C 
ATOM     62  C   UNL A   1      42.897  30.338  32.835  1.00  0.00     0.031 A 
BRANCH  49  63
ATOM     63  C   UNL A   1      45.045  32.355  28.325  1.00  0.00    -0.014 A 
ATOM     64  C   UNL A   1      46.337  32.911  28.244  1.00  0.00     0.010 A 
ATOM     65  C   UNL A   1      43.958  33.245  28.214  1.00  0.00     0.010 A 
ATOM     66  C   UNL A   1      46.529  34.293  28.124  1.00  0.00     0.020 A 
ATOM     67  C   UNL A   1      44.137  34.620  28.049  1.00  0.00     0.020 A 
ATOM     68  C   UNL A   1      45.423  35.138  28.035  1.00  0.00     0.054 A 
BRANCH  68  69
ATOM     69  S   UNL A   1      45.681  36.927  27.956  1.00  0.00     0.124 S 
ATOM     70  O   UNL A   1      47.020  37.013  27.383  1.00  0.00    -0.237 OA
ATOM     71  O   UNL A   1      44.589  37.355  27.086  1.00  0.00    -0.237 OA
ATOM     72  O   UNL A   1      45.562  37.351  29.348  1.00  0.00    -0.744 OA
ENDBRANCH  68  69
ENDBRANCH  49  63
BRANCH  50  73
ATOM     73  C   UNL A   1      37.232  31.347  31.539  1.00  0.00    -0.014 A 
ATOM     74  C   UNL A   1      36.440  31.450  32.700  1.00  0.00     0.010 A 
ATOM     75  C   UNL A   1      36.889  32.160  30.439  1.00  0.00     0.010 A 
ATOM     76  C   UNL A   1      35.405  32.397  32.791  1.00  0.00     0.020 A 
ATOM     77  C   UNL A   1      35.853  33.100  30.520  1.00  0.00     0.020 A 
ATOM     78  C   UNL A   1      35.138  33.238  31.707  1.00  0.00     0.054 A 
BRANCH  78  79
ATOM     79  S   UNL A   1      33.956  34.606  31.909  1.00  0.00     0.124 S 
ATOM     80  O   UNL A   1      34.811  35.690  32.381  1.00  0.00    -0.237 OA
ATOM     81  O   UNL A   1      33.419  34.764  30.561  1.00  0.00    -0.237 OA
ATOM     82  O   UNL A   1      33.003  34.094  32.894  1.00  0.00    -0.744 OA
ENDBRANCH  78  79
ENDBRANCH  50  73
BRANCH  62  83
ATOM     83  C   UNL A   1      42.713  29.316  33.937  1.00  0.00    -0.014 A 
ATOM     84  C   UNL A   1      42.946  29.561  35.306  1.00  0.00     0.010 A 
ATOM     85  C   UNL A   1      42.173  28.072  33.567  1.00  0.00     0.010 A 
ATOM     86  C   UNL A   1      42.695  28.566  36.266  1.00  0.00     0.020 A 
ATOM     87  C   UNL A   1      41.902  27.086  34.517  1.00  0.00     0.020 A 
ATOM     88  C   UNL A   1      42.182  27.330  35.861  1.00  0.00     0.054 A 
BRANCH  88  89
ATOM     89  S   UNL A   1      41.871  26.038  37.096  1.00  0.00     0.124 S 
ATOM     90  O   UNL A   1      42.870  26.329  38.121  1.00  0.00    -0.237 OA
ATOM     91  O   UNL A   1      40.483  26.283  37.482  1.00  0.00    -0.237 OA
ATOM     92  O   UNL A   1      42.088  24.792  36.360  1.00  0.00    -0.744 OA
ENDBRANCH  88  89
ENDBRANCH  62  83
ENDBRANCH  36  37
ENDBRANCH  28  31
ENDBRANCH  26  27
ENDBRANCH   1  26
TORSDOF 16
ENDMDL
