MODEL 1
REMARK VINA RESULT:     -12.4      0.000      0.000
REMARK SMILES CC(C)OC(=O)c1c(NC(=O)[C@H]2[C@@H](C(=O)NCCCNC(=O)c3ccc(-c4c5nc(c(-c6ccc(S(=O)(=O)[O-])cc6)c6ccc([nH]6)c(-c6ccc(S(=O)(=O)[O-])cc6)c6nc(c(-c7ccc(S(=O)(=O)[O-])cc7)c7ccc4[nH]7)C=C6)C=C5)cc3)[C@@H]3C=C[C@H]2CC3)sc2c1CCC2
REMARK SMILES IDX 17 1 16 2 14 3 15 4 13 6 12 7 86 8 83 9 85 10 87 11 84 12
REMARK SMILES IDX 88 13 10 14 9 15 11 17 8 18 7 19 91 20 89 21 90 22 92 23
REMARK SMILES IDX 94 24 93 25 5 26 6 27 4 28 2 29 1 30 3 31 18 32 19 33 20 34
REMARK SMILES IDX 21 35 22 37 23 38 24 39 82 40 25 41 81 42 26 43 27 44 28 45
REMARK SMILES IDX 75 46 29 47 80 48 74 49 76 50 30 51 79 52 73 53 72 54 31 56
REMARK SMILES IDX 61 57 42 58 60 59 43 60 46 61 59 62 77 63 44 64 45 65 58 67
REMARK SMILES IDX 78 68 47 69 32 70 33 71 41 72 34 73 40 74 35 75 36 76 37 77
REMARK SMILES IDX 38 78 39 79 62 80 63 81 71 82 64 83 70 84 65 85 66 86 67 87
REMARK SMILES IDX 68 88 69 89 48 90 49 91 57 92 50 93 56 94 51 95 52 96 53 97
REMARK SMILES IDX 54 98 55 99
REMARK H PARENT 16 5 9 16 20 36 76 55 46 66
REMARK Flexibility Score: inf
ROOT
ATOM      1  C   UNL A   1      35.480  22.166  24.528  1.00  0.00     0.117 C 
ENDROOT
BRANCH   1   2
ATOM      2  N   UNL A   1      34.845  22.744  23.360  1.00  0.00    -0.356 N 
ATOM      3  C   UNL A   1      33.597  23.185  23.087  1.00  0.00     0.224 C 
ATOM      4  O   UNL A   1      33.350  23.381  21.890  1.00  0.00    -0.275 OA
ATOM      5  H   UNL A   1      35.458  22.833  22.596  1.00  0.00     0.163 HD
BRANCH   3   6
ATOM      6  C   UNL A   1      32.472  23.320  24.106  1.00  0.00     0.098 C 
ATOM      7  C   UNL A   1      32.667  24.501  25.119  1.00  0.00     0.099 C 
ATOM      8  C   UNL A   1      32.379  24.012  26.578  1.00  0.00     0.025 C 
ATOM      9  C   UNL A   1      31.922  22.108  24.889  1.00  0.00     0.025 C 
ATOM     10  C   UNL A   1      30.947  23.525  26.586  1.00  0.00    -0.027 C 
ATOM     11  C   UNL A   1      33.264  22.795  26.916  1.00  0.00     0.009 C 
ATOM     12  C   UNL A   1      30.702  22.558  25.690  1.00  0.00    -0.027 C 
ATOM     13  C   UNL A   1      32.982  21.659  25.923  1.00  0.00     0.009 C 
BRANCH   7  14
ATOM     14  C   UNL A   1      33.941  25.333  25.163  1.00  0.00     0.229 C 
ATOM     15  N   UNL A   1      33.974  26.625  24.685  1.00  0.00    -0.317 N 
ATOM     16  H   UNL A   1      34.879  27.013  24.676  1.00  0.00     0.170 HD
ATOM     17  O   UNL A   1      34.937  24.926  25.773  1.00  0.00    -0.274 OA
BRANCH  15  18
ATOM     18  C   UNL A   1      32.994  27.500  24.214  1.00  0.00     0.110 A 
ATOM     19  C   UNL A   1      32.467  28.607  24.898  1.00  0.00     0.098 A 
ATOM     20  C   UNL A   1      31.351  29.139  24.173  1.00  0.00    -0.017 A 
ATOM     21  S   UNL A   1      32.267  27.326  22.675  1.00  0.00    -0.122 S 
ATOM     22  C   UNL A   1      31.143  28.484  22.996  1.00  0.00     0.011 A 
ATOM     23  C   UNL A   1      30.359  30.238  24.310  1.00  0.00     0.038 C 
ATOM     24  C   UNL A   1      30.002  28.948  22.189  1.00  0.00     0.047 C 
ATOM     25  C   UNL A   1      29.295  29.875  23.214  1.00  0.00     0.010 C 
BRANCH  19  26
ATOM     26  C   UNL A   1      33.008  29.063  26.172  1.00  0.00     0.341 C 
ATOM     27  O   UNL A   1      34.037  28.586  26.649  1.00  0.00    -0.246 OA
BRANCH  26  28
ATOM     28  O   UNL A   1      32.246  30.015  26.774  1.00  0.00    -0.459 OA
BRANCH  28  29
ATOM     29  C   UNL A   1      32.726  31.379  26.835  1.00  0.00     0.170 C 
ATOM     30  C   UNL A   1      31.629  32.442  26.882  1.00  0.00     0.052 C 
ATOM     31  C   UNL A   1      33.749  31.531  27.953  1.00  0.00     0.052 C 
ENDBRANCH  28  29
ENDBRANCH  26  28
ENDBRANCH  19  26
ENDBRANCH  15  18
ENDBRANCH   7  14
ENDBRANCH   3   6
ENDBRANCH   1   2
BRANCH   1  32
ATOM     32  C   UNL A   1      36.960  21.872  24.302  1.00  0.00     0.042 C 
BRANCH  32  33
ATOM     33  C   UNL A   1      37.717  21.987  25.609  1.00  0.00     0.118 C 
BRANCH  33  34
ATOM     34  N   UNL A   1      39.040  21.359  25.504  1.00  0.00    -0.352 N 
ATOM     35  C   UNL A   1      40.269  21.858  25.872  1.00  0.00     0.251 C 
ATOM     36  H   UNL A   1      39.050  20.455  25.116  1.00  0.00     0.163 HD
ATOM     37  O   UNL A   1      41.301  21.341  25.463  1.00  0.00    -0.269 OA
BRANCH  35  38
ATOM     38  C   UNL A   1      40.306  23.029  26.757  1.00  0.00     0.039 A 
ATOM     39  C   UNL A   1      41.101  23.029  27.905  1.00  0.00     0.014 A 
ATOM     40  C   UNL A   1      39.586  24.159  26.373  1.00  0.00     0.014 A 
ATOM     41  C   UNL A   1      41.239  24.216  28.612  1.00  0.00     0.010 A 
ATOM     42  C   UNL A   1      39.850  25.361  26.974  1.00  0.00     0.010 A 
ATOM     43  C   UNL A   1      40.636  25.385  28.119  1.00  0.00    -0.014 A 
BRANCH  43  44
ATOM     44  C   UNL A   1      40.946  26.681  28.704  1.00  0.00     0.031 A 
ATOM     45  C   UNL A   1      42.069  27.383  28.027  1.00  0.00     0.074 A 
ATOM     46  C   UNL A   1      40.159  27.278  29.626  1.00  0.00     0.049 A 
ATOM     47  N   UNL A   1      43.267  27.537  28.480  1.00  0.00    -0.248 NA
ATOM     48  C   UNL A   1      41.914  27.788  26.617  1.00  0.00     0.031 C 
ATOM     49  C   UNL A   1      38.860  26.831  30.138  1.00  0.00     0.029 A 
ATOM     50  N   UNL A   1      40.302  28.492  30.217  1.00  0.00    -0.354 N 
ATOM     51  C   UNL A   1      43.941  28.290  27.526  1.00  0.00     0.074 A 
ATOM     52  C   UNL A   1      43.147  28.214  26.327  1.00  0.00     0.031 C 
ATOM     53  C   UNL A   1      38.231  27.866  30.738  1.00  0.00     0.029 A 
ATOM     54  C   UNL A   1      39.141  28.997  30.796  1.00  0.00     0.049 A 
ATOM     55  H   UNL A   1      41.158  28.977  30.235  1.00  0.00     0.167 HD
ATOM     56  C   UNL A   1      44.947  29.136  27.887  1.00  0.00     0.031 A 
ATOM     57  C   UNL A   1      38.933  30.265  31.242  1.00  0.00     0.031 A 
ATOM     58  C   UNL A   1      45.342  28.919  29.257  1.00  0.00     0.049 A 
ATOM     59  C   UNL A   1      40.274  30.872  31.450  1.00  0.00     0.074 A 
ATOM     60  C   UNL A   1      45.802  27.827  29.967  1.00  0.00     0.029 A 
ATOM     61  N   UNL A   1      44.856  29.808  30.190  1.00  0.00    -0.354 N 
ATOM     62  N   UNL A   1      41.104  30.460  32.370  1.00  0.00    -0.248 NA
ATOM     63  C   UNL A   1      40.888  31.565  30.326  1.00  0.00     0.031 C 
ATOM     64  C   UNL A   1      45.120  27.896  31.216  1.00  0.00     0.029 A 
ATOM     65  C   UNL A   1      44.379  29.080  31.247  1.00  0.00     0.049 A 
ATOM     66  H   UNL A   1      44.852  30.790  30.110  1.00  0.00     0.167 HD
ATOM     67  C   UNL A   1      42.339  30.418  31.737  1.00  0.00     0.074 A 
ATOM     68  C   UNL A   1      42.160  31.193  30.507  1.00  0.00     0.031 C 
ATOM     69  C   UNL A   1      43.298  29.517  32.106  1.00  0.00     0.031 A 
BRANCH  56  70
ATOM     70  C   UNL A   1      45.273  30.427  27.175  1.00  0.00    -0.014 A 
ATOM     71  C   UNL A   1      46.628  30.801  27.055  1.00  0.00     0.010 A 
ATOM     72  C   UNL A   1      44.309  31.409  26.869  1.00  0.00     0.010 A 
ATOM     73  C   UNL A   1      46.997  32.109  26.724  1.00  0.00     0.020 A 
ATOM     74  C   UNL A   1      44.667  32.706  26.494  1.00  0.00     0.020 A 
ATOM     75  C   UNL A   1      46.010  33.056  26.455  1.00  0.00     0.054 A 
BRANCH  75  76
ATOM     76  S   UNL A   1      46.497  34.760  26.097  1.00  0.00     0.124 S 
ATOM     77  O   UNL A   1      45.262  35.319  25.555  1.00  0.00    -0.237 OA
ATOM     78  O   UNL A   1      46.890  35.249  27.416  1.00  0.00    -0.237 OA
ATOM     79  O   UNL A   1      47.592  34.609  25.141  1.00  0.00    -0.744 OA
ENDBRANCH  75  76
ENDBRANCH  56  70
BRANCH  57  80
ATOM     80  C   UNL A   1      37.676  31.067  31.200  1.00  0.00    -0.014 A 
ATOM     81  C   UNL A   1      36.723  30.991  32.236  1.00  0.00     0.010 A 
ATOM     82  C   UNL A   1      37.538  32.122  30.275  1.00  0.00     0.010 A 
ATOM     83  C   UNL A   1      35.721  31.971  32.380  1.00  0.00     0.020 A 
ATOM     84  C   UNL A   1      36.539  33.097  30.405  1.00  0.00     0.020 A 
ATOM     85  C   UNL A   1      35.651  33.034  31.476  1.00  0.00     0.054 A 
BRANCH  85  86
ATOM     86  S   UNL A   1      34.493  34.405  31.778  1.00  0.00     0.124 S 
ATOM     87  O   UNL A   1      34.121  34.805  30.425  1.00  0.00    -0.237 OA
ATOM     88  O   UNL A   1      33.439  33.765  32.559  1.00  0.00    -0.237 OA
ATOM     89  O   UNL A   1      35.296  35.380  32.514  1.00  0.00    -0.744 OA
ENDBRANCH  85  86
ENDBRANCH  57  80
BRANCH  69  90
ATOM     90  C   UNL A   1      43.143  28.761  33.407  1.00  0.00    -0.014 A 
ATOM     91  C   UNL A   1      43.418  29.290  34.683  1.00  0.00     0.010 A 
ATOM     92  C   UNL A   1      42.538  27.494  33.328  1.00  0.00     0.010 A 
ATOM     93  C   UNL A   1      43.132  28.549  35.842  1.00  0.00     0.020 A 
ATOM     94  C   UNL A   1      42.228  26.763  34.475  1.00  0.00     0.020 A 
ATOM     95  C   UNL A   1      42.543  27.286  35.727  1.00  0.00     0.054 A 
BRANCH  95  96
ATOM     96  S   UNL A   1      42.173  26.322  37.220  1.00  0.00     0.124 S 
ATOM     97  O   UNL A   1      43.273  26.683  38.109  1.00  0.00    -0.237 OA
ATOM     98  O   UNL A   1      40.856  26.819  37.611  1.00  0.00    -0.237 OA
ATOM     99  O   UNL A   1      42.188  24.936  36.753  1.00  0.00    -0.744 OA
ENDBRANCH  95  96
ENDBRANCH  69  90
ENDBRANCH  43  44
ENDBRANCH  35  38
ENDBRANCH  33  34
ENDBRANCH  32  33
ENDBRANCH   1  32
TORSDOF 18
ENDMDL
MODEL 2
REMARK VINA RESULT:     -12.2      2.601      7.093
REMARK SMILES CC(C)OC(=O)c1c(NC(=O)[C@H]2[C@@H](C(=O)NCCCNC(=O)c3ccc(-c4c5nc(c(-c6ccc(S(=O)(=O)[O-])cc6)c6ccc([nH]6)c(-c6ccc(S(=O)(=O)[O-])cc6)c6nc(c(-c7ccc(S(=O)(=O)[O-])cc7)c7ccc4[nH]7)C=C6)C=C5)cc3)[C@@H]3C=C[C@H]2CC3)sc2c1CCC2
REMARK SMILES IDX 17 1 16 2 14 3 15 4 13 6 12 7 86 8 83 9 85 10 87 11 84 12
REMARK SMILES IDX 88 13 10 14 9 15 11 17 8 18 7 19 91 20 89 21 90 22 92 23
REMARK SMILES IDX 94 24 93 25 5 26 6 27 4 28 2 29 1 30 3 31 18 32 19 33 20 34
REMARK SMILES IDX 21 35 22 37 23 38 24 39 82 40 25 41 81 42 26 43 27 44 28 45
REMARK SMILES IDX 75 46 29 47 80 48 74 49 76 50 30 51 79 52 73 53 72 54 31 56
REMARK SMILES IDX 61 57 42 58 60 59 43 60 46 61 59 62 77 63 44 64 45 65 58 67
REMARK SMILES IDX 78 68 47 69 32 70 33 71 41 72 34 73 40 74 35 75 36 76 37 77
REMARK SMILES IDX 38 78 39 79 62 80 63 81 71 82 64 83 70 84 65 85 66 86 67 87
REMARK SMILES IDX 68 88 69 89 48 90 49 91 57 92 50 93 56 94 51 95 52 96 53 97
REMARK SMILES IDX 54 98 55 99
REMARK H PARENT 16 5 9 16 20 36 76 55 46 66
REMARK Flexibility Score: inf
ROOT
ATOM      1  C   UNL A   1      36.950  20.792  24.987  1.00  0.00     0.117 C 
ENDROOT
BRANCH   1   2
ATOM      2  N   UNL A   1      36.745  21.960  24.155  1.00  0.00    -0.356 N 
ATOM      3  C   UNL A   1      35.654  22.584  23.657  1.00  0.00     0.224 C 
ATOM      4  O   UNL A   1      35.874  23.415  22.767  1.00  0.00    -0.275 OA
ATOM      5  H   UNL A   1      37.588  22.396  23.893  1.00  0.00     0.163 HD
BRANCH   3   6
ATOM      6  C   UNL A   1      34.212  22.242  24.010  1.00  0.00     0.098 C 
ATOM      7  C   UNL A   1      33.428  23.415  24.695  1.00  0.00     0.099 C 
ATOM      8  C   UNL A   1      32.649  22.882  25.946  1.00  0.00     0.025 C 
ATOM      9  C   UNL A   1      33.830  20.930  24.729  1.00  0.00     0.025 C 
ATOM     10  C   UNL A   1      31.698  21.824  25.433  1.00  0.00    -0.027 C 
ATOM     11  C   UNL A   1      33.618  22.177  26.915  1.00  0.00     0.009 C 
ATOM     12  C   UNL A   1      32.306  20.826  24.776  1.00  0.00    -0.027 C 
ATOM     13  C   UNL A   1      34.308  21.008  26.198  1.00  0.00     0.009 C 
BRANCH   7  14
ATOM     14  C   UNL A   1      34.103  24.716  25.103  1.00  0.00     0.229 C 
ATOM     15  N   UNL A   1      33.519  25.939  24.853  1.00  0.00    -0.317 N 
ATOM     16  H   UNL A   1      34.103  26.701  25.069  1.00  0.00     0.170 HD
ATOM     17  O   UNL A   1      35.118  24.705  25.809  1.00  0.00    -0.274 OA
BRANCH  15  18
ATOM     18  C   UNL A   1      32.271  26.325  24.358  1.00  0.00     0.110 A 
ATOM     19  C   UNL A   1      31.935  27.585  23.838  1.00  0.00     0.098 A 
ATOM     20  C   UNL A   1      30.521  27.656  23.615  1.00  0.00    -0.017 A 
ATOM     21  S   UNL A   1      30.926  25.268  24.328  1.00  0.00    -0.122 S 
ATOM     22  C   UNL A   1      29.897  26.477  23.897  1.00  0.00     0.011 A 
ATOM     23  C   UNL A   1      29.522  28.640  23.123  1.00  0.00     0.038 C 
ATOM     24  C   UNL A   1      28.435  26.459  23.717  1.00  0.00     0.047 C 
ATOM     25  C   UNL A   1      28.160  27.976  23.531  1.00  0.00     0.010 C 
BRANCH  19  26
ATOM     26  C   UNL A   1      32.930  28.627  23.621  1.00  0.00     0.341 C 
ATOM     27  O   UNL A   1      33.341  28.908  22.496  1.00  0.00    -0.246 OA
BRANCH  26  28
ATOM     28  O   UNL A   1      33.370  29.204  24.771  1.00  0.00    -0.459 OA
BRANCH  28  29
ATOM     29  C   UNL A   1      32.491  29.264  25.920  1.00  0.00     0.170 C 
ATOM     30  C   UNL A   1      33.115  28.786  27.230  1.00  0.00     0.052 C 
ATOM     31  C   UNL A   1      31.860  30.646  26.031  1.00  0.00     0.052 C 
ENDBRANCH  28  29
ENDBRANCH  26  28
ENDBRANCH  19  26
ENDBRANCH  15  18
ENDBRANCH   7  14
ENDBRANCH   3   6
ENDBRANCH   1   2
BRANCH   1  32
ATOM     32  C   UNL A   1      38.249  20.061  24.658  1.00  0.00     0.042 C 
BRANCH  32  33
ATOM     33  C   UNL A   1      38.734  19.294  25.871  1.00  0.00     0.118 C 
BRANCH  33  34
ATOM     34  N   UNL A   1      40.112  18.827  25.679  1.00  0.00    -0.352 N 
ATOM     35  C   UNL A   1      41.289  19.531  25.781  1.00  0.00     0.251 C 
ATOM     36  H   UNL A   1      40.207  17.876  25.444  1.00  0.00     0.163 HD
ATOM     37  O   UNL A   1      42.329  19.081  25.315  1.00  0.00    -0.269 OA
BRANCH  35  38
ATOM     38  C   UNL A   1      41.261  20.837  26.452  1.00  0.00     0.039 A 
ATOM     39  C   UNL A   1      41.023  20.927  27.824  1.00  0.00     0.014 A 
ATOM     40  C   UNL A   1      41.554  21.967  25.690  1.00  0.00     0.014 A 
ATOM     41  C   UNL A   1      41.179  22.161  28.441  1.00  0.00     0.010 A 
ATOM     42  C   UNL A   1      41.864  23.142  26.322  1.00  0.00     0.010 A 
ATOM     43  C   UNL A   1      41.633  23.256  27.686  1.00  0.00    -0.014 A 
BRANCH  43  44
ATOM     44  C   UNL A   1      42.023  24.496  28.342  1.00  0.00     0.031 A 
ATOM     45  C   UNL A   1      41.043  25.599  28.154  1.00  0.00     0.074 A 
ATOM     46  C   UNL A   1      43.057  24.575  29.207  1.00  0.00     0.049 A 
ATOM     47  N   UNL A   1      41.181  26.632  27.394  1.00  0.00    -0.248 NA
ATOM     48  C   UNL A   1      39.685  25.451  28.709  1.00  0.00     0.031 C 
ATOM     49  C   UNL A   1      43.900  23.488  29.717  1.00  0.00     0.029 A 
ATOM     50  N   UNL A   1      43.500  25.644  29.917  1.00  0.00    -0.354 N 
ATOM     51  C   UNL A   1      40.037  27.399  27.582  1.00  0.00     0.074 A 
ATOM     52  C   UNL A   1      39.074  26.528  28.205  1.00  0.00     0.031 C 
ATOM     53  C   UNL A   1      44.551  23.905  30.826  1.00  0.00     0.029 A 
ATOM     54  C   UNL A   1      44.300  25.324  31.011  1.00  0.00     0.049 A 
ATOM     55  H   UNL A   1      43.274  26.571  29.679  1.00  0.00     0.167 HD
ATOM     56  C   UNL A   1      40.078  28.756  27.463  1.00  0.00     0.031 A 
ATOM     57  C   UNL A   1      44.682  26.156  32.018  1.00  0.00     0.031 A 
ATOM     58  C   UNL A   1      41.326  29.189  26.882  1.00  0.00     0.049 A 
ATOM     59  C   UNL A   1      44.513  27.545  31.513  1.00  0.00     0.074 A 
ATOM     60  C   UNL A   1      41.988  28.913  25.701  1.00  0.00     0.029 A 
ATOM     61  N   UNL A   1      42.275  29.679  27.751  1.00  0.00    -0.354 N 
ATOM     62  N   UNL A   1      45.236  28.040  30.545  1.00  0.00    -0.248 NA
ATOM     63  C   UNL A   1      43.224  28.190  31.717  1.00  0.00     0.031 C 
ATOM     64  C   UNL A   1      43.355  28.775  26.078  1.00  0.00     0.029 A 
ATOM     65  C   UNL A   1      43.470  29.088  27.434  1.00  0.00     0.049 A 
ATOM     66  H   UNL A   1      42.122  30.334  28.469  1.00  0.00     0.167 HD
ATOM     67  C   UNL A   1      44.330  28.718  29.740  1.00  0.00     0.074 A 
ATOM     68  C   UNL A   1      43.122  28.850  30.559  1.00  0.00     0.031 C 
ATOM     69  C   UNL A   1      44.527  28.840  28.393  1.00  0.00     0.031 A 
BRANCH  56  70
ATOM     70  C   UNL A   1      39.210  29.708  28.249  1.00  0.00    -0.014 A 
ATOM     71  C   UNL A   1      39.681  30.166  29.497  1.00  0.00     0.010 A 
ATOM     72  C   UNL A   1      37.856  29.952  27.947  1.00  0.00     0.010 A 
ATOM     73  C   UNL A   1      38.822  30.764  30.426  1.00  0.00     0.020 A 
ATOM     74  C   UNL A   1      37.000  30.588  28.850  1.00  0.00     0.020 A 
ATOM     75  C   UNL A   1      37.482  30.961  30.096  1.00  0.00     0.054 A 
BRANCH  75  76
ATOM     76  S   UNL A   1      36.366  31.670  31.330  1.00  0.00     0.124 S 
ATOM     77  O   UNL A   1      35.160  31.911  30.543  1.00  0.00    -0.237 OA
ATOM     78  O   UNL A   1      36.277  30.596  32.315  1.00  0.00    -0.237 OA
ATOM     79  O   UNL A   1      37.072  32.867  31.782  1.00  0.00    -0.744 OA
ENDBRANCH  75  76
ENDBRANCH  56  70
BRANCH  57  80
ATOM     80  C   UNL A   1      44.881  25.835  33.460  1.00  0.00    -0.014 A 
ATOM     81  C   UNL A   1      46.008  26.300  34.167  1.00  0.00     0.010 A 
ATOM     82  C   UNL A   1      43.821  25.300  34.221  1.00  0.00     0.010 A 
ATOM     83  C   UNL A   1      46.040  26.298  35.575  1.00  0.00     0.020 A 
ATOM     84  C   UNL A   1      43.847  25.285  35.622  1.00  0.00     0.020 A 
ATOM     85  C   UNL A   1      44.946  25.812  36.295  1.00  0.00     0.054 A 
BRANCH  85  86
ATOM     86  S   UNL A   1      44.900  25.997  38.106  1.00  0.00     0.124 S 
ATOM     87  O   UNL A   1      46.228  26.525  38.400  1.00  0.00    -0.237 OA
ATOM     88  O   UNL A   1      43.793  26.927  38.303  1.00  0.00    -0.237 OA
ATOM     89  O   UNL A   1      44.654  24.638  38.585  1.00  0.00    -0.744 OA
ENDBRANCH  85  86
ENDBRANCH  57  80
BRANCH  69  90
ATOM     90  C   UNL A   1      45.882  28.508  27.810  1.00  0.00    -0.014 A 
ATOM     91  C   UNL A   1      46.290  27.223  27.401  1.00  0.00     0.010 A 
ATOM     92  C   UNL A   1      46.725  29.596  27.522  1.00  0.00     0.010 A 
ATOM     93  C   UNL A   1      47.527  27.034  26.761  1.00  0.00     0.020 A 
ATOM     94  C   UNL A   1      47.942  29.420  26.865  1.00  0.00     0.020 A 
ATOM     95  C   UNL A   1      48.347  28.137  26.503  1.00  0.00     0.054 A 
BRANCH  95  96
ATOM     96  S   UNL A   1      49.947  27.901  25.680  1.00  0.00     0.124 S 
ATOM     97  O   UNL A   1      50.483  29.258  25.636  1.00  0.00    -0.237 OA
ATOM     98  O   UNL A   1      50.641  26.977  26.575  1.00  0.00    -0.237 OA
ATOM     99  O   UNL A   1      49.590  27.336  24.379  1.00  0.00    -0.744 OA
ENDBRANCH  95  96
ENDBRANCH  69  90
ENDBRANCH  43  44
ENDBRANCH  35  38
ENDBRANCH  33  34
ENDBRANCH  32  33
ENDBRANCH   1  32
TORSDOF 18
ENDMDL
MODEL 3
REMARK VINA RESULT:     -11.8      1.527      2.035
REMARK SMILES CC(C)OC(=O)c1c(NC(=O)[C@H]2[C@@H](C(=O)NCCCNC(=O)c3ccc(-c4c5nc(c(-c6ccc(S(=O)(=O)[O-])cc6)c6ccc([nH]6)c(-c6ccc(S(=O)(=O)[O-])cc6)c6nc(c(-c7ccc(S(=O)(=O)[O-])cc7)c7ccc4[nH]7)C=C6)C=C5)cc3)[C@@H]3C=C[C@H]2CC3)sc2c1CCC2
REMARK SMILES IDX 17 1 16 2 14 3 15 4 13 6 12 7 86 8 83 9 85 10 87 11 84 12
REMARK SMILES IDX 88 13 10 14 9 15 11 17 8 18 7 19 91 20 89 21 90 22 92 23
REMARK SMILES IDX 94 24 93 25 5 26 6 27 4 28 2 29 1 30 3 31 18 32 19 33 20 34
REMARK SMILES IDX 21 35 22 37 23 38 24 39 82 40 25 41 81 42 26 43 27 44 28 45
REMARK SMILES IDX 75 46 29 47 80 48 74 49 76 50 30 51 79 52 73 53 72 54 31 56
REMARK SMILES IDX 61 57 42 58 60 59 43 60 46 61 59 62 77 63 44 64 45 65 58 67
REMARK SMILES IDX 78 68 47 69 32 70 33 71 41 72 34 73 40 74 35 75 36 76 37 77
REMARK SMILES IDX 38 78 39 79 62 80 63 81 71 82 64 83 70 84 65 85 66 86 67 87
REMARK SMILES IDX 68 88 69 89 48 90 49 91 57 92 50 93 56 94 51 95 52 96 53 97
REMARK SMILES IDX 54 98 55 99
REMARK H PARENT 16 5 9 16 20 36 76 55 46 66
REMARK Flexibility Score: inf
ROOT
ATOM      1  C   UNL A   1      36.955  22.100  25.570  1.00  0.00     0.117 C 
ENDROOT
BRANCH   1   2
ATOM      2  N   UNL A   1      36.660  22.772  24.321  1.00  0.00    -0.356 N 
ATOM      3  C   UNL A   1      35.555  22.892  23.552  1.00  0.00     0.224 C 
ATOM      4  O   UNL A   1      35.743  23.335  22.412  1.00  0.00    -0.275 OA
ATOM      5  H   UNL A   1      37.438  23.246  23.948  1.00  0.00     0.163 HD
BRANCH   3   6
ATOM      6  C   UNL A   1      34.163  22.403  23.936  1.00  0.00     0.098 C 
ATOM      7  C   UNL A   1      33.341  23.428  24.793  1.00  0.00     0.099 C 
ATOM      8  C   UNL A   1      32.678  22.701  26.011  1.00  0.00     0.025 C 
ATOM      9  C   UNL A   1      33.917  20.993  24.516  1.00  0.00     0.025 C 
ATOM     10  C   UNL A   1      31.774  21.638  25.428  1.00  0.00    -0.027 C 
ATOM     11  C   UNL A   1      33.750  21.967  26.841  1.00  0.00     0.009 C 
ATOM     12  C   UNL A   1      32.410  20.769  24.629  1.00  0.00    -0.027 C 
ATOM     13  C   UNL A   1      34.476  20.942  25.957  1.00  0.00     0.009 C 
BRANCH   7  14
ATOM     14  C   UNL A   1      33.947  24.724  25.314  1.00  0.00     0.229 C 
ATOM     15  N   UNL A   1      33.339  25.941  25.096  1.00  0.00    -0.317 N 
ATOM     16  H   UNL A   1      33.884  26.706  25.391  1.00  0.00     0.170 HD
ATOM     17  O   UNL A   1      34.917  24.702  26.081  1.00  0.00    -0.274 OA
BRANCH  15  18
ATOM     18  C   UNL A   1      32.113  26.318  24.546  1.00  0.00     0.110 A 
ATOM     19  C   UNL A   1      31.823  27.538  23.915  1.00  0.00     0.098 A 
ATOM     20  C   UNL A   1      30.415  27.629  23.658  1.00  0.00    -0.017 A 
ATOM     21  S   UNL A   1      30.737  25.301  24.578  1.00  0.00    -0.122 S 
ATOM     22  C   UNL A   1      29.752  26.496  24.026  1.00  0.00     0.011 A 
ATOM     23  C   UNL A   1      29.455  28.596  23.065  1.00  0.00     0.038 C 
ATOM     24  C   UNL A   1      28.294  26.504  23.820  1.00  0.00     0.047 C 
ATOM     25  C   UNL A   1      28.066  28.006  23.500  1.00  0.00     0.010 C 
BRANCH  19  26
ATOM     26  C   UNL A   1      32.852  28.530  23.630  1.00  0.00     0.341 C 
ATOM     27  O   UNL A   1      33.339  28.656  22.507  1.00  0.00    -0.246 OA
BRANCH  26  28
ATOM     28  O   UNL A   1      33.231  29.246  24.722  1.00  0.00    -0.459 OA
BRANCH  28  29
ATOM     29  C   UNL A   1      32.351  29.313  25.870  1.00  0.00     0.170 C 
ATOM     30  C   UNL A   1      32.993  28.896  27.193  1.00  0.00     0.052 C 
ATOM     31  C   UNL A   1      31.676  30.677  25.941  1.00  0.00     0.052 C 
ENDBRANCH  28  29
ENDBRANCH  26  28
ENDBRANCH  19  26
ENDBRANCH  15  18
ENDBRANCH   7  14
ENDBRANCH   3   6
ENDBRANCH   1   2
BRANCH   1  32
ATOM     32  C   UNL A   1      38.203  21.226  25.483  1.00  0.00     0.042 C 
BRANCH  32  33
ATOM     33  C   UNL A   1      39.339  21.866  26.256  1.00  0.00     0.118 C 
BRANCH  33  34
ATOM     34  N   UNL A   1      40.528  21.005  26.246  1.00  0.00    -0.352 N 
ATOM     35  C   UNL A   1      41.856  21.360  26.285  1.00  0.00     0.251 C 
ATOM     36  H   UNL A   1      40.349  20.038  26.206  1.00  0.00     0.163 HD
ATOM     37  O   UNL A   1      42.727  20.554  25.983  1.00  0.00    -0.269 OA
BRANCH  35  38
ATOM     38  C   UNL A   1      42.197  22.731  26.687  1.00  0.00     0.039 A 
ATOM     39  C   UNL A   1      41.879  23.813  25.866  1.00  0.00     0.014 A 
ATOM     40  C   UNL A   1      42.775  22.917  27.942  1.00  0.00     0.014 A 
ATOM     41  C   UNL A   1      42.062  25.096  26.364  1.00  0.00     0.010 A 
ATOM     42  C   UNL A   1      42.802  24.172  28.490  1.00  0.00     0.010 A 
ATOM     43  C   UNL A   1      42.493  25.265  27.691  1.00  0.00    -0.014 A 
BRANCH  43  44
ATOM     44  C   UNL A   1      42.476  26.580  28.313  1.00  0.00     0.031 A 
ATOM     45  C   UNL A   1      43.598  27.455  27.879  1.00  0.00     0.074 A 
ATOM     46  C   UNL A   1      41.434  27.034  29.042  1.00  0.00     0.049 A 
ATOM     47  N   UNL A   1      44.637  27.777  28.571  1.00  0.00    -0.248 NA
ATOM     48  C   UNL A   1      43.682  27.861  26.464  1.00  0.00     0.031 C 
ATOM     49  C   UNL A   1      40.138  26.388  29.275  1.00  0.00     0.029 A 
ATOM     50  N   UNL A   1      41.266  28.244  29.636  1.00  0.00    -0.354 N 
ATOM     51  C   UNL A   1      45.376  28.641  27.771  1.00  0.00     0.074 A 
ATOM     52  C   UNL A   1      44.870  28.472  26.433  1.00  0.00     0.031 C 
ATOM     53  C   UNL A   1      39.249  27.305  29.718  1.00  0.00     0.029 A 
ATOM     54  C   UNL A   1      39.947  28.558  29.953  1.00  0.00     0.049 A 
ATOM     55  H   UNL A   1      42.016  28.850  29.828  1.00  0.00     0.167 HD
ATOM     56  C   UNL A   1      46.145  29.621  28.325  1.00  0.00     0.031 A 
ATOM     57  C   UNL A   1      39.462  29.772  30.330  1.00  0.00     0.031 A 
ATOM     58  C   UNL A   1      46.273  29.437  29.750  1.00  0.00     0.049 A 
ATOM     59  C   UNL A   1      40.624  30.567  30.808  1.00  0.00     0.074 A 
ATOM     60  C   UNL A   1      46.732  28.411  30.554  1.00  0.00     0.029 A 
ATOM     61  N   UNL A   1      45.475  30.225  30.550  1.00  0.00    -0.354 N 
ATOM     62  N   UNL A   1      41.295  30.266  31.886  1.00  0.00    -0.248 NA
ATOM     63  C   UNL A   1      41.348  31.366  29.830  1.00  0.00     0.031 C 
ATOM     64  C   UNL A   1      45.802  28.353  31.631  1.00  0.00     0.029 A 
ATOM     65  C   UNL A   1      44.902  29.412  31.492  1.00  0.00     0.049 A 
ATOM     66  H   UNL A   1      45.340  31.196  30.459  1.00  0.00     0.167 HD
ATOM     67  C   UNL A   1      42.627  30.421  31.527  1.00  0.00     0.074 A 
ATOM     68  C   UNL A   1      42.595  31.185  30.278  1.00  0.00     0.031 C 
ATOM     69  C   UNL A   1      43.611  29.665  32.100  1.00  0.00     0.031 A 
BRANCH  56  70
ATOM     70  C   UNL A   1      46.415  30.960  27.683  1.00  0.00    -0.014 A 
ATOM     71  C   UNL A   1      47.736  31.259  27.290  1.00  0.00     0.010 A 
ATOM     72  C   UNL A   1      45.496  32.028  27.701  1.00  0.00     0.010 A 
ATOM     73  C   UNL A   1      48.134  32.570  27.008  1.00  0.00     0.020 A 
ATOM     74  C   UNL A   1      45.872  33.334  27.378  1.00  0.00     0.020 A 
ATOM     75  C   UNL A   1      47.197  33.601  27.064  1.00  0.00     0.054 A 
BRANCH  75  76
ATOM     76  S   UNL A   1      47.738  35.301  26.766  1.00  0.00     0.124 S 
ATOM     77  O   UNL A   1      48.036  35.764  28.118  1.00  0.00    -0.237 OA
ATOM     78  O   UNL A   1      48.892  35.106  25.893  1.00  0.00    -0.237 OA
ATOM     79  O   UNL A   1      46.578  35.922  26.130  1.00  0.00    -0.744 OA
ENDBRANCH  75  76
ENDBRANCH  56  70
BRANCH  57  80
ATOM     80  C   UNL A   1      38.136  30.378  30.016  1.00  0.00    -0.014 A 
ATOM     81  C   UNL A   1      37.493  31.245  30.922  1.00  0.00     0.010 A 
ATOM     82  C   UNL A   1      37.625  30.325  28.703  1.00  0.00     0.010 A 
ATOM     83  C   UNL A   1      36.433  32.076  30.510  1.00  0.00     0.020 A 
ATOM     84  C   UNL A   1      36.565  31.142  28.286  1.00  0.00     0.020 A 
ATOM     85  C   UNL A   1      35.991  32.037  29.185  1.00  0.00     0.054 A 
BRANCH  85  86
ATOM     86  S   UNL A   1      34.766  33.251  28.603  1.00  0.00     0.124 S 
ATOM     87  O   UNL A   1      35.436  33.843  27.449  1.00  0.00    -0.237 OA
ATOM     88  O   UNL A   1      33.608  32.416  28.302  1.00  0.00    -0.237 OA
ATOM     89  O   UNL A   1      34.597  34.147  29.747  1.00  0.00    -0.744 OA
ENDBRANCH  85  86
ENDBRANCH  57  80
BRANCH  69  90
ATOM     90  C   UNL A   1      43.303  28.869  33.348  1.00  0.00    -0.014 A 
ATOM     91  C   UNL A   1      43.485  29.334  34.665  1.00  0.00     0.010 A 
ATOM     92  C   UNL A   1      42.649  27.638  33.161  1.00  0.00     0.010 A 
ATOM     93  C   UNL A   1      43.060  28.564  35.761  1.00  0.00     0.020 A 
ATOM     94  C   UNL A   1      42.201  26.881  34.243  1.00  0.00     0.020 A 
ATOM     95  C   UNL A   1      42.425  27.338  35.540  1.00  0.00     0.054 A 
BRANCH  95  96
ATOM     96  S   UNL A   1      41.876  26.338  36.951  1.00  0.00     0.124 S 
ATOM     97  O   UNL A   1      40.637  27.002  37.346  1.00  0.00    -0.237 OA
ATOM     98  O   UNL A   1      41.719  25.007  36.366  1.00  0.00    -0.237 OA
ATOM     99  O   UNL A   1      42.972  26.456  37.911  1.00  0.00    -0.744 OA
ENDBRANCH  95  96
ENDBRANCH  69  90
ENDBRANCH  43  44
ENDBRANCH  35  38
ENDBRANCH  33  34
ENDBRANCH  32  33
ENDBRANCH   1  32
TORSDOF 18
ENDMDL
