MODEL 1
REMARK VINA RESULT:     -12.1      0.000      0.000
REMARK SMILES O=C(NCCCNC(=O)[C@@H]1[C@@H](C(=O)NCCCn2ccnc2)[C@@H]2C=C[C@H]1C2)c1ccc(-c2c3nc(c(-c4ccc(S(=O)(=O)[O-])cc4)c4ccc([nH]4)c(-c4ccc(S(=O)(=O)[O-])cc4)c4nc(c(-c5ccc(S(=O)(=O)[O-])cc5)c5ccc2[nH]5)C=C4)C=C3)cc1
REMARK SMILES IDX 6 1 5 2 4 3 3 4 1 5 2 6 28 8 29 9 87 10 30 11 86 12 31 13
REMARK SMILES IDX 32 14 33 15 80 16 34 17 85 18 79 19 81 20 35 21 84 22 78 23
REMARK SMILES IDX 77 24 36 26 66 27 47 28 65 29 48 30 51 31 64 32 82 33 49 34
REMARK SMILES IDX 50 35 63 37 83 38 52 39 37 40 38 41 46 42 39 43 45 44 40 45
REMARK SMILES IDX 41 46 42 47 43 48 44 49 67 50 68 51 76 52 69 53 75 54 70 55
REMARK SMILES IDX 71 56 72 57 73 58 74 59 53 60 54 61 62 62 55 63 61 64 56 65
REMARK SMILES IDX 57 66 58 67 59 68 60 69 7 70 8 71 9 73 10 74 11 75 26 76
REMARK SMILES IDX 23 77 25 78 27 79 24 80 12 81 13 82 14 83 15 85 16 86 17 87
REMARK SMILES IDX 18 88 19 89 22 90 20 91 21 92
REMARK H PARENT 3 7 81 25 51 36 7 72 14 84
REMARK Flexibility Score: inf
ROOT
ATOM      1  C   UNL A   1      31.609  29.882  24.825  1.00  0.00     0.117 C 
ENDROOT
BRANCH   1   2
ATOM      2  C   UNL A   1      31.726  30.423  26.252  1.00  0.00     0.042 C 
BRANCH   2   3
ATOM      3  C   UNL A   1      33.146  30.550  26.802  1.00  0.00     0.118 C 
BRANCH   3   4
ATOM      4  N   UNL A   1      33.394  31.711  27.632  1.00  0.00    -0.352 N 
ATOM      5  O   UNL A   1      34.281  33.304  28.862  1.00  0.00    -0.269 OA
ATOM      6  C   UNL A   1      34.437  32.176  28.384  1.00  0.00     0.251 C 
ATOM      7  H   UNL A   1      32.618  32.317  27.662  1.00  0.00     0.163 HD
BRANCH   6   8
ATOM      8  C   UNL A   1      35.695  31.436  28.697  1.00  0.00     0.039 A 
ATOM      9  C   UNL A   1      35.877  30.056  28.618  1.00  0.00     0.014 A 
ATOM     10  C   UNL A   1      36.796  32.232  29.076  1.00  0.00     0.014 A 
ATOM     11  C   UNL A   1      37.115  29.488  28.943  1.00  0.00     0.010 A 
ATOM     12  C   UNL A   1      38.035  31.670  29.388  1.00  0.00     0.010 A 
ATOM     13  C   UNL A   1      38.196  30.291  29.331  1.00  0.00    -0.014 A 
BRANCH  13  14
ATOM     14  C   UNL A   1      39.509  29.658  29.504  1.00  0.00     0.031 A 
ATOM     15  C   UNL A   1      39.952  29.467  30.916  1.00  0.00     0.074 A 
ATOM     16  C   UNL A   1      40.256  29.093  28.534  1.00  0.00     0.049 A 
ATOM     17  N   UNL A   1      40.945  30.028  31.527  1.00  0.00    -0.248 NA
ATOM     18  C   UNL A   1      39.147  28.580  31.766  1.00  0.00     0.031 C 
ATOM     19  C   UNL A   1      39.883  28.827  27.144  1.00  0.00     0.029 A 
ATOM     20  N   UNL A   1      41.504  28.540  28.634  1.00  0.00    -0.354 N 
ATOM     21  C   UNL A   1      41.015  29.428  32.783  1.00  0.00     0.074 A 
ATOM     22  C   UNL A   1      39.811  28.644  32.921  1.00  0.00     0.031 C 
ATOM     23  C   UNL A   1      40.793  27.989  26.594  1.00  0.00     0.029 A 
ATOM     24  C   UNL A   1      41.878  27.773  27.540  1.00  0.00     0.049 A 
ATOM     25  H   UNL A   1      42.087  28.676  29.416  1.00  0.00     0.167 HD
ATOM     26  C   UNL A   1      42.142  29.461  33.549  1.00  0.00     0.031 A 
ATOM     27  C   UNL A   1      42.974  26.982  27.433  1.00  0.00     0.031 A 
ATOM     28  C   UNL A   1      43.095  30.434  33.079  1.00  0.00     0.049 A 
ATOM     29  C   UNL A   1      43.964  27.428  28.442  1.00  0.00     0.074 A 
ATOM     30  C   UNL A   1      43.081  31.797  32.856  1.00  0.00     0.029 A 
ATOM     31  N   UNL A   1      44.217  29.963  32.442  1.00  0.00    -0.354 N 
ATOM     32  N   UNL A   1      44.606  28.559  28.384  1.00  0.00    -0.248 NA
ATOM     33  C   UNL A   1      44.015  26.748  29.725  1.00  0.00     0.031 C 
ATOM     34  C   UNL A   1      43.919  31.997  31.719  1.00  0.00     0.029 A 
ATOM     35  C   UNL A   1      44.419  30.752  31.339  1.00  0.00     0.049 A 
ATOM     36  H   UNL A   1      44.774  29.202  32.726  1.00  0.00     0.167 HD
ATOM     37  C   UNL A   1      44.793  28.935  29.705  1.00  0.00     0.074 A 
ATOM     38  C   UNL A   1      44.519  27.726  30.478  1.00  0.00     0.031 C 
ATOM     39  C   UNL A   1      44.885  30.250  30.064  1.00  0.00     0.031 A 
BRANCH  26  40
ATOM     40  C   UNL A   1      42.548  28.366  34.515  1.00  0.00    -0.014 A 
ATOM     41  C   UNL A   1      42.873  28.712  35.844  1.00  0.00     0.010 A 
ATOM     42  C   UNL A   1      42.893  27.066  34.094  1.00  0.00     0.010 A 
ATOM     43  C   UNL A   1      43.588  27.838  36.674  1.00  0.00     0.020 A 
ATOM     44  C   UNL A   1      43.562  26.166  34.931  1.00  0.00     0.020 A 
ATOM     45  C   UNL A   1      43.945  26.576  36.201  1.00  0.00     0.054 A 
BRANCH  45  46
ATOM     46  S   UNL A   1      44.987  25.505  37.225  1.00  0.00     0.124 S 
ATOM     47  O   UNL A   1      46.323  25.996  36.906  1.00  0.00    -0.237 OA
ATOM     48  O   UNL A   1      44.507  25.798  38.572  1.00  0.00    -0.237 OA
ATOM     49  O   UNL A   1      44.677  24.162  36.737  1.00  0.00    -0.744 OA
ENDBRANCH  45  46
ENDBRANCH  26  40
BRANCH  27  50
ATOM     50  C   UNL A   1      43.145  25.721  26.670  1.00  0.00    -0.014 A 
ATOM     51  C   UNL A   1      43.782  25.714  25.413  1.00  0.00     0.010 A 
ATOM     52  C   UNL A   1      42.936  24.479  27.303  1.00  0.00     0.010 A 
ATOM     53  C   UNL A   1      44.253  24.519  24.845  1.00  0.00     0.020 A 
ATOM     54  C   UNL A   1      43.392  23.283  26.737  1.00  0.00     0.020 A 
ATOM     55  C   UNL A   1      44.074  23.311  25.523  1.00  0.00     0.054 A 
BRANCH  55  56
ATOM     56  S   UNL A   1      44.852  21.800  24.882  1.00  0.00     0.124 S 
ATOM     57  O   UNL A   1      45.232  22.195  23.529  1.00  0.00    -0.237 OA
ATOM     58  O   UNL A   1      45.957  21.590  25.813  1.00  0.00    -0.237 OA
ATOM     59  O   UNL A   1      43.784  20.803  24.959  1.00  0.00    -0.744 OA
ENDBRANCH  55  56
ENDBRANCH  27  50
BRANCH  39  60
ATOM     60  C   UNL A   1      45.243  31.271  29.008  1.00  0.00    -0.014 A 
ATOM     61  C   UNL A   1      46.522  31.838  28.852  1.00  0.00     0.010 A 
ATOM     62  C   UNL A   1      44.244  31.623  28.081  1.00  0.00     0.010 A 
ATOM     63  C   UNL A   1      46.770  32.792  27.851  1.00  0.00     0.020 A 
ATOM     64  C   UNL A   1      44.489  32.556  27.070  1.00  0.00     0.020 A 
ATOM     65  C   UNL A   1      45.743  33.166  26.983  1.00  0.00     0.054 A 
BRANCH  65  66
ATOM     66  S   UNL A   1      46.008  34.464  25.740  1.00  0.00     0.124 S 
ATOM     67  O   UNL A   1      45.672  35.676  26.491  1.00  0.00    -0.237 OA
ATOM     68  O   UNL A   1      47.430  34.344  25.392  1.00  0.00    -0.237 OA
ATOM     69  O   UNL A   1      45.080  34.121  24.676  1.00  0.00    -0.744 OA
ENDBRANCH  65  66
ENDBRANCH  39  60
ENDBRANCH  13  14
ENDBRANCH   6   8
ENDBRANCH   3   4
ENDBRANCH   2   3
ENDBRANCH   1   2
BRANCH   1  70
ATOM     70  N   UNL A   1      32.866  29.575  24.177  1.00  0.00    -0.356 N 
ATOM     71  C   UNL A   1      33.321  28.492  23.505  1.00  0.00     0.224 C 
ATOM     72  H   UNL A   1      33.525  30.305  24.235  1.00  0.00     0.163 HD
ATOM     73  O   UNL A   1      34.246  28.726  22.713  1.00  0.00    -0.275 OA
BRANCH  71  74
ATOM     74  C   UNL A   1      32.849  27.043  23.670  1.00  0.00     0.098 C 
ATOM     75  C   UNL A   1      31.511  26.644  24.365  1.00  0.00     0.098 C 
ATOM     76  C   UNL A   1      33.918  26.343  24.588  1.00  0.00     0.025 C 
ATOM     77  C   UNL A   1      32.005  25.868  25.625  1.00  0.00     0.025 C 
ATOM     78  C   UNL A   1      33.941  27.077  25.914  1.00  0.00    -0.027 C 
ATOM     79  C   UNL A   1      33.206  25.086  25.077  1.00  0.00     0.017 C 
ATOM     80  C   UNL A   1      32.773  26.822  26.521  1.00  0.00    -0.027 C 
BRANCH  75  81
ATOM     81  C   UNL A   1      30.698  25.672  23.506  1.00  0.00     0.224 C 
ATOM     82  O   UNL A   1      31.224  24.860  22.741  1.00  0.00    -0.275 OA
ATOM     83  N   UNL A   1      29.349  25.594  23.613  1.00  0.00    -0.356 N 
ATOM     84  H   UNL A   1      28.967  24.710  23.408  1.00  0.00     0.163 HD
BRANCH  83  85
ATOM     85  C   UNL A   1      28.380  26.608  23.983  1.00  0.00     0.117 C 
BRANCH  85  86
ATOM     86  C   UNL A   1      28.574  27.880  23.146  1.00  0.00     0.043 C 
BRANCH  86  87
ATOM     87  C   UNL A   1      27.377  28.841  23.120  1.00  0.00     0.125 C 
BRANCH  87  88
ATOM     88  N   UNL A   1      27.719  30.166  22.656  1.00  0.00    -0.337 N 
ATOM     89  C   UNL A   1      28.176  30.491  21.408  1.00  0.00     0.107 A 
ATOM     90  C   UNL A   1      27.643  31.316  23.384  1.00  0.00     0.199 A 
ATOM     91  C   UNL A   1      28.247  31.863  21.409  1.00  0.00     0.130 A 
ATOM     92  N   UNL A   1      27.878  32.360  22.623  1.00  0.00    -0.245 NA
ENDBRANCH  87  88
ENDBRANCH  86  87
ENDBRANCH  85  86
ENDBRANCH  83  85
ENDBRANCH  75  81
ENDBRANCH  71  74
ENDBRANCH   1  70
TORSDOF 18
ENDMDL
MODEL 2
REMARK VINA RESULT:     -11.8      2.886      9.054
REMARK SMILES O=C(NCCCNC(=O)[C@@H]1[C@@H](C(=O)NCCCn2ccnc2)[C@@H]2C=C[C@H]1C2)c1ccc(-c2c3nc(c(-c4ccc(S(=O)(=O)[O-])cc4)c4ccc([nH]4)c(-c4ccc(S(=O)(=O)[O-])cc4)c4nc(c(-c5ccc(S(=O)(=O)[O-])cc5)c5ccc2[nH]5)C=C4)C=C3)cc1
REMARK SMILES IDX 6 1 5 2 4 3 3 4 1 5 2 6 28 8 29 9 87 10 30 11 86 12 31 13
REMARK SMILES IDX 32 14 33 15 80 16 34 17 85 18 79 19 81 20 35 21 84 22 78 23
REMARK SMILES IDX 77 24 36 26 66 27 47 28 65 29 48 30 51 31 64 32 82 33 49 34
REMARK SMILES IDX 50 35 63 37 83 38 52 39 37 40 38 41 46 42 39 43 45 44 40 45
REMARK SMILES IDX 41 46 42 47 43 48 44 49 67 50 68 51 76 52 69 53 75 54 70 55
REMARK SMILES IDX 71 56 72 57 73 58 74 59 53 60 54 61 62 62 55 63 61 64 56 65
REMARK SMILES IDX 57 66 58 67 59 68 60 69 7 70 8 71 9 73 10 74 11 75 26 76
REMARK SMILES IDX 23 77 25 78 27 79 24 80 12 81 13 82 14 83 15 85 16 86 17 87
REMARK SMILES IDX 18 88 19 89 22 90 20 91 21 92
REMARK H PARENT 3 7 81 25 51 36 7 72 14 84
REMARK Flexibility Score: inf
ROOT
ATOM      1  C   UNL A   1      34.962  21.096  25.999  1.00  0.00     0.117 C 
ENDROOT
BRANCH   1   2
ATOM      2  C   UNL A   1      36.228  20.937  25.155  1.00  0.00     0.042 C 
BRANCH   2   3
ATOM      3  C   UNL A   1      37.319  21.980  25.387  1.00  0.00     0.118 C 
BRANCH   3   4
ATOM      4  N   UNL A   1      38.636  21.454  25.683  1.00  0.00    -0.352 N 
ATOM      5  O   UNL A   1      40.657  21.077  26.465  1.00  0.00    -0.269 OA
ATOM      6  C   UNL A   1      39.753  21.908  26.328  1.00  0.00     0.251 C 
ATOM      7  H   UNL A   1      38.757  20.542  25.332  1.00  0.00     0.163 HD
BRANCH   6   8
ATOM      8  C   UNL A   1      39.977  23.295  26.828  1.00  0.00     0.039 A 
ATOM      9  C   UNL A   1      39.254  24.429  26.458  1.00  0.00     0.014 A 
ATOM     10  C   UNL A   1      41.001  23.444  27.787  1.00  0.00     0.014 A 
ATOM     11  C   UNL A   1      39.571  25.678  27.005  1.00  0.00     0.010 A 
ATOM     12  C   UNL A   1      41.311  24.685  28.344  1.00  0.00     0.010 A 
ATOM     13  C   UNL A   1      40.601  25.812  27.947  1.00  0.00    -0.014 A 
BRANCH  13  14
ATOM     14  C   UNL A   1      40.782  27.111  28.604  1.00  0.00     0.031 A 
ATOM     15  C   UNL A   1      41.915  27.938  28.097  1.00  0.00     0.074 A 
ATOM     16  C   UNL A   1      39.936  27.685  29.484  1.00  0.00     0.049 A 
ATOM     17  N   UNL A   1      42.996  28.284  28.719  1.00  0.00    -0.248 NA
ATOM     18  C   UNL A   1      41.858  28.385  26.699  1.00  0.00     0.031 C 
ATOM     19  C   UNL A   1      38.591  27.250  29.862  1.00  0.00     0.029 A 
ATOM     20  N   UNL A   1      40.085  28.865  30.162  1.00  0.00    -0.354 N 
ATOM     21  C   UNL A   1      43.674  29.152  27.863  1.00  0.00     0.074 A 
ATOM     22  C   UNL A   1      42.995  29.073  26.592  1.00  0.00     0.031 C 
ATOM     23  C   UNL A   1      37.974  28.250  30.533  1.00  0.00     0.029 A 
ATOM     24  C   UNL A   1      38.920  29.334  30.753  1.00  0.00     0.049 A 
ATOM     25  H   UNL A   1      40.945  29.340  30.224  1.00  0.00     0.167 HD
ATOM     26  C   UNL A   1      44.628  30.020  28.306  1.00  0.00     0.031 A 
ATOM     27  C   UNL A   1      38.731  30.541  31.341  1.00  0.00     0.031 A 
ATOM     28  C   UNL A   1      45.073  29.710  29.639  1.00  0.00     0.049 A 
ATOM     29  C   UNL A   1      40.060  31.091  31.701  1.00  0.00     0.074 A 
ATOM     30  C   UNL A   1      45.639  28.611  30.258  1.00  0.00     0.029 A 
ATOM     31  N   UNL A   1      44.652  30.533  30.655  1.00  0.00    -0.354 N 
ATOM     32  N   UNL A   1      40.823  30.603  32.636  1.00  0.00    -0.248 NA
ATOM     33  C   UNL A   1      40.709  32.016  30.787  1.00  0.00     0.031 C 
ATOM     34  C   UNL A   1      45.107  28.614  31.581  1.00  0.00     0.029 A 
ATOM     35  C   UNL A   1      44.279  29.730  31.701  1.00  0.00     0.049 A 
ATOM     36  H   UNL A   1      44.625  31.517  30.635  1.00  0.00     0.167 HD
ATOM     37  C   UNL A   1      42.118  30.825  32.196  1.00  0.00     0.074 A 
ATOM     38  C   UNL A   1      41.983  31.803  31.120  1.00  0.00     0.031 C 
ATOM     39  C   UNL A   1      43.145  29.999  32.559  1.00  0.00     0.031 A 
BRANCH  26  40
ATOM     40  C   UNL A   1      44.907  31.370  27.677  1.00  0.00    -0.014 A 
ATOM     41  C   UNL A   1      46.200  31.638  27.179  1.00  0.00     0.010 A 
ATOM     42  C   UNL A   1      44.038  32.472  27.814  1.00  0.00     0.010 A 
ATOM     43  C   UNL A   1      46.630  32.948  26.922  1.00  0.00     0.020 A 
ATOM     44  C   UNL A   1      44.440  33.778  27.513  1.00  0.00     0.020 A 
ATOM     45  C   UNL A   1      45.748  34.011  27.113  1.00  0.00     0.054 A 
BRANCH  45  46
ATOM     46  S   UNL A   1      46.349  35.709  26.914  1.00  0.00     0.124 S 
ATOM     47  O   UNL A   1      47.035  35.931  28.181  1.00  0.00    -0.237 OA
ATOM     48  O   UNL A   1      47.205  35.602  25.737  1.00  0.00    -0.237 OA
ATOM     49  O   UNL A   1      45.123  36.482  26.718  1.00  0.00    -0.744 OA
ENDBRANCH  45  46
ENDBRANCH  26  40
BRANCH  27  50
ATOM     50  C   UNL A   1      37.497  31.361  31.416  1.00  0.00    -0.014 A 
ATOM     51  C   UNL A   1      36.673  31.328  32.559  1.00  0.00     0.010 A 
ATOM     52  C   UNL A   1      37.275  32.391  30.480  1.00  0.00     0.010 A 
ATOM     53  C   UNL A   1      35.714  32.328  32.790  1.00  0.00     0.020 A 
ATOM     54  C   UNL A   1      36.313  33.384  30.698  1.00  0.00     0.020 A 
ATOM     55  C   UNL A   1      35.555  33.363  31.866  1.00  0.00     0.054 A 
BRANCH  55  56
ATOM     56  S   UNL A   1      34.454  34.754  32.260  1.00  0.00     0.124 S 
ATOM     57  O   UNL A   1      33.404  34.109  33.043  1.00  0.00    -0.237 OA
ATOM     58  O   UNL A   1      35.331  35.656  33.000  1.00  0.00    -0.237 OA
ATOM     59  O   UNL A   1      34.035  35.244  30.947  1.00  0.00    -0.744 OA
ENDBRANCH  55  56
ENDBRANCH  27  50
BRANCH  39  60
ATOM     60  C   UNL A   1      42.981  29.128  33.783  1.00  0.00    -0.014 A 
ATOM     61  C   UNL A   1      43.443  29.468  35.069  1.00  0.00     0.010 A 
ATOM     62  C   UNL A   1      42.260  27.928  33.633  1.00  0.00     0.010 A 
ATOM     63  C   UNL A   1      43.262  28.595  36.154  1.00  0.00     0.020 A 
ATOM     64  C   UNL A   1      42.058  27.064  34.713  1.00  0.00     0.020 A 
ATOM     65  C   UNL A   1      42.594  27.384  35.963  1.00  0.00     0.054 A 
BRANCH  65  66
ATOM     66  S   UNL A   1      42.427  26.194  37.325  1.00  0.00     0.124 S 
ATOM     67  O   UNL A   1      43.402  26.702  38.293  1.00  0.00    -0.237 OA
ATOM     68  O   UNL A   1      41.027  26.328  37.751  1.00  0.00    -0.237 OA
ATOM     69  O   UNL A   1      42.769  24.920  36.717  1.00  0.00    -0.744 OA
ENDBRANCH  65  66
ENDBRANCH  39  60
ENDBRANCH  13  14
ENDBRANCH   6   8
ENDBRANCH   3   4
ENDBRANCH   2   3
ENDBRANCH   1   2
BRANCH   1  70
ATOM     70  N   UNL A   1      33.720  21.092  25.255  1.00  0.00    -0.356 N 
ATOM     71  C   UNL A   1      32.950  22.076  24.734  1.00  0.00     0.224 C 
ATOM     72  H   UNL A   1      33.364  20.189  25.094  1.00  0.00     0.163 HD
ATOM     73  O   UNL A   1      32.220  21.719  23.797  1.00  0.00    -0.275 OA
BRANCH  71  74
ATOM     74  C   UNL A   1      32.861  23.528  25.218  1.00  0.00     0.098 C 
ATOM     75  C   UNL A   1      31.958  24.608  24.546  1.00  0.00     0.098 C 
ATOM     76  C   UNL A   1      34.300  24.136  25.025  1.00  0.00     0.025 C 
ATOM     77  C   UNL A   1      33.005  25.617  23.980  1.00  0.00     0.025 C 
ATOM     78  C   UNL A   1      34.641  24.058  23.550  1.00  0.00    -0.027 C 
ATOM     79  C   UNL A   1      34.067  25.641  25.089  1.00  0.00     0.017 C 
ATOM     80  C   UNL A   1      33.835  24.922  22.917  1.00  0.00    -0.027 C 
BRANCH  75  81
ATOM     81  C   UNL A   1      31.104  25.349  25.578  1.00  0.00     0.224 C 
ATOM     82  O   UNL A   1      31.192  25.138  26.789  1.00  0.00    -0.275 OA
ATOM     83  N   UNL A   1      30.265  26.349  25.213  1.00  0.00    -0.356 N 
ATOM     84  H   UNL A   1      30.117  27.038  25.899  1.00  0.00     0.163 HD
BRANCH  83  85
ATOM     85  C   UNL A   1      29.551  26.562  23.968  1.00  0.00     0.117 C 
BRANCH  85  86
ATOM     86  C   UNL A   1      30.223  27.664  23.135  1.00  0.00     0.043 C 
BRANCH  86  87
ATOM     87  C   UNL A   1      30.180  29.071  23.746  1.00  0.00     0.125 C 
BRANCH  87  88
ATOM     88  N   UNL A   1      29.370  29.997  22.988  1.00  0.00    -0.337 N 
ATOM     89  C   UNL A   1      28.462  30.883  23.502  1.00  0.00     0.107 A 
ATOM     90  C   UNL A   1      29.374  30.144  21.633  1.00  0.00     0.199 A 
ATOM     91  C   UNL A   1      28.038  31.614  22.419  1.00  0.00     0.130 A 
ATOM     92  N   UNL A   1      28.638  31.172  21.278  1.00  0.00    -0.245 NA
ENDBRANCH  87  88
ENDBRANCH  86  87
ENDBRANCH  85  86
ENDBRANCH  83  85
ENDBRANCH  75  81
ENDBRANCH  71  74
ENDBRANCH   1  70
TORSDOF 18
ENDMDL
MODEL 3
REMARK VINA RESULT:     -11.8      1.153      1.835
REMARK SMILES O=C(NCCCNC(=O)[C@@H]1[C@@H](C(=O)NCCCn2ccnc2)[C@@H]2C=C[C@H]1C2)c1ccc(-c2c3nc(c(-c4ccc(S(=O)(=O)[O-])cc4)c4ccc([nH]4)c(-c4ccc(S(=O)(=O)[O-])cc4)c4nc(c(-c5ccc(S(=O)(=O)[O-])cc5)c5ccc2[nH]5)C=C4)C=C3)cc1
REMARK SMILES IDX 6 1 5 2 4 3 3 4 1 5 2 6 28 8 29 9 87 10 30 11 86 12 31 13
REMARK SMILES IDX 32 14 33 15 80 16 34 17 85 18 79 19 81 20 35 21 84 22 78 23
REMARK SMILES IDX 77 24 36 26 66 27 47 28 65 29 48 30 51 31 64 32 82 33 49 34
REMARK SMILES IDX 50 35 63 37 83 38 52 39 37 40 38 41 46 42 39 43 45 44 40 45
REMARK SMILES IDX 41 46 42 47 43 48 44 49 67 50 68 51 76 52 69 53 75 54 70 55
REMARK SMILES IDX 71 56 72 57 73 58 74 59 53 60 54 61 62 62 55 63 61 64 56 65
REMARK SMILES IDX 57 66 58 67 59 68 60 69 7 70 8 71 9 73 10 74 11 75 26 76
REMARK SMILES IDX 23 77 25 78 27 79 24 80 12 81 13 82 14 83 15 85 16 86 17 87
REMARK SMILES IDX 18 88 19 89 22 90 20 91 21 92
REMARK H PARENT 3 7 81 25 51 36 7 72 14 84
REMARK Flexibility Score: inf
ROOT
ATOM      1  C   UNL A   1      32.217  27.613  27.268  1.00  0.00     0.117 C 
ENDROOT
BRANCH   1   2
ATOM      2  C   UNL A   1      31.861  29.101  27.234  1.00  0.00     0.042 C 
BRANCH   2   3
ATOM      3  C   UNL A   1      32.878  30.014  26.552  1.00  0.00     0.118 C 
BRANCH   3   4
ATOM      4  N   UNL A   1      33.138  31.271  27.223  1.00  0.00    -0.352 N 
ATOM      5  O   UNL A   1      34.045  33.015  28.211  1.00  0.00    -0.269 OA
ATOM      6  C   UNL A   1      34.203  31.839  27.866  1.00  0.00     0.251 C 
ATOM      7  H   UNL A   1      32.353  31.865  27.214  1.00  0.00     0.163 HD
BRANCH   6   8
ATOM      8  C   UNL A   1      35.487  31.162  28.210  1.00  0.00     0.039 A 
ATOM      9  C   UNL A   1      35.747  29.796  28.108  1.00  0.00     0.014 A 
ATOM     10  C   UNL A   1      36.528  32.006  28.649  1.00  0.00     0.014 A 
ATOM     11  C   UNL A   1      37.002  29.287  28.467  1.00  0.00     0.010 A 
ATOM     12  C   UNL A   1      37.783  31.505  28.996  1.00  0.00     0.010 A 
ATOM     13  C   UNL A   1      38.022  30.138  28.914  1.00  0.00    -0.014 A 
BRANCH  13  14
ATOM     14  C   UNL A   1      39.361  29.574  29.123  1.00  0.00     0.031 A 
ATOM     15  C   UNL A   1      39.757  29.363  30.546  1.00  0.00     0.074 A 
ATOM     16  C   UNL A   1      40.176  29.081  28.168  1.00  0.00     0.049 A 
ATOM     17  N   UNL A   1      40.692  29.958  31.214  1.00  0.00    -0.248 NA
ATOM     18  C   UNL A   1      38.970  28.406  31.335  1.00  0.00     0.031 C 
ATOM     19  C   UNL A   1      39.875  28.839  26.757  1.00  0.00     0.029 A 
ATOM     20  N   UNL A   1      41.449  28.595  28.304  1.00  0.00    -0.354 N 
ATOM     21  C   UNL A   1      40.745  29.323  32.454  1.00  0.00     0.074 A 
ATOM     22  C   UNL A   1      39.583  28.470  32.518  1.00  0.00     0.031 C 
ATOM     23  C   UNL A   1      40.852  28.070  26.221  1.00  0.00     0.029 A 
ATOM     24  C   UNL A   1      41.909  27.884  27.205  1.00  0.00     0.049 A 
ATOM     25  H   UNL A   1      41.991  28.738  29.114  1.00  0.00     0.167 HD
ATOM     26  C   UNL A   1      41.838  29.394  33.267  1.00  0.00     0.031 A 
ATOM     27  C   UNL A   1      43.051  27.159  27.120  1.00  0.00     0.031 A 
ATOM     28  C   UNL A   1      42.752  30.432  32.865  1.00  0.00     0.049 A 
ATOM     29  C   UNL A   1      43.973  27.626  28.182  1.00  0.00     0.074 A 
ATOM     30  C   UNL A   1      42.671  31.799  32.682  1.00  0.00     0.029 A 
ATOM     31  N   UNL A   1      43.923  30.044  32.262  1.00  0.00    -0.354 N 
ATOM     32  N   UNL A   1      44.552  28.792  28.184  1.00  0.00    -0.248 NA
ATOM     33  C   UNL A   1      44.011  26.910  29.446  1.00  0.00     0.031 C 
ATOM     34  C   UNL A   1      43.540  32.081  31.587  1.00  0.00     0.029 A 
ATOM     35  C   UNL A   1      44.124  30.877  31.192  1.00  0.00     0.049 A 
ATOM     36  H   UNL A   1      44.510  29.306  32.546  1.00  0.00     0.167 HD
ATOM     37  C   UNL A   1      44.665  29.136  29.522  1.00  0.00     0.074 A 
ATOM     38  C   UNL A   1      44.429  27.890  30.248  1.00  0.00     0.031 C 
ATOM     39  C   UNL A   1      44.668  30.442  29.923  1.00  0.00     0.031 A 
BRANCH  26  40
ATOM     40  C   UNL A   1      42.265  28.293  34.216  1.00  0.00    -0.014 A 
ATOM     41  C   UNL A   1      42.306  28.562  35.601  1.00  0.00     0.010 A 
ATOM     42  C   UNL A   1      42.894  27.109  33.779  1.00  0.00     0.010 A 
ATOM     43  C   UNL A   1      43.018  27.740  36.486  1.00  0.00     0.020 A 
ATOM     44  C   UNL A   1      43.564  26.255  34.661  1.00  0.00     0.020 A 
ATOM     45  C   UNL A   1      43.660  26.601  36.002  1.00  0.00     0.054 A 
BRANCH  45  46
ATOM     46  S   UNL A   1      44.692  25.620  37.122  1.00  0.00     0.124 S 
ATOM     47  O   UNL A   1      44.376  24.259  36.703  1.00  0.00    -0.237 OA
ATOM     48  O   UNL A   1      46.036  26.088  36.799  1.00  0.00    -0.237 OA
ATOM     49  O   UNL A   1      44.209  25.998  38.449  1.00  0.00    -0.744 OA
ENDBRANCH  45  46
ENDBRANCH  26  40
BRANCH  27  50
ATOM     50  C   UNL A   1      43.323  25.933  26.329  1.00  0.00    -0.014 A 
ATOM     51  C   UNL A   1      44.565  25.744  25.689  1.00  0.00     0.010 A 
ATOM     52  C   UNL A   1      42.466  24.819  26.435  1.00  0.00     0.010 A 
ATOM     53  C   UNL A   1      44.961  24.474  25.237  1.00  0.00     0.020 A 
ATOM     54  C   UNL A   1      42.850  23.554  25.976  1.00  0.00     0.020 A 
ATOM     55  C   UNL A   1      44.107  23.381  25.404  1.00  0.00     0.054 A 
BRANCH  55  56
ATOM     56  S   UNL A   1      44.700  21.713  24.996  1.00  0.00     0.124 S 
ATOM     57  O   UNL A   1      43.757  20.863  25.716  1.00  0.00    -0.237 OA
ATOM     58  O   UNL A   1      44.594  21.683  23.540  1.00  0.00    -0.237 OA
ATOM     59  O   UNL A   1      46.067  21.698  25.514  1.00  0.00    -0.744 OA
ENDBRANCH  55  56
ENDBRANCH  27  50
BRANCH  39  60
ATOM     60  C   UNL A   1      45.010  31.514  28.914  1.00  0.00    -0.014 A 
ATOM     61  C   UNL A   1      44.068  32.160  28.089  1.00  0.00     0.010 A 
ATOM     62  C   UNL A   1      46.351  31.936  28.846  1.00  0.00     0.010 A 
ATOM     63  C   UNL A   1      44.470  33.139  27.166  1.00  0.00     0.020 A 
ATOM     64  C   UNL A   1      46.755  32.924  27.943  1.00  0.00     0.020 A 
ATOM     65  C   UNL A   1      45.817  33.496  27.080  1.00  0.00     0.054 A 
BRANCH  65  66
ATOM     66  S   UNL A   1      46.380  34.689  25.832  1.00  0.00     0.124 S 
ATOM     67  O   UNL A   1      47.750  34.238  25.576  1.00  0.00    -0.237 OA
ATOM     68  O   UNL A   1      45.459  34.492  24.704  1.00  0.00    -0.237 OA
ATOM     69  O   UNL A   1      46.270  35.973  26.503  1.00  0.00    -0.744 OA
ENDBRANCH  65  66
ENDBRANCH  39  60
ENDBRANCH  13  14
ENDBRANCH   6   8
ENDBRANCH   3   4
ENDBRANCH   2   3
ENDBRANCH   1   2
BRANCH   1  70
ATOM     70  N   UNL A   1      31.280  26.739  26.596  1.00  0.00    -0.356 N 
ATOM     71  C   UNL A   1      31.412  25.827  25.605  1.00  0.00     0.224 C 
ATOM     72  H   UNL A   1      30.358  26.824  26.930  1.00  0.00     0.163 HD
ATOM     73  O   UNL A   1      30.527  24.957  25.582  1.00  0.00    -0.275 OA
BRANCH  71  74
ATOM     74  C   UNL A   1      32.487  25.804  24.513  1.00  0.00     0.098 C 
ATOM     75  C   UNL A   1      32.381  24.947  23.214  1.00  0.00     0.098 C 
ATOM     76  C   UNL A   1      33.779  25.215  25.191  1.00  0.00     0.025 C 
ATOM     77  C   UNL A   1      33.554  23.933  23.384  1.00  0.00     0.025 C 
ATOM     78  C   UNL A   1      33.450  23.819  25.680  1.00  0.00    -0.027 C 
ATOM     79  C   UNL A   1      34.652  24.805  24.010  1.00  0.00     0.017 C 
ATOM     80  C   UNL A   1      33.276  23.056  24.591  1.00  0.00    -0.027 C 
BRANCH  75  81
ATOM     81  C   UNL A   1      32.662  25.783  21.963  1.00  0.00     0.224 C 
ATOM     82  O   UNL A   1      33.253  25.331  20.980  1.00  0.00    -0.275 OA
ATOM     83  N   UNL A   1      32.191  27.048  21.838  1.00  0.00    -0.356 N 
ATOM     84  H   UNL A   1      32.011  27.334  20.914  1.00  0.00     0.163 HD
BRANCH  83  85
ATOM     85  C   UNL A   1      31.908  28.044  22.854  1.00  0.00     0.117 C 
BRANCH  85  86
ATOM     86  C   UNL A   1      30.513  28.653  22.648  1.00  0.00     0.043 C 
BRANCH  86  87
ATOM     87  C   UNL A   1      30.124  29.758  23.640  1.00  0.00     0.125 C 
BRANCH  87  88
ATOM     88  N   UNL A   1      29.196  30.718  23.088  1.00  0.00    -0.337 N 
ATOM     89  C   UNL A   1      29.128  31.117  21.781  1.00  0.00     0.107 A 
ATOM     90  C   UNL A   1      28.229  31.387  23.778  1.00  0.00     0.199 A 
ATOM     91  C   UNL A   1      28.029  31.939  21.723  1.00  0.00     0.130 A 
ATOM     92  N   UNL A   1      27.462  32.066  22.956  1.00  0.00    -0.245 NA
ENDBRANCH  87  88
ENDBRANCH  86  87
ENDBRANCH  85  86
ENDBRANCH  83  85
ENDBRANCH  75  81
ENDBRANCH  71  74
ENDBRANCH   1  70
TORSDOF 18
ENDMDL
