MODEL 1
REMARK VINA RESULT:     -10.4      0.000      0.000
REMARK SMILES C[C@@H](NC(=O)NCCC(=O)NC1CC1)C(=O)NCCCNC(=O)c1ccc(-c2c3nc(c(-c4ccc(S(=O)(=O)[O-])cc4)c4ccc([nH]4)c(-c4ccc(S(=O)(=O)[O-])cc4)c4nc(c(-c5ccc(S(=O)(=O)[O-])cc5)c5ccc2[nH]5)C=C4)C=C3)cc1
REMARK SMILES IDX 18 1 17 2 15 3 16 4 2 6 1 7 3 8 4 9 5 11 6 12 7 14 8 15 9 16
REMARK SMILES IDX 10 17 11 18 12 20 13 21 14 22 19 23 20 24 21 25 22 26 23 28
REMARK SMILES IDX 24 29 25 30 83 31 26 32 82 33 27 34 28 35 29 36 76 37 30 38
REMARK SMILES IDX 81 39 75 40 77 41 31 42 80 43 74 44 73 45 32 47 62 48 43 49
REMARK SMILES IDX 61 50 44 51 47 52 60 53 78 54 45 55 46 56 59 58 79 59 48 60
REMARK SMILES IDX 33 61 34 62 42 63 35 64 41 65 36 66 37 67 38 68 39 69 40 70
REMARK SMILES IDX 63 71 64 72 72 73 65 74 71 75 66 76 67 77 68 78 69 79 70 80
REMARK SMILES IDX 49 81 50 82 58 83 51 84 57 85 52 86 53 87 54 88 55 89 56 90
REMARK H PARENT 17 5 3 10 6 13 11 19 21 27 77 46 47 57
REMARK Flexibility Score: inf
ROOT
ATOM      1  C   UNL A   1      31.750  27.128  26.378  1.00  0.00     0.117 C 
ENDROOT
BRANCH   1   2
ATOM      2  N   UNL A   1      31.252  25.876  26.922  1.00  0.00    -0.354 N 
ATOM      3  C   UNL A   1      31.666  24.602  26.677  1.00  0.00     0.242 C 
ATOM      4  O   UNL A   1      31.094  23.692  27.285  1.00  0.00    -0.273 OA
ATOM      5  H   UNL A   1      30.508  25.961  27.561  1.00  0.00     0.163 HD
BRANCH   3   6
ATOM      6  C   UNL A   1      32.669  24.285  25.560  1.00  0.00     0.170 C 
ATOM      7  C   UNL A   1      34.015  24.010  26.238  1.00  0.00     0.041 C 
BRANCH   6   8
ATOM      8  N   UNL A   1      32.342  23.183  24.655  1.00  0.00    -0.327 N 
ATOM      9  C   UNL A   1      32.170  23.157  23.329  1.00  0.00     0.315 C 
ATOM     10  H   UNL A   1      32.230  22.312  25.098  1.00  0.00     0.166 HD
ATOM     11  O   UNL A   1      32.388  22.101  22.734  1.00  0.00    -0.249 OA
ATOM     12  N   UNL A   1      31.766  24.210  22.612  1.00  0.00    -0.338 N 
ATOM     13  H   UNL A   1      32.015  24.168  21.661  1.00  0.00     0.165 HD
BRANCH  12  14
ATOM     14  C   UNL A   1      31.025  25.409  22.979  1.00  0.00     0.127 C 
BRANCH  14  15
ATOM     15  C   UNL A   1      31.349  26.594  22.072  1.00  0.00     0.121 C 
BRANCH  15  16
ATOM     16  C   UNL A   1      32.077  27.719  22.781  1.00  0.00     0.221 C 
ATOM     17  O   UNL A   1      33.298  27.691  22.933  1.00  0.00    -0.275 OA
ATOM     18  N   UNL A   1      31.379  28.808  23.226  1.00  0.00    -0.353 N 
ATOM     19  H   UNL A   1      31.921  29.534  23.612  1.00  0.00     0.163 HD
BRANCH  18  20
ATOM     20  C   UNL A   1      29.974  29.031  23.204  1.00  0.00     0.082 C 
ATOM     21  C   UNL A   1      29.436  30.405  23.497  1.00  0.00     0.027 C 
ATOM     22  C   UNL A   1      29.344  29.850  22.109  1.00  0.00     0.027 C 
ENDBRANCH  18  20
ENDBRANCH  15  16
ENDBRANCH  14  15
ENDBRANCH  12  14
ENDBRANCH   6   8
ENDBRANCH   3   6
ENDBRANCH   1   2
BRANCH   1  23
ATOM     23  C   UNL A   1      32.080  28.129  27.471  1.00  0.00     0.042 C 
BRANCH  23  24
ATOM     24  C   UNL A   1      33.478  28.716  27.352  1.00  0.00     0.118 C 
BRANCH  24  25
ATOM     25  N   UNL A   1      33.531  30.137  27.669  1.00  0.00    -0.352 N 
ATOM     26  C   UNL A   1      34.598  30.847  28.178  1.00  0.00     0.251 C 
ATOM     27  H   UNL A   1      32.707  30.651  27.500  1.00  0.00     0.163 HD
ATOM     28  O   UNL A   1      34.474  32.018  28.510  1.00  0.00    -0.269 OA
BRANCH  26  29
ATOM     29  C   UNL A   1      35.886  30.141  28.356  1.00  0.00     0.039 A 
ATOM     30  C   UNL A   1      36.816  30.149  27.314  1.00  0.00     0.014 A 
ATOM     31  C   UNL A   1      36.212  29.589  29.598  1.00  0.00     0.014 A 
ATOM     32  C   UNL A   1      38.113  29.685  27.550  1.00  0.00     0.010 A 
ATOM     33  C   UNL A   1      37.523  29.204  29.851  1.00  0.00     0.010 A 
ATOM     34  C   UNL A   1      38.492  29.258  28.834  1.00  0.00    -0.014 A 
BRANCH  34  35
ATOM     35  C   UNL A   1      39.891  28.873  29.154  1.00  0.00     0.031 A 
ATOM     36  C   UNL A   1      40.824  29.890  29.752  1.00  0.00     0.074 A 
ATOM     37  C   UNL A   1      40.354  27.652  28.817  1.00  0.00     0.049 A 
ATOM     38  N   UNL A   1      42.112  29.807  29.963  1.00  0.00    -0.248 NA
ATOM     39  C   UNL A   1      40.235  31.186  30.132  1.00  0.00     0.031 C 
ATOM     40  C   UNL A   1      39.567  26.584  28.194  1.00  0.00     0.029 A 
ATOM     41  N   UNL A   1      41.610  27.109  28.934  1.00  0.00    -0.354 N 
ATOM     42  C   UNL A   1      42.493  31.046  30.463  1.00  0.00     0.074 A 
ATOM     43  C   UNL A   1      41.307  31.875  30.491  1.00  0.00     0.031 C 
ATOM     44  C   UNL A   1      40.353  25.511  28.003  1.00  0.00     0.029 A 
ATOM     45  C   UNL A   1      41.707  25.825  28.447  1.00  0.00     0.049 A 
ATOM     46  H   UNL A   1      42.371  27.593  29.331  1.00  0.00     0.167 HD
ATOM     47  C   UNL A   1      43.716  31.455  30.876  1.00  0.00     0.031 A 
ATOM     48  C   UNL A   1      42.768  24.999  28.355  1.00  0.00     0.031 A 
ATOM     49  C   UNL A   1      44.886  30.622  30.881  1.00  0.00     0.049 A 
ATOM     50  C   UNL A   1      44.111  25.466  28.843  1.00  0.00     0.074 A 
ATOM     51  C   UNL A   1      46.158  30.930  31.333  1.00  0.00     0.029 A 
ATOM     52  N   UNL A   1      44.928  29.315  30.422  1.00  0.00    -0.354 N 
ATOM     53  N   UNL A   1      44.442  26.629  29.351  1.00  0.00    -0.248 NA
ATOM     54  C   UNL A   1      45.223  24.508  28.751  1.00  0.00     0.031 C 
ATOM     55  C   UNL A   1      46.977  29.815  31.121  1.00  0.00     0.029 A 
ATOM     56  C   UNL A   1      46.204  28.802  30.575  1.00  0.00     0.049 A 
ATOM     57  H   UNL A   1      44.163  28.824  30.045  1.00  0.00     0.167 HD
ATOM     58  C   UNL A   1      45.793  26.532  29.667  1.00  0.00     0.074 A 
ATOM     59  C   UNL A   1      46.218  25.199  29.297  1.00  0.00     0.031 C 
ATOM     60  C   UNL A   1      46.605  27.467  30.218  1.00  0.00     0.031 A 
BRANCH  47  61
ATOM     61  C   UNL A   1      43.842  32.874  31.356  1.00  0.00    -0.014 A 
ATOM     62  C   UNL A   1      43.488  33.228  32.670  1.00  0.00     0.010 A 
ATOM     63  C   UNL A   1      44.338  33.864  30.489  1.00  0.00     0.010 A 
ATOM     64  C   UNL A   1      43.582  34.556  33.094  1.00  0.00     0.020 A 
ATOM     65  C   UNL A   1      44.459  35.189  30.918  1.00  0.00     0.020 A 
ATOM     66  C   UNL A   1      44.060  35.529  32.213  1.00  0.00     0.054 A 
BRANCH  66  67
ATOM     67  S   UNL A   1      44.182  37.244  32.789  1.00  0.00     0.124 S 
ATOM     68  O   UNL A   1      45.572  37.312  33.235  1.00  0.00    -0.237 OA
ATOM     69  O   UNL A   1      43.871  38.013  31.587  1.00  0.00    -0.237 OA
ATOM     70  O   UNL A   1      43.182  37.324  33.851  1.00  0.00    -0.744 OA
ENDBRANCH  66  67
ENDBRANCH  47  61
BRANCH  48  71
ATOM     71  C   UNL A   1      42.597  23.633  27.790  1.00  0.00    -0.014 A 
ATOM     72  C   UNL A   1      42.265  22.556  28.631  1.00  0.00     0.010 A 
ATOM     73  C   UNL A   1      42.749  23.404  26.411  1.00  0.00     0.010 A 
ATOM     74  C   UNL A   1      42.098  21.272  28.104  1.00  0.00     0.020 A 
ATOM     75  C   UNL A   1      42.562  22.126  25.878  1.00  0.00     0.020 A 
ATOM     76  C   UNL A   1      42.247  21.065  26.730  1.00  0.00     0.054 A 
BRANCH  76  77
ATOM     77  S   UNL A   1      41.967  19.403  26.057  1.00  0.00     0.124 S 
ATOM     78  O   UNL A   1      42.436  18.552  27.145  1.00  0.00    -0.237 OA
ATOM     79  O   UNL A   1      40.525  19.393  25.820  1.00  0.00    -0.237 OA
ATOM     80  O   UNL A   1      42.788  19.385  24.847  1.00  0.00    -0.744 OA
ENDBRANCH  76  77
ENDBRANCH  48  71
BRANCH  60  81
ATOM     81  C   UNL A   1      48.027  27.073  30.504  1.00  0.00    -0.014 A 
ATOM     82  C   UNL A   1      49.039  27.260  29.548  1.00  0.00     0.010 A 
ATOM     83  C   UNL A   1      48.366  26.596  31.784  1.00  0.00     0.010 A 
ATOM     84  C   UNL A   1      50.368  26.965  29.864  1.00  0.00     0.020 A 
ATOM     85  C   UNL A   1      49.696  26.319  32.109  1.00  0.00     0.020 A 
ATOM     86  C   UNL A   1      50.689  26.499  31.143  1.00  0.00     0.054 A 
BRANCH  86  87
ATOM     87  S   UNL A   1      52.429  26.196  31.556  1.00  0.00     0.124 S 
ATOM     88  O   UNL A   1      52.389  24.827  32.059  1.00  0.00    -0.237 OA
ATOM     89  O   UNL A   1      53.102  26.375  30.270  1.00  0.00    -0.237 OA
ATOM     90  O   UNL A   1      52.730  27.219  32.555  1.00  0.00    -0.744 OA
ENDBRANCH  86  87
ENDBRANCH  60  81
ENDBRANCH  34  35
ENDBRANCH  26  29
ENDBRANCH  24  25
ENDBRANCH  23  24
ENDBRANCH   1  23
TORSDOF 18
ENDMDL
MODEL 2
REMARK VINA RESULT:     -10.2      1.142      2.817
REMARK SMILES C[C@@H](NC(=O)NCCC(=O)NC1CC1)C(=O)NCCCNC(=O)c1ccc(-c2c3nc(c(-c4ccc(S(=O)(=O)[O-])cc4)c4ccc([nH]4)c(-c4ccc(S(=O)(=O)[O-])cc4)c4nc(c(-c5ccc(S(=O)(=O)[O-])cc5)c5ccc2[nH]5)C=C4)C=C3)cc1
REMARK SMILES IDX 18 1 17 2 15 3 16 4 2 6 1 7 3 8 4 9 5 11 6 12 7 14 8 15 9 16
REMARK SMILES IDX 10 17 11 18 12 20 13 21 14 22 19 23 20 24 21 25 22 26 23 28
REMARK SMILES IDX 24 29 25 30 83 31 26 32 82 33 27 34 28 35 29 36 76 37 30 38
REMARK SMILES IDX 81 39 75 40 77 41 31 42 80 43 74 44 73 45 32 47 62 48 43 49
REMARK SMILES IDX 61 50 44 51 47 52 60 53 78 54 45 55 46 56 59 58 79 59 48 60
REMARK SMILES IDX 33 61 34 62 42 63 35 64 41 65 36 66 37 67 38 68 39 69 40 70
REMARK SMILES IDX 63 71 64 72 72 73 65 74 71 75 66 76 67 77 68 78 69 79 70 80
REMARK SMILES IDX 49 81 50 82 58 83 51 84 57 85 52 86 53 87 54 88 55 89 56 90
REMARK H PARENT 17 5 3 10 6 13 11 19 21 27 77 46 47 57
REMARK Flexibility Score: inf
ROOT
ATOM      1  C   UNL A   1      33.603  26.950  25.499  1.00  0.00     0.117 C 
ENDROOT
BRANCH   1   2
ATOM      2  N   UNL A   1      32.348  26.394  25.979  1.00  0.00    -0.354 N 
ATOM      3  C   UNL A   1      31.226  26.070  25.280  1.00  0.00     0.242 C 
ATOM      4  O   UNL A   1      30.283  25.586  25.913  1.00  0.00    -0.273 OA
ATOM      5  H   UNL A   1      32.304  26.228  26.948  1.00  0.00     0.163 HD
BRANCH   3   6
ATOM      6  C   UNL A   1      31.058  26.455  23.805  1.00  0.00     0.170 C 
ATOM      7  C   UNL A   1      30.364  27.822  23.779  1.00  0.00     0.041 C 
BRANCH   6   8
ATOM      8  N   UNL A   1      32.265  26.504  22.980  1.00  0.00    -0.327 N 
ATOM      9  C   UNL A   1      32.713  25.678  22.029  1.00  0.00     0.315 C 
ATOM     10  H   UNL A   1      32.847  27.278  23.155  1.00  0.00     0.166 HD
ATOM     11  O   UNL A   1      33.450  26.140  21.155  1.00  0.00    -0.249 OA
ATOM     12  N   UNL A   1      32.416  24.377  21.976  1.00  0.00    -0.338 N 
ATOM     13  H   UNL A   1      32.503  23.981  21.079  1.00  0.00     0.165 HD
BRANCH  12  14
ATOM     14  C   UNL A   1      31.985  23.435  23.001  1.00  0.00     0.127 C 
BRANCH  14  15
ATOM     15  C   UNL A   1      33.013  23.280  24.119  1.00  0.00     0.121 C 
BRANCH  15  16
ATOM     16  C   UNL A   1      34.284  22.582  23.682  1.00  0.00     0.221 C 
ATOM     17  O   UNL A   1      35.097  23.141  22.946  1.00  0.00    -0.275 OA
ATOM     18  N   UNL A   1      34.563  21.324  24.141  1.00  0.00    -0.353 N 
ATOM     19  H   UNL A   1      35.438  20.957  23.877  1.00  0.00     0.163 HD
BRANCH  18  20
ATOM     20  C   UNL A   1      33.755  20.475  24.949  1.00  0.00     0.082 C 
ATOM     21  C   UNL A   1      32.578  19.768  24.336  1.00  0.00     0.027 C 
ATOM     22  C   UNL A   1      33.782  18.982  24.757  1.00  0.00     0.027 C 
ENDBRANCH  18  20
ENDBRANCH  15  16
ENDBRANCH  14  15
ENDBRANCH  12  14
ENDBRANCH   6   8
ENDBRANCH   3   6
ENDBRANCH   1   2
BRANCH   1  23
ATOM     23  C   UNL A   1      33.771  28.403  25.907  1.00  0.00     0.042 C 
BRANCH  23  24
ATOM     24  C   UNL A   1      33.466  28.658  27.375  1.00  0.00     0.118 C 
BRANCH  24  25
ATOM     25  N   UNL A   1      33.503  30.070  27.731  1.00  0.00    -0.352 N 
ATOM     26  C   UNL A   1      34.562  30.778  28.258  1.00  0.00     0.251 C 
ATOM     27  H   UNL A   1      32.673  30.579  27.576  1.00  0.00     0.163 HD
ATOM     28  O   UNL A   1      34.425  31.938  28.622  1.00  0.00    -0.269 OA
BRANCH  26  29
ATOM     29  C   UNL A   1      35.858  30.082  28.417  1.00  0.00     0.039 A 
ATOM     30  C   UNL A   1      36.778  30.107  27.366  1.00  0.00     0.014 A 
ATOM     31  C   UNL A   1      36.201  29.522  29.651  1.00  0.00     0.014 A 
ATOM     32  C   UNL A   1      38.081  29.653  27.585  1.00  0.00     0.010 A 
ATOM     33  C   UNL A   1      37.518  29.146  29.887  1.00  0.00     0.010 A 
ATOM     34  C   UNL A   1      38.476  29.217  28.861  1.00  0.00    -0.014 A 
BRANCH  34  35
ATOM     35  C   UNL A   1      39.882  28.842  29.164  1.00  0.00     0.031 A 
ATOM     36  C   UNL A   1      40.814  29.865  29.754  1.00  0.00     0.074 A 
ATOM     37  C   UNL A   1      40.350  27.626  28.818  1.00  0.00     0.049 A 
ATOM     38  N   UNL A   1      42.105  29.790  29.949  1.00  0.00    -0.248 NA
ATOM     39  C   UNL A   1      40.220  31.155  30.143  1.00  0.00     0.031 C 
ATOM     40  C   UNL A   1      39.563  26.554  28.202  1.00  0.00     0.029 A 
ATOM     41  N   UNL A   1      41.611  27.092  28.919  1.00  0.00    -0.354 N 
ATOM     42  C   UNL A   1      42.483  31.031  30.448  1.00  0.00     0.074 A 
ATOM     43  C   UNL A   1      41.292  31.851  30.492  1.00  0.00     0.031 C 
ATOM     44  C   UNL A   1      40.355  25.487  27.999  1.00  0.00     0.029 A 
ATOM     45  C   UNL A   1      41.711  25.810  28.428  1.00  0.00     0.049 A 
ATOM     46  H   UNL A   1      42.373  27.580  29.308  1.00  0.00     0.167 HD
ATOM     47  C   UNL A   1      43.708  31.448  30.847  1.00  0.00     0.031 A 
ATOM     48  C   UNL A   1      42.777  24.992  28.321  1.00  0.00     0.031 A 
ATOM     49  C   UNL A   1      44.884  30.624  30.837  1.00  0.00     0.049 A 
ATOM     50  C   UNL A   1      44.123  25.467  28.794  1.00  0.00     0.074 A 
ATOM     51  C   UNL A   1      46.159  30.939  31.274  1.00  0.00     0.029 A 
ATOM     52  N   UNL A   1      44.930  29.318  30.374  1.00  0.00    -0.354 N 
ATOM     53  N   UNL A   1      44.451  26.631  29.302  1.00  0.00    -0.248 NA
ATOM     54  C   UNL A   1      45.241  24.518  28.687  1.00  0.00     0.031 C 
ATOM     55  C   UNL A   1      46.983  29.831  31.049  1.00  0.00     0.029 A 
ATOM     56  C   UNL A   1      46.212  28.814  30.510  1.00  0.00     0.049 A 
ATOM     57  H   UNL A   1      44.164  28.823  30.004  1.00  0.00     0.167 HD
ATOM     58  C   UNL A   1      45.806  26.543  29.601  1.00  0.00     0.074 A 
ATOM     59  C   UNL A   1      46.236  25.214  29.223  1.00  0.00     0.031 C 
ATOM     60  C   UNL A   1      46.618  27.482  30.145  1.00  0.00     0.031 A 
BRANCH  47  61
ATOM     61  C   UNL A   1      43.829  32.867  31.329  1.00  0.00    -0.014 A 
ATOM     62  C   UNL A   1      43.623  33.192  32.682  1.00  0.00     0.010 A 
ATOM     63  C   UNL A   1      44.171  33.886  30.423  1.00  0.00     0.010 A 
ATOM     64  C   UNL A   1      43.711  34.519  33.111  1.00  0.00     0.020 A 
ATOM     65  C   UNL A   1      44.285  35.211  30.854  1.00  0.00     0.020 A 
ATOM     66  C   UNL A   1      44.034  35.521  32.192  1.00  0.00     0.054 A 
BRANCH  66  67
ATOM     67  S   UNL A   1      44.150  37.234  32.775  1.00  0.00     0.124 S 
ATOM     68  O   UNL A   1      43.040  37.304  33.724  1.00  0.00    -0.237 OA
ATOM     69  O   UNL A   1      45.484  37.285  33.367  1.00  0.00    -0.237 OA
ATOM     70  O   UNL A   1      43.982  38.025  31.559  1.00  0.00    -0.744 OA
ENDBRANCH  66  67
ENDBRANCH  47  61
BRANCH  48  71
ATOM     71  C   UNL A   1      42.610  23.626  27.755  1.00  0.00    -0.014 A 
ATOM     72  C   UNL A   1      42.918  23.376  26.406  1.00  0.00     0.010 A 
ATOM     73  C   UNL A   1      42.158  22.567  28.561  1.00  0.00     0.010 A 
ATOM     74  C   UNL A   1      42.768  22.094  25.870  1.00  0.00     0.020 A 
ATOM     75  C   UNL A   1      42.027  21.278  28.035  1.00  0.00     0.020 A 
ATOM     76  C   UNL A   1      42.324  21.052  26.690  1.00  0.00     0.054 A 
BRANCH  76  77
ATOM     77  S   UNL A   1      42.193  19.381  25.992  1.00  0.00     0.124 S 
ATOM     78  O   UNL A   1      42.750  18.561  27.062  1.00  0.00    -0.237 OA
ATOM     79  O   UNL A   1      40.756  19.241  25.768  1.00  0.00    -0.237 OA
ATOM     80  O   UNL A   1      42.998  19.459  24.775  1.00  0.00    -0.744 OA
ENDBRANCH  76  77
ENDBRANCH  48  71
BRANCH  60  81
ATOM     81  C   UNL A   1      48.047  27.099  30.413  1.00  0.00    -0.014 A 
ATOM     82  C   UNL A   1      49.082  27.507  29.556  1.00  0.00     0.010 A 
ATOM     83  C   UNL A   1      48.362  26.397  31.592  1.00  0.00     0.010 A 
ATOM     84  C   UNL A   1      50.411  27.211  29.869  1.00  0.00     0.020 A 
ATOM     85  C   UNL A   1      49.691  26.116  31.916  1.00  0.00     0.020 A 
ATOM     86  C   UNL A   1      50.708  26.519  31.048  1.00  0.00     0.054 A 
BRANCH  86  87
ATOM     87  S   UNL A   1      52.445  26.213  31.472  1.00  0.00     0.124 S 
ATOM     88  O   UNL A   1      52.352  24.998  32.275  1.00  0.00    -0.237 OA
ATOM     89  O   UNL A   1      53.075  26.055  30.162  1.00  0.00    -0.237 OA
ATOM     90  O   UNL A   1      52.839  27.415  32.203  1.00  0.00    -0.744 OA
ENDBRANCH  86  87
ENDBRANCH  60  81
ENDBRANCH  34  35
ENDBRANCH  26  29
ENDBRANCH  24  25
ENDBRANCH  23  24
ENDBRANCH   1  23
TORSDOF 18
ENDMDL
MODEL 3
REMARK VINA RESULT:     -10.1      4.850     10.742
REMARK SMILES C[C@@H](NC(=O)NCCC(=O)NC1CC1)C(=O)NCCCNC(=O)c1ccc(-c2c3nc(c(-c4ccc(S(=O)(=O)[O-])cc4)c4ccc([nH]4)c(-c4ccc(S(=O)(=O)[O-])cc4)c4nc(c(-c5ccc(S(=O)(=O)[O-])cc5)c5ccc2[nH]5)C=C4)C=C3)cc1
REMARK SMILES IDX 18 1 17 2 15 3 16 4 2 6 1 7 3 8 4 9 5 11 6 12 7 14 8 15 9 16
REMARK SMILES IDX 10 17 11 18 12 20 13 21 14 22 19 23 20 24 21 25 22 26 23 28
REMARK SMILES IDX 24 29 25 30 83 31 26 32 82 33 27 34 28 35 29 36 76 37 30 38
REMARK SMILES IDX 81 39 75 40 77 41 31 42 80 43 74 44 73 45 32 47 62 48 43 49
REMARK SMILES IDX 61 50 44 51 47 52 60 53 78 54 45 55 46 56 59 58 79 59 48 60
REMARK SMILES IDX 33 61 34 62 42 63 35 64 41 65 36 66 37 67 38 68 39 69 40 70
REMARK SMILES IDX 63 71 64 72 72 73 65 74 71 75 66 76 67 77 68 78 69 79 70 80
REMARK SMILES IDX 49 81 50 82 58 83 51 84 57 85 52 86 53 87 54 88 55 89 56 90
REMARK H PARENT 17 5 3 10 6 13 11 19 21 27 77 46 47 57
REMARK Flexibility Score: inf
ROOT
ATOM      1  C   UNL A   1      35.561  33.792  29.189  1.00  0.00     0.117 C 
ENDROOT
BRANCH   1   2
ATOM      2  N   UNL A   1      34.216  33.860  28.642  1.00  0.00    -0.354 N 
ATOM      3  C   UNL A   1      33.280  34.840  28.772  1.00  0.00     0.242 C 
ATOM      4  O   UNL A   1      32.204  34.679  28.189  1.00  0.00    -0.273 OA
ATOM      5  H   UNL A   1      33.943  33.086  28.099  1.00  0.00     0.163 HD
BRANCH   3   6
ATOM      6  C   UNL A   1      33.471  36.009  29.747  1.00  0.00     0.170 C 
ATOM      7  C   UNL A   1      33.464  37.292  28.908  1.00  0.00     0.041 C 
BRANCH   6   8
ATOM      8  N   UNL A   1      32.512  36.136  30.844  1.00  0.00    -0.327 N 
ATOM      9  C   UNL A   1      32.686  36.445  32.132  1.00  0.00     0.315 C 
ATOM     10  H   UNL A   1      31.577  35.964  30.588  1.00  0.00     0.166 HD
ATOM     11  O   UNL A   1      31.748  36.964  32.740  1.00  0.00    -0.249 OA
ATOM     12  N   UNL A   1      33.818  36.214  32.804  1.00  0.00    -0.338 N 
ATOM     13  H   UNL A   1      33.938  36.785  33.597  1.00  0.00     0.165 HD
BRANCH  12  14
ATOM     14  C   UNL A   1      34.908  35.274  32.580  1.00  0.00     0.127 C 
BRANCH  14  15
ATOM     15  C   UNL A   1      34.815  34.047  33.484  1.00  0.00     0.121 C 
BRANCH  15  16
ATOM     16  C   UNL A   1      35.006  32.736  32.749  1.00  0.00     0.221 C 
ATOM     17  O   UNL A   1      34.207  32.368  31.887  1.00  0.00    -0.275 OA
ATOM     18  N   UNL A   1      36.101  31.961  33.011  1.00  0.00    -0.353 N 
ATOM     19  H   UNL A   1      36.202  31.159  32.448  1.00  0.00     0.163 HD
BRANCH  18  20
ATOM     20  C   UNL A   1      37.115  32.160  33.990  1.00  0.00     0.082 C 
ATOM     21  C   UNL A   1      38.094  31.054  34.279  1.00  0.00     0.027 C 
ATOM     22  C   UNL A   1      38.558  32.295  33.582  1.00  0.00     0.027 C 
ENDBRANCH  18  20
ENDBRANCH  15  16
ENDBRANCH  14  15
ENDBRANCH  12  14
ENDBRANCH   6   8
ENDBRANCH   3   6
ENDBRANCH   1   2
BRANCH   1  23
ATOM     23  C   UNL A   1      36.451  32.856  28.388  1.00  0.00     0.042 C 
BRANCH  23  24
ATOM     24  C   UNL A   1      35.882  31.452  28.251  1.00  0.00     0.118 C 
BRANCH  24  25
ATOM     25  N   UNL A   1      35.728  30.770  29.529  1.00  0.00    -0.352 N 
ATOM     26  C   UNL A   1      36.692  30.088  30.240  1.00  0.00     0.251 C 
ATOM     27  H   UNL A   1      34.829  30.798  29.931  1.00  0.00     0.163 HD
ATOM     28  O   UNL A   1      36.403  29.457  31.248  1.00  0.00    -0.269 OA
BRANCH  26  29
ATOM     29  C   UNL A   1      38.080  30.100  29.726  1.00  0.00     0.039 A 
ATOM     30  C   UNL A   1      39.132  30.342  30.612  1.00  0.00     0.014 A 
ATOM     31  C   UNL A   1      38.333  29.744  28.399  1.00  0.00     0.014 A 
ATOM     32  C   UNL A   1      40.447  30.133  30.187  1.00  0.00     0.010 A 
ATOM     33  C   UNL A   1      39.636  29.461  28.005  1.00  0.00     0.010 A 
ATOM     34  C   UNL A   1      40.707  29.641  28.897  1.00  0.00    -0.014 A 
BRANCH  34  35
ATOM     35  C   UNL A   1      42.081  29.291  28.451  1.00  0.00     0.031 A 
ATOM     36  C   UNL A   1      42.389  27.880  28.030  1.00  0.00     0.074 A 
ATOM     37  C   UNL A   1      43.070  30.204  28.520  1.00  0.00     0.049 A 
ATOM     38  N   UNL A   1      43.545  27.335  27.755  1.00  0.00    -0.248 NA
ATOM     39  C   UNL A   1      41.249  26.952  27.940  1.00  0.00     0.031 C 
ATOM     40  C   UNL A   1      42.916  31.597  28.948  1.00  0.00     0.029 A 
ATOM     41  N   UNL A   1      44.411  30.091  28.246  1.00  0.00    -0.354 N 
ATOM     42  C   UNL A   1      43.278  25.995  27.497  1.00  0.00     0.074 A 
ATOM     43  C   UNL A   1      41.856  25.803  27.682  1.00  0.00     0.031 C 
ATOM     44  C   UNL A   1      44.111  32.211  28.890  1.00  0.00     0.029 A 
ATOM     45  C   UNL A   1      45.122  31.249  28.463  1.00  0.00     0.049 A 
ATOM     46  H   UNL A   1      44.826  29.258  27.923  1.00  0.00     0.167 HD
ATOM     47  C   UNL A   1      44.135  25.016  27.124  1.00  0.00     0.031 A 
ATOM     48  C   UNL A   1      46.439  31.506  28.347  1.00  0.00     0.031 A 
ATOM     49  C   UNL A   1      45.541  25.213  26.906  1.00  0.00     0.049 A 
ATOM     50  C   UNL A   1      47.369  30.408  27.908  1.00  0.00     0.074 A 
ATOM     51  C   UNL A   1      46.482  24.293  26.474  1.00  0.00     0.029 A 
ATOM     52  N   UNL A   1      46.209  26.413  27.094  1.00  0.00    -0.354 N 
ATOM     53  N   UNL A   1      47.089  29.158  27.628  1.00  0.00    -0.248 NA
ATOM     54  C   UNL A   1      48.790  30.757  27.762  1.00  0.00     0.031 C 
ATOM     55  C   UNL A   1      47.725  24.932  26.427  1.00  0.00     0.029 A 
ATOM     56  C   UNL A   1      47.550  26.258  26.791  1.00  0.00     0.049 A 
ATOM     57  H   UNL A   1      45.791  27.251  27.397  1.00  0.00     0.167 HD
ATOM     58  C   UNL A   1      48.294  28.579  27.245  1.00  0.00     0.074 A 
ATOM     59  C   UNL A   1      49.304  29.613  27.325  1.00  0.00     0.031 C 
ATOM     60  C   UNL A   1      48.538  27.303  26.859  1.00  0.00     0.031 A 
BRANCH  47  61
ATOM     61  C   UNL A   1      43.564  23.638  26.932  1.00  0.00    -0.014 A 
ATOM     62  C   UNL A   1      43.312  22.799  28.032  1.00  0.00     0.010 A 
ATOM     63  C   UNL A   1      43.259  23.182  25.637  1.00  0.00     0.010 A 
ATOM     64  C   UNL A   1      42.808  21.511  27.837  1.00  0.00     0.020 A 
ATOM     65  C   UNL A   1      42.731  21.903  25.440  1.00  0.00     0.020 A 
ATOM     66  C   UNL A   1      42.528  21.068  26.541  1.00  0.00     0.054 A 
BRANCH  66  67
ATOM     67  S   UNL A   1      41.867  19.395  26.314  1.00  0.00     0.124 S 
ATOM     68  O   UNL A   1      40.436  19.654  26.178  1.00  0.00    -0.237 OA
ATOM     69  O   UNL A   1      42.540  18.943  25.099  1.00  0.00    -0.237 OA
ATOM     70  O   UNL A   1      42.262  18.699  27.536  1.00  0.00    -0.744 OA
ENDBRANCH  66  67
ENDBRANCH  47  61
BRANCH  48  71
ATOM     71  C   UNL A   1      46.958  32.871  28.635  1.00  0.00    -0.014 A 
ATOM     72  C   UNL A   1      47.009  33.839  27.616  1.00  0.00     0.010 A 
ATOM     73  C   UNL A   1      47.386  33.216  29.929  1.00  0.00     0.010 A 
ATOM     74  C   UNL A   1      47.491  35.123  27.882  1.00  0.00     0.020 A 
ATOM     75  C   UNL A   1      47.848  34.507  30.205  1.00  0.00     0.020 A 
ATOM     76  C   UNL A   1      47.906  35.450  29.177  1.00  0.00     0.054 A 
BRANCH  76  77
ATOM     77  S   UNL A   1      48.471  37.141  29.517  1.00  0.00     0.124 S 
ATOM     78  O   UNL A   1      49.697  37.215  28.732  1.00  0.00    -0.237 OA
ATOM     79  O   UNL A   1      47.357  37.952  29.032  1.00  0.00    -0.237 OA
ATOM     80  O   UNL A   1      48.651  37.152  30.968  1.00  0.00    -0.744 OA
ENDBRANCH  76  77
ENDBRANCH  48  71
BRANCH  60  81
ATOM     81  C   UNL A   1      49.940  26.956  26.443  1.00  0.00    -0.014 A 
ATOM     82  C   UNL A   1      50.361  27.106  25.112  1.00  0.00     0.010 A 
ATOM     83  C   UNL A   1      50.872  26.562  27.422  1.00  0.00     0.010 A 
ATOM     84  C   UNL A   1      51.692  26.857  24.763  1.00  0.00     0.020 A 
ATOM     85  C   UNL A   1      52.206  26.332  27.080  1.00  0.00     0.020 A 
ATOM     86  C   UNL A   1      52.606  26.474  25.750  1.00  0.00     0.054 A 
BRANCH  86  87
ATOM     87  S   UNL A   1      54.344  26.232  25.288  1.00  0.00     0.124 S 
ATOM     88  O   UNL A   1      54.244  25.956  23.858  1.00  0.00    -0.237 OA
ATOM     89  O   UNL A   1      54.954  27.513  25.641  1.00  0.00    -0.237 OA
ATOM     90  O   UNL A   1      54.766  25.102  26.113  1.00  0.00    -0.744 OA
ENDBRANCH  86  87
ENDBRANCH  60  81
ENDBRANCH  34  35
ENDBRANCH  26  29
ENDBRANCH  24  25
ENDBRANCH  23  24
ENDBRANCH   1  23
TORSDOF 18
ENDMDL
