MODEL 1
REMARK VINA RESULT:      -9.0      0.000      0.000
REMARK SMILES C[C@H](C[NH3+])CS/C=C/C(=O)NCCCNC(=O)c1ccc(-c2c3nc(c(-c4ccc(S(=O)(=O)[O-])cc4)c4ccc([nH]4)c(-c4ccc(S(=O)(=O)[O-])cc4)c4nc(c(-c5ccc(S(=O)(=O)[O-])cc5)c5ccc2[nH]5)C=C4)C=C3)cc1
REMARK SMILES IDX 12 1 11 2 9 3 10 4 8 6 7 7 6 8 5 9 2 10 1 11 3 12 4 13 13 17
REMARK SMILES IDX 14 18 15 19 16 20 17 22 18 23 19 24 77 25 20 26 76 27 21 28
REMARK SMILES IDX 22 29 23 30 70 31 24 32 75 33 69 34 71 35 25 36 74 37 68 38
REMARK SMILES IDX 67 39 26 41 56 42 37 43 55 44 38 45 41 46 54 47 72 48 39 49
REMARK SMILES IDX 40 50 53 52 73 53 42 54 27 55 28 56 36 57 29 58 35 59 30 60
REMARK SMILES IDX 31 61 32 62 33 63 34 64 57 65 58 66 66 67 59 68 65 69 60 70
REMARK SMILES IDX 61 71 62 72 63 73 64 74 43 75 44 76 52 77 45 78 51 79 46 80
REMARK SMILES IDX 47 81 48 82 49 83 50 84
REMARK H PARENT 11 5 4 14 4 15 4 16 15 21 71 40 41 51
REMARK Flexibility Score: inf
ROOT
ATOM      1  C   UNL A   1      43.337  22.174  26.284  1.00  0.00     0.118 C 
ENDROOT
BRANCH   1   2
ATOM      2  N   UNL A   1      42.441  21.145  26.782  1.00  0.00    -0.352 N 
ATOM      3  C   UNL A   1      41.158  21.235  27.214  1.00  0.00     0.244 C 
ATOM      4  O   UNL A   1      40.617  20.268  27.746  1.00  0.00    -0.270 OA
ATOM      5  H   UNL A   1      42.825  20.238  26.810  1.00  0.00     0.163 HD
BRANCH   3   6
ATOM      6  C   UNL A   1      40.386  22.482  27.052  1.00  0.00     0.078 C 
ATOM      7  C   UNL A   1      39.263  22.489  26.326  1.00  0.00     0.046 C 
BRANCH   7   8
ATOM      8  S   UNL A   1      38.106  23.763  26.395  1.00  0.00    -0.133 SA
BRANCH   8   9
ATOM      9  C   UNL A   1      37.195  23.489  24.829  1.00  0.00     0.083 C 
BRANCH   9  10
ATOM     10  C   UNL A   1      35.749  22.961  24.967  1.00  0.00     0.051 C 
ATOM     11  C   UNL A   1      34.778  24.151  24.955  1.00  0.00     0.014 C 
BRANCH  10  12
ATOM     12  C   UNL A   1      35.461  22.086  26.207  1.00  0.00     0.262 C 
BRANCH  12  13
ATOM     13  N   UNL A   1      34.752  20.844  25.918  1.00  0.00    -0.357 N 
ATOM     14  H   UNL A   1      33.995  20.720  26.590  1.00  0.00     0.344 HD
ATOM     15  H   UNL A   1      35.399  20.059  25.984  1.00  0.00     0.344 HD
ATOM     16  H   UNL A   1      34.364  20.886  24.974  1.00  0.00     0.344 HD
ENDBRANCH  12  13
ENDBRANCH  10  12
ENDBRANCH   9  10
ENDBRANCH   8   9
ENDBRANCH   7   8
ENDBRANCH   3   6
ENDBRANCH   1   2
BRANCH   1  17
ATOM     17  C   UNL A   1      43.905  23.034  27.403  1.00  0.00     0.042 C 
BRANCH  17  18
ATOM     18  C   UNL A   1      44.011  24.508  27.028  1.00  0.00     0.118 C 
BRANCH  18  19
ATOM     19  N   UNL A   1      43.106  24.863  25.942  1.00  0.00    -0.352 N 
ATOM     20  C   UNL A   1      41.982  25.650  25.949  1.00  0.00     0.251 C 
ATOM     21  H   UNL A   1      43.337  24.480  25.066  1.00  0.00     0.163 HD
ATOM     22  O   UNL A   1      41.214  25.611  24.987  1.00  0.00    -0.269 OA
BRANCH  20  23
ATOM     23  C   UNL A   1      41.688  26.532  27.097  1.00  0.00     0.039 A 
ATOM     24  C   UNL A   1      40.771  26.114  28.065  1.00  0.00     0.014 A 
ATOM     25  C   UNL A   1      42.285  27.792  27.199  1.00  0.00     0.014 A 
ATOM     26  C   UNL A   1      40.497  26.935  29.161  1.00  0.00     0.010 A 
ATOM     27  C   UNL A   1      42.082  28.566  28.334  1.00  0.00     0.010 A 
ATOM     28  C   UNL A   1      41.173  28.156  29.320  1.00  0.00    -0.014 A 
BRANCH  28  29
ATOM     29  C   UNL A   1      40.932  29.033  30.493  1.00  0.00     0.031 A 
ATOM     30  C   UNL A   1      41.779  28.886  31.728  1.00  0.00     0.074 A 
ATOM     31  C   UNL A   1      39.909  29.909  30.472  1.00  0.00     0.049 A 
ATOM     32  N   UNL A   1      41.682  29.509  32.875  1.00  0.00    -0.248 NA
ATOM     33  C   UNL A   1      42.860  27.888  31.677  1.00  0.00     0.031 C 
ATOM     34  C   UNL A   1      38.996  30.121  29.346  1.00  0.00     0.029 A 
ATOM     35  N   UNL A   1      39.466  30.787  31.428  1.00  0.00    -0.354 N 
ATOM     36  C   UNL A   1      42.672  28.963  33.686  1.00  0.00     0.074 A 
ATOM     37  C   UNL A   1      43.316  27.920  32.919  1.00  0.00     0.031 C 
ATOM     38  C   UNL A   1      38.128  31.095  29.663  1.00  0.00     0.029 A 
ATOM     39  C   UNL A   1      38.392  31.545  31.025  1.00  0.00     0.049 A 
ATOM     40  H   UNL A   1      39.878  30.866  32.319  1.00  0.00     0.167 HD
ATOM     41  C   UNL A   1      43.028  29.312  34.945  1.00  0.00     0.031 A 
ATOM     42  C   UNL A   1      37.700  32.498  31.679  1.00  0.00     0.031 A 
ATOM     43  C   UNL A   1      42.387  30.354  35.701  1.00  0.00     0.049 A 
ATOM     44  C   UNL A   1      38.100  32.859  33.082  1.00  0.00     0.074 A 
ATOM     45  C   UNL A   1      42.696  30.817  36.967  1.00  0.00     0.029 A 
ATOM     46  N   UNL A   1      41.300  31.095  35.257  1.00  0.00    -0.354 N 
ATOM     47  N   UNL A   1      39.070  32.366  33.816  1.00  0.00    -0.248 NA
ATOM     48  C   UNL A   1      37.319  33.913  33.741  1.00  0.00     0.031 C 
ATOM     49  C   UNL A   1      41.767  31.807  37.308  1.00  0.00     0.029 A 
ATOM     50  C   UNL A   1      40.914  31.999  36.232  1.00  0.00     0.049 A 
ATOM     51  H   UNL A   1      40.867  30.992  34.380  1.00  0.00     0.167 HD
ATOM     52  C   UNL A   1      39.035  33.072  35.013  1.00  0.00     0.074 A 
ATOM     53  C   UNL A   1      37.953  34.030  34.900  1.00  0.00     0.031 C 
ATOM     54  C   UNL A   1      39.831  32.942  36.104  1.00  0.00     0.031 A 
BRANCH  41  55
ATOM     55  C   UNL A   1      44.159  28.540  35.577  1.00  0.00    -0.014 A 
ATOM     56  C   UNL A   1      43.911  27.398  36.362  1.00  0.00     0.010 A 
ATOM     57  C   UNL A   1      45.486  28.969  35.399  1.00  0.00     0.010 A 
ATOM     58  C   UNL A   1      44.959  26.744  37.014  1.00  0.00     0.020 A 
ATOM     59  C   UNL A   1      46.543  28.297  36.023  1.00  0.00     0.020 A 
ATOM     60  C   UNL A   1      46.268  27.206  36.851  1.00  0.00     0.054 A 
BRANCH  60  61
ATOM     61  S   UNL A   1      47.607  26.357  37.731  1.00  0.00     0.124 S 
ATOM     62  O   UNL A   1      48.661  26.329  36.720  1.00  0.00    -0.237 OA
ATOM     63  O   UNL A   1      47.854  27.239  38.870  1.00  0.00    -0.237 OA
ATOM     64  O   UNL A   1      47.031  25.057  38.067  1.00  0.00    -0.744 OA
ENDBRANCH  60  61
ENDBRANCH  41  55
BRANCH  42  65
ATOM     65  C   UNL A   1      36.590  33.207  30.987  1.00  0.00    -0.014 A 
ATOM     66  C   UNL A   1      35.300  33.208  31.545  1.00  0.00     0.010 A 
ATOM     67  C   UNL A   1      36.823  33.920  29.797  1.00  0.00     0.010 A 
ATOM     68  C   UNL A   1      34.261  33.907  30.925  1.00  0.00     0.020 A 
ATOM     69  C   UNL A   1      35.792  34.641  29.189  1.00  0.00     0.020 A 
ATOM     70  C   UNL A   1      34.516  34.625  29.754  1.00  0.00     0.054 A 
BRANCH  70  71
ATOM     71  S   UNL A   1      33.168  35.589  29.011  1.00  0.00     0.124 S 
ATOM     72  O   UNL A   1      32.412  34.559  28.305  1.00  0.00    -0.237 OA
ATOM     73  O   UNL A   1      32.513  36.166  30.182  1.00  0.00    -0.237 OA
ATOM     74  O   UNL A   1      33.865  36.550  28.160  1.00  0.00    -0.744 OA
ENDBRANCH  70  71
ENDBRANCH  42  65
BRANCH  54  75
ATOM     75  C   UNL A   1      39.584  33.884  37.253  1.00  0.00    -0.014 A 
ATOM     76  C   UNL A   1      38.843  33.484  38.379  1.00  0.00     0.010 A 
ATOM     77  C   UNL A   1      40.146  35.174  37.221  1.00  0.00     0.010 A 
ATOM     78  C   UNL A   1      38.643  34.370  39.441  1.00  0.00     0.020 A 
ATOM     79  C   UNL A   1      39.971  36.052  38.293  1.00  0.00     0.020 A 
ATOM     80  C   UNL A   1      39.208  35.649  39.391  1.00  0.00     0.054 A 
BRANCH  80  81
ATOM     81  S   UNL A   1      38.970  36.765  40.800  1.00  0.00     0.124 S 
ATOM     82  O   UNL A   1      38.374  37.935  40.163  1.00  0.00    -0.237 OA
ATOM     83  O   UNL A   1      38.079  36.000  41.669  1.00  0.00    -0.237 OA
ATOM     84  O   UNL A   1      40.322  36.958  41.321  1.00  0.00    -0.744 OA
ENDBRANCH  80  81
ENDBRANCH  54  75
ENDBRANCH  28  29
ENDBRANCH  20  23
ENDBRANCH  18  19
ENDBRANCH  17  18
ENDBRANCH   1  17
TORSDOF 18
ENDMDL
MODEL 2
REMARK VINA RESULT:      -8.9      6.714     13.294
REMARK SMILES C[C@H](C[NH3+])CS/C=C/C(=O)NCCCNC(=O)c1ccc(-c2c3nc(c(-c4ccc(S(=O)(=O)[O-])cc4)c4ccc([nH]4)c(-c4ccc(S(=O)(=O)[O-])cc4)c4nc(c(-c5ccc(S(=O)(=O)[O-])cc5)c5ccc2[nH]5)C=C4)C=C3)cc1
REMARK SMILES IDX 12 1 11 2 9 3 10 4 8 6 7 7 6 8 5 9 2 10 1 11 3 12 4 13 13 17
REMARK SMILES IDX 14 18 15 19 16 20 17 22 18 23 19 24 77 25 20 26 76 27 21 28
REMARK SMILES IDX 22 29 23 30 70 31 24 32 75 33 69 34 71 35 25 36 74 37 68 38
REMARK SMILES IDX 67 39 26 41 56 42 37 43 55 44 38 45 41 46 54 47 72 48 39 49
REMARK SMILES IDX 40 50 53 52 73 53 42 54 27 55 28 56 36 57 29 58 35 59 30 60
REMARK SMILES IDX 31 61 32 62 33 63 34 64 57 65 58 66 66 67 59 68 65 69 60 70
REMARK SMILES IDX 61 71 62 72 63 73 64 74 43 75 44 76 52 77 45 78 51 79 46 80
REMARK SMILES IDX 47 81 48 82 49 83 50 84
REMARK H PARENT 11 5 4 14 4 15 4 16 15 21 71 40 41 51
REMARK Flexibility Score: inf
ROOT
ATOM      1  C   UNL A   1      34.052  29.279  26.454  1.00  0.00     0.118 C 
ENDROOT
BRANCH   1   2
ATOM      2  N   UNL A   1      32.977  30.244  26.609  1.00  0.00    -0.352 N 
ATOM      3  C   UNL A   1      31.880  30.464  25.841  1.00  0.00     0.244 C 
ATOM      4  O   UNL A   1      31.162  31.437  26.055  1.00  0.00    -0.270 OA
ATOM      5  H   UNL A   1      33.056  30.831  27.395  1.00  0.00     0.163 HD
BRANCH   3   6
ATOM      6  C   UNL A   1      31.523  29.543  24.744  1.00  0.00     0.078 C 
ATOM      7  C   UNL A   1      30.377  29.708  24.073  1.00  0.00     0.046 C 
BRANCH   7   8
ATOM      8  S   UNL A   1      30.057  28.952  22.559  1.00  0.00    -0.133 SA
BRANCH   8   9
ATOM      9  C   UNL A   1      28.450  29.717  22.124  1.00  0.00     0.083 C 
BRANCH   9  10
ATOM     10  C   UNL A   1      28.481  31.228  21.799  1.00  0.00     0.051 C 
ATOM     11  C   UNL A   1      27.913  32.009  22.994  1.00  0.00     0.014 C 
BRANCH  10  12
ATOM     12  C   UNL A   1      27.741  31.661  20.514  1.00  0.00     0.262 C 
BRANCH  12  13
ATOM     13  N   UNL A   1      28.478  32.607  19.684  1.00  0.00    -0.357 N 
ATOM     14  H   UNL A   1      29.406  32.234  19.483  1.00  0.00     0.344 HD
ATOM     15  H   UNL A   1      28.567  33.496  20.176  1.00  0.00     0.344 HD
ATOM     16  H   UNL A   1      27.975  32.753  18.807  1.00  0.00     0.344 HD
ENDBRANCH  12  13
ENDBRANCH  10  12
ENDBRANCH   9  10
ENDBRANCH   8   9
ENDBRANCH   7   8
ENDBRANCH   3   6
ENDBRANCH   1   2
BRANCH   1  17
ATOM     17  C   UNL A   1      34.939  29.202  27.687  1.00  0.00     0.042 C 
BRANCH  17  18
ATOM     18  C   UNL A   1      35.479  30.560  28.120  1.00  0.00     0.118 C 
BRANCH  18  19
ATOM     19  N   UNL A   1      35.510  30.701  29.570  1.00  0.00    -0.352 N 
ATOM     20  C   UNL A   1      36.446  30.278  30.480  1.00  0.00     0.251 C 
ATOM     21  H   UNL A   1      34.740  31.173  29.960  1.00  0.00     0.163 HD
ATOM     22  O   UNL A   1      36.159  30.263  31.678  1.00  0.00    -0.269 OA
BRANCH  20  23
ATOM     23  C   UNL A   1      37.785  29.839  30.034  1.00  0.00     0.039 A 
ATOM     24  C   UNL A   1      38.156  30.024  28.699  1.00  0.00     0.014 A 
ATOM     25  C   UNL A   1      38.660  29.206  30.920  1.00  0.00     0.014 A 
ATOM     26  C   UNL A   1      39.424  29.625  28.271  1.00  0.00     0.010 A 
ATOM     27  C   UNL A   1      39.952  28.895  30.517  1.00  0.00     0.010 A 
ATOM     28  C   UNL A   1      40.344  29.084  29.184  1.00  0.00    -0.014 A 
BRANCH  28  29
ATOM     29  C   UNL A   1      41.712  28.686  28.767  1.00  0.00     0.031 A 
ATOM     30  C   UNL A   1      42.818  29.706  28.745  1.00  0.00     0.074 A 
ATOM     31  C   UNL A   1      41.941  27.428  28.344  1.00  0.00     0.049 A 
ATOM     32  N   UNL A   1      44.058  29.571  28.350  1.00  0.00    -0.248 NA
ATOM     33  C   UNL A   1      42.477  31.064  29.200  1.00  0.00     0.031 C 
ATOM     34  C   UNL A   1      40.944  26.356  28.288  1.00  0.00     0.029 A 
ATOM     35  N   UNL A   1      43.089  26.837  27.881  1.00  0.00    -0.354 N 
ATOM     36  C   UNL A   1      44.637  30.829  28.488  1.00  0.00     0.074 A 
ATOM     37  C   UNL A   1      43.597  31.723  28.946  1.00  0.00     0.031 C 
ATOM     38  C   UNL A   1      41.533  25.231  27.855  1.00  0.00     0.029 A 
ATOM     39  C   UNL A   1      42.935  25.509  27.561  1.00  0.00     0.049 A 
ATOM     40  H   UNL A   1      43.942  27.319  27.786  1.00  0.00     0.167 HD
ATOM     41  C   UNL A   1      45.922  31.202  28.276  1.00  0.00     0.031 A 
ATOM     42  C   UNL A   1      43.824  24.615  27.086  1.00  0.00     0.031 A 
ATOM     43  C   UNL A   1      46.953  30.307  27.826  1.00  0.00     0.049 A 
ATOM     44  C   UNL A   1      45.241  25.052  26.841  1.00  0.00     0.074 A 
ATOM     45  C   UNL A   1      48.295  30.571  27.619  1.00  0.00     0.029 A 
ATOM     46  N   UNL A   1      46.754  28.970  27.509  1.00  0.00    -0.354 N 
ATOM     47  N   UNL A   1      45.782  26.234  27.024  1.00  0.00    -0.248 NA
ATOM     48  C   UNL A   1      46.169  24.033  26.337  1.00  0.00     0.031 C 
ATOM     49  C   UNL A   1      48.899  29.405  27.134  1.00  0.00     0.029 A 
ATOM     50  C   UNL A   1      47.945  28.400  27.092  1.00  0.00     0.049 A 
ATOM     51  H   UNL A   1      45.893  28.498  27.572  1.00  0.00     0.167 HD
ATOM     52  C   UNL A   1      47.123  26.092  26.684  1.00  0.00     0.074 A 
ATOM     53  C   UNL A   1      47.310  24.708  26.295  1.00  0.00     0.031 C 
ATOM     54  C   UNL A   1      48.111  27.021  26.702  1.00  0.00     0.031 A 
BRANCH  41  55
ATOM     55  C   UNL A   1      46.265  32.650  28.521  1.00  0.00    -0.014 A 
ATOM     56  C   UNL A   1      46.675  33.095  29.792  1.00  0.00     0.010 A 
ATOM     57  C   UNL A   1      46.160  33.582  27.473  1.00  0.00     0.010 A 
ATOM     58  C   UNL A   1      46.903  34.453  30.028  1.00  0.00     0.020 A 
ATOM     59  C   UNL A   1      46.420  34.938  27.697  1.00  0.00     0.020 A 
ATOM     60  C   UNL A   1      46.762  35.368  28.981  1.00  0.00     0.054 A 
BRANCH  60  61
ATOM     61  S   UNL A   1      47.036  37.129  29.321  1.00  0.00     0.124 S 
ATOM     62  O   UNL A   1      48.494  37.216  29.292  1.00  0.00    -0.237 OA
ATOM     63  O   UNL A   1      46.346  37.783  28.212  1.00  0.00    -0.237 OA
ATOM     64  O   UNL A   1      46.426  37.327  30.633  1.00  0.00    -0.744 OA
ENDBRANCH  60  61
ENDBRANCH  41  55
BRANCH  42  65
ATOM     65  C   UNL A   1      43.402  23.205  26.863  1.00  0.00    -0.014 A 
ATOM     66  C   UNL A   1      43.392  22.672  25.562  1.00  0.00     0.010 A 
ATOM     67  C   UNL A   1      43.055  22.378  27.946  1.00  0.00     0.010 A 
ATOM     68  C   UNL A   1      43.040  21.338  25.347  1.00  0.00     0.020 A 
ATOM     69  C   UNL A   1      42.727  21.036  27.737  1.00  0.00     0.020 A 
ATOM     70  C   UNL A   1      42.715  20.526  26.437  1.00  0.00     0.054 A 
BRANCH  70  71
ATOM     71  S   UNL A   1      42.337  18.775  26.139  1.00  0.00     0.124 S 
ATOM     72  O   UNL A   1      40.951  18.837  25.688  1.00  0.00    -0.237 OA
ATOM     73  O   UNL A   1      43.320  18.411  25.121  1.00  0.00    -0.237 OA
ATOM     74  O   UNL A   1      42.545  18.154  27.444  1.00  0.00    -0.744 OA
ENDBRANCH  70  71
ENDBRANCH  42  65
BRANCH  54  75
ATOM     75  C   UNL A   1      49.494  26.565  26.319  1.00  0.00    -0.014 A 
ATOM     76  C   UNL A   1      50.043  26.871  25.061  1.00  0.00     0.010 A 
ATOM     77  C   UNL A   1      50.272  25.859  27.255  1.00  0.00     0.010 A 
ATOM     78  C   UNL A   1      51.335  26.451  24.736  1.00  0.00     0.020 A 
ATOM     79  C   UNL A   1      51.574  25.463  26.944  1.00  0.00     0.020 A 
ATOM     80  C   UNL A   1      52.093  25.749  25.679  1.00  0.00     0.054 A 
BRANCH  80  81
ATOM     81  S   UNL A   1      53.783  25.254  25.249  1.00  0.00     0.124 S 
ATOM     82  O   UNL A   1      54.580  26.078  26.154  1.00  0.00    -0.237 OA
ATOM     83  O   UNL A   1      53.782  23.822  25.540  1.00  0.00    -0.237 OA
ATOM     84  O   UNL A   1      53.895  25.595  23.833  1.00  0.00    -0.744 OA
ENDBRANCH  80  81
ENDBRANCH  54  75
ENDBRANCH  28  29
ENDBRANCH  20  23
ENDBRANCH  18  19
ENDBRANCH  17  18
ENDBRANCH   1  17
TORSDOF 18
ENDMDL
MODEL 3
REMARK VINA RESULT:      -8.9      1.549      2.137
REMARK SMILES C[C@H](C[NH3+])CS/C=C/C(=O)NCCCNC(=O)c1ccc(-c2c3nc(c(-c4ccc(S(=O)(=O)[O-])cc4)c4ccc([nH]4)c(-c4ccc(S(=O)(=O)[O-])cc4)c4nc(c(-c5ccc(S(=O)(=O)[O-])cc5)c5ccc2[nH]5)C=C4)C=C3)cc1
REMARK SMILES IDX 12 1 11 2 9 3 10 4 8 6 7 7 6 8 5 9 2 10 1 11 3 12 4 13 13 17
REMARK SMILES IDX 14 18 15 19 16 20 17 22 18 23 19 24 77 25 20 26 76 27 21 28
REMARK SMILES IDX 22 29 23 30 70 31 24 32 75 33 69 34 71 35 25 36 74 37 68 38
REMARK SMILES IDX 67 39 26 41 56 42 37 43 55 44 38 45 41 46 54 47 72 48 39 49
REMARK SMILES IDX 40 50 53 52 73 53 42 54 27 55 28 56 36 57 29 58 35 59 30 60
REMARK SMILES IDX 31 61 32 62 33 63 34 64 57 65 58 66 66 67 59 68 65 69 60 70
REMARK SMILES IDX 61 71 62 72 63 73 64 74 43 75 44 76 52 77 45 78 51 79 46 80
REMARK SMILES IDX 47 81 48 82 49 83 50 84
REMARK H PARENT 11 5 4 14 4 15 4 16 15 21 71 40 41 51
REMARK Flexibility Score: inf
ROOT
ATOM      1  C   UNL A   1      39.078  21.368  26.100  1.00  0.00     0.118 C 
ENDROOT
BRANCH   1   2
ATOM      2  N   UNL A   1      38.436  22.354  25.248  1.00  0.00    -0.352 N 
ATOM      3  C   UNL A   1      37.121  22.649  25.087  1.00  0.00     0.244 C 
ATOM      4  O   UNL A   1      36.765  23.416  24.196  1.00  0.00    -0.270 OA
ATOM      5  H   UNL A   1      39.051  22.893  24.700  1.00  0.00     0.163 HD
BRANCH   3   6
ATOM      6  C   UNL A   1      36.096  22.064  25.974  1.00  0.00     0.078 C 
ATOM      7  C   UNL A   1      34.920  22.679  26.140  1.00  0.00     0.046 C 
BRANCH   7   8
ATOM      8  S   UNL A   1      33.542  21.905  26.824  1.00  0.00    -0.133 SA
BRANCH   8   9
ATOM      9  C   UNL A   1      32.405  21.890  25.389  1.00  0.00     0.083 C 
BRANCH   9  10
ATOM     10  C   UNL A   1      31.235  22.899  25.436  1.00  0.00     0.051 C 
ATOM     11  C   UNL A   1      31.803  24.326  25.432  1.00  0.00     0.014 C 
BRANCH  10  12
ATOM     12  C   UNL A   1      30.257  22.748  26.623  1.00  0.00     0.262 C 
BRANCH  12  13
ATOM     13  N   UNL A   1      29.520  23.962  26.956  1.00  0.00    -0.357 N 
ATOM     14  H   UNL A   1      30.176  24.732  27.092  1.00  0.00     0.344 HD
ATOM     15  H   UNL A   1      28.988  23.813  27.813  1.00  0.00     0.344 HD
ATOM     16  H   UNL A   1      28.881  24.192  26.194  1.00  0.00     0.344 HD
ENDBRANCH  12  13
ENDBRANCH  10  12
ENDBRANCH   9  10
ENDBRANCH   8   9
ENDBRANCH   7   8
ENDBRANCH   3   6
ENDBRANCH   1   2
BRANCH   1  17
ATOM     17  C   UNL A   1      40.192  21.973  26.941  1.00  0.00     0.042 C 
BRANCH  17  18
ATOM     18  C   UNL A   1      40.107  23.492  27.041  1.00  0.00     0.118 C 
BRANCH  18  19
ATOM     19  N   UNL A   1      40.989  24.154  26.088  1.00  0.00    -0.352 N 
ATOM     20  C   UNL A   1      41.375  25.468  26.005  1.00  0.00     0.251 C 
ATOM     21  H   UNL A   1      41.368  23.568  25.394  1.00  0.00     0.163 HD
ATOM     22  O   UNL A   1      41.913  25.874  24.975  1.00  0.00    -0.269 OA
BRANCH  20  23
ATOM     23  C   UNL A   1      41.146  26.392  27.135  1.00  0.00     0.039 A 
ATOM     24  C   UNL A   1      40.187  26.070  28.099  1.00  0.00     0.014 A 
ATOM     25  C   UNL A   1      41.848  27.597  27.224  1.00  0.00     0.014 A 
ATOM     26  C   UNL A   1      39.973  26.931  29.179  1.00  0.00     0.010 A 
ATOM     27  C   UNL A   1      41.700  28.406  28.344  1.00  0.00     0.010 A 
ATOM     28  C   UNL A   1      40.750  28.091  29.326  1.00  0.00    -0.014 A 
BRANCH  28  29
ATOM     29  C   UNL A   1      40.572  29.006  30.481  1.00  0.00     0.031 A 
ATOM     30  C   UNL A   1      41.446  28.858  31.698  1.00  0.00     0.074 A 
ATOM     31  C   UNL A   1      39.583  29.920  30.464  1.00  0.00     0.049 A 
ATOM     32  N   UNL A   1      41.402  29.511  32.831  1.00  0.00    -0.248 NA
ATOM     33  C   UNL A   1      42.487  27.818  31.645  1.00  0.00     0.031 C 
ATOM     34  C   UNL A   1      38.649  30.139  29.357  1.00  0.00     0.029 A 
ATOM     35  N   UNL A   1      39.198  30.837  31.408  1.00  0.00    -0.354 N 
ATOM     36  C   UNL A   1      42.392  28.949  33.630  1.00  0.00     0.074 A 
ATOM     37  C   UNL A   1      42.977  27.863  32.874  1.00  0.00     0.031 C 
ATOM     38  C   UNL A   1      37.827  31.152  29.670  1.00  0.00     0.029 A 
ATOM     39  C   UNL A   1      38.144  31.625  31.014  1.00  0.00     0.049 A 
ATOM     40  H   UNL A   1      39.637  30.922  32.286  1.00  0.00     0.167 HD
ATOM     41  C   UNL A   1      42.795  29.315  34.870  1.00  0.00     0.031 A 
ATOM     42  C   UNL A   1      37.505  32.619  31.660  1.00  0.00     0.031 A 
ATOM     43  C   UNL A   1      42.213  30.398  35.615  1.00  0.00     0.049 A 
ATOM     44  C   UNL A   1      37.955  33.000  33.043  1.00  0.00     0.074 A 
ATOM     45  C   UNL A   1      42.572  30.881  36.861  1.00  0.00     0.029 A 
ATOM     46  N   UNL A   1      41.143  31.169  35.180  1.00  0.00    -0.354 N 
ATOM     47  N   UNL A   1      38.926  32.489  33.764  1.00  0.00    -0.248 NA
ATOM     48  C   UNL A   1      37.232  34.099  33.694  1.00  0.00     0.031 C 
ATOM     49  C   UNL A   1      41.691  31.914  37.199  1.00  0.00     0.029 A 
ATOM     50  C   UNL A   1      40.818  32.112  36.141  1.00  0.00     0.049 A 
ATOM     51  H   UNL A   1      40.684  31.061  34.317  1.00  0.00     0.167 HD
ATOM     52  C   UNL A   1      38.948  33.224  34.943  1.00  0.00     0.074 A 
ATOM     53  C   UNL A   1      37.900  34.220  34.833  1.00  0.00     0.031 C 
ATOM     54  C   UNL A   1      39.767  33.092  36.016  1.00  0.00     0.031 A 
BRANCH  41  55
ATOM     55  C   UNL A   1      43.912  28.516  35.492  1.00  0.00    -0.014 A 
ATOM     56  C   UNL A   1      43.646  27.503  36.434  1.00  0.00     0.010 A 
ATOM     57  C   UNL A   1      45.247  28.791  35.147  1.00  0.00     0.010 A 
ATOM     58  C   UNL A   1      44.694  26.832  37.069  1.00  0.00     0.020 A 
ATOM     59  C   UNL A   1      46.299  28.097  35.756  1.00  0.00     0.020 A 
ATOM     60  C   UNL A   1      46.015  27.143  36.734  1.00  0.00     0.054 A 
BRANCH  60  61
ATOM     61  S   UNL A   1      47.357  26.277  37.594  1.00  0.00     0.124 S 
ATOM     62  O   UNL A   1      46.820  26.160  38.947  1.00  0.00    -0.237 OA
ATOM     63  O   UNL A   1      47.462  25.025  36.850  1.00  0.00    -0.237 OA
ATOM     64  O   UNL A   1      48.497  27.179  37.453  1.00  0.00    -0.744 OA
ENDBRANCH  60  61
ENDBRANCH  41  55
BRANCH  42  65
ATOM     65  C   UNL A   1      36.405  33.353  30.978  1.00  0.00    -0.014 A 
ATOM     66  C   UNL A   1      35.163  33.511  31.618  1.00  0.00     0.010 A 
ATOM     67  C   UNL A   1      36.604  33.935  29.713  1.00  0.00     0.010 A 
ATOM     68  C   UNL A   1      34.138  34.236  31.005  1.00  0.00     0.020 A 
ATOM     69  C   UNL A   1      35.588  34.681  29.108  1.00  0.00     0.020 A 
ATOM     70  C   UNL A   1      34.359  34.822  29.756  1.00  0.00     0.054 A 
BRANCH  70  71
ATOM     71  S   UNL A   1      33.038  35.823  29.016  1.00  0.00     0.124 S 
ATOM     72  O   UNL A   1      32.366  34.853  28.158  1.00  0.00    -0.237 OA
ATOM     73  O   UNL A   1      32.285  36.264  30.187  1.00  0.00    -0.237 OA
ATOM     74  O   UNL A   1      33.763  36.882  28.317  1.00  0.00    -0.744 OA
ENDBRANCH  70  71
ENDBRANCH  42  65
BRANCH  54  75
ATOM     75  C   UNL A   1      39.586  34.070  37.147  1.00  0.00    -0.014 A 
ATOM     76  C   UNL A   1      38.928  33.703  38.333  1.00  0.00     0.010 A 
ATOM     77  C   UNL A   1      40.128  35.364  37.033  1.00  0.00     0.010 A 
ATOM     78  C   UNL A   1      38.788  34.623  39.375  1.00  0.00     0.020 A 
ATOM     79  C   UNL A   1      40.016  36.277  38.084  1.00  0.00     0.020 A 
ATOM     80  C   UNL A   1      39.333  35.905  39.244  1.00  0.00     0.054 A 
BRANCH  80  81
ATOM     81  S   UNL A   1      39.176  37.067  40.627  1.00  0.00     0.124 S 
ATOM     82  O   UNL A   1      38.312  38.098  40.061  1.00  0.00    -0.237 OA
ATOM     83  O   UNL A   1      38.571  36.244  41.671  1.00  0.00    -0.237 OA
ATOM     84  O   UNL A   1      40.553  37.481  40.890  1.00  0.00    -0.744 OA
ENDBRANCH  80  81
ENDBRANCH  54  75
ENDBRANCH  28  29
ENDBRANCH  20  23
ENDBRANCH  18  19
ENDBRANCH  17  18
ENDBRANCH   1  17
TORSDOF 18
ENDMDL
