MODEL 1
REMARK VINA RESULT:      -9.7      0.000      0.000
REMARK SMILES Cc1cccc(C(=O)[C@H](C)[C@@H](C)C(=O)NCCCNC(=O)c2ccc(-c3c4nc(c(-c5ccc(S(=O)(=O)[O-])cc5)c5ccc([nH]5)c(-c5ccc(S(=O)(=O)[O-])cc5)c5nc(c(-c6ccc(S(=O)(=O)[O-])cc6)c6ccc3[nH]6)C=C5)C=C4)cc2)c1C
REMARK SMILES IDX 17 1 16 2 15 3 13 4 14 5 11 7 12 8 9 9 10 10 7 11 8 12 6 13
REMARK SMILES IDX 1 14 2 15 3 16 82 17 4 18 83 19 5 20 18 21 19 22 20 23 21 25
REMARK SMILES IDX 22 26 23 27 81 28 24 29 80 30 25 31 26 32 27 33 74 34 28 35
REMARK SMILES IDX 79 36 73 37 75 38 29 39 78 40 72 41 71 42 30 44 60 45 41 46
REMARK SMILES IDX 59 47 42 48 45 49 58 50 76 51 43 52 44 53 57 55 77 56 46 57
REMARK SMILES IDX 31 58 32 59 40 60 33 61 39 62 34 63 35 64 36 65 37 66 38 67
REMARK SMILES IDX 61 68 62 69 70 70 63 71 69 72 64 73 65 74 66 75 67 76 68 77
REMARK SMILES IDX 47 78 48 79 56 80 49 81 55 82 50 83 51 84 52 85 53 86 54 87
REMARK H PARENT 15 6 19 24 75 43 45 54
REMARK Flexibility Score: inf
ROOT
ATOM      1  C   UNL A   1      41.570  20.577  26.340  1.00  0.00     0.042 C 
ENDROOT
BRANCH   1   2
ATOM      2  C   UNL A   1      43.045  20.952  26.186  1.00  0.00     0.117 C 
BRANCH   2   3
ATOM      3  N   UNL A   1      43.427  21.359  24.843  1.00  0.00    -0.356 N 
ATOM      4  C   UNL A   1      44.256  22.314  24.352  1.00  0.00     0.223 C 
ATOM      5  O   UNL A   1      44.437  22.304  23.130  1.00  0.00    -0.275 OA
ATOM      6  H   UNL A   1      42.992  20.826  24.139  1.00  0.00     0.163 HD
BRANCH   4   7
ATOM      7  C   UNL A   1      44.923  23.385  25.208  1.00  0.00     0.086 C 
ATOM      8  C   UNL A   1      45.702  22.776  26.376  1.00  0.00     0.019 C 
BRANCH   7   9
ATOM      9  C   UNL A   1      43.944  24.532  25.557  1.00  0.00     0.070 C 
ATOM     10  C   UNL A   1      43.532  24.525  27.036  1.00  0.00     0.017 C 
BRANCH   9  11
ATOM     11  C   UNL A   1      44.645  25.884  25.278  1.00  0.00     0.166 C 
ATOM     12  O   UNL A   1      45.721  25.870  24.678  1.00  0.00    -0.294 OA
BRANCH  11  13
ATOM     13  C   UNL A   1      44.029  27.205  25.715  1.00  0.00     0.021 A 
ATOM     14  C   UNL A   1      44.662  30.302  27.935  1.00  0.00     0.044 C 
ATOM     15  C   UNL A   1      44.040  29.312  26.984  1.00  0.00    -0.047 A 
ATOM     16  C   UNL A   1      42.792  29.640  26.439  1.00  0.00     0.004 A 
ATOM     17  C   UNL A   1      44.668  28.081  26.637  1.00  0.00    -0.037 A 
ATOM     18  C   UNL A   1      42.167  28.785  25.551  1.00  0.00     0.001 A 
ATOM     19  C   UNL A   1      46.003  27.728  27.251  1.00  0.00     0.045 C 
ATOM     20  C   UNL A   1      42.788  27.591  25.191  1.00  0.00     0.012 A 
ENDBRANCH  11  13
ENDBRANCH   9  11
ENDBRANCH   7   9
ENDBRANCH   4   7
ENDBRANCH   2   3
ENDBRANCH   1   2
BRANCH   1  21
ATOM     21  C   UNL A   1      40.673  21.646  26.957  1.00  0.00     0.118 C 
BRANCH  21  22
ATOM     22  N   UNL A   1      39.507  21.931  26.141  1.00  0.00    -0.352 N 
ATOM     23  C   UNL A   1      38.720  23.060  26.139  1.00  0.00     0.251 C 
ATOM     24  H   UNL A   1      39.246  21.226  25.507  1.00  0.00     0.163 HD
ATOM     25  O   UNL A   1      37.648  23.051  25.542  1.00  0.00    -0.269 OA
BRANCH  23  26
ATOM     26  C   UNL A   1      39.154  24.275  26.869  1.00  0.00     0.039 A 
ATOM     27  C   UNL A   1      39.923  25.229  26.198  1.00  0.00     0.014 A 
ATOM     28  C   UNL A   1      38.841  24.456  28.222  1.00  0.00     0.014 A 
ATOM     29  C   UNL A   1      40.345  26.382  26.868  1.00  0.00     0.010 A 
ATOM     30  C   UNL A   1      39.220  25.632  28.873  1.00  0.00     0.010 A 
ATOM     31  C   UNL A   1      39.986  26.602  28.208  1.00  0.00    -0.014 A 
BRANCH  31  32
ATOM     32  C   UNL A   1      40.431  27.825  28.929  1.00  0.00     0.031 A 
ATOM     33  C   UNL A   1      41.796  27.878  29.564  1.00  0.00     0.074 A 
ATOM     34  C   UNL A   1      39.598  28.879  29.050  1.00  0.00     0.049 A 
ATOM     35  N   UNL A   1      42.346  28.840  30.259  1.00  0.00    -0.248 NA
ATOM     36  C   UNL A   1      42.646  26.686  29.411  1.00  0.00     0.031 C 
ATOM     37  C   UNL A   1      38.240  28.951  28.510  1.00  0.00     0.029 A 
ATOM     38  N   UNL A   1      39.774  30.091  29.670  1.00  0.00    -0.354 N 
ATOM     39  C   UNL A   1      43.597  28.366  30.642  1.00  0.00     0.074 A 
ATOM     40  C   UNL A   1      43.707  27.015  30.136  1.00  0.00     0.031 C 
ATOM     41  C   UNL A   1      37.714  30.151  28.805  1.00  0.00     0.029 A 
ATOM     42  C   UNL A   1      38.682  30.921  29.580  1.00  0.00     0.049 A 
ATOM     43  H   UNL A   1      40.604  30.342  30.136  1.00  0.00     0.167 HD
ATOM     44  C   UNL A   1      44.573  29.000  31.336  1.00  0.00     0.031 A 
ATOM     45  C   UNL A   1      38.479  32.163  30.067  1.00  0.00     0.031 A 
ATOM     46  C   UNL A   1      44.475  30.349  31.827  1.00  0.00     0.049 A 
ATOM     47  C   UNL A   1      39.576  32.847  30.835  1.00  0.00     0.074 A 
ATOM     48  C   UNL A   1      45.434  31.093  32.494  1.00  0.00     0.029 A 
ATOM     49  N   UNL A   1      43.356  31.157  31.704  1.00  0.00    -0.354 N 
ATOM     50  N   UNL A   1      40.772  32.400  31.137  1.00  0.00    -0.248 NA
ATOM     51  C   UNL A   1      39.301  34.208  31.318  1.00  0.00     0.031 C 
ATOM     52  C   UNL A   1      44.879  32.337  32.813  1.00  0.00     0.029 A 
ATOM     53  C   UNL A   1      43.592  32.385  32.300  1.00  0.00     0.049 A 
ATOM     54  H   UNL A   1      42.517  30.897  31.261  1.00  0.00     0.167 HD
ATOM     55  C   UNL A   1      41.400  33.435  31.822  1.00  0.00     0.074 A 
ATOM     56  C   UNL A   1      40.458  34.533  31.880  1.00  0.00     0.031 C 
ATOM     57  C   UNL A   1      42.647  33.471  32.353  1.00  0.00     0.031 A 
BRANCH  44  58
ATOM     58  C   UNL A   1      45.839  28.232  31.609  1.00  0.00    -0.014 A 
ATOM     59  C   UNL A   1      46.900  28.230  30.685  1.00  0.00     0.010 A 
ATOM     60  C   UNL A   1      45.984  27.531  32.821  1.00  0.00     0.010 A 
ATOM     61  C   UNL A   1      48.064  27.504  30.947  1.00  0.00     0.020 A 
ATOM     62  C   UNL A   1      47.158  26.825  33.097  1.00  0.00     0.020 A 
ATOM     63  C   UNL A   1      48.183  26.801  32.150  1.00  0.00     0.054 A 
BRANCH  63  64
ATOM     64  S   UNL A   1      49.710  25.876  32.471  1.00  0.00     0.124 S 
ATOM     65  O   UNL A   1      49.299  24.985  33.553  1.00  0.00    -0.237 OA
ATOM     66  O   UNL A   1      49.969  25.226  31.188  1.00  0.00    -0.237 OA
ATOM     67  O   UNL A   1      50.670  26.911  32.846  1.00  0.00    -0.744 OA
ENDBRANCH  63  64
ENDBRANCH  44  58
BRANCH  45  68
ATOM     68  C   UNL A   1      37.181  32.849  29.825  1.00  0.00    -0.014 A 
ATOM     69  C   UNL A   1      36.203  32.900  30.833  1.00  0.00     0.010 A 
ATOM     70  C   UNL A   1      36.922  33.465  28.587  1.00  0.00     0.010 A 
ATOM     71  C   UNL A   1      34.984  33.545  30.604  1.00  0.00     0.020 A 
ATOM     72  C   UNL A   1      35.715  34.132  28.364  1.00  0.00     0.020 A 
ATOM     73  C   UNL A   1      34.749  34.159  29.371  1.00  0.00     0.054 A 
BRANCH  73  74
ATOM     74  S   UNL A   1      33.186  35.045  29.116  1.00  0.00     0.124 S 
ATOM     75  O   UNL A   1      33.649  36.353  28.665  1.00  0.00    -0.237 OA
ATOM     76  O   UNL A   1      32.518  34.227  28.105  1.00  0.00    -0.237 OA
ATOM     77  O   UNL A   1      32.561  35.019  30.437  1.00  0.00    -0.744 OA
ENDBRANCH  73  74
ENDBRANCH  45  68
BRANCH  57  78
ATOM     78  C   UNL A   1      43.082  34.750  33.017  1.00  0.00    -0.014 A 
ATOM     79  C   UNL A   1      43.715  35.770  32.286  1.00  0.00     0.010 A 
ATOM     80  C   UNL A   1      42.801  34.954  34.380  1.00  0.00     0.010 A 
ATOM     81  C   UNL A   1      44.086  36.963  32.914  1.00  0.00     0.020 A 
ATOM     82  C   UNL A   1      43.149  36.154  35.006  1.00  0.00     0.020 A 
ATOM     83  C   UNL A   1      43.802  37.146  34.271  1.00  0.00     0.054 A 
BRANCH  83  84
ATOM     84  S   UNL A   1      44.252  38.719  35.054  1.00  0.00     0.124 S 
ATOM     85  O   UNL A   1      43.947  38.457  36.459  1.00  0.00    -0.237 OA
ATOM     86  O   UNL A   1      45.671  38.848  34.732  1.00  0.00    -0.237 OA
ATOM     87  O   UNL A   1      43.380  39.693  34.399  1.00  0.00    -0.744 OA
ENDBRANCH  83  84
ENDBRANCH  57  78
ENDBRANCH  31  32
ENDBRANCH  23  26
ENDBRANCH  21  22
ENDBRANCH   1  21
TORSDOF 16
ENDMDL
MODEL 2
REMARK VINA RESULT:      -9.5      2.881     11.150
REMARK SMILES Cc1cccc(C(=O)[C@H](C)[C@@H](C)C(=O)NCCCNC(=O)c2ccc(-c3c4nc(c(-c5ccc(S(=O)(=O)[O-])cc5)c5ccc([nH]5)c(-c5ccc(S(=O)(=O)[O-])cc5)c5nc(c(-c6ccc(S(=O)(=O)[O-])cc6)c6ccc3[nH]6)C=C5)C=C4)cc2)c1C
REMARK SMILES IDX 17 1 16 2 15 3 13 4 14 5 11 7 12 8 9 9 10 10 7 11 8 12 6 13
REMARK SMILES IDX 1 14 2 15 3 16 82 17 4 18 83 19 5 20 18 21 19 22 20 23 21 25
REMARK SMILES IDX 22 26 23 27 81 28 24 29 80 30 25 31 26 32 27 33 74 34 28 35
REMARK SMILES IDX 79 36 73 37 75 38 29 39 78 40 72 41 71 42 30 44 60 45 41 46
REMARK SMILES IDX 59 47 42 48 45 49 58 50 76 51 43 52 44 53 57 55 77 56 46 57
REMARK SMILES IDX 31 58 32 59 40 60 33 61 39 62 34 63 35 64 36 65 37 66 38 67
REMARK SMILES IDX 61 68 62 69 70 70 63 71 69 72 64 73 65 74 66 75 67 76 68 77
REMARK SMILES IDX 47 78 48 79 56 80 49 81 55 82 50 83 51 84 52 85 53 86 54 87
REMARK H PARENT 15 6 19 24 75 43 45 54
REMARK Flexibility Score: inf
ROOT
ATOM      1  C   UNL A   1      33.725  34.029  28.327  1.00  0.00     0.042 C 
ENDROOT
BRANCH   1   2
ATOM      2  C   UNL A   1      34.321  35.295  28.944  1.00  0.00     0.117 C 
BRANCH   2   3
ATOM      3  N   UNL A   1      33.706  35.704  30.196  1.00  0.00    -0.356 N 
ATOM      4  C   UNL A   1      33.894  35.354  31.493  1.00  0.00     0.223 C 
ATOM      5  O   UNL A   1      33.259  36.002  32.332  1.00  0.00    -0.275 OA
ATOM      6  H   UNL A   1      33.000  36.380  30.077  1.00  0.00     0.163 HD
BRANCH   4   7
ATOM      7  C   UNL A   1      34.798  34.213  31.945  1.00  0.00     0.086 C 
ATOM      8  C   UNL A   1      34.041  33.185  32.787  1.00  0.00     0.019 C 
BRANCH   7   9
ATOM      9  C   UNL A   1      36.131  34.736  32.531  1.00  0.00     0.070 C 
ATOM     10  C   UNL A   1      36.207  34.575  34.057  1.00  0.00     0.017 C 
BRANCH   9  11
ATOM     11  C   UNL A   1      37.296  33.919  31.921  1.00  0.00     0.166 C 
ATOM     12  O   UNL A   1      37.730  34.255  30.818  1.00  0.00    -0.294 OA
BRANCH  11  13
ATOM     13  C   UNL A   1      37.910  32.737  32.656  1.00  0.00     0.021 A 
ATOM     14  C   UNL A   1      40.867  31.737  34.932  1.00  0.00     0.044 C 
ATOM     15  C   UNL A   1      39.616  31.699  34.093  1.00  0.00    -0.047 A 
ATOM     16  C   UNL A   1      38.947  30.472  33.992  1.00  0.00     0.004 A 
ATOM     17  C   UNL A   1      39.111  32.845  33.414  1.00  0.00    -0.037 A 
ATOM     18  C   UNL A   1      37.786  30.365  33.248  1.00  0.00     0.001 A 
ATOM     19  C   UNL A   1      39.855  34.156  33.512  1.00  0.00     0.045 C 
ATOM     20  C   UNL A   1      37.277  31.488  32.601  1.00  0.00     0.012 A 
ENDBRANCH  11  13
ENDBRANCH   9  11
ENDBRANCH   7   9
ENDBRANCH   4   7
ENDBRANCH   2   3
ENDBRANCH   1   2
BRANCH   1  21
ATOM     21  C   UNL A   1      34.466  32.729  28.629  1.00  0.00     0.118 C 
BRANCH  21  22
ATOM     22  N   UNL A   1      33.732  31.557  28.188  1.00  0.00    -0.352 N 
ATOM     23  C   UNL A   1      34.221  30.308  27.880  1.00  0.00     0.251 C 
ATOM     24  H   UNL A   1      32.758  31.671  28.098  1.00  0.00     0.163 HD
ATOM     25  O   UNL A   1      33.495  29.495  27.316  1.00  0.00    -0.269 OA
BRANCH  23  26
ATOM     26  C   UNL A   1      35.622  29.953  28.208  1.00  0.00     0.039 A 
ATOM     27  C   UNL A   1      36.592  30.033  27.205  1.00  0.00     0.014 A 
ATOM     28  C   UNL A   1      35.974  29.503  29.486  1.00  0.00     0.014 A 
ATOM     29  C   UNL A   1      37.920  29.701  27.492  1.00  0.00     0.010 A 
ATOM     30  C   UNL A   1      37.309  29.222  29.782  1.00  0.00     0.010 A 
ATOM     31  C   UNL A   1      38.295  29.306  28.786  1.00  0.00    -0.014 A 
BRANCH  31  32
ATOM     32  C   UNL A   1      39.706  28.949  29.099  1.00  0.00     0.031 A 
ATOM     33  C   UNL A   1      40.615  29.956  29.754  1.00  0.00     0.074 A 
ATOM     34  C   UNL A   1      40.186  27.735  28.763  1.00  0.00     0.049 A 
ATOM     35  N   UNL A   1      41.879  29.842  30.072  1.00  0.00    -0.248 NA
ATOM     36  C   UNL A   1      40.032  31.268  30.075  1.00  0.00     0.031 C 
ATOM     37  C   UNL A   1      39.425  26.676  28.100  1.00  0.00     0.029 A 
ATOM     38  N   UNL A   1      41.435  27.190  28.932  1.00  0.00    -0.354 N 
ATOM     39  C   UNL A   1      42.248  31.068  30.615  1.00  0.00     0.074 A 
ATOM     40  C   UNL A   1      41.084  31.926  30.544  1.00  0.00     0.031 C 
ATOM     41  C   UNL A   1      40.215  25.603  27.937  1.00  0.00     0.029 A 
ATOM     42  C   UNL A   1      41.547  25.906  28.454  1.00  0.00     0.049 A 
ATOM     43  H   UNL A   1      42.181  27.673  29.357  1.00  0.00     0.167 HD
ATOM     44  C   UNL A   1      43.439  31.445  31.140  1.00  0.00     0.031 A 
ATOM     45  C   UNL A   1      42.601  25.065  28.432  1.00  0.00     0.031 A 
ATOM     46  C   UNL A   1      44.593  30.591  31.229  1.00  0.00     0.049 A 
ATOM     47  C   UNL A   1      43.913  25.504  29.020  1.00  0.00     0.074 A 
ATOM     48  C   UNL A   1      45.827  30.869  31.793  1.00  0.00     0.029 A 
ATOM     49  N   UNL A   1      44.660  29.295  30.743  1.00  0.00    -0.354 N 
ATOM     50  N   UNL A   1      44.222  26.650  29.579  1.00  0.00    -0.248 NA
ATOM     51  C   UNL A   1      45.016  24.532  28.987  1.00  0.00     0.031 C 
ATOM     52  C   UNL A   1      46.653  29.755  31.610  1.00  0.00     0.029 A 
ATOM     53  C   UNL A   1      45.918  28.766  30.976  1.00  0.00     0.049 A 
ATOM     54  H   UNL A   1      43.922  28.821  30.295  1.00  0.00     0.167 HD
ATOM     55  C   UNL A   1      45.547  26.526  29.985  1.00  0.00     0.074 A 
ATOM     56  C   UNL A   1      45.976  25.192  29.620  1.00  0.00     0.031 C 
ATOM     57  C   UNL A   1      46.335  27.437  30.607  1.00  0.00     0.031 A 
BRANCH  44  58
ATOM     58  C   UNL A   1      43.552  32.853  31.660  1.00  0.00    -0.014 A 
ATOM     59  C   UNL A   1      43.454  33.129  33.036  1.00  0.00     0.010 A 
ATOM     60  C   UNL A   1      43.794  33.912  30.765  1.00  0.00     0.010 A 
ATOM     61  C   UNL A   1      43.549  34.442  33.503  1.00  0.00     0.020 A 
ATOM     62  C   UNL A   1      43.916  35.223  31.232  1.00  0.00     0.020 A 
ATOM     63  C   UNL A   1      43.774  35.482  32.597  1.00  0.00     0.054 A 
BRANCH  63  64
ATOM     64  S   UNL A   1      43.907  37.177  33.230  1.00  0.00     0.124 S 
ATOM     65  O   UNL A   1      42.724  37.271  34.083  1.00  0.00    -0.237 OA
ATOM     66  O   UNL A   1      45.187  37.159  33.933  1.00  0.00    -0.237 OA
ATOM     67  O   UNL A   1      43.873  38.001  32.025  1.00  0.00    -0.744 OA
ENDBRANCH  63  64
ENDBRANCH  44  58
BRANCH  45  68
ATOM     68  C   UNL A   1      42.450  23.707  27.843  1.00  0.00    -0.014 A 
ATOM     69  C   UNL A   1      42.832  23.460  26.512  1.00  0.00     0.010 A 
ATOM     70  C   UNL A   1      41.935  22.649  28.615  1.00  0.00     0.010 A 
ATOM     71  C   UNL A   1      42.690  22.184  25.960  1.00  0.00     0.020 A 
ATOM     72  C   UNL A   1      41.816  21.367  28.074  1.00  0.00     0.020 A 
ATOM     73  C   UNL A   1      42.184  21.144  26.746  1.00  0.00     0.054 A 
BRANCH  73  74
ATOM     74  S   UNL A   1      42.067  19.481  26.030  1.00  0.00     0.124 S 
ATOM     75  O   UNL A   1      40.634  19.356  25.785  1.00  0.00    -0.237 OA
ATOM     76  O   UNL A   1      42.906  19.589  24.837  1.00  0.00    -0.237 OA
ATOM     77  O   UNL A   1      42.603  18.620  27.081  1.00  0.00    -0.744 OA
ENDBRANCH  73  74
ENDBRANCH  45  68
BRANCH  57  78
ATOM     78  C   UNL A   1      47.734  27.015  30.965  1.00  0.00    -0.014 A 
ATOM     79  C   UNL A   1      48.021  26.423  32.207  1.00  0.00     0.010 A 
ATOM     80  C   UNL A   1      48.766  27.162  30.020  1.00  0.00     0.010 A 
ATOM     81  C   UNL A   1      49.322  26.012  32.510  1.00  0.00     0.020 A 
ATOM     82  C   UNL A   1      50.063  26.731  30.310  1.00  0.00     0.020 A 
ATOM     83  C   UNL A   1      50.336  26.171  31.560  1.00  0.00     0.054 A 
BRANCH  83  84
ATOM     84  S   UNL A   1      52.007  25.587  31.957  1.00  0.00     0.124 S 
ATOM     85  O   UNL A   1      52.747  25.938  30.747  1.00  0.00    -0.237 OA
ATOM     86  O   UNL A   1      52.346  26.362  33.148  1.00  0.00    -0.237 OA
ATOM     87  O   UNL A   1      51.829  24.154  32.184  1.00  0.00    -0.744 OA
ENDBRANCH  83  84
ENDBRANCH  57  78
ENDBRANCH  31  32
ENDBRANCH  23  26
ENDBRANCH  21  22
ENDBRANCH   1  21
TORSDOF 16
ENDMDL
MODEL 3
REMARK VINA RESULT:      -9.4      4.211     10.797
REMARK SMILES Cc1cccc(C(=O)[C@H](C)[C@@H](C)C(=O)NCCCNC(=O)c2ccc(-c3c4nc(c(-c5ccc(S(=O)(=O)[O-])cc5)c5ccc([nH]5)c(-c5ccc(S(=O)(=O)[O-])cc5)c5nc(c(-c6ccc(S(=O)(=O)[O-])cc6)c6ccc3[nH]6)C=C5)C=C4)cc2)c1C
REMARK SMILES IDX 17 1 16 2 15 3 13 4 14 5 11 7 12 8 9 9 10 10 7 11 8 12 6 13
REMARK SMILES IDX 1 14 2 15 3 16 82 17 4 18 83 19 5 20 18 21 19 22 20 23 21 25
REMARK SMILES IDX 22 26 23 27 81 28 24 29 80 30 25 31 26 32 27 33 74 34 28 35
REMARK SMILES IDX 79 36 73 37 75 38 29 39 78 40 72 41 71 42 30 44 60 45 41 46
REMARK SMILES IDX 59 47 42 48 45 49 58 50 76 51 43 52 44 53 57 55 77 56 46 57
REMARK SMILES IDX 31 58 32 59 40 60 33 61 39 62 34 63 35 64 36 65 37 66 38 67
REMARK SMILES IDX 61 68 62 69 70 70 63 71 69 72 64 73 65 74 66 75 67 76 68 77
REMARK SMILES IDX 47 78 48 79 56 80 49 81 55 82 50 83 51 84 52 85 53 86 54 87
REMARK H PARENT 15 6 19 24 75 43 45 54
REMARK Flexibility Score: inf
ROOT
ATOM      1  C   UNL A   1      33.060  27.498  25.762  1.00  0.00     0.042 C 
ENDROOT
BRANCH   1   2
ATOM      2  C   UNL A   1      31.551  27.311  25.594  1.00  0.00     0.117 C 
BRANCH   2   3
ATOM      3  N   UNL A   1      31.024  27.770  24.319  1.00  0.00    -0.356 N 
ATOM      4  C   UNL A   1      31.359  27.536  23.025  1.00  0.00     0.223 C 
ATOM      5  O   UNL A   1      30.606  28.013  22.171  1.00  0.00    -0.275 OA
ATOM      6  H   UNL A   1      30.260  28.384  24.415  1.00  0.00     0.163 HD
BRANCH   4   7
ATOM      7  C   UNL A   1      32.602  26.765  22.594  1.00  0.00     0.086 C 
ATOM      8  C   UNL A   1      33.673  27.690  22.016  1.00  0.00     0.019 C 
BRANCH   7   9
ATOM      9  C   UNL A   1      32.239  25.520  21.750  1.00  0.00     0.070 C 
ATOM     10  C   UNL A   1      32.552  25.707  20.258  1.00  0.00     0.017 C 
BRANCH   9  11
ATOM     11  C   UNL A   1      33.077  24.319  22.251  1.00  0.00     0.166 C 
ATOM     12  O   UNL A   1      33.470  23.496  21.423  1.00  0.00    -0.294 OA
BRANCH  11  13
ATOM     13  C   UNL A   1      33.428  24.151  23.723  1.00  0.00     0.021 A 
ATOM     14  C   UNL A   1      31.910  23.238  27.156  1.00  0.00     0.044 C 
ATOM     15  C   UNL A   1      32.867  23.635  26.062  1.00  0.00    -0.047 A 
ATOM     16  C   UNL A   1      34.203  23.854  26.424  1.00  0.00     0.004 A 
ATOM     17  C   UNL A   1      32.461  23.795  24.705  1.00  0.00    -0.037 A 
ATOM     18  C   UNL A   1      35.140  24.210  25.471  1.00  0.00     0.001 A 
ATOM     19  C   UNL A   1      31.013  23.579  24.332  1.00  0.00     0.045 C 
ATOM     20  C   UNL A   1      34.751  24.344  24.140  1.00  0.00     0.012 A 
ENDBRANCH  11  13
ENDBRANCH   9  11
ENDBRANCH   7   9
ENDBRANCH   4   7
ENDBRANCH   2   3
ENDBRANCH   1   2
BRANCH   1  21
ATOM     21  C   UNL A   1      33.520  28.009  27.124  1.00  0.00     0.118 C 
BRANCH  21  22
ATOM     22  N   UNL A   1      33.318  29.438  27.277  1.00  0.00    -0.352 N 
ATOM     23  C   UNL A   1      34.171  30.367  27.828  1.00  0.00     0.251 C 
ATOM     24  H   UNL A   1      32.460  29.787  26.945  1.00  0.00     0.163 HD
ATOM     25  O   UNL A   1      33.759  31.496  28.077  1.00  0.00    -0.269 OA
BRANCH  23  26
ATOM     26  C   UNL A   1      35.573  30.003  28.138  1.00  0.00     0.039 A 
ATOM     27  C   UNL A   1      35.899  29.614  29.440  1.00  0.00     0.014 A 
ATOM     28  C   UNL A   1      36.574  30.080  27.162  1.00  0.00     0.014 A 
ATOM     29  C   UNL A   1      37.217  29.268  29.756  1.00  0.00     0.010 A 
ATOM     30  C   UNL A   1      37.878  29.685  27.468  1.00  0.00     0.010 A 
ATOM     31  C   UNL A   1      38.216  29.286  28.770  1.00  0.00    -0.014 A 
BRANCH  31  32
ATOM     32  C   UNL A   1      39.621  28.919  29.097  1.00  0.00     0.031 A 
ATOM     33  C   UNL A   1      40.531  29.918  29.763  1.00  0.00     0.074 A 
ATOM     34  C   UNL A   1      40.097  27.702  28.763  1.00  0.00     0.049 A 
ATOM     35  N   UNL A   1      41.791  29.794  30.094  1.00  0.00    -0.248 NA
ATOM     36  C   UNL A   1      39.954  31.234  30.081  1.00  0.00     0.031 C 
ATOM     37  C   UNL A   1      39.335  26.650  28.090  1.00  0.00     0.029 A 
ATOM     38  N   UNL A   1      41.340  27.147  28.944  1.00  0.00    -0.354 N 
ATOM     39  C   UNL A   1      42.163  31.017  30.643  1.00  0.00     0.074 A 
ATOM     40  C   UNL A   1      41.006  31.882  30.562  1.00  0.00     0.031 C 
ATOM     41  C   UNL A   1      40.119  25.571  27.933  1.00  0.00     0.029 A 
ATOM     42  C   UNL A   1      41.447  25.863  28.465  1.00  0.00     0.049 A 
ATOM     43  H   UNL A   1      42.085  27.624  29.377  1.00  0.00     0.167 HD
ATOM     44  C   UNL A   1      43.350  31.384  31.182  1.00  0.00     0.031 A 
ATOM     45  C   UNL A   1      42.496  25.015  28.452  1.00  0.00     0.031 A 
ATOM     46  C   UNL A   1      44.498  30.522  31.280  1.00  0.00     0.049 A 
ATOM     47  C   UNL A   1      43.805  25.444  29.054  1.00  0.00     0.074 A 
ATOM     48  C   UNL A   1      45.728  30.790  31.858  1.00  0.00     0.029 A 
ATOM     49  N   UNL A   1      44.560  29.227  30.792  1.00  0.00    -0.354 N 
ATOM     50  N   UNL A   1      44.117  26.587  29.619  1.00  0.00    -0.248 NA
ATOM     51  C   UNL A   1      44.901  24.464  29.030  1.00  0.00     0.031 C 
ATOM     52  C   UNL A   1      46.548  29.670  31.682  1.00  0.00     0.029 A 
ATOM     53  C   UNL A   1      45.812  28.688  31.037  1.00  0.00     0.049 A 
ATOM     54  H   UNL A   1      43.824  28.758  30.337  1.00  0.00     0.167 HD
ATOM     55  C   UNL A   1      45.436  26.453  30.038  1.00  0.00     0.074 A 
ATOM     56  C   UNL A   1      45.860  25.117  29.675  1.00  0.00     0.031 C 
ATOM     57  C   UNL A   1      46.223  27.356  30.671  1.00  0.00     0.031 A 
BRANCH  44  58
ATOM     58  C   UNL A   1      43.468  32.790  31.706  1.00  0.00    -0.014 A 
ATOM     59  C   UNL A   1      43.864  33.847  30.866  1.00  0.00     0.010 A 
ATOM     60  C   UNL A   1      43.143  33.066  33.047  1.00  0.00     0.010 A 
ATOM     61  C   UNL A   1      43.980  35.145  31.369  1.00  0.00     0.020 A 
ATOM     62  C   UNL A   1      43.233  34.368  33.547  1.00  0.00     0.020 A 
ATOM     63  C   UNL A   1      43.669  35.396  32.709  1.00  0.00     0.054 A 
BRANCH  63  64
ATOM     64  S   UNL A   1      43.815  37.093  33.334  1.00  0.00     0.124 S 
ATOM     65  O   UNL A   1      42.617  37.212  34.162  1.00  0.00    -0.237 OA
ATOM     66  O   UNL A   1      45.081  37.060  34.062  1.00  0.00    -0.237 OA
ATOM     67  O   UNL A   1      43.818  37.910  32.122  1.00  0.00    -0.744 OA
ENDBRANCH  63  64
ENDBRANCH  44  58
BRANCH  45  68
ATOM     68  C   UNL A   1      42.342  23.659  27.858  1.00  0.00    -0.014 A 
ATOM     69  C   UNL A   1      42.651  23.434  26.505  1.00  0.00     0.010 A 
ATOM     70  C   UNL A   1      41.896  22.583  28.648  1.00  0.00     0.010 A 
ATOM     71  C   UNL A   1      42.506  22.160  25.949  1.00  0.00     0.020 A 
ATOM     72  C   UNL A   1      41.774  21.303  28.101  1.00  0.00     0.020 A 
ATOM     73  C   UNL A   1      42.070  21.102  26.752  1.00  0.00     0.054 A 
BRANCH  73  74
ATOM     74  S   UNL A   1      41.949  19.443  26.026  1.00  0.00     0.124 S 
ATOM     75  O   UNL A   1      42.807  19.563  24.851  1.00  0.00    -0.237 OA
ATOM     76  O   UNL A   1      42.459  18.590  27.098  1.00  0.00    -0.237 OA
ATOM     77  O   UNL A   1      40.522  19.295  25.751  1.00  0.00    -0.744 OA
ENDBRANCH  73  74
ENDBRANCH  45  68
BRANCH  57  78
ATOM     78  C   UNL A   1      47.616  26.924  31.042  1.00  0.00    -0.014 A 
ATOM     79  C   UNL A   1      47.876  26.274  32.261  1.00  0.00     0.010 A 
ATOM     80  C   UNL A   1      48.670  27.121  30.131  1.00  0.00     0.010 A 
ATOM     81  C   UNL A   1      49.172  25.854  32.575  1.00  0.00     0.020 A 
ATOM     82  C   UNL A   1      49.962  26.683  30.432  1.00  0.00     0.020 A 
ATOM     83  C   UNL A   1      50.207  26.063  31.659  1.00  0.00     0.054 A 
BRANCH  83  84
ATOM     84  S   UNL A   1      51.872  25.469  32.069  1.00  0.00     0.124 S 
ATOM     85  O   UNL A   1      51.661  24.027  32.175  1.00  0.00    -0.237 OA
ATOM     86  O   UNL A   1      52.663  25.907  30.922  1.00  0.00    -0.237 OA
ATOM     87  O   UNL A   1      52.181  26.147  33.327  1.00  0.00    -0.744 OA
ENDBRANCH  83  84
ENDBRANCH  57  78
ENDBRANCH  31  32
ENDBRANCH  23  26
ENDBRANCH  21  22
ENDBRANCH   1  21
TORSDOF 16
ENDMDL
