MODEL 1
REMARK VINA RESULT:     -10.4      0.000      0.000
REMARK SMILES COc1cccc(-c2ccc(Nc3cccc(C(=O)NCCCNC(=O)c4ccc(-c5c6nc(c(-c7ccc(S(=O)(=O)[O-])cc7)c7ccc([nH]7)c(-c7ccc(S(=O)(=O)[O-])cc7)c7nc(c(-c8ccc(S(=O)(=O)[O-])cc8)c8ccc5[nH]8)C=C7)C=C6)cc4)c3)nn2)c1
REMARK SMILES IDX 21 1 20 2 18 3 19 4 17 6 13 7 14 8 87 9 15 10 16 11 12 12
REMARK SMILES IDX 11 14 8 15 9 16 89 17 10 18 88 19 7 20 3 21 4 22 90 23 5 24
REMARK SMILES IDX 6 25 2 26 1 27 22 28 23 29 24 30 25 31 26 33 27 34 28 35
REMARK SMILES IDX 86 36 29 37 85 38 30 39 31 40 32 41 79 42 33 43 84 44 78 45
REMARK SMILES IDX 80 46 34 47 83 48 77 49 76 50 35 52 65 53 46 54 64 55 47 56
REMARK SMILES IDX 50 57 63 58 81 59 48 60 49 61 62 63 82 64 51 65 36 66 37 67
REMARK SMILES IDX 45 68 38 69 44 70 39 71 40 72 41 73 42 74 43 75 66 76 67 77
REMARK SMILES IDX 75 78 68 79 74 80 69 81 70 82 71 83 72 84 73 85 52 86 53 87
REMARK SMILES IDX 61 88 54 89 60 90 55 91 56 92 57 93 58 94 59 95
REMARK H PARENT 20 5 12 13 24 32 80 51 50 62
REMARK Flexibility Score: inf
ROOT
ATOM      1  C   UNL A   1      42.435  22.595  25.399  1.00  0.00     0.118 C 
ENDROOT
BRANCH   1   2
ATOM      2  N   UNL A   1      43.645  22.489  24.593  1.00  0.00    -0.352 N 
ATOM      3  C   UNL A   1      44.913  23.022  24.644  1.00  0.00     0.251 C 
ATOM      4  O   UNL A   1      45.695  22.660  23.760  1.00  0.00    -0.269 OA
ATOM      5  H   UNL A   1      43.528  21.887  23.823  1.00  0.00     0.163 HD
BRANCH   3   6
ATOM      6  C   UNL A   1      45.386  24.033  25.634  1.00  0.00     0.041 A 
ATOM      7  C   UNL A   1      46.298  26.229  26.227  1.00  0.00     0.040 A 
ATOM      8  C   UNL A   1      46.473  25.793  27.541  1.00  0.00     0.026 A 
ATOM      9  C   UNL A   1      45.665  25.360  25.330  1.00  0.00     0.040 A 
ATOM     10  C   UNL A   1      46.067  24.510  27.920  1.00  0.00     0.003 A 
ATOM     11  C   UNL A   1      45.555  23.626  26.964  1.00  0.00     0.014 A 
BRANCH   7  12
ATOM     12  N   UNL A   1      46.745  27.499  25.821  1.00  0.00    -0.339 N 
ATOM     13  H   UNL A   1      47.619  27.519  25.367  1.00  0.00     0.168 HD
BRANCH  12  14
ATOM     14  C   UNL A   1      46.110  28.744  25.975  1.00  0.00     0.153 A 
ATOM     15  C   UNL A   1      44.934  31.217  26.367  1.00  0.00     0.093 A 
ATOM     16  C   UNL A   1      44.358  30.091  26.938  1.00  0.00     0.035 A 
ATOM     17  N   UNL A   1      46.063  31.099  25.640  1.00  0.00    -0.148 NA
ATOM     18  C   UNL A   1      44.953  28.841  26.736  1.00  0.00     0.051 A 
ATOM     19  N   UNL A   1      46.649  29.865  25.454  1.00  0.00    -0.132 NA
BRANCH  15  20
ATOM     20  C   UNL A   1      44.347  32.562  26.430  1.00  0.00     0.006 A 
ATOM     21  C   UNL A   1      43.521  34.497  27.668  1.00  0.00     0.119 A 
ATOM     22  C   UNL A   1      43.125  35.096  26.472  1.00  0.00     0.046 A 
ATOM     23  C   UNL A   1      44.120  33.232  27.648  1.00  0.00     0.056 A 
ATOM     24  C   UNL A   1      43.363  34.465  25.256  1.00  0.00     0.005 A 
ATOM     25  C   UNL A   1      43.976  33.213  25.238  1.00  0.00     0.011 A 
BRANCH  21  26
ATOM     26  O   UNL A   1      43.221  35.210  28.797  1.00  0.00    -0.497 OA
ATOM     27  C   UNL A   1      41.996  35.936  28.763  1.00  0.00     0.278 C 
ENDBRANCH  21  26
ENDBRANCH  15  20
ENDBRANCH  12  14
ENDBRANCH   7  12
ENDBRANCH   3   6
ENDBRANCH   1   2
BRANCH   1  28
ATOM     28  C   UNL A   1      42.162  21.368  26.259  1.00  0.00     0.042 C 
BRANCH  28  29
ATOM     29  C   UNL A   1      40.888  21.477  27.083  1.00  0.00     0.118 C 
BRANCH  29  30
ATOM     30  N   UNL A   1      39.710  21.737  26.257  1.00  0.00    -0.352 N 
ATOM     31  C   UNL A   1      38.879  22.826  26.179  1.00  0.00     0.251 C 
ATOM     32  H   UNL A   1      39.470  20.999  25.650  1.00  0.00     0.163 HD
ATOM     33  O   UNL A   1      37.805  22.723  25.594  1.00  0.00    -0.269 OA
BRANCH  31  34
ATOM     34  C   UNL A   1      39.257  24.115  26.798  1.00  0.00     0.039 A 
ATOM     35  C   UNL A   1      38.861  24.380  28.112  1.00  0.00     0.014 A 
ATOM     36  C   UNL A   1      39.963  25.079  26.077  1.00  0.00     0.014 A 
ATOM     37  C   UNL A   1      39.237  25.579  28.722  1.00  0.00     0.010 A 
ATOM     38  C   UNL A   1      40.423  26.224  26.716  1.00  0.00     0.010 A 
ATOM     39  C   UNL A   1      40.060  26.492  28.042  1.00  0.00    -0.014 A 
BRANCH  39  40
ATOM     40  C   UNL A   1      40.556  27.727  28.697  1.00  0.00     0.031 A 
ATOM     41  C   UNL A   1      41.953  27.783  29.254  1.00  0.00     0.074 A 
ATOM     42  C   UNL A   1      39.717  28.768  28.866  1.00  0.00     0.049 A 
ATOM     43  N   UNL A   1      42.536  28.746  29.922  1.00  0.00    -0.248 NA
ATOM     44  C   UNL A   1      42.793  26.590  29.063  1.00  0.00     0.031 C 
ATOM     45  C   UNL A   1      38.322  28.812  28.421  1.00  0.00     0.029 A 
ATOM     46  N   UNL A   1      39.911  29.986  29.467  1.00  0.00    -0.354 N 
ATOM     47  C   UNL A   1      43.800  28.266  30.250  1.00  0.00     0.074 A 
ATOM     48  C   UNL A   1      43.876  26.909  29.757  1.00  0.00     0.031 C 
ATOM     49  C   UNL A   1      37.796  30.005  28.738  1.00  0.00     0.029 A 
ATOM     50  C   UNL A   1      38.797  30.792  29.450  1.00  0.00     0.049 A 
ATOM     51  H   UNL A   1      40.766  30.257  29.873  1.00  0.00     0.167 HD
ATOM     52  C   UNL A   1      44.812  28.904  30.884  1.00  0.00     0.031 A 
ATOM     53  C   UNL A   1      38.598  32.024  29.958  1.00  0.00     0.031 A 
ATOM     54  C   UNL A   1      44.728  30.257  31.368  1.00  0.00     0.049 A 
ATOM     55  C   UNL A   1      39.732  32.715  30.660  1.00  0.00     0.074 A 
ATOM     56  C   UNL A   1      45.714  31.020  31.968  1.00  0.00     0.029 A 
ATOM     57  N   UNL A   1      43.588  31.046  31.316  1.00  0.00    -0.354 N 
ATOM     58  N   UNL A   1      40.946  32.274  30.891  1.00  0.00    -0.248 NA
ATOM     59  C   UNL A   1      39.474  34.072  31.157  1.00  0.00     0.031 C 
ATOM     60  C   UNL A   1      45.153  32.249  32.332  1.00  0.00     0.029 A 
ATOM     61  C   UNL A   1      43.836  32.278  31.900  1.00  0.00     0.049 A 
ATOM     62  H   UNL A   1      42.729  30.771  30.921  1.00  0.00     0.167 HD
ATOM     63  C   UNL A   1      41.604  33.309  31.548  1.00  0.00     0.074 A 
ATOM     64  C   UNL A   1      40.658  34.401  31.656  1.00  0.00     0.031 C 
ATOM     65  C   UNL A   1      42.877  33.348  32.016  1.00  0.00     0.031 A 
BRANCH  52  66
ATOM     66  C   UNL A   1      46.089  28.131  31.101  1.00  0.00    -0.014 A 
ATOM     67  C   UNL A   1      46.238  27.261  32.197  1.00  0.00     0.010 A 
ATOM     68  C   UNL A   1      47.155  28.273  30.194  1.00  0.00     0.010 A 
ATOM     69  C   UNL A   1      47.449  26.600  32.418  1.00  0.00     0.020 A 
ATOM     70  C   UNL A   1      48.357  27.587  30.393  1.00  0.00     0.020 A 
ATOM     71  C   UNL A   1      48.505  26.774  31.518  1.00  0.00     0.054 A 
BRANCH  71  72
ATOM     72  S   UNL A   1      50.068  25.911  31.836  1.00  0.00     0.124 S 
ATOM     73  O   UNL A   1      49.788  25.241  33.104  1.00  0.00    -0.237 OA
ATOM     74  O   UNL A   1      50.192  25.033  30.676  1.00  0.00    -0.237 OA
ATOM     75  O   UNL A   1      51.051  26.989  31.906  1.00  0.00    -0.744 OA
ENDBRANCH  71  72
ENDBRANCH  52  66
BRANCH  53  76
ATOM     76  C   UNL A   1      37.271  32.675  29.795  1.00  0.00    -0.014 A 
ATOM     77  C   UNL A   1      36.236  32.427  30.713  1.00  0.00     0.010 A 
ATOM     78  C   UNL A   1      37.056  33.599  28.754  1.00  0.00     0.010 A 
ATOM     79  C   UNL A   1      35.011  33.092  30.596  1.00  0.00     0.020 A 
ATOM     80  C   UNL A   1      35.842  34.284  28.650  1.00  0.00     0.020 A 
ATOM     81  C   UNL A   1      34.826  34.024  29.571  1.00  0.00     0.054 A 
BRANCH  81  82
ATOM     82  S   UNL A   1      33.264  34.945  29.498  1.00  0.00     0.124 S 
ATOM     83  O   UNL A   1      32.447  34.093  28.642  1.00  0.00    -0.237 OA
ATOM     84  O   UNL A   1      32.866  35.001  30.903  1.00  0.00    -0.237 OA
ATOM     85  O   UNL A   1      33.651  36.230  28.919  1.00  0.00    -0.744 OA
ENDBRANCH  81  82
ENDBRANCH  53  76
BRANCH  65  86
ATOM     86  C   UNL A   1      43.328  34.624  32.677  1.00  0.00    -0.014 A 
ATOM     87  C   UNL A   1      43.970  35.637  31.944  1.00  0.00     0.010 A 
ATOM     88  C   UNL A   1      43.056  34.833  34.042  1.00  0.00     0.010 A 
ATOM     89  C   UNL A   1      44.361  36.823  32.571  1.00  0.00     0.020 A 
ATOM     90  C   UNL A   1      43.418  36.029  34.666  1.00  0.00     0.020 A 
ATOM     91  C   UNL A   1      44.082  37.012  33.928  1.00  0.00     0.054 A 
BRANCH  91  92
ATOM     92  S   UNL A   1      44.561  38.577  34.709  1.00  0.00     0.124 S 
ATOM     93  O   UNL A   1      46.019  38.478  34.716  1.00  0.00    -0.237 OA
ATOM     94  O   UNL A   1      44.002  39.573  33.798  1.00  0.00    -0.237 OA
ATOM     95  O   UNL A   1      43.926  38.518  36.024  1.00  0.00    -0.744 OA
ENDBRANCH  91  92
ENDBRANCH  65  86
ENDBRANCH  39  40
ENDBRANCH  31  34
ENDBRANCH  29  30
ENDBRANCH  28  29
ENDBRANCH   1  28
TORSDOF 17
ENDMDL
MODEL 2
REMARK VINA RESULT:      -9.9      3.215     11.081
REMARK SMILES COc1cccc(-c2ccc(Nc3cccc(C(=O)NCCCNC(=O)c4ccc(-c5c6nc(c(-c7ccc(S(=O)(=O)[O-])cc7)c7ccc([nH]7)c(-c7ccc(S(=O)(=O)[O-])cc7)c7nc(c(-c8ccc(S(=O)(=O)[O-])cc8)c8ccc5[nH]8)C=C7)C=C6)cc4)c3)nn2)c1
REMARK SMILES IDX 21 1 20 2 18 3 19 4 17 6 13 7 14 8 87 9 15 10 16 11 12 12
REMARK SMILES IDX 11 14 8 15 9 16 89 17 10 18 88 19 7 20 3 21 4 22 90 23 5 24
REMARK SMILES IDX 6 25 2 26 1 27 22 28 23 29 24 30 25 31 26 33 27 34 28 35
REMARK SMILES IDX 86 36 29 37 85 38 30 39 31 40 32 41 79 42 33 43 84 44 78 45
REMARK SMILES IDX 80 46 34 47 83 48 77 49 76 50 35 52 65 53 46 54 64 55 47 56
REMARK SMILES IDX 50 57 63 58 81 59 48 60 49 61 62 63 82 64 51 65 36 66 37 67
REMARK SMILES IDX 45 68 38 69 44 70 39 71 40 72 41 73 42 74 43 75 66 76 67 77
REMARK SMILES IDX 75 78 68 79 74 80 69 81 70 82 71 83 72 84 73 85 52 86 53 87
REMARK SMILES IDX 61 88 54 89 60 90 55 91 56 92 57 93 58 94 59 95
REMARK H PARENT 20 5 12 13 24 32 80 51 50 62
REMARK Flexibility Score: inf
ROOT
ATOM      1  C   UNL A   1      34.857  34.171  30.190  1.00  0.00     0.118 C 
ENDROOT
BRANCH   1   2
ATOM      2  N   UNL A   1      34.489  34.488  31.565  1.00  0.00    -0.352 N 
ATOM      3  C   UNL A   1      35.102  34.405  32.794  1.00  0.00     0.251 C 
ATOM      4  O   UNL A   1      34.449  34.807  33.761  1.00  0.00    -0.269 OA
ATOM      5  H   UNL A   1      33.577  34.852  31.631  1.00  0.00     0.163 HD
BRANCH   3   6
ATOM      6  C   UNL A   1      36.451  33.819  33.049  1.00  0.00     0.041 A 
ATOM      7  C   UNL A   1      37.932  32.112  33.997  1.00  0.00     0.040 A 
ATOM      8  C   UNL A   1      39.035  32.904  33.680  1.00  0.00     0.026 A 
ATOM      9  C   UNL A   1      36.670  32.553  33.581  1.00  0.00     0.040 A 
ATOM     10  C   UNL A   1      38.864  34.119  33.010  1.00  0.00     0.003 A 
ATOM     11  C   UNL A   1      37.577  34.586  32.725  1.00  0.00     0.014 A 
BRANCH   7  12
ATOM     12  N   UNL A   1      38.085  30.910  34.712  1.00  0.00    -0.339 N 
ATOM     13  H   UNL A   1      37.324  30.651  35.279  1.00  0.00     0.168 HD
BRANCH  12  14
ATOM     14  C   UNL A   1      39.182  30.030  34.723  1.00  0.00     0.153 A 
ATOM     15  C   UNL A   1      41.411  28.390  34.745  1.00  0.00     0.093 A 
ATOM     16  C   UNL A   1      40.786  28.673  33.539  1.00  0.00     0.035 A 
ATOM     17  N   UNL A   1      40.936  28.925  35.889  1.00  0.00    -0.148 NA
ATOM     18  C   UNL A   1      39.657  29.501  33.531  1.00  0.00     0.051 A 
ATOM     19  N   UNL A   1      39.830  29.746  35.871  1.00  0.00    -0.132 NA
BRANCH  15  20
ATOM     20  C   UNL A   1      42.539  27.462  34.888  1.00  0.00     0.006 A 
ATOM     21  C   UNL A   1      44.135  26.203  36.240  1.00  0.00     0.119 A 
ATOM     22  C   UNL A   1      44.770  25.759  35.080  1.00  0.00     0.046 A 
ATOM     23  C   UNL A   1      43.031  27.058  36.145  1.00  0.00     0.056 A 
ATOM     24  C   UNL A   1      44.287  26.124  33.828  1.00  0.00     0.005 A 
ATOM     25  C   UNL A   1      43.176  26.961  33.737  1.00  0.00     0.011 A 
BRANCH  21  26
ATOM     26  O   UNL A   1      44.712  25.786  37.409  1.00  0.00    -0.497 OA
ATOM     27  C   UNL A   1      44.594  26.680  38.510  1.00  0.00     0.278 C 
ENDBRANCH  21  26
ENDBRANCH  15  20
ENDBRANCH  12  14
ENDBRANCH   7  12
ENDBRANCH   3   6
ENDBRANCH   1   2
BRANCH   1  28
ATOM     28  C   UNL A   1      34.418  32.783  29.744  1.00  0.00     0.042 C 
BRANCH  28  29
ATOM     29  C   UNL A   1      34.271  32.651  28.235  1.00  0.00     0.118 C 
BRANCH  29  30
ATOM     30  N   UNL A   1      33.699  31.366  27.840  1.00  0.00    -0.352 N 
ATOM     31  C   UNL A   1      34.279  30.140  27.632  1.00  0.00     0.251 C 
ATOM     32  H   UNL A   1      32.724  31.383  27.699  1.00  0.00     0.163 HD
ATOM     33  O   UNL A   1      33.639  29.261  27.061  1.00  0.00    -0.269 OA
BRANCH  31  34
ATOM     34  C   UNL A   1      35.663  29.871  28.075  1.00  0.00     0.039 A 
ATOM     35  C   UNL A   1      35.881  29.381  29.366  1.00  0.00     0.014 A 
ATOM     36  C   UNL A   1      36.750  30.136  27.241  1.00  0.00     0.014 A 
ATOM     37  C   UNL A   1      37.179  29.091  29.789  1.00  0.00     0.010 A 
ATOM     38  C   UNL A   1      38.030  29.751  27.624  1.00  0.00     0.010 A 
ATOM     39  C   UNL A   1      38.261  29.232  28.904  1.00  0.00    -0.014 A 
BRANCH  39  40
ATOM     40  C   UNL A   1      39.638  28.840  29.292  1.00  0.00     0.031 A 
ATOM     41  C   UNL A   1      40.539  29.822  29.990  1.00  0.00     0.074 A 
ATOM     42  C   UNL A   1      40.104  27.625  28.939  1.00  0.00     0.049 A 
ATOM     43  N   UNL A   1      41.793  29.686  30.340  1.00  0.00    -0.248 NA
ATOM     44  C   UNL A   1      39.967  31.141  30.306  1.00  0.00     0.031 C 
ATOM     45  C   UNL A   1      39.344  26.606  28.209  1.00  0.00     0.029 A 
ATOM     46  N   UNL A   1      41.332  27.046  29.134  1.00  0.00    -0.354 N 
ATOM     47  C   UNL A   1      42.164  30.906  30.895  1.00  0.00     0.074 A 
ATOM     48  C   UNL A   1      41.022  31.785  30.783  1.00  0.00     0.031 C 
ATOM     49  C   UNL A   1      40.113  25.519  28.045  1.00  0.00     0.029 A 
ATOM     50  C   UNL A   1      41.432  25.778  28.612  1.00  0.00     0.049 A 
ATOM     51  H   UNL A   1      42.072  27.496  29.602  1.00  0.00     0.167 HD
ATOM     52  C   UNL A   1      43.342  31.256  31.466  1.00  0.00     0.031 A 
ATOM     53  C   UNL A   1      42.470  24.920  28.584  1.00  0.00     0.031 A 
ATOM     54  C   UNL A   1      44.473  30.372  31.576  1.00  0.00     0.049 A 
ATOM     55  C   UNL A   1      43.769  25.326  29.220  1.00  0.00     0.074 A 
ATOM     56  C   UNL A   1      45.690  30.604  32.191  1.00  0.00     0.029 A 
ATOM     57  N   UNL A   1      44.528  29.089  31.051  1.00  0.00    -0.354 N 
ATOM     58  N   UNL A   1      44.076  26.457  29.810  1.00  0.00    -0.248 NA
ATOM     59  C   UNL A   1      44.855  24.339  29.197  1.00  0.00     0.031 C 
ATOM     60  C   UNL A   1      46.503  29.483  31.986  1.00  0.00     0.029 A 
ATOM     61  C   UNL A   1      45.769  28.527  31.300  1.00  0.00     0.049 A 
ATOM     62  H   UNL A   1      43.793  28.644  30.571  1.00  0.00     0.167 HD
ATOM     63  C   UNL A   1      45.389  26.311  30.246  1.00  0.00     0.074 A 
ATOM     64  C   UNL A   1      45.806  24.975  29.869  1.00  0.00     0.031 C 
ATOM     65  C   UNL A   1      46.175  27.201  30.901  1.00  0.00     0.031 A 
BRANCH  52  66
ATOM     66  C   UNL A   1      43.462  32.662  31.997  1.00  0.00    -0.014 A 
ATOM     67  C   UNL A   1      44.002  33.696  31.209  1.00  0.00     0.010 A 
ATOM     68  C   UNL A   1      43.027  32.956  33.303  1.00  0.00     0.010 A 
ATOM     69  C   UNL A   1      44.163  34.979  31.738  1.00  0.00     0.020 A 
ATOM     70  C   UNL A   1      43.156  34.247  33.824  1.00  0.00     0.020 A 
ATOM     71  C   UNL A   1      43.747  35.245  33.046  1.00  0.00     0.054 A 
BRANCH  71  72
ATOM     72  S   UNL A   1      43.978  36.918  33.709  1.00  0.00     0.124 S 
ATOM     73  O   UNL A   1      42.885  37.010  34.675  1.00  0.00    -0.237 OA
ATOM     74  O   UNL A   1      45.319  36.853  34.283  1.00  0.00    -0.237 OA
ATOM     75  O   UNL A   1      43.845  37.777  32.536  1.00  0.00    -0.744 OA
ENDBRANCH  71  72
ENDBRANCH  52  66
BRANCH  53  76
ATOM     76  C   UNL A   1      42.301  23.589  27.941  1.00  0.00    -0.014 A 
ATOM     77  C   UNL A   1      42.706  23.380  26.612  1.00  0.00     0.010 A 
ATOM     78  C   UNL A   1      41.791  22.504  28.680  1.00  0.00     0.010 A 
ATOM     79  C   UNL A   1      42.608  22.112  26.033  1.00  0.00     0.020 A 
ATOM     80  C   UNL A   1      41.716  21.229  28.113  1.00  0.00     0.020 A 
ATOM     81  C   UNL A   1      42.123  21.041  26.790  1.00  0.00     0.054 A 
BRANCH  81  82
ATOM     82  S   UNL A   1      42.096  19.385  26.048  1.00  0.00     0.124 S 
ATOM     83  O   UNL A   1      40.682  19.215  25.736  1.00  0.00    -0.237 OA
ATOM     84  O   UNL A   1      42.986  19.541  24.901  1.00  0.00    -0.237 OA
ATOM     85  O   UNL A   1      42.612  18.526  27.112  1.00  0.00    -0.744 OA
ENDBRANCH  81  82
ENDBRANCH  53  76
BRANCH  65  86
ATOM     86  C   UNL A   1      47.565  26.755  31.266  1.00  0.00    -0.014 A 
ATOM     87  C   UNL A   1      47.811  26.024  32.442  1.00  0.00     0.010 A 
ATOM     88  C   UNL A   1      48.634  27.026  30.392  1.00  0.00     0.010 A 
ATOM     89  C   UNL A   1      49.106  25.599  32.752  1.00  0.00     0.020 A 
ATOM     90  C   UNL A   1      49.925  26.577  30.683  1.00  0.00     0.020 A 
ATOM     91  C   UNL A   1      50.154  25.878  31.870  1.00  0.00     0.054 A 
BRANCH  91  92
ATOM     92  S   UNL A   1      51.817  25.279  32.275  1.00  0.00     0.124 S 
ATOM     93  O   UNL A   1      52.138  26.056  33.469  1.00  0.00    -0.237 OA
ATOM     94  O   UNL A   1      51.599  23.851  32.493  1.00  0.00    -0.237 OA
ATOM     95  O   UNL A   1      52.604  25.608  31.087  1.00  0.00    -0.744 OA
ENDBRANCH  91  92
ENDBRANCH  65  86
ENDBRANCH  39  40
ENDBRANCH  31  34
ENDBRANCH  29  30
ENDBRANCH  28  29
ENDBRANCH   1  28
TORSDOF 17
ENDMDL
MODEL 3
REMARK VINA RESULT:      -9.4      1.128      8.147
REMARK SMILES COc1cccc(-c2ccc(Nc3cccc(C(=O)NCCCNC(=O)c4ccc(-c5c6nc(c(-c7ccc(S(=O)(=O)[O-])cc7)c7ccc([nH]7)c(-c7ccc(S(=O)(=O)[O-])cc7)c7nc(c(-c8ccc(S(=O)(=O)[O-])cc8)c8ccc5[nH]8)C=C7)C=C6)cc4)c3)nn2)c1
REMARK SMILES IDX 21 1 20 2 18 3 19 4 17 6 13 7 14 8 87 9 15 10 16 11 12 12
REMARK SMILES IDX 11 14 8 15 9 16 89 17 10 18 88 19 7 20 3 21 4 22 90 23 5 24
REMARK SMILES IDX 6 25 2 26 1 27 22 28 23 29 24 30 25 31 26 33 27 34 28 35
REMARK SMILES IDX 86 36 29 37 85 38 30 39 31 40 32 41 79 42 33 43 84 44 78 45
REMARK SMILES IDX 80 46 34 47 83 48 77 49 76 50 35 52 65 53 46 54 64 55 47 56
REMARK SMILES IDX 50 57 63 58 81 59 48 60 49 61 62 63 82 64 51 65 36 66 37 67
REMARK SMILES IDX 45 68 38 69 44 70 39 71 40 72 41 73 42 74 43 75 66 76 67 77
REMARK SMILES IDX 75 78 68 79 74 80 69 81 70 82 71 83 72 84 73 85 52 86 53 87
REMARK SMILES IDX 61 88 54 89 60 90 55 91 56 92 57 93 58 94 59 95
REMARK H PARENT 20 5 12 13 24 32 80 51 50 62
REMARK Flexibility Score: inf
ROOT
ATOM      1  C   UNL A   1      42.227  22.387  25.782  1.00  0.00     0.118 C 
ENDROOT
BRANCH   1   2
ATOM      2  N   UNL A   1      43.309  22.081  24.854  1.00  0.00    -0.352 N 
ATOM      3  C   UNL A   1      44.566  22.582  24.605  1.00  0.00     0.251 C 
ATOM      4  O   UNL A   1      45.214  22.020  23.718  1.00  0.00    -0.269 OA
ATOM      5  H   UNL A   1      43.086  21.330  24.258  1.00  0.00     0.163 HD
BRANCH   3   6
ATOM      6  C   UNL A   1      45.170  23.772  25.274  1.00  0.00     0.041 A 
ATOM      7  C   UNL A   1      45.654  26.171  25.413  1.00  0.00     0.040 A 
ATOM      8  C   UNL A   1      46.528  25.925  26.472  1.00  0.00     0.026 A 
ATOM      9  C   UNL A   1      44.922  25.090  24.906  1.00  0.00     0.040 A 
ATOM     10  C   UNL A   1      46.691  24.627  26.967  1.00  0.00     0.003 A 
ATOM     11  C   UNL A   1      46.039  23.555  26.350  1.00  0.00     0.014 A 
BRANCH   7  12
ATOM     12  N   UNL A   1      45.515  27.462  24.875  1.00  0.00    -0.339 N 
ATOM     13  H   UNL A   1      45.407  27.508  23.897  1.00  0.00     0.168 HD
BRANCH  12  14
ATOM     14  C   UNL A   1      45.509  28.697  25.547  1.00  0.00     0.153 A 
ATOM     15  C   UNL A   1      45.559  31.078  26.957  1.00  0.00     0.093 A 
ATOM     16  C   UNL A   1      44.455  30.246  27.065  1.00  0.00     0.035 A 
ATOM     17  N   UNL A   1      46.600  30.715  26.179  1.00  0.00    -0.148 NA
ATOM     18  C   UNL A   1      44.430  29.043  26.349  1.00  0.00     0.051 A 
ATOM     19  N   UNL A   1      46.572  29.524  25.484  1.00  0.00    -0.132 NA
BRANCH  15  20
ATOM     20  C   UNL A   1      45.655  32.403  27.582  1.00  0.00     0.006 A 
ATOM     21  C   UNL A   1      46.916  34.178  28.686  1.00  0.00     0.119 A 
ATOM     22  C   UNL A   1      45.740  34.907  28.861  1.00  0.00     0.046 A 
ATOM     23  C   UNL A   1      46.873  32.927  28.060  1.00  0.00     0.056 A 
ATOM     24  C   UNL A   1      44.531  34.422  28.374  1.00  0.00     0.005 A 
ATOM     25  C   UNL A   1      44.494  33.184  27.734  1.00  0.00     0.011 A 
BRANCH  21  26
ATOM     26  O   UNL A   1      48.037  34.755  29.219  1.00  0.00    -0.497 OA
ATOM     27  C   UNL A   1      48.566  34.123  30.380  1.00  0.00     0.278 C 
ENDBRANCH  21  26
ENDBRANCH  15  20
ENDBRANCH  12  14
ENDBRANCH   7  12
ENDBRANCH   3   6
ENDBRANCH   1   2
BRANCH   1  28
ATOM     28  C   UNL A   1      41.368  21.182  26.140  1.00  0.00     0.042 C 
BRANCH  28  29
ATOM     29  C   UNL A   1      40.125  21.541  26.941  1.00  0.00     0.118 C 
BRANCH  29  30
ATOM     30  N   UNL A   1      39.076  22.128  26.111  1.00  0.00    -0.352 N 
ATOM     31  C   UNL A   1      38.527  23.386  26.098  1.00  0.00     0.251 C 
ATOM     32  H   UNL A   1      38.696  21.512  25.443  1.00  0.00     0.163 HD
ATOM     33  O   UNL A   1      37.482  23.579  25.481  1.00  0.00    -0.269 OA
BRANCH  31  34
ATOM     34  C   UNL A   1      39.169  24.502  26.823  1.00  0.00     0.039 A 
ATOM     35  C   UNL A   1      40.025  25.361  26.128  1.00  0.00     0.014 A 
ATOM     36  C   UNL A   1      38.966  24.683  28.191  1.00  0.00     0.014 A 
ATOM     37  C   UNL A   1      40.615  26.440  26.790  1.00  0.00     0.010 A 
ATOM     38  C   UNL A   1      39.469  25.812  28.826  1.00  0.00     0.010 A 
ATOM     39  C   UNL A   1      40.305  26.700  28.135  1.00  0.00    -0.014 A 
BRANCH  39  40
ATOM     40  C   UNL A   1      40.839  27.892  28.839  1.00  0.00     0.031 A 
ATOM     41  C   UNL A   1      39.961  29.090  29.075  1.00  0.00     0.074 A 
ATOM     42  C   UNL A   1      42.140  27.926  29.187  1.00  0.00     0.049 A 
ATOM     43  N   UNL A   1      40.269  30.247  29.605  1.00  0.00    -0.248 NA
ATOM     44  C   UNL A   1      38.561  28.988  28.629  1.00  0.00     0.031 C 
ATOM     45  C   UNL A   1      43.107  26.849  28.959  1.00  0.00     0.029 A 
ATOM     46  N   UNL A   1      42.878  28.910  29.797  1.00  0.00    -0.354 N 
ATOM     47  C   UNL A   1      39.111  31.015  29.535  1.00  0.00     0.074 A 
ATOM     48  C   UNL A   1      38.114  30.213  28.861  1.00  0.00     0.031 C 
ATOM     49  C   UNL A   1      44.301  27.218  29.448  1.00  0.00     0.029 A 
ATOM     50  C   UNL A   1      44.199  28.573  29.980  1.00  0.00     0.049 A 
ATOM     51  H   UNL A   1      42.499  29.774  30.076  1.00  0.00     0.167 HD
ATOM     52  C   UNL A   1      38.891  32.265  30.007  1.00  0.00     0.031 A 
ATOM     53  C   UNL A   1      45.218  29.277  30.508  1.00  0.00     0.031 A 
ATOM     54  C   UNL A   1      39.890  33.054  30.679  1.00  0.00     0.049 A 
ATOM     55  C   UNL A   1      44.956  30.663  31.025  1.00  0.00     0.074 A 
ATOM     56  C   UNL A   1      39.755  34.306  31.252  1.00  0.00     0.029 A 
ATOM     57  N   UNL A   1      41.211  32.671  30.861  1.00  0.00    -0.354 N 
ATOM     58  N   UNL A   1      43.834  31.343  31.021  1.00  0.00    -0.248 NA
ATOM     59  C   UNL A   1      46.092  31.371  31.628  1.00  0.00     0.031 C 
ATOM     60  C   UNL A   1      41.010  34.705  31.728  1.00  0.00     0.029 A 
ATOM     61  C   UNL A   1      41.911  33.674  31.510  1.00  0.00     0.049 A 
ATOM     62  H   UNL A   1      41.594  31.812  30.571  1.00  0.00     0.167 HD
ATOM     63  C   UNL A   1      44.125  32.556  31.637  1.00  0.00     0.074 A 
ATOM     64  C   UNL A   1      45.523  32.504  32.018  1.00  0.00     0.031 C 
ATOM     65  C   UNL A   1      43.308  33.613  31.867  1.00  0.00     0.031 A 
BRANCH  52  66
ATOM     66  C   UNL A   1      37.520  32.854  29.793  1.00  0.00    -0.014 A 
ATOM     67  C   UNL A   1      37.125  33.346  28.534  1.00  0.00     0.010 A 
ATOM     68  C   UNL A   1      36.610  32.915  30.864  1.00  0.00     0.010 A 
ATOM     69  C   UNL A   1      35.874  33.945  28.368  1.00  0.00     0.020 A 
ATOM     70  C   UNL A   1      35.344  33.484  30.692  1.00  0.00     0.020 A 
ATOM     71  C   UNL A   1      34.994  34.018  29.451  1.00  0.00     0.054 A 
BRANCH  71  72
ATOM     72  S   UNL A   1      33.380  34.810  29.208  1.00  0.00     0.124 S 
ATOM     73  O   UNL A   1      33.767  36.132  28.717  1.00  0.00    -0.237 OA
ATOM     74  O   UNL A   1      32.739  33.940  28.226  1.00  0.00    -0.237 OA
ATOM     75  O   UNL A   1      32.781  34.792  30.540  1.00  0.00    -0.744 OA
ENDBRANCH  71  72
ENDBRANCH  52  66
BRANCH  53  76
ATOM     76  C   UNL A   1      46.570  28.661  30.584  1.00  0.00    -0.014 A 
ATOM     77  C   UNL A   1      47.479  28.799  29.521  1.00  0.00     0.010 A 
ATOM     78  C   UNL A   1      46.979  27.987  31.750  1.00  0.00     0.010 A 
ATOM     79  C   UNL A   1      48.771  28.276  29.622  1.00  0.00     0.020 A 
ATOM     80  C   UNL A   1      48.278  27.486  31.865  1.00  0.00     0.020 A 
ATOM     81  C   UNL A   1      49.167  27.632  30.798  1.00  0.00     0.054 A 
BRANCH  81  82
ATOM     82  S   UNL A   1      50.879  27.048  30.943  1.00  0.00     0.124 S 
ATOM     83  O   UNL A   1      50.831  25.782  30.221  1.00  0.00    -0.237 OA
ATOM     84  O   UNL A   1      51.632  28.120  30.297  1.00  0.00    -0.237 OA
ATOM     85  O   UNL A   1      51.082  26.941  32.387  1.00  0.00    -0.744 OA
ENDBRANCH  81  82
ENDBRANCH  53  76
BRANCH  65  86
ATOM     86  C   UNL A   1      43.901  34.800  32.578  1.00  0.00    -0.014 A 
ATOM     87  C   UNL A   1      44.416  35.896  31.864  1.00  0.00     0.010 A 
ATOM     88  C   UNL A   1      43.893  34.842  33.985  1.00  0.00     0.010 A 
ATOM     89  C   UNL A   1      44.942  36.998  32.544  1.00  0.00     0.020 A 
ATOM     90  C   UNL A   1      44.390  35.954  34.668  1.00  0.00     0.020 A 
ATOM     91  C   UNL A   1      44.925  37.021  33.941  1.00  0.00     0.054 A 
BRANCH  91  92
ATOM     92  S   UNL A   1      45.575  38.481  34.798  1.00  0.00     0.124 S 
ATOM     93  O   UNL A   1      45.067  38.287  36.154  1.00  0.00    -0.237 OA
ATOM     94  O   UNL A   1      47.019  38.329  34.639  1.00  0.00    -0.237 OA
ATOM     95  O   UNL A   1      44.988  39.602  34.068  1.00  0.00    -0.744 OA
ENDBRANCH  91  92
ENDBRANCH  65  86
ENDBRANCH  39  40
ENDBRANCH  31  34
ENDBRANCH  29  30
ENDBRANCH  28  29
ENDBRANCH   1  28
TORSDOF 17
ENDMDL
