MODEL 1
REMARK VINA RESULT:     -12.5      0.000      0.000
REMARK SMILES Cc1sc(NC(=O)[C@@H]2[C@@H](C(=O)NCCCNC(=O)c3ccc(-c4c5nc(c(-c6ccc(S(=O)(=O)[O-])cc6)c6ccc([nH]6)c(-c6ccc(S(=O)(=O)[O-])cc6)c6nc(c(-c7ccc(S(=O)(=O)[O-])cc7)c7ccc4[nH]7)C=C6)C=C5)cc3)[C@@H]3C=C[C@H]2C3)c(C#N)c1C
REMARK SMILES IDX 14 1 13 2 12 3 10 4 11 5 9 7 8 8 82 9 79 10 81 11 83 12
REMARK SMILES IDX 80 13 6 14 5 15 7 17 4 18 1 19 2 20 3 21 87 22 84 23 88 24
REMARK SMILES IDX 85 25 86 26 15 27 16 28 17 29 18 31 19 32 20 33 78 34 21 35
REMARK SMILES IDX 77 36 22 37 23 38 24 39 71 40 25 41 76 42 70 43 72 44 26 45
REMARK SMILES IDX 75 46 69 47 68 48 27 50 57 51 38 52 56 53 39 54 42 55 55 56
REMARK SMILES IDX 73 57 40 58 41 59 54 61 74 62 43 63 28 64 29 65 37 66 30 67
REMARK SMILES IDX 36 68 31 69 32 70 33 71 34 72 35 73 58 74 59 75 67 76 60 77
REMARK SMILES IDX 66 78 61 79 62 80 63 81 64 82 65 83 44 84 45 85 53 86 46 87
REMARK SMILES IDX 52 88 47 89 48 90 49 91 50 92 51 93
REMARK H PARENT 12 6 5 16 16 30 72 49 42 60
REMARK Flexibility Score: inf
ROOT
ATOM      1  C   UNL A   1      38.180  22.434  25.517  1.00  0.00     0.042 C 
ENDROOT
BRANCH   1   2
ATOM      2  C   UNL A   1      37.006  23.395  25.704  1.00  0.00     0.117 C 
BRANCH   2   3
ATOM      3  N   UNL A   1      36.039  22.922  26.674  1.00  0.00    -0.356 N 
ATOM      4  C   UNL A   1      34.697  22.768  26.668  1.00  0.00     0.224 C 
ATOM      5  O   UNL A   1      34.225  22.226  27.676  1.00  0.00    -0.275 OA
ATOM      6  H   UNL A   1      36.452  22.653  27.526  1.00  0.00     0.163 HD
BRANCH   4   7
ATOM      7  C   UNL A   1      33.745  23.191  25.548  1.00  0.00     0.098 C 
ATOM      8  C   UNL A   1      32.283  22.952  26.050  1.00  0.00     0.099 C 
ATOM      9  C   UNL A   1      31.682  22.143  24.844  1.00  0.00     0.025 C 
ATOM     10  C   UNL A   1      33.778  22.478  24.186  1.00  0.00     0.025 C 
ATOM     11  C   UNL A   1      31.622  23.051  23.636  1.00  0.00    -0.027 C 
ATOM     12  C   UNL A   1      32.867  21.277  24.432  1.00  0.00     0.017 C 
ATOM     13  C   UNL A   1      32.886  23.263  23.244  1.00  0.00    -0.027 C 
BRANCH   8  14
ATOM     14  C   UNL A   1      31.202  23.939  26.502  1.00  0.00     0.229 C 
ATOM     15  N   UNL A   1      30.892  25.210  26.194  1.00  0.00    -0.316 N 
ATOM     16  H   UNL A   1      30.113  25.506  26.719  1.00  0.00     0.170 HD
ATOM     17  O   UNL A   1      30.416  23.489  27.368  1.00  0.00    -0.274 OA
BRANCH  15  18
ATOM     18  C   UNL A   1      31.322  26.230  25.374  1.00  0.00     0.113 A 
ATOM     19  C   UNL A   1      33.882  28.522  23.523  1.00  0.00     0.057 C 
ATOM     20  C   UNL A   1      32.677  27.822  24.058  1.00  0.00     0.008 A 
ATOM     21  S   UNL A   1      32.855  26.891  25.466  1.00  0.00    -0.122 S 
ATOM     22  C   UNL A   1      31.362  27.831  23.631  1.00  0.00    -0.017 A 
ATOM     23  C   UNL A   1      30.577  26.893  24.407  1.00  0.00     0.090 A 
ATOM     24  C   UNL A   1      30.818  28.670  22.519  1.00  0.00     0.047 C 
BRANCH  23  25
ATOM     25  C   UNL A   1      29.188  26.637  24.177  1.00  0.00     0.103 C 
ATOM     26  N   UNL A   1      28.047  26.444  24.006  1.00  0.00    -0.192 NA
ENDBRANCH  23  25
ENDBRANCH  15  18
ENDBRANCH   8  14
ENDBRANCH   4   7
ENDBRANCH   2   3
ENDBRANCH   1   2
BRANCH   1  27
ATOM     27  C   UNL A   1      39.276  22.713  26.531  1.00  0.00     0.118 C 
BRANCH  27  28
ATOM     28  N   UNL A   1      40.562  22.137  26.106  1.00  0.00    -0.352 N 
ATOM     29  C   UNL A   1      41.763  22.767  25.853  1.00  0.00     0.251 C 
ATOM     30  H   UNL A   1      40.566  21.161  25.986  1.00  0.00     0.163 HD
ATOM     31  O   UNL A   1      42.649  22.197  25.226  1.00  0.00    -0.269 OA
BRANCH  29  32
ATOM     32  C   UNL A   1      41.953  24.135  26.354  1.00  0.00     0.039 A 
ATOM     33  C   UNL A   1      41.486  25.250  25.653  1.00  0.00     0.014 A 
ATOM     34  C   UNL A   1      42.555  24.270  27.600  1.00  0.00     0.014 A 
ATOM     35  C   UNL A   1      41.548  26.497  26.271  1.00  0.00     0.010 A 
ATOM     36  C   UNL A   1      42.421  25.446  28.279  1.00  0.00     0.010 A 
ATOM     37  C   UNL A   1      41.996  26.578  27.597  1.00  0.00    -0.014 A 
BRANCH  37  38
ATOM     38  C   UNL A   1      41.900  27.809  28.372  1.00  0.00     0.031 A 
ATOM     39  C   UNL A   1      43.015  28.756  28.109  1.00  0.00     0.074 A 
ATOM     40  C   UNL A   1      40.766  28.153  29.025  1.00  0.00     0.049 A 
ATOM     41  N   UNL A   1      44.007  29.044  28.886  1.00  0.00    -0.248 NA
ATOM     42  C   UNL A   1      43.164  29.291  26.742  1.00  0.00     0.031 C 
ATOM     43  C   UNL A   1      39.489  27.421  29.059  1.00  0.00     0.029 A 
ATOM     44  N   UNL A   1      40.458  29.297  29.689  1.00  0.00    -0.354 N 
ATOM     45  C   UNL A   1      44.735  30.018  28.211  1.00  0.00     0.074 A 
ATOM     46  C   UNL A   1      44.337  29.922  26.831  1.00  0.00     0.031 C 
ATOM     47  C   UNL A   1      38.500  28.241  29.481  1.00  0.00     0.029 A 
ATOM     48  C   UNL A   1      39.095  29.487  29.923  1.00  0.00     0.049 A 
ATOM     49  H   UNL A   1      41.142  29.941  29.980  1.00  0.00     0.167 HD
ATOM     50  C   UNL A   1      45.332  31.041  28.887  1.00  0.00     0.031 A 
ATOM     51  C   UNL A   1      38.501  30.596  30.432  1.00  0.00     0.031 A 
ATOM     52  C   UNL A   1      45.352  30.775  30.306  1.00  0.00     0.049 A 
ATOM     53  C   UNL A   1      39.563  31.354  31.133  1.00  0.00     0.074 A 
ATOM     54  C   UNL A   1      45.902  29.809  31.123  1.00  0.00     0.029 A 
ATOM     55  N   UNL A   1      44.348  31.376  31.029  1.00  0.00    -0.354 N 
ATOM     56  N   UNL A   1      40.187  30.903  32.183  1.00  0.00    -0.248 NA
ATOM     57  C   UNL A   1      40.246  32.413  30.408  1.00  0.00     0.031 C 
ATOM     58  C   UNL A   1      44.937  29.598  32.153  1.00  0.00     0.029 A 
ATOM     59  C   UNL A   1      43.885  30.499  31.972  1.00  0.00     0.049 A 
ATOM     60  H   UNL A   1      44.015  32.292  30.890  1.00  0.00     0.167 HD
ATOM     61  C   UNL A   1      41.508  31.283  31.998  1.00  0.00     0.074 A 
ATOM     62  C   UNL A   1      41.456  32.318  30.966  1.00  0.00     0.031 C 
ATOM     63  C   UNL A   1      42.529  30.515  32.486  1.00  0.00     0.031 A 
BRANCH  50  64
ATOM     64  C   UNL A   1      45.419  32.461  28.358  1.00  0.00    -0.014 A 
ATOM     65  C   UNL A   1      46.590  33.204  28.623  1.00  0.00     0.010 A 
ATOM     66  C   UNL A   1      44.309  33.187  27.877  1.00  0.00     0.010 A 
ATOM     67  C   UNL A   1      46.614  34.601  28.503  1.00  0.00     0.020 A 
ATOM     68  C   UNL A   1      44.334  34.573  27.714  1.00  0.00     0.020 A 
ATOM     69  C   UNL A   1      45.477  35.276  28.062  1.00  0.00     0.054 A 
BRANCH  69  70
ATOM     70  S   UNL A   1      45.480  37.084  28.004  1.00  0.00     0.124 S 
ATOM     71  O   UNL A   1      44.213  37.364  27.335  1.00  0.00    -0.237 OA
ATOM     72  O   UNL A   1      45.545  37.436  29.420  1.00  0.00    -0.237 OA
ATOM     73  O   UNL A   1      46.681  37.398  27.232  1.00  0.00    -0.744 OA
ENDBRANCH  69  70
ENDBRANCH  50  64
BRANCH  51  74
ATOM     74  C   UNL A   1      37.174  31.193  30.126  1.00  0.00    -0.014 A 
ATOM     75  C   UNL A   1      36.467  31.925  31.101  1.00  0.00     0.010 A 
ATOM     76  C   UNL A   1      36.747  31.309  28.788  1.00  0.00     0.010 A 
ATOM     77  C   UNL A   1      35.425  32.800  30.741  1.00  0.00     0.020 A 
ATOM     78  C   UNL A   1      35.707  32.177  28.422  1.00  0.00     0.020 A 
ATOM     79  C   UNL A   1      35.068  32.940  29.398  1.00  0.00     0.054 A 
BRANCH  79  80
ATOM     80  S   UNL A   1      33.862  34.217  28.918  1.00  0.00     0.124 S 
ATOM     81  O   UNL A   1      34.714  35.246  28.331  1.00  0.00    -0.237 OA
ATOM     82  O   UNL A   1      32.996  33.504  27.983  1.00  0.00    -0.237 OA
ATOM     83  O   UNL A   1      33.228  34.584  30.184  1.00  0.00    -0.744 OA
ENDBRANCH  79  80
ENDBRANCH  51  74
BRANCH  63  84
ATOM     84  C   UNL A   1      42.193  29.471  33.528  1.00  0.00    -0.014 A 
ATOM     85  C   UNL A   1      41.702  28.181  33.240  1.00  0.00     0.010 A 
ATOM     86  C   UNL A   1      42.516  29.782  34.859  1.00  0.00     0.010 A 
ATOM     87  C   UNL A   1      41.518  27.240  34.268  1.00  0.00     0.020 A 
ATOM     88  C   UNL A   1      42.354  28.846  35.881  1.00  0.00     0.020 A 
ATOM     89  C   UNL A   1      41.845  27.582  35.584  1.00  0.00     0.054 A 
BRANCH  89  90
ATOM     90  S   UNL A   1      41.640  26.359  36.911  1.00  0.00     0.124 S 
ATOM     91  O   UNL A   1      40.380  26.765  37.526  1.00  0.00    -0.237 OA
ATOM     92  O   UNL A   1      41.607  25.092  36.184  1.00  0.00    -0.237 OA
ATOM     93  O   UNL A   1      42.825  26.551  37.747  1.00  0.00    -0.744 OA
ENDBRANCH  89  90
ENDBRANCH  63  84
ENDBRANCH  37  38
ENDBRANCH  29  32
ENDBRANCH  27  28
ENDBRANCH   1  27
TORSDOF 16
ENDMDL
MODEL 2
REMARK VINA RESULT:     -12.4      2.915      9.187
REMARK SMILES Cc1sc(NC(=O)[C@@H]2[C@@H](C(=O)NCCCNC(=O)c3ccc(-c4c5nc(c(-c6ccc(S(=O)(=O)[O-])cc6)c6ccc([nH]6)c(-c6ccc(S(=O)(=O)[O-])cc6)c6nc(c(-c7ccc(S(=O)(=O)[O-])cc7)c7ccc4[nH]7)C=C6)C=C5)cc3)[C@@H]3C=C[C@H]2C3)c(C#N)c1C
REMARK SMILES IDX 14 1 13 2 12 3 10 4 11 5 9 7 8 8 82 9 79 10 81 11 83 12
REMARK SMILES IDX 80 13 6 14 5 15 7 17 4 18 1 19 2 20 3 21 87 22 84 23 88 24
REMARK SMILES IDX 85 25 86 26 15 27 16 28 17 29 18 31 19 32 20 33 78 34 21 35
REMARK SMILES IDX 77 36 22 37 23 38 24 39 71 40 25 41 76 42 70 43 72 44 26 45
REMARK SMILES IDX 75 46 69 47 68 48 27 50 57 51 38 52 56 53 39 54 42 55 55 56
REMARK SMILES IDX 73 57 40 58 41 59 54 61 74 62 43 63 28 64 29 65 37 66 30 67
REMARK SMILES IDX 36 68 31 69 32 70 33 71 34 72 35 73 58 74 59 75 67 76 60 77
REMARK SMILES IDX 66 78 61 79 62 80 63 81 64 82 65 83 44 84 45 85 53 86 46 87
REMARK SMILES IDX 52 88 47 89 48 90 49 91 50 92 51 93
REMARK H PARENT 12 6 5 16 16 30 72 49 42 60
REMARK Flexibility Score: inf
ROOT
ATOM      1  C   UNL A   1      32.207  29.568  27.055  1.00  0.00     0.042 C 
ENDROOT
BRANCH   1   2
ATOM      2  C   UNL A   1      31.887  30.072  25.647  1.00  0.00     0.117 C 
BRANCH   2   3
ATOM      3  N   UNL A   1      32.902  29.716  24.676  1.00  0.00    -0.356 N 
ATOM      4  C   UNL A   1      33.155  28.614  23.938  1.00  0.00     0.224 C 
ATOM      5  O   UNL A   1      34.080  28.727  23.124  1.00  0.00    -0.275 OA
ATOM      6  H   UNL A   1      33.551  30.440  24.519  1.00  0.00     0.163 HD
BRANCH   4   7
ATOM      7  C   UNL A   1      32.408  27.281  24.022  1.00  0.00     0.098 C 
ATOM      8  C   UNL A   1      32.279  26.716  22.569  1.00  0.00     0.099 C 
ATOM      9  C   UNL A   1      30.742  26.387  22.513  1.00  0.00     0.025 C 
ATOM     10  C   UNL A   1      30.968  27.226  24.559  1.00  0.00     0.025 C 
ATOM     11  C   UNL A   1      30.456  25.261  23.483  1.00  0.00    -0.027 C 
ATOM     12  C   UNL A   1      30.150  27.544  23.310  1.00  0.00     0.017 C 
ATOM     13  C   UNL A   1      30.602  25.763  24.717  1.00  0.00    -0.027 C 
BRANCH   8  14
ATOM     14  C   UNL A   1      33.003  25.561  21.872  1.00  0.00     0.229 C 
ATOM     15  N   UNL A   1      33.524  24.389  22.275  1.00  0.00    -0.316 N 
ATOM     16  H   UNL A   1      33.926  23.916  21.510  1.00  0.00     0.170 HD
ATOM     17  O   UNL A   1      33.175  25.722  20.641  1.00  0.00    -0.274 OA
BRANCH  15  18
ATOM     18  C   UNL A   1      33.672  23.641  23.422  1.00  0.00     0.113 A 
ATOM     19  C   UNL A   1      34.471  22.930  27.175  1.00  0.00     0.057 C 
ATOM     20  C   UNL A   1      34.079  22.879  25.736  1.00  0.00     0.008 A 
ATOM     21  S   UNL A   1      34.597  24.137  24.723  1.00  0.00    -0.122 S 
ATOM     22  C   UNL A   1      33.382  21.921  25.022  1.00  0.00    -0.017 A 
ATOM     23  C   UNL A   1      33.146  22.379  23.668  1.00  0.00     0.090 A 
ATOM     24  C   UNL A   1      32.916  20.607  25.562  1.00  0.00     0.047 C 
BRANCH  23  25
ATOM     25  C   UNL A   1      32.410  21.634  22.694  1.00  0.00     0.103 C 
ATOM     26  N   UNL A   1      31.790  21.021  21.913  1.00  0.00    -0.192 NA
ENDBRANCH  23  25
ENDBRANCH  15  18
ENDBRANCH   8  14
ENDBRANCH   4   7
ENDBRANCH   2   3
ENDBRANCH   1   2
BRANCH   1  27
ATOM     27  C   UNL A   1      33.672  29.794  27.390  1.00  0.00     0.118 C 
BRANCH  27  28
ATOM     28  N   UNL A   1      34.053  31.204  27.215  1.00  0.00    -0.352 N 
ATOM     29  C   UNL A   1      35.158  31.879  27.694  1.00  0.00     0.251 C 
ATOM     30  H   UNL A   1      33.431  31.745  26.678  1.00  0.00     0.163 HD
ATOM     31  O   UNL A   1      35.182  33.104  27.715  1.00  0.00    -0.269 OA
BRANCH  29  32
ATOM     32  C   UNL A   1      36.302  31.092  28.175  1.00  0.00     0.039 A 
ATOM     33  C   UNL A   1      36.561  29.802  27.705  1.00  0.00     0.014 A 
ATOM     34  C   UNL A   1      37.165  31.720  29.066  1.00  0.00     0.014 A 
ATOM     35  C   UNL A   1      37.756  29.188  28.074  1.00  0.00     0.010 A 
ATOM     36  C   UNL A   1      38.416  31.208  29.252  1.00  0.00     0.010 A 
ATOM     37  C   UNL A   1      38.689  29.914  28.830  1.00  0.00    -0.014 A 
BRANCH  37  38
ATOM     38  C   UNL A   1      40.035  29.415  29.082  1.00  0.00     0.031 A 
ATOM     39  C   UNL A   1      40.328  29.224  30.528  1.00  0.00     0.074 A 
ATOM     40  C   UNL A   1      40.805  28.912  28.091  1.00  0.00     0.049 A 
ATOM     41  N   UNL A   1      41.093  29.944  31.280  1.00  0.00    -0.248 NA
ATOM     42  C   UNL A   1      39.516  28.246  31.277  1.00  0.00     0.031 C 
ATOM     43  C   UNL A   1      40.456  28.755  26.669  1.00  0.00     0.029 A 
ATOM     44  N   UNL A   1      42.018  28.305  28.156  1.00  0.00    -0.354 N 
ATOM     45  C   UNL A   1      41.079  29.322  32.524  1.00  0.00     0.074 A 
ATOM     46  C   UNL A   1      39.913  28.479  32.530  1.00  0.00     0.031 C 
ATOM     47  C   UNL A   1      41.307  27.887  26.079  1.00  0.00     0.029 A 
ATOM     48  C   UNL A   1      42.367  27.574  27.019  1.00  0.00     0.049 A 
ATOM     49  H   UNL A   1      42.605  28.373  28.943  1.00  0.00     0.167 HD
ATOM     50  C   UNL A   1      42.201  29.280  33.299  1.00  0.00     0.031 A 
ATOM     51  C   UNL A   1      43.444  26.761  26.868  1.00  0.00     0.031 A 
ATOM     52  C   UNL A   1      43.204  30.191  32.799  1.00  0.00     0.049 A 
ATOM     53  C   UNL A   1      44.415  27.159  27.912  1.00  0.00     0.074 A 
ATOM     54  C   UNL A   1      43.293  31.552  32.603  1.00  0.00     0.029 A 
ATOM     55  N   UNL A   1      44.176  29.616  32.013  1.00  0.00    -0.354 N 
ATOM     56  N   UNL A   1      44.990  28.327  27.945  1.00  0.00    -0.248 NA
ATOM     57  C   UNL A   1      44.412  26.430  29.170  1.00  0.00     0.031 C 
ATOM     58  C   UNL A   1      44.046  31.708  31.401  1.00  0.00     0.029 A 
ATOM     59  C   UNL A   1      44.455  30.447  30.962  1.00  0.00     0.049 A 
ATOM     60  H   UNL A   1      44.603  28.745  32.180  1.00  0.00     0.167 HD
ATOM     61  C   UNL A   1      45.012  28.671  29.288  1.00  0.00     0.074 A 
ATOM     62  C   UNL A   1      44.770  27.415  29.998  1.00  0.00     0.031 C 
ATOM     63  C   UNL A   1      44.931  29.980  29.674  1.00  0.00     0.031 A 
BRANCH  50  64
ATOM     64  C   UNL A   1      42.587  28.089  34.158  1.00  0.00    -0.014 A 
ATOM     65  C   UNL A   1      42.735  28.285  35.548  1.00  0.00     0.010 A 
ATOM     66  C   UNL A   1      43.088  26.878  33.636  1.00  0.00     0.010 A 
ATOM     67  C   UNL A   1      43.428  27.366  36.348  1.00  0.00     0.020 A 
ATOM     68  C   UNL A   1      43.744  25.935  34.430  1.00  0.00     0.020 A 
ATOM     69  C   UNL A   1      43.941  26.202  35.777  1.00  0.00     0.054 A 
BRANCH  69  70
ATOM     70  S   UNL A   1      44.919  25.068  36.790  1.00  0.00     0.124 S 
ATOM     71  O   UNL A   1      46.282  25.485  36.475  1.00  0.00    -0.237 OA
ATOM     72  O   UNL A   1      44.453  25.380  38.138  1.00  0.00    -0.237 OA
ATOM     73  O   UNL A   1      44.536  23.749  36.292  1.00  0.00    -0.744 OA
ENDBRANCH  69  70
ENDBRANCH  50  64
BRANCH  51  74
ATOM     74  C   UNL A   1      43.585  25.499  26.095  1.00  0.00    -0.014 A 
ATOM     75  C   UNL A   1      44.779  25.200  25.408  1.00  0.00     0.010 A 
ATOM     76  C   UNL A   1      42.666  24.449  26.290  1.00  0.00     0.010 A 
ATOM     77  C   UNL A   1      45.076  23.886  25.001  1.00  0.00     0.020 A 
ATOM     78  C   UNL A   1      42.954  23.137  25.884  1.00  0.00     0.020 A 
ATOM     79  C   UNL A   1      44.171  22.856  25.266  1.00  0.00     0.054 A 
BRANCH  79  80
ATOM     80  S   UNL A   1      44.646  21.133  24.920  1.00  0.00     0.124 S 
ATOM     81  O   UNL A   1      44.545  21.067  23.465  1.00  0.00    -0.237 OA
ATOM     82  O   UNL A   1      46.001  21.060  25.462  1.00  0.00    -0.237 OA
ATOM     83  O   UNL A   1      43.650  20.348  25.648  1.00  0.00    -0.744 OA
ENDBRANCH  79  80
ENDBRANCH  51  74
BRANCH  63  84
ATOM     84  C   UNL A   1      45.190  31.043  28.628  1.00  0.00    -0.014 A 
ATOM     85  C   UNL A   1      44.206  31.586  27.777  1.00  0.00     0.010 A 
ATOM     86  C   UNL A   1      46.477  31.603  28.604  1.00  0.00     0.010 A 
ATOM     87  C   UNL A   1      44.517  32.646  26.908  1.00  0.00     0.020 A 
ATOM     88  C   UNL A   1      46.788  32.668  27.758  1.00  0.00     0.020 A 
ATOM     89  C   UNL A   1      45.810  33.179  26.904  1.00  0.00     0.054 A 
BRANCH  89  90
ATOM     90  S   UNL A   1      46.209  34.570  25.807  1.00  0.00     0.124 S 
ATOM     91  O   UNL A   1      45.912  35.729  26.642  1.00  0.00    -0.237 OA
ATOM     92  O   UNL A   1      47.623  34.353  25.508  1.00  0.00    -0.237 OA
ATOM     93  O   UNL A   1      45.309  34.382  24.668  1.00  0.00    -0.744 OA
ENDBRANCH  89  90
ENDBRANCH  63  84
ENDBRANCH  37  38
ENDBRANCH  29  32
ENDBRANCH  27  28
ENDBRANCH   1  27
TORSDOF 16
ENDMDL
MODEL 3
REMARK VINA RESULT:     -12.4      3.027      8.522
REMARK SMILES Cc1sc(NC(=O)[C@@H]2[C@@H](C(=O)NCCCNC(=O)c3ccc(-c4c5nc(c(-c6ccc(S(=O)(=O)[O-])cc6)c6ccc([nH]6)c(-c6ccc(S(=O)(=O)[O-])cc6)c6nc(c(-c7ccc(S(=O)(=O)[O-])cc7)c7ccc4[nH]7)C=C6)C=C5)cc3)[C@@H]3C=C[C@H]2C3)c(C#N)c1C
REMARK SMILES IDX 14 1 13 2 12 3 10 4 11 5 9 7 8 8 82 9 79 10 81 11 83 12
REMARK SMILES IDX 80 13 6 14 5 15 7 17 4 18 1 19 2 20 3 21 87 22 84 23 88 24
REMARK SMILES IDX 85 25 86 26 15 27 16 28 17 29 18 31 19 32 20 33 78 34 21 35
REMARK SMILES IDX 77 36 22 37 23 38 24 39 71 40 25 41 76 42 70 43 72 44 26 45
REMARK SMILES IDX 75 46 69 47 68 48 27 50 57 51 38 52 56 53 39 54 42 55 55 56
REMARK SMILES IDX 73 57 40 58 41 59 54 61 74 62 43 63 28 64 29 65 37 66 30 67
REMARK SMILES IDX 36 68 31 69 32 70 33 71 34 72 35 73 58 74 59 75 67 76 60 77
REMARK SMILES IDX 66 78 61 79 62 80 63 81 64 82 65 83 44 84 45 85 53 86 46 87
REMARK SMILES IDX 52 88 47 89 48 90 49 91 50 92 51 93
REMARK H PARENT 12 6 5 16 16 30 72 49 42 60
REMARK Flexibility Score: inf
ROOT
ATOM      1  C   UNL A   1      31.625  31.992  26.664  1.00  0.00     0.042 C 
ENDROOT
BRANCH   1   2
ATOM      2  C   UNL A   1      31.748  30.469  26.696  1.00  0.00     0.117 C 
BRANCH   2   3
ATOM      3  N   UNL A   1      32.147  29.908  25.420  1.00  0.00    -0.356 N 
ATOM      4  C   UNL A   1      31.486  29.563  24.295  1.00  0.00     0.224 C 
ATOM      5  O   UNL A   1      32.203  29.201  23.353  1.00  0.00    -0.275 OA
ATOM      6  H   UNL A   1      33.116  29.744  25.361  1.00  0.00     0.163 HD
BRANCH   4   7
ATOM      7  C   UNL A   1      29.969  29.588  24.095  1.00  0.00     0.098 C 
ATOM      8  C   UNL A   1      29.575  28.309  23.286  1.00  0.00     0.099 C 
ATOM      9  C   UNL A   1      28.692  28.938  22.147  1.00  0.00     0.025 C 
ATOM     10  C   UNL A   1      29.305  30.731  23.309  1.00  0.00     0.025 C 
ATOM     11  C   UNL A   1      27.436  29.508  22.769  1.00  0.00    -0.027 C 
ATOM     12  C   UNL A   1      29.432  30.241  21.868  1.00  0.00     0.017 C 
ATOM     13  C   UNL A   1      27.806  30.583  23.479  1.00  0.00    -0.027 C 
BRANCH   8  14
ATOM     14  C   UNL A   1      28.875  27.019  23.724  1.00  0.00     0.229 C 
ATOM     15  N   UNL A   1      29.291  25.794  24.091  1.00  0.00    -0.316 N 
ATOM     16  H   UNL A   1      28.516  25.221  24.295  1.00  0.00     0.170 HD
ATOM     17  O   UNL A   1      27.624  27.087  23.746  1.00  0.00    -0.274 OA
BRANCH  15  18
ATOM     18  C   UNL A   1      30.460  25.088  24.271  1.00  0.00     0.113 A 
ATOM     19  C   UNL A   1      33.392  22.688  23.339  1.00  0.00     0.057 C 
ATOM     20  C   UNL A   1      32.446  23.649  23.977  1.00  0.00     0.008 A 
ATOM     21  S   UNL A   1      30.873  23.757  23.348  1.00  0.00    -0.122 S 
ATOM     22  C   UNL A   1      32.598  24.474  25.076  1.00  0.00    -0.017 A 
ATOM     23  C   UNL A   1      31.430  25.315  25.238  1.00  0.00     0.090 A 
ATOM     24  C   UNL A   1      33.799  24.515  25.967  1.00  0.00     0.047 C 
BRANCH  23  25
ATOM     25  C   UNL A   1      31.302  26.310  26.258  1.00  0.00     0.103 C 
ATOM     26  N   UNL A   1      31.176  27.130  27.082  1.00  0.00    -0.192 NA
ENDBRANCH  23  25
ENDBRANCH  15  18
ENDBRANCH   8  14
ENDBRANCH   4   7
ENDBRANCH   2   3
ENDBRANCH   1   2
BRANCH   1  27
ATOM     27  C   UNL A   1      32.856  32.648  27.266  1.00  0.00     0.118 C 
BRANCH  27  28
ATOM     28  N   UNL A   1      32.541  33.971  27.827  1.00  0.00    -0.352 N 
ATOM     29  C   UNL A   1      33.137  34.642  28.876  1.00  0.00     0.251 C 
ATOM     30  H   UNL A   1      31.799  34.447  27.392  1.00  0.00     0.163 HD
ATOM     31  O   UNL A   1      32.576  35.592  29.410  1.00  0.00    -0.269 OA
BRANCH  29  32
ATOM     32  C   UNL A   1      34.459  34.191  29.333  1.00  0.00     0.039 A 
ATOM     33  C   UNL A   1      34.617  33.412  30.482  1.00  0.00     0.014 A 
ATOM     34  C   UNL A   1      35.545  34.509  28.525  1.00  0.00     0.014 A 
ATOM     35  C   UNL A   1      35.874  32.878  30.755  1.00  0.00     0.010 A 
ATOM     36  C   UNL A   1      36.712  33.818  28.678  1.00  0.00     0.010 A 
ATOM     37  C   UNL A   1      36.910  33.069  29.830  1.00  0.00    -0.014 A 
BRANCH  37  38
ATOM     38  C   UNL A   1      38.188  32.377  29.946  1.00  0.00     0.031 A 
ATOM     39  C   UNL A   1      38.125  30.954  29.519  1.00  0.00     0.074 A 
ATOM     40  C   UNL A   1      39.346  33.048  30.140  1.00  0.00     0.049 A 
ATOM     41  N   UNL A   1      38.162  29.902  30.269  1.00  0.00    -0.248 NA
ATOM     42  C   UNL A   1      37.771  30.665  28.116  1.00  0.00     0.031 C 
ATOM     43  C   UNL A   1      39.537  34.505  30.240  1.00  0.00     0.029 A 
ATOM     44  N   UNL A   1      40.624  32.590  30.155  1.00  0.00    -0.354 N 
ATOM     45  C   UNL A   1      38.130  28.822  29.392  1.00  0.00     0.074 A 
ATOM     46  C   UNL A   1      37.624  29.339  28.148  1.00  0.00     0.031 C 
ATOM     47  C   UNL A   1      40.840  34.812  30.051  1.00  0.00     0.029 A 
ATOM     48  C   UNL A   1      41.600  33.577  30.006  1.00  0.00     0.049 A 
ATOM     49  H   UNL A   1      40.845  31.637  30.262  1.00  0.00     0.167 HD
ATOM     50  C   UNL A   1      38.845  27.689  29.651  1.00  0.00     0.031 A 
ATOM     51  C   UNL A   1      42.935  33.389  29.845  1.00  0.00     0.031 A 
ATOM     52  C   UNL A   1      39.320  27.683  31.015  1.00  0.00     0.049 A 
ATOM     53  C   UNL A   1      43.225  32.022  30.334  1.00  0.00     0.074 A 
ATOM     54  C   UNL A   1      38.738  27.697  32.264  1.00  0.00     0.029 A 
ATOM     55  N   UNL A   1      40.622  28.096  31.183  1.00  0.00    -0.354 N 
ATOM     56  N   UNL A   1      43.073  31.661  31.576  1.00  0.00    -0.248 NA
ATOM     57  C   UNL A   1      43.254  30.936  29.368  1.00  0.00     0.031 C 
ATOM     58  C   UNL A   1      39.597  28.505  33.068  1.00  0.00     0.029 A 
ATOM     59  C   UNL A   1      40.705  28.877  32.303  1.00  0.00     0.049 A 
ATOM     60  H   UNL A   1      41.374  27.866  30.591  1.00  0.00     0.167 HD
ATOM     61  C   UNL A   1      42.540  30.382  31.508  1.00  0.00     0.074 A 
ATOM     62  C   UNL A   1      42.803  29.942  30.138  1.00  0.00     0.031 C 
ATOM     63  C   UNL A   1      41.688  29.930  32.476  1.00  0.00     0.031 A 
BRANCH  50  64
ATOM     64  C   UNL A   1      39.539  26.869  28.579  1.00  0.00    -0.014 A 
ATOM     65  C   UNL A   1      39.289  25.481  28.531  1.00  0.00     0.010 A 
ATOM     66  C   UNL A   1      40.630  27.339  27.817  1.00  0.00     0.010 A 
ATOM     67  C   UNL A   1      40.139  24.606  27.838  1.00  0.00     0.020 A 
ATOM     68  C   UNL A   1      41.460  26.483  27.090  1.00  0.00     0.020 A 
ATOM     69  C   UNL A   1      41.229  25.116  27.134  1.00  0.00     0.054 A 
BRANCH  69  70
ATOM     70  S   UNL A   1      42.380  23.979  26.326  1.00  0.00     0.124 S 
ATOM     71  O   UNL A   1      42.710  24.706  25.104  1.00  0.00    -0.237 OA
ATOM     72  O   UNL A   1      43.450  23.872  27.314  1.00  0.00    -0.237 OA
ATOM     73  O   UNL A   1      41.586  22.766  26.140  1.00  0.00    -0.744 OA
ENDBRANCH  69  70
ENDBRANCH  50  64
BRANCH  51  74
ATOM     74  C   UNL A   1      43.918  34.171  29.050  1.00  0.00    -0.014 A 
ATOM     75  C   UNL A   1      45.166  34.533  29.596  1.00  0.00     0.010 A 
ATOM     76  C   UNL A   1      43.759  34.290  27.655  1.00  0.00     0.010 A 
ATOM     77  C   UNL A   1      46.237  34.924  28.771  1.00  0.00     0.020 A 
ATOM     78  C   UNL A   1      44.822  34.681  26.826  1.00  0.00     0.020 A 
ATOM     79  C   UNL A   1      46.065  34.970  27.386  1.00  0.00     0.054 A 
BRANCH  79  80
ATOM     80  S   UNL A   1      47.503  35.280  26.313  1.00  0.00     0.124 S 
ATOM     81  O   UNL A   1      47.478  36.732  26.168  1.00  0.00    -0.237 OA
ATOM     82  O   UNL A   1      48.610  34.744  27.100  1.00  0.00    -0.237 OA
ATOM     83  O   UNL A   1      47.193  34.530  25.097  1.00  0.00    -0.744 OA
ENDBRANCH  79  80
ENDBRANCH  51  74
BRANCH  63  84
ATOM     84  C   UNL A   1      41.633  30.692  33.782  1.00  0.00    -0.014 A 
ATOM     85  C   UNL A   1      40.779  31.783  34.038  1.00  0.00     0.010 A 
ATOM     86  C   UNL A   1      42.402  30.183  34.841  1.00  0.00     0.010 A 
ATOM     87  C   UNL A   1      40.721  32.363  35.317  1.00  0.00     0.020 A 
ATOM     88  C   UNL A   1      42.336  30.742  36.119  1.00  0.00     0.020 A 
ATOM     89  C   UNL A   1      41.503  31.837  36.350  1.00  0.00     0.054 A 
BRANCH  89  90
ATOM     90  S   UNL A   1      41.408  32.561  38.012  1.00  0.00     0.124 S 
ATOM     91  O   UNL A   1      39.975  32.538  38.288  1.00  0.00    -0.237 OA
ATOM     92  O   UNL A   1      42.219  31.646  38.813  1.00  0.00    -0.237 OA
ATOM     93  O   UNL A   1      41.983  33.896  37.843  1.00  0.00    -0.744 OA
ENDBRANCH  89  90
ENDBRANCH  63  84
ENDBRANCH  37  38
ENDBRANCH  29  32
ENDBRANCH  27  28
ENDBRANCH   1  27
TORSDOF 16
ENDMDL
