MODEL 1
REMARK VINA RESULT:     -11.8      0.000      0.000
REMARK SMILES COc1ccc(Cl)c2sc(N3CC(C(=O)NCCCNC(=O)c4ccc(-c5c6nc(c(-c7ccc(S(=O)(=O)[O-])cc7)c7ccc([nH]7)c(-c7ccc(S(=O)(=O)[O-])cc7)c7nc(c(-c8ccc(S(=O)(=O)[O-])cc8)c8ccc5[nH]8)C=C7)C=C6)cc4)C3)nc12
REMARK SMILES IDX 18 1 17 2 16 3 14 4 15 5 13 7 11 8 12 9 83 10 10 11 3 12
REMARK SMILES IDX 4 13 85 14 5 15 8 16 84 17 6 18 9 19 7 20 2 21 1 22 19 23
REMARK SMILES IDX 20 24 21 25 22 27 23 28 24 29 82 30 25 31 81 32 26 33 27 34
REMARK SMILES IDX 28 35 75 36 29 37 80 38 74 39 76 40 30 41 79 42 73 43 72 44
REMARK SMILES IDX 31 46 61 47 42 48 60 49 43 50 46 51 59 52 77 53 44 54 45 55
REMARK SMILES IDX 58 57 78 58 47 59 32 60 33 61 41 62 34 63 40 64 35 65 36 66
REMARK SMILES IDX 37 67 38 68 39 69 62 70 63 71 71 72 64 73 70 74 65 75 66 76
REMARK SMILES IDX 67 77 68 78 69 79 48 80 49 81 57 82 50 83 56 84 51 85 52 86
REMARK SMILES IDX 53 87 54 88 55 89
REMARK H PARENT 16 6 20 26 76 45 46 56
REMARK Flexibility Score: inf
ROOT
ATOM      1  C   UNL A   1      39.641  20.867  25.779  1.00  0.00     0.042 C 
ENDROOT
BRANCH   1   2
ATOM      2  C   UNL A   1      38.413  21.778  25.729  1.00  0.00     0.117 C 
BRANCH   2   3
ATOM      3  N   UNL A   1      37.190  21.065  25.402  1.00  0.00    -0.356 N 
ATOM      4  C   UNL A   1      35.886  21.492  25.319  1.00  0.00     0.226 C 
ATOM      5  O   UNL A   1      35.069  20.639  24.939  1.00  0.00    -0.275 OA
ATOM      6  H   UNL A   1      37.318  20.109  25.206  1.00  0.00     0.163 HD
BRANCH   4   7
ATOM      7  C   UNL A   1      35.448  22.911  25.674  1.00  0.00     0.117 C 
ATOM      8  N   UNL A   1      34.053  24.248  24.953  1.00  0.00    -0.346 N 
ATOM      9  C   UNL A   1      33.984  23.240  25.958  1.00  0.00     0.134 C 
ATOM     10  C   UNL A   1      35.424  24.018  24.624  1.00  0.00     0.134 C 
BRANCH   8  11
ATOM     11  C   UNL A   1      33.397  25.425  24.876  1.00  0.00     0.186 A 
ATOM     12  C   UNL A   1      32.900  28.899  25.674  1.00  0.00     0.146 A 
ATOM     13  C   UNL A   1      31.926  29.823  25.265  1.00  0.00     0.050 A 
ATOM     14  C   UNL A   1      32.830  27.556  25.212  1.00  0.00     0.127 A 
ATOM     15  C   UNL A   1      30.874  29.428  24.446  1.00  0.00     0.026 A 
ATOM     16  C   UNL A   1      31.794  27.199  24.342  1.00  0.00     0.079 A 
ATOM     17  N   UNL A   1      33.694  26.514  25.546  1.00  0.00    -0.216 NA
ATOM     18  C   UNL A   1      30.796  28.117  23.973  1.00  0.00     0.060 A 
ATOM     19  S   UNL A   1      32.021  25.566  23.852  1.00  0.00    -0.095 S 
ATOM     20  Cl  UNL A   1      29.485  27.681  22.945  1.00  0.00    -0.083 Cl
BRANCH  12  21
ATOM     21  O   UNL A   1      33.982  29.292  26.428  1.00  0.00    -0.494 OA
ATOM     22  C   UNL A   1      33.670  30.269  27.416  1.00  0.00     0.278 C 
ENDBRANCH  12  21
ENDBRANCH   8  11
ENDBRANCH   4   7
ENDBRANCH   2   3
ENDBRANCH   1   2
BRANCH   1  23
ATOM     23  C   UNL A   1      40.811  21.509  26.509  1.00  0.00     0.118 C 
BRANCH  23  24
ATOM     24  N   UNL A   1      41.970  21.713  25.643  1.00  0.00    -0.352 N 
ATOM     25  C   UNL A   1      42.631  22.892  25.355  1.00  0.00     0.251 C 
ATOM     26  H   UNL A   1      42.326  20.906  25.208  1.00  0.00     0.163 HD
ATOM     27  O   UNL A   1      43.379  22.958  24.394  1.00  0.00    -0.269 OA
BRANCH  25  28
ATOM     28  C   UNL A   1      42.420  24.063  26.228  1.00  0.00     0.039 A 
ATOM     29  C   UNL A   1      43.005  24.122  27.498  1.00  0.00     0.014 A 
ATOM     30  C   UNL A   1      41.611  25.101  25.771  1.00  0.00     0.014 A 
ATOM     31  C   UNL A   1      42.814  25.261  28.277  1.00  0.00     0.010 A 
ATOM     32  C   UNL A   1      41.527  26.271  26.479  1.00  0.00     0.010 A 
ATOM     33  C   UNL A   1      42.079  26.332  27.753  1.00  0.00    -0.014 A 
BRANCH  33  34
ATOM     34  C   UNL A   1      41.955  27.588  28.481  1.00  0.00     0.031 A 
ATOM     35  C   UNL A   1      43.067  28.545  28.233  1.00  0.00     0.074 A 
ATOM     36  C   UNL A   1      40.805  27.950  29.090  1.00  0.00     0.049 A 
ATOM     37  N   UNL A   1      43.967  28.951  29.065  1.00  0.00    -0.248 NA
ATOM     38  C   UNL A   1      43.288  28.999  26.846  1.00  0.00     0.031 C 
ATOM     39  C   UNL A   1      39.526  27.223  29.080  1.00  0.00     0.029 A 
ATOM     40  N   UNL A   1      40.483  29.108  29.727  1.00  0.00    -0.354 N 
ATOM     41  C   UNL A   1      44.719  29.893  28.369  1.00  0.00     0.074 A 
ATOM     42  C   UNL A   1      44.399  29.725  26.974  1.00  0.00     0.031 C 
ATOM     43  C   UNL A   1      38.529  28.055  29.453  1.00  0.00     0.029 A 
ATOM     44  C   UNL A   1      39.115  29.303  29.902  1.00  0.00     0.049 A 
ATOM     45  H   UNL A   1      41.160  29.752  30.037  1.00  0.00     0.167 HD
ATOM     46  C   UNL A   1      45.306  30.946  29.001  1.00  0.00     0.031 A 
ATOM     47  C   UNL A   1      38.512  30.427  30.363  1.00  0.00     0.031 A 
ATOM     48  C   UNL A   1      45.261  30.800  30.430  1.00  0.00     0.049 A 
ATOM     49  C   UNL A   1      39.537  31.173  31.128  1.00  0.00     0.074 A 
ATOM     50  C   UNL A   1      45.896  30.022  31.372  1.00  0.00     0.029 A 
ATOM     51  N   UNL A   1      44.107  31.278  30.998  1.00  0.00    -0.354 N 
ATOM     52  N   UNL A   1      40.106  30.708  32.205  1.00  0.00    -0.248 NA
ATOM     53  C   UNL A   1      40.202  32.314  30.511  1.00  0.00     0.031 C 
ATOM     54  C   UNL A   1      44.958  29.854  32.434  1.00  0.00     0.029 A 
ATOM     55  C   UNL A   1      43.801  30.572  32.132  1.00  0.00     0.049 A 
ATOM     56  H   UNL A   1      43.573  32.025  30.640  1.00  0.00     0.167 HD
ATOM     57  C   UNL A   1      41.395  31.204  32.153  1.00  0.00     0.074 A 
ATOM     58  C   UNL A   1      41.344  32.309  31.205  1.00  0.00     0.031 C 
ATOM     59  C   UNL A   1      42.445  30.485  32.640  1.00  0.00     0.031 A 
BRANCH  46  60
ATOM     60  C   UNL A   1      45.462  32.306  28.363  1.00  0.00    -0.014 A 
ATOM     61  C   UNL A   1      46.737  32.894  28.264  1.00  0.00     0.010 A 
ATOM     62  C   UNL A   1      44.351  33.136  28.101  1.00  0.00     0.010 A 
ATOM     63  C   UNL A   1      46.888  34.245  27.913  1.00  0.00     0.020 A 
ATOM     64  C   UNL A   1      44.490  34.469  27.711  1.00  0.00     0.020 A 
ATOM     65  C   UNL A   1      45.760  35.021  27.632  1.00  0.00     0.054 A 
BRANCH  65  66
ATOM     66  S   UNL A   1      45.959  36.776  27.234  1.00  0.00     0.124 S 
ATOM     67  O   UNL A   1      44.583  37.193  26.978  1.00  0.00    -0.237 OA
ATOM     68  O   UNL A   1      46.564  37.299  28.455  1.00  0.00    -0.237 OA
ATOM     69  O   UNL A   1      46.836  36.766  26.066  1.00  0.00    -0.744 OA
ENDBRANCH  65  66
ENDBRANCH  46  60
BRANCH  47  70
ATOM     70  C   UNL A   1      37.220  31.041  29.958  1.00  0.00    -0.014 A 
ATOM     71  C   UNL A   1      36.237  31.318  30.930  1.00  0.00     0.010 A 
ATOM     72  C   UNL A   1      37.080  31.649  28.694  1.00  0.00     0.010 A 
ATOM     73  C   UNL A   1      35.222  32.257  30.687  1.00  0.00     0.020 A 
ATOM     74  C   UNL A   1      36.061  32.579  28.442  1.00  0.00     0.020 A 
ATOM     75  C   UNL A   1      35.165  32.911  29.455  1.00  0.00     0.054 A 
BRANCH  75  76
ATOM     76  S   UNL A   1      33.987  34.279  29.235  1.00  0.00     0.124 S 
ATOM     77  O   UNL A   1      34.829  35.335  28.680  1.00  0.00    -0.237 OA
ATOM     78  O   UNL A   1      33.011  33.701  28.316  1.00  0.00    -0.237 OA
ATOM     79  O   UNL A   1      33.493  34.529  30.588  1.00  0.00    -0.744 OA
ENDBRANCH  75  76
ENDBRANCH  47  70
BRANCH  59  80
ATOM     80  C   UNL A   1      42.159  29.425  33.669  1.00  0.00    -0.014 A 
ATOM     81  C   UNL A   1      41.717  28.122  33.373  1.00  0.00     0.010 A 
ATOM     82  C   UNL A   1      42.470  29.749  35.000  1.00  0.00     0.010 A 
ATOM     83  C   UNL A   1      41.596  27.165  34.396  1.00  0.00     0.020 A 
ATOM     84  C   UNL A   1      42.366  28.799  36.016  1.00  0.00     0.020 A 
ATOM     85  C   UNL A   1      41.933  27.510  35.710  1.00  0.00     0.054 A 
BRANCH  85  86
ATOM     86  S   UNL A   1      41.825  26.261  37.024  1.00  0.00     0.124 S 
ATOM     87  O   UNL A   1      42.842  26.702  37.974  1.00  0.00    -0.237 OA
ATOM     88  O   UNL A   1      40.442  26.391  37.475  1.00  0.00    -0.237 OA
ATOM     89  O   UNL A   1      42.129  25.005  36.337  1.00  0.00    -0.744 OA
ENDBRANCH  85  86
ENDBRANCH  59  80
ENDBRANCH  33  34
ENDBRANCH  25  28
ENDBRANCH  23  24
ENDBRANCH   1  23
TORSDOF 15
ENDMDL
MODEL 2
REMARK VINA RESULT:     -11.5      1.486      2.160
REMARK SMILES COc1ccc(Cl)c2sc(N3CC(C(=O)NCCCNC(=O)c4ccc(-c5c6nc(c(-c7ccc(S(=O)(=O)[O-])cc7)c7ccc([nH]7)c(-c7ccc(S(=O)(=O)[O-])cc7)c7nc(c(-c8ccc(S(=O)(=O)[O-])cc8)c8ccc5[nH]8)C=C7)C=C6)cc4)C3)nc12
REMARK SMILES IDX 18 1 17 2 16 3 14 4 15 5 13 7 11 8 12 9 83 10 10 11 3 12
REMARK SMILES IDX 4 13 85 14 5 15 8 16 84 17 6 18 9 19 7 20 2 21 1 22 19 23
REMARK SMILES IDX 20 24 21 25 22 27 23 28 24 29 82 30 25 31 81 32 26 33 27 34
REMARK SMILES IDX 28 35 75 36 29 37 80 38 74 39 76 40 30 41 79 42 73 43 72 44
REMARK SMILES IDX 31 46 61 47 42 48 60 49 43 50 46 51 59 52 77 53 44 54 45 55
REMARK SMILES IDX 58 57 78 58 47 59 32 60 33 61 41 62 34 63 40 64 35 65 36 66
REMARK SMILES IDX 37 67 38 68 39 69 62 70 63 71 71 72 64 73 70 74 65 75 66 76
REMARK SMILES IDX 67 77 68 78 69 79 48 80 49 81 57 82 50 83 56 84 51 85 52 86
REMARK SMILES IDX 53 87 54 88 55 89
REMARK H PARENT 16 6 20 26 76 45 46 56
REMARK Flexibility Score: inf
ROOT
ATOM      1  C   UNL A   1      40.896  21.299  27.687  1.00  0.00     0.042 C 
ENDROOT
BRANCH   1   2
ATOM      2  C   UNL A   1      40.084  21.776  26.481  1.00  0.00     0.117 C 
BRANCH   2   3
ATOM      3  N   UNL A   1      39.395  20.695  25.798  1.00  0.00    -0.356 N 
ATOM      4  C   UNL A   1      38.120  20.609  25.292  1.00  0.00     0.226 C 
ATOM      5  O   UNL A   1      37.854  19.557  24.691  1.00  0.00    -0.275 OA
ATOM      6  H   UNL A   1      39.936  19.882  25.675  1.00  0.00     0.163 HD
BRANCH   4   7
ATOM      7  C   UNL A   1      37.081  21.717  25.455  1.00  0.00     0.117 C 
ATOM      8  N   UNL A   1      35.755  22.691  24.211  1.00  0.00    -0.346 N 
ATOM      9  C   UNL A   1      35.634  21.516  25.009  1.00  0.00     0.134 C 
ATOM     10  C   UNL A   1      37.109  22.964  24.578  1.00  0.00     0.134 C 
BRANCH   8  11
ATOM     11  C   UNL A   1      34.816  23.601  23.880  1.00  0.00     0.186 A 
ATOM     12  C   UNL A   1      32.805  25.457  21.543  1.00  0.00     0.146 A 
ATOM     13  C   UNL A   1      31.811  26.429  21.729  1.00  0.00     0.050 A 
ATOM     14  C   UNL A   1      33.467  24.904  22.673  1.00  0.00     0.127 A 
ATOM     15  C   UNL A   1      31.495  26.884  23.005  1.00  0.00     0.026 A 
ATOM     16  C   UNL A   1      33.089  25.337  23.949  1.00  0.00     0.079 A 
ATOM     17  N   UNL A   1      34.492  23.959  22.660  1.00  0.00    -0.216 NA
ATOM     18  C   UNL A   1      32.126  26.344  24.127  1.00  0.00     0.060 A 
ATOM     19  S   UNL A   1      33.956  24.426  25.122  1.00  0.00    -0.095 S 
ATOM     20  Cl  UNL A   1      31.686  26.926  25.687  1.00  0.00    -0.083 Cl
BRANCH  12  21
ATOM     21  O   UNL A   1      33.080  24.950  20.293  1.00  0.00    -0.494 OA
ATOM     22  C   UNL A   1      32.397  25.620  19.237  1.00  0.00     0.278 C 
ENDBRANCH  12  21
ENDBRANCH   8  11
ENDBRANCH   4   7
ENDBRANCH   2   3
ENDBRANCH   1   2
BRANCH   1  23
ATOM     23  C   UNL A   1      42.289  21.909  27.727  1.00  0.00     0.118 C 
BRANCH  23  24
ATOM     24  N   UNL A   1      42.873  22.067  26.397  1.00  0.00    -0.352 N 
ATOM     25  C   UNL A   1      42.933  23.204  25.614  1.00  0.00     0.251 C 
ATOM     26  H   UNL A   1      43.275  21.257  26.008  1.00  0.00     0.163 HD
ATOM     27  O   UNL A   1      43.174  23.116  24.422  1.00  0.00    -0.269 OA
BRANCH  25  28
ATOM     28  C   UNL A   1      42.708  24.519  26.243  1.00  0.00     0.039 A 
ATOM     29  C   UNL A   1      41.633  25.325  25.850  1.00  0.00     0.014 A 
ATOM     30  C   UNL A   1      43.597  24.953  27.224  1.00  0.00     0.014 A 
ATOM     31  C   UNL A   1      41.431  26.543  26.494  1.00  0.00     0.010 A 
ATOM     32  C   UNL A   1      43.328  26.088  27.944  1.00  0.00     0.010 A 
ATOM     33  C   UNL A   1      42.281  26.910  27.545  1.00  0.00    -0.014 A 
BRANCH  33  34
ATOM     34  C   UNL A   1      42.036  28.115  28.326  1.00  0.00     0.031 A 
ATOM     35  C   UNL A   1      43.065  29.174  28.147  1.00  0.00     0.074 A 
ATOM     36  C   UNL A   1      40.848  28.347  28.926  1.00  0.00     0.049 A 
ATOM     37  N   UNL A   1      43.911  29.616  29.016  1.00  0.00    -0.248 NA
ATOM     38  C   UNL A   1      43.270  29.711  26.788  1.00  0.00     0.031 C 
ATOM     39  C   UNL A   1      39.637  27.515  28.855  1.00  0.00     0.029 A 
ATOM     40  N   UNL A   1      40.415  29.442  29.608  1.00  0.00    -0.354 N 
ATOM     41  C   UNL A   1      44.591  30.651  28.381  1.00  0.00     0.074 A 
ATOM     42  C   UNL A   1      44.312  30.523  26.973  1.00  0.00     0.031 C 
ATOM     43  C   UNL A   1      38.565  28.240  29.243  1.00  0.00     0.029 A 
ATOM     44  C   UNL A   1      39.032  29.511  29.762  1.00  0.00     0.049 A 
ATOM     45  H   UNL A   1      41.028  30.127  29.963  1.00  0.00     0.167 HD
ATOM     46  C   UNL A   1      45.073  31.719  29.074  1.00  0.00     0.031 A 
ATOM     47  C   UNL A   1      38.326  30.556  30.260  1.00  0.00     0.031 A 
ATOM     48  C   UNL A   1      45.015  31.502  30.493  1.00  0.00     0.049 A 
ATOM     49  C   UNL A   1      39.268  31.350  31.081  1.00  0.00     0.074 A 
ATOM     50  C   UNL A   1      45.698  30.738  31.413  1.00  0.00     0.029 A 
ATOM     51  N   UNL A   1      43.814  31.852  31.057  1.00  0.00    -0.354 N 
ATOM     52  N   UNL A   1      39.857  30.884  32.148  1.00  0.00    -0.248 NA
ATOM     53  C   UNL A   1      39.844  32.571  30.531  1.00  0.00     0.031 C 
ATOM     54  C   UNL A   1      44.759  30.439  32.445  1.00  0.00     0.029 A 
ATOM     55  C   UNL A   1      43.550  31.069  32.150  1.00  0.00     0.049 A 
ATOM     56  H   UNL A   1      43.224  32.566  30.722  1.00  0.00     0.167 HD
ATOM     57  C   UNL A   1      41.099  31.491  32.147  1.00  0.00     0.074 A 
ATOM     58  C   UNL A   1      40.969  32.631  31.249  1.00  0.00     0.031 C 
ATOM     59  C   UNL A   1      42.198  30.842  32.623  1.00  0.00     0.031 A 
BRANCH  46  60
ATOM     60  C   UNL A   1      45.122  33.116  28.502  1.00  0.00    -0.014 A 
ATOM     61  C   UNL A   1      46.206  33.507  27.694  1.00  0.00     0.010 A 
ATOM     62  C   UNL A   1      44.263  34.138  28.961  1.00  0.00     0.010 A 
ATOM     63  C   UNL A   1      46.412  34.855  27.358  1.00  0.00     0.020 A 
ATOM     64  C   UNL A   1      44.434  35.475  28.600  1.00  0.00     0.020 A 
ATOM     65  C   UNL A   1      45.517  35.829  27.810  1.00  0.00     0.054 A 
BRANCH  65  66
ATOM     66  S   UNL A   1      45.820  37.571  27.419  1.00  0.00     0.124 S 
ATOM     67  O   UNL A   1      44.522  38.003  26.909  1.00  0.00    -0.237 OA
ATOM     68  O   UNL A   1      46.204  38.113  28.719  1.00  0.00    -0.237 OA
ATOM     69  O   UNL A   1      46.894  37.519  26.430  1.00  0.00    -0.744 OA
ENDBRANCH  65  66
ENDBRANCH  46  60
BRANCH  47  70
ATOM     70  C   UNL A   1      36.994  31.075  29.855  1.00  0.00    -0.014 A 
ATOM     71  C   UNL A   1      36.153  31.680  30.812  1.00  0.00     0.010 A 
ATOM     72  C   UNL A   1      36.684  31.275  28.495  1.00  0.00     0.010 A 
ATOM     73  C   UNL A   1      35.118  32.546  30.424  1.00  0.00     0.020 A 
ATOM     74  C   UNL A   1      35.645  32.129  28.101  1.00  0.00     0.020 A 
ATOM     75  C   UNL A   1      34.896  32.795  29.069  1.00  0.00     0.054 A 
BRANCH  75  76
ATOM     76  S   UNL A   1      33.704  34.083  28.592  1.00  0.00     0.124 S 
ATOM     77  O   UNL A   1      32.797  33.360  27.705  1.00  0.00    -0.237 OA
ATOM     78  O   UNL A   1      33.145  34.479  29.881  1.00  0.00    -0.237 OA
ATOM     79  O   UNL A   1      34.533  35.094  27.938  1.00  0.00    -0.744 OA
ENDBRANCH  75  76
ENDBRANCH  47  70
BRANCH  59  80
ATOM     80  C   UNL A   1      41.986  29.714  33.597  1.00  0.00    -0.014 A 
ATOM     81  C   UNL A   1      42.027  28.348  33.258  1.00  0.00     0.010 A 
ATOM     82  C   UNL A   1      41.853  30.073  34.948  1.00  0.00     0.010 A 
ATOM     83  C   UNL A   1      41.939  27.366  34.260  1.00  0.00     0.020 A 
ATOM     84  C   UNL A   1      41.781  29.103  35.948  1.00  0.00     0.020 A 
ATOM     85  C   UNL A   1      41.828  27.754  35.601  1.00  0.00     0.054 A 
BRANCH  85  86
ATOM     86  S   UNL A   1      41.766  26.487  36.901  1.00  0.00     0.124 S 
ATOM     87  O   UNL A   1      42.957  26.779  37.694  1.00  0.00    -0.237 OA
ATOM     88  O   UNL A   1      40.491  26.765  37.556  1.00  0.00    -0.237 OA
ATOM     89  O   UNL A   1      41.814  25.226  36.162  1.00  0.00    -0.744 OA
ENDBRANCH  85  86
ENDBRANCH  59  80
ENDBRANCH  33  34
ENDBRANCH  25  28
ENDBRANCH  23  24
ENDBRANCH   1  23
TORSDOF 15
ENDMDL
MODEL 3
REMARK VINA RESULT:     -11.5      2.627      9.592
REMARK SMILES COc1ccc(Cl)c2sc(N3CC(C(=O)NCCCNC(=O)c4ccc(-c5c6nc(c(-c7ccc(S(=O)(=O)[O-])cc7)c7ccc([nH]7)c(-c7ccc(S(=O)(=O)[O-])cc7)c7nc(c(-c8ccc(S(=O)(=O)[O-])cc8)c8ccc5[nH]8)C=C7)C=C6)cc4)C3)nc12
REMARK SMILES IDX 18 1 17 2 16 3 14 4 15 5 13 7 11 8 12 9 83 10 10 11 3 12
REMARK SMILES IDX 4 13 85 14 5 15 8 16 84 17 6 18 9 19 7 20 2 21 1 22 19 23
REMARK SMILES IDX 20 24 21 25 22 27 23 28 24 29 82 30 25 31 81 32 26 33 27 34
REMARK SMILES IDX 28 35 75 36 29 37 80 38 74 39 76 40 30 41 79 42 73 43 72 44
REMARK SMILES IDX 31 46 61 47 42 48 60 49 43 50 46 51 59 52 77 53 44 54 45 55
REMARK SMILES IDX 58 57 78 58 47 59 32 60 33 61 41 62 34 63 40 64 35 65 36 66
REMARK SMILES IDX 37 67 38 68 39 69 62 70 63 71 71 72 64 73 70 74 65 75 66 76
REMARK SMILES IDX 67 77 68 78 69 79 48 80 49 81 57 82 50 83 56 84 51 85 52 86
REMARK SMILES IDX 53 87 54 88 55 89
REMARK H PARENT 16 6 20 26 76 45 46 56
REMARK Flexibility Score: inf
ROOT
ATOM      1  C   UNL A   1      33.337  29.726  25.637  1.00  0.00     0.042 C 
ENDROOT
BRANCH   1   2
ATOM      2  C   UNL A   1      31.827  29.708  25.883  1.00  0.00     0.117 C 
BRANCH   2   3
ATOM      3  N   UNL A   1      31.054  29.988  24.686  1.00  0.00    -0.356 N 
ATOM      4  C   UNL A   1      30.546  29.153  23.718  1.00  0.00     0.226 C 
ATOM      5  O   UNL A   1      29.857  29.704  22.847  1.00  0.00    -0.275 OA
ATOM      6  H   UNL A   1      30.859  30.942  24.541  1.00  0.00     0.163 HD
BRANCH   4   7
ATOM      7  C   UNL A   1      30.809  27.648  23.693  1.00  0.00     0.117 C 
ATOM      8  N   UNL A   1      32.333  26.406  24.316  1.00  0.00    -0.346 N 
ATOM      9  C   UNL A   1      31.160  26.886  24.969  1.00  0.00     0.134 C 
ATOM     10  C   UNL A   1      32.083  27.077  23.080  1.00  0.00     0.134 C 
BRANCH   8  11
ATOM     11  C   UNL A   1      32.982  25.234  24.474  1.00  0.00     0.186 A 
ATOM     12  C   UNL A   1      35.834  23.216  25.341  1.00  0.00     0.146 A 
ATOM     13  C   UNL A   1      36.029  21.827  25.348  1.00  0.00     0.050 A 
ATOM     14  C   UNL A   1      34.585  23.747  24.914  1.00  0.00     0.127 A 
ATOM     15  C   UNL A   1      35.030  20.968  24.906  1.00  0.00     0.026 A 
ATOM     16  C   UNL A   1      33.576  22.858  24.529  1.00  0.00     0.079 A 
ATOM     17  N   UNL A   1      34.241  25.095  24.817  1.00  0.00    -0.216 NA
ATOM     18  C   UNL A   1      33.794  21.470  24.494  1.00  0.00     0.060 A 
ATOM     19  S   UNL A   1      32.151  23.756  24.181  1.00  0.00    -0.095 S 
ATOM     20  Cl  UNL A   1      32.580  20.365  23.974  1.00  0.00    -0.083 Cl
BRANCH  12  21
ATOM     21  O   UNL A   1      36.789  24.073  25.839  1.00  0.00    -0.494 OA
ATOM     22  C   UNL A   1      38.037  23.445  26.115  1.00  0.00     0.278 C 
ENDBRANCH  12  21
ENDBRANCH   8  11
ENDBRANCH   4   7
ENDBRANCH   2   3
ENDBRANCH   1   2
BRANCH   1  23
ATOM     23  C   UNL A   1      34.136  29.813  26.929  1.00  0.00     0.118 C 
BRANCH  23  24
ATOM     24  N   UNL A   1      34.039  31.126  27.563  1.00  0.00    -0.352 N 
ATOM     25  C   UNL A   1      34.832  31.659  28.561  1.00  0.00     0.251 C 
ATOM     26  H   UNL A   1      33.314  31.706  27.236  1.00  0.00     0.163 HD
ATOM     27  O   UNL A   1      34.452  32.630  29.193  1.00  0.00    -0.269 OA
BRANCH  25  28
ATOM     28  C   UNL A   1      36.141  31.040  28.844  1.00  0.00     0.039 A 
ATOM     29  C   UNL A   1      36.257  29.654  29.003  1.00  0.00     0.014 A 
ATOM     30  C   UNL A   1      37.257  31.864  28.970  1.00  0.00     0.014 A 
ATOM     31  C   UNL A   1      37.515  29.104  29.231  1.00  0.00     0.010 A 
ATOM     32  C   UNL A   1      38.509  31.316  29.067  1.00  0.00     0.010 A 
ATOM     33  C   UNL A   1      38.636  29.944  29.253  1.00  0.00    -0.014 A 
BRANCH  33  34
ATOM     34  C   UNL A   1      39.983  29.401  29.367  1.00  0.00     0.031 A 
ATOM     35  C   UNL A   1      40.444  29.212  30.769  1.00  0.00     0.074 A 
ATOM     36  C   UNL A   1      40.626  28.862  28.309  1.00  0.00     0.049 A 
ATOM     37  N   UNL A   1      41.389  29.838  31.386  1.00  0.00    -0.248 NA
ATOM     38  C   UNL A   1      39.661  28.310  31.635  1.00  0.00     0.031 C 
ATOM     39  C   UNL A   1      40.101  28.676  26.948  1.00  0.00     0.029 A 
ATOM     40  N   UNL A   1      41.833  28.235  28.250  1.00  0.00    -0.354 N 
ATOM     41  C   UNL A   1      41.475  29.239  32.640  1.00  0.00     0.074 A 
ATOM     42  C   UNL A   1      40.270  28.469  32.811  1.00  0.00     0.031 C 
ATOM     43  C   UNL A   1      40.864  27.778  26.286  1.00  0.00     0.029 A 
ATOM     44  C   UNL A   1      42.024  27.471  27.101  1.00  0.00     0.049 A 
ATOM     45  H   UNL A   1      42.511  28.314  28.959  1.00  0.00     0.167 HD
ATOM     46  C   UNL A   1      42.656  29.159  33.313  1.00  0.00     0.031 A 
ATOM     47  C   UNL A   1      43.058  26.628  26.854  1.00  0.00     0.031 A 
ATOM     48  C   UNL A   1      43.673  29.968  32.699  1.00  0.00     0.049 A 
ATOM     49  C   UNL A   1      44.170  27.056  27.733  1.00  0.00     0.074 A 
ATOM     50  C   UNL A   1      43.949  31.313  32.596  1.00  0.00     0.029 A 
ATOM     51  N   UNL A   1      44.358  29.327  31.698  1.00  0.00    -0.354 N 
ATOM     52  N   UNL A   1      44.744  28.224  27.646  1.00  0.00    -0.248 NA
ATOM     53  C   UNL A   1      44.438  26.317  28.961  1.00  0.00     0.031 C 
ATOM     54  C   UNL A   1      44.624  31.477  31.349  1.00  0.00     0.029 A 
ATOM     55  C   UNL A   1      44.782  30.225  30.754  1.00  0.00     0.049 A 
ATOM     56  H   UNL A   1      44.522  28.356  31.662  1.00  0.00     0.167 HD
ATOM     57  C   UNL A   1      45.078  28.540  28.949  1.00  0.00     0.074 A 
ATOM     58  C   UNL A   1      45.030  27.278  29.675  1.00  0.00     0.031 C 
ATOM     59  C   UNL A   1      45.056  29.831  29.386  1.00  0.00     0.031 A 
BRANCH  46  60
ATOM     60  C   UNL A   1      43.019  27.993  34.201  1.00  0.00    -0.014 A 
ATOM     61  C   UNL A   1      43.480  28.224  35.510  1.00  0.00     0.010 A 
ATOM     62  C   UNL A   1      43.175  26.688  33.687  1.00  0.00     0.010 A 
ATOM     63  C   UNL A   1      44.061  27.193  36.267  1.00  0.00     0.020 A 
ATOM     64  C   UNL A   1      43.713  25.646  34.443  1.00  0.00     0.020 A 
ATOM     65  C   UNL A   1      44.166  25.908  35.728  1.00  0.00     0.054 A 
BRANCH  65  66
ATOM     66  S   UNL A   1      44.965  24.598  36.689  1.00  0.00     0.124 S 
ATOM     67  O   UNL A   1      44.487  23.390  36.023  1.00  0.00    -0.237 OA
ATOM     68  O   UNL A   1      46.380  24.906  36.506  1.00  0.00    -0.237 OA
ATOM     69  O   UNL A   1      44.457  24.807  38.043  1.00  0.00    -0.744 OA
ENDBRANCH  65  66
ENDBRANCH  46  60
BRANCH  47  70
ATOM     70  C   UNL A   1      43.064  25.324  26.142  1.00  0.00    -0.014 A 
ATOM     71  C   UNL A   1      43.955  25.112  25.069  1.00  0.00     0.010 A 
ATOM     72  C   UNL A   1      42.445  24.193  26.711  1.00  0.00     0.010 A 
ATOM     73  C   UNL A   1      44.302  23.814  24.661  1.00  0.00     0.020 A 
ATOM     74  C   UNL A   1      42.779  22.895  26.299  1.00  0.00     0.020 A 
ATOM     75  C   UNL A   1      43.740  22.712  25.307  1.00  0.00     0.054 A 
BRANCH  75  76
ATOM     76  S   UNL A   1      44.364  21.049  24.919  1.00  0.00     0.124 S 
ATOM     77  O   UNL A   1      43.273  20.189  25.371  1.00  0.00    -0.237 OA
ATOM     78  O   UNL A   1      44.555  21.120  23.474  1.00  0.00    -0.237 OA
ATOM     79  O   UNL A   1      45.594  20.951  25.703  1.00  0.00    -0.744 OA
ENDBRANCH  75  76
ENDBRANCH  47  70
BRANCH  59  80
ATOM     80  C   UNL A   1      45.178  30.926  28.361  1.00  0.00    -0.014 A 
ATOM     81  C   UNL A   1      44.089  31.601  27.779  1.00  0.00     0.010 A 
ATOM     82  C   UNL A   1      46.481  31.363  28.067  1.00  0.00     0.010 A 
ATOM     83  C   UNL A   1      44.308  32.694  26.923  1.00  0.00     0.020 A 
ATOM     84  C   UNL A   1      46.703  32.455  27.231  1.00  0.00     0.020 A 
ATOM     85  C   UNL A   1      45.616  33.120  26.664  1.00  0.00     0.054 A 
BRANCH  85  86
ATOM     86  S   UNL A   1      45.898  34.563  25.599  1.00  0.00     0.124 S 
ATOM     87  O   UNL A   1      47.343  34.534  25.391  1.00  0.00    -0.237 OA
ATOM     88  O   UNL A   1      45.087  34.256  24.424  1.00  0.00    -0.237 OA
ATOM     89  O   UNL A   1      45.415  35.688  26.400  1.00  0.00    -0.744 OA
ENDBRANCH  85  86
ENDBRANCH  59  80
ENDBRANCH  33  34
ENDBRANCH  25  28
ENDBRANCH  23  24
ENDBRANCH   1  23
TORSDOF 15
ENDMDL
