MODEL 1
REMARK VINA RESULT:     -11.1      0.000      0.000
REMARK SMILES C[NH2+][C@@]1(C(=O)NCCCNC(=O)c2ccc(-c3c4nc(c(-c5ccc(S(=O)(=O)[O-])cc5)c5ccc([nH]5)c(-c5ccc(S(=O)(=O)[O-])cc5)c5nc(c(-c6ccc(S(=O)(=O)[O-])cc6)c6ccc3[nH]6)C=C5)C=C4)cc2)CCC[C@H]([N@H+](C)C2CC[NH+](C)CC2)C1
REMARK SMILES IDX 8 1 7 2 6 3 4 4 5 5 3 7 73 8 86 9 74 10 76 11 75 12 2 13
REMARK SMILES IDX 1 14 77 17 78 18 79 20 80 21 85 22 81 23 84 24 82 25 83 26
REMARK SMILES IDX 9 28 10 29 11 30 12 32 13 33 14 34 72 35 15 36 71 37 16 38
REMARK SMILES IDX 17 39 18 40 65 41 19 42 70 43 64 44 66 45 20 46 69 47 63 48
REMARK SMILES IDX 62 49 21 51 51 52 32 53 50 54 33 55 36 56 49 57 67 58 34 59
REMARK SMILES IDX 35 60 48 62 68 63 37 64 22 65 23 66 31 67 24 68 30 69 25 70
REMARK SMILES IDX 26 71 27 72 28 73 29 74 52 75 53 76 61 77 54 78 60 79 55 80
REMARK SMILES IDX 56 81 57 82 58 83 59 84 38 85 39 86 47 87 40 88 46 89 41 90
REMARK SMILES IDX 42 91 43 92 44 93 45 94
REMARK H PARENT 6 6 2 15 2 16 77 19 82 27 10 31 66 50 36 61
REMARK Flexibility Score: inf
ROOT
ATOM      1  C   UNL A   1      33.329  28.187  25.706  1.00  0.00     0.042 C 
ENDROOT
BRANCH   1   2
ATOM      2  C   UNL A   1      34.158  27.161  24.934  1.00  0.00     0.118 C 
BRANCH   2   3
ATOM      3  N   UNL A   1      34.338  25.886  25.621  1.00  0.00    -0.351 N 
ATOM      4  C   UNL A   1      34.212  24.685  24.922  1.00  0.00     0.281 C 
ATOM      5  O   UNL A   1      34.438  24.629  23.712  1.00  0.00    -0.268 OA
ATOM      6  H   UNL A   1      34.550  25.873  26.582  1.00  0.00     0.163 HD
BRANCH   4   7
ATOM      7  C   UNL A   1      33.852  23.392  25.763  1.00  0.00     0.181 C 
ATOM      8  C   UNL A   1      33.547  22.134  24.891  1.00  0.00     0.079 C 
ATOM      9  C   UNL A   1      32.647  23.662  26.698  1.00  0.00     0.144 C 
ATOM     10  C   UNL A   1      32.122  21.885  24.412  1.00  0.00     0.013 C 
ATOM     11  C   UNL A   1      31.264  23.737  25.968  1.00  0.00     0.190 C 
ATOM     12  C   UNL A   1      31.030  22.363  25.343  1.00  0.00     0.065 C 
BRANCH   7  13
ATOM     13  N   UNL A   1      35.059  23.079  26.618  1.00  0.00    -0.336 N 
ATOM     14  C   UNL A   1      36.176  22.490  25.864  1.00  0.00     0.331 C 
ATOM     15  H   UNL A   1      35.382  23.946  27.050  1.00  0.00     0.346 HD
ATOM     16  H   UNL A   1      34.765  22.388  27.309  1.00  0.00     0.346 HD
ENDBRANCH   7  13
BRANCH  11  17
ATOM     17  N   UNL A   1      31.100  25.022  25.212  1.00  0.00    -0.332 N 
ATOM     18  C   UNL A   1      30.375  25.915  26.173  1.00  0.00     0.333 C 
ATOM     19  H   UNL A   1      32.047  25.256  24.914  1.00  0.00     0.348 HD
BRANCH  17  20
ATOM     20  C   UNL A   1      30.394  25.103  23.880  1.00  0.00     0.195 C 
ATOM     21  C   UNL A   1      31.159  25.274  22.560  1.00  0.00     0.126 C 
ATOM     22  C   UNL A   1      29.345  26.265  23.792  1.00  0.00     0.126 C 
ATOM     23  C   UNL A   1      31.854  26.627  22.465  1.00  0.00     0.268 C 
ATOM     24  C   UNL A   1      29.810  27.637  23.237  1.00  0.00     0.268 C 
ATOM     25  N   UNL A   1      30.902  27.707  22.271  1.00  0.00    -0.337 N 
ATOM     26  C   UNL A   1      31.596  29.003  22.399  1.00  0.00     0.332 C 
ATOM     27  H   UNL A   1      30.502  27.616  21.337  1.00  0.00     0.347 HD
ENDBRANCH  17  20
ENDBRANCH  11  17
ENDBRANCH   4   7
ENDBRANCH   2   3
ENDBRANCH   1   2
BRANCH   1  28
ATOM     28  C   UNL A   1      33.717  28.524  27.161  1.00  0.00     0.118 C 
BRANCH  28  29
ATOM     29  N   UNL A   1      33.657  29.915  27.622  1.00  0.00    -0.352 N 
ATOM     30  C   UNL A   1      34.583  30.727  28.262  1.00  0.00     0.251 C 
ATOM     31  H   UNL A   1      32.797  30.358  27.443  1.00  0.00     0.163 HD
ATOM     32  O   UNL A   1      34.292  31.885  28.560  1.00  0.00    -0.269 OA
BRANCH  30  33
ATOM     33  C   UNL A   1      35.937  30.248  28.585  1.00  0.00     0.039 A 
ATOM     34  C   UNL A   1      36.247  29.694  29.840  1.00  0.00     0.014 A 
ATOM     35  C   UNL A   1      36.938  30.426  27.643  1.00  0.00     0.014 A 
ATOM     36  C   UNL A   1      37.553  29.258  30.105  1.00  0.00     0.010 A 
ATOM     37  C   UNL A   1      38.180  29.867  27.849  1.00  0.00     0.010 A 
ATOM     38  C   UNL A   1      38.521  29.317  29.094  1.00  0.00    -0.014 A 
BRANCH  38  39
ATOM     39  C   UNL A   1      39.941  28.923  29.253  1.00  0.00     0.031 A 
ATOM     40  C   UNL A   1      40.929  30.008  29.605  1.00  0.00     0.074 A 
ATOM     41  C   UNL A   1      40.355  27.700  28.873  1.00  0.00     0.049 A 
ATOM     42  N   UNL A   1      42.218  30.055  29.405  1.00  0.00    -0.248 NA
ATOM     43  C   UNL A   1      40.361  31.255  30.156  1.00  0.00     0.031 C 
ATOM     44  C   UNL A   1      39.491  26.591  28.465  1.00  0.00     0.029 A 
ATOM     45  N   UNL A   1      41.624  27.203  28.729  1.00  0.00    -0.354 N 
ATOM     46  C   UNL A   1      42.593  31.360  29.714  1.00  0.00     0.074 A 
ATOM     47  C   UNL A   1      41.389  32.083  30.051  1.00  0.00     0.031 C 
ATOM     48  C   UNL A   1      40.255  25.537  28.132  1.00  0.00     0.029 A 
ATOM     49  C   UNL A   1      41.659  25.914  28.250  1.00  0.00     0.049 A 
ATOM     50  H   UNL A   1      42.434  27.719  28.948  1.00  0.00     0.167 HD
ATOM     51  C   UNL A   1      43.835  31.898  29.734  1.00  0.00     0.031 A 
ATOM     52  C   UNL A   1      42.712  25.138  27.931  1.00  0.00     0.031 A 
ATOM     53  C   UNL A   1      45.020  31.122  29.492  1.00  0.00     0.049 A 
ATOM     54  C   UNL A   1      44.094  25.715  28.083  1.00  0.00     0.074 A 
ATOM     55  C   UNL A   1      46.343  31.506  29.596  1.00  0.00     0.029 A 
ATOM     56  N   UNL A   1      45.015  29.780  29.135  1.00  0.00    -0.354 N 
ATOM     57  N   UNL A   1      44.443  26.939  28.408  1.00  0.00    -0.248 NA
ATOM     58  C   UNL A   1      45.222  24.807  27.843  1.00  0.00     0.031 C 
ATOM     59  C   UNL A   1      47.139  30.398  29.283  1.00  0.00     0.029 A 
ATOM     60  C   UNL A   1      46.311  29.315  29.027  1.00  0.00     0.049 A 
ATOM     61  H   UNL A   1      44.206  29.239  28.982  1.00  0.00     0.167 HD
ATOM     62  C   UNL A   1      45.832  26.940  28.443  1.00  0.00     0.074 A 
ATOM     63  C   UNL A   1      46.256  25.591  28.119  1.00  0.00     0.031 C 
ATOM     64  C   UNL A   1      46.685  27.959  28.716  1.00  0.00     0.031 A 
BRANCH  51  65
ATOM     65  C   UNL A   1      43.966  33.365  30.060  1.00  0.00    -0.014 A 
ATOM     66  C   UNL A   1      44.111  33.810  31.388  1.00  0.00     0.010 A 
ATOM     67  C   UNL A   1      43.957  34.320  29.024  1.00  0.00     0.010 A 
ATOM     68  C   UNL A   1      44.179  35.174  31.681  1.00  0.00     0.020 A 
ATOM     69  C   UNL A   1      44.064  35.687  29.311  1.00  0.00     0.020 A 
ATOM     70  C   UNL A   1      44.151  36.105  30.640  1.00  0.00     0.054 A 
BRANCH  70  71
ATOM     71  S   UNL A   1      44.264  37.869  31.051  1.00  0.00     0.124 S 
ATOM     72  O   UNL A   1      43.696  37.899  32.397  1.00  0.00    -0.237 OA
ATOM     73  O   UNL A   1      45.698  38.127  30.968  1.00  0.00    -0.237 OA
ATOM     74  O   UNL A   1      43.456  38.517  30.021  1.00  0.00    -0.744 OA
ENDBRANCH  70  71
ENDBRANCH  51  65
BRANCH  52  75
ATOM     75  C   UNL A   1      42.497  23.729  27.500  1.00  0.00    -0.014 A 
ATOM     76  C   UNL A   1      42.476  23.413  26.129  1.00  0.00     0.010 A 
ATOM     77  C   UNL A   1      42.360  22.691  28.440  1.00  0.00     0.010 A 
ATOM     78  C   UNL A   1      42.303  22.092  25.706  1.00  0.00     0.020 A 
ATOM     79  C   UNL A   1      42.213  21.364  28.020  1.00  0.00     0.020 A 
ATOM     80  C   UNL A   1      42.175  21.074  26.654  1.00  0.00     0.054 A 
BRANCH  80  81
ATOM     81  S   UNL A   1      42.011  19.361  26.079  1.00  0.00     0.124 S 
ATOM     82  O   UNL A   1      40.578  19.261  25.826  1.00  0.00    -0.237 OA
ATOM     83  O   UNL A   1      42.866  19.343  24.894  1.00  0.00    -0.237 OA
ATOM     84  O   UNL A   1      42.507  18.573  27.205  1.00  0.00    -0.744 OA
ENDBRANCH  80  81
ENDBRANCH  52  75
BRANCH  64  85
ATOM     85  C   UNL A   1      48.153  27.639  28.722  1.00  0.00    -0.014 A 
ATOM     86  C   UNL A   1      48.939  27.826  27.573  1.00  0.00     0.010 A 
ATOM     87  C   UNL A   1      48.761  27.217  29.917  1.00  0.00     0.010 A 
ATOM     88  C   UNL A   1      50.311  27.568  27.614  1.00  0.00     0.020 A 
ATOM     89  C   UNL A   1      50.135  26.985  29.969  1.00  0.00     0.020 A 
ATOM     90  C   UNL A   1      50.899  27.151  28.812  1.00  0.00     0.054 A 
BRANCH  90  91
ATOM     91  S   UNL A   1      52.690  26.876  28.853  1.00  0.00     0.124 S 
ATOM     92  O   UNL A   1      53.209  28.228  28.671  1.00  0.00    -0.237 OA
ATOM     93  O   UNL A   1      52.895  26.296  30.178  1.00  0.00    -0.237 OA
ATOM     94  O   UNL A   1      52.925  25.962  27.737  1.00  0.00    -0.744 OA
ENDBRANCH  90  91
ENDBRANCH  64  85
ENDBRANCH  38  39
ENDBRANCH  30  33
ENDBRANCH  28  29
ENDBRANCH   1  28
TORSDOF 16
ENDMDL
MODEL 2
REMARK VINA RESULT:     -11.0      3.738      9.672
REMARK SMILES C[NH2+][C@@]1(C(=O)NCCCNC(=O)c2ccc(-c3c4nc(c(-c5ccc(S(=O)(=O)[O-])cc5)c5ccc([nH]5)c(-c5ccc(S(=O)(=O)[O-])cc5)c5nc(c(-c6ccc(S(=O)(=O)[O-])cc6)c6ccc3[nH]6)C=C5)C=C4)cc2)CCC[C@H]([N@H+](C)C2CC[NH+](C)CC2)C1
REMARK SMILES IDX 8 1 7 2 6 3 4 4 5 5 3 7 73 8 86 9 74 10 76 11 75 12 2 13
REMARK SMILES IDX 1 14 77 17 78 18 79 20 80 21 85 22 81 23 84 24 82 25 83 26
REMARK SMILES IDX 9 28 10 29 11 30 12 32 13 33 14 34 72 35 15 36 71 37 16 38
REMARK SMILES IDX 17 39 18 40 65 41 19 42 70 43 64 44 66 45 20 46 69 47 63 48
REMARK SMILES IDX 62 49 21 51 51 52 32 53 50 54 33 55 36 56 49 57 67 58 34 59
REMARK SMILES IDX 35 60 48 62 68 63 37 64 22 65 23 66 31 67 24 68 30 69 25 70
REMARK SMILES IDX 26 71 27 72 28 73 29 74 52 75 53 76 61 77 54 78 60 79 55 80
REMARK SMILES IDX 56 81 57 82 58 83 59 84 38 85 39 86 47 87 40 88 46 89 41 90
REMARK SMILES IDX 42 91 43 92 44 93 45 94
REMARK H PARENT 6 6 2 15 2 16 77 19 82 27 10 31 66 50 36 61
REMARK Flexibility Score: inf
ROOT
ATOM      1  C   UNL A   1      35.384  23.995  26.173  1.00  0.00     0.042 C 
ENDROOT
BRANCH   1   2
ATOM      2  C   UNL A   1      34.156  24.811  25.771  1.00  0.00     0.118 C 
BRANCH   2   3
ATOM      3  N   UNL A   1      34.398  26.244  25.639  1.00  0.00    -0.351 N 
ATOM      4  C   UNL A   1      33.444  27.164  26.075  1.00  0.00     0.281 C 
ATOM      5  O   UNL A   1      32.656  26.879  26.979  1.00  0.00    -0.268 OA
ATOM      6  H   UNL A   1      35.239  26.565  25.240  1.00  0.00     0.163 HD
BRANCH   4   7
ATOM      7  C   UNL A   1      33.475  28.606  25.421  1.00  0.00     0.181 C 
ATOM      8  C   UNL A   1      32.164  29.427  25.635  1.00  0.00     0.079 C 
ATOM      9  C   UNL A   1      33.771  28.516  23.904  1.00  0.00     0.144 C 
ATOM     10  C   UNL A   1      31.027  29.295  24.628  1.00  0.00     0.013 C 
ATOM     11  C   UNL A   1      32.573  28.001  23.038  1.00  0.00     0.190 C 
ATOM     12  C   UNL A   1      31.451  29.025  23.201  1.00  0.00     0.065 C 
BRANCH   7  13
ATOM     13  N   UNL A   1      34.604  29.360  26.085  1.00  0.00    -0.336 N 
ATOM     14  C   UNL A   1      34.181  30.140  27.257  1.00  0.00     0.331 C 
ATOM     15  H   UNL A   1      35.311  28.686  26.383  1.00  0.00     0.346 HD
ATOM     16  H   UNL A   1      34.966  30.022  25.398  1.00  0.00     0.346 HD
ENDBRANCH   7  13
BRANCH  11  17
ATOM     17  N   UNL A   1      32.365  26.524  23.192  1.00  0.00    -0.332 N 
ATOM     18  C   UNL A   1      33.274  25.923  22.164  1.00  0.00     0.333 C 
ATOM     19  H   UNL A   1      32.534  26.352  24.184  1.00  0.00     0.348 HD
BRANCH  17  20
ATOM     20  C   UNL A   1      31.011  25.870  23.055  1.00  0.00     0.195 C 
ATOM     21  C   UNL A   1      29.927  26.002  24.134  1.00  0.00     0.126 C 
ATOM     22  C   UNL A   1      31.080  24.315  22.862  1.00  0.00     0.126 C 
ATOM     23  C   UNL A   1      30.319  25.309  25.435  1.00  0.00     0.268 C 
ATOM     24  C   UNL A   1      31.002  23.412  24.121  1.00  0.00     0.268 C 
ATOM     25  N   UNL A   1      30.279  23.863  25.306  1.00  0.00    -0.337 N 
ATOM     26  C   UNL A   1      30.866  23.246  26.511  1.00  0.00     0.332 C 
ATOM     27  H   UNL A   1      29.305  23.578  25.207  1.00  0.00     0.347 HD
ENDBRANCH  17  20
ENDBRANCH  11  17
ENDBRANCH   4   7
ENDBRANCH   2   3
ENDBRANCH   1   2
BRANCH   1  28
ATOM     28  C   UNL A   1      36.643  24.044  25.282  1.00  0.00     0.118 C 
BRANCH  28  29
ATOM     29  N   UNL A   1      37.727  23.084  25.509  1.00  0.00    -0.352 N 
ATOM     30  C   UNL A   1      38.946  23.189  26.163  1.00  0.00     0.251 C 
ATOM     31  H   UNL A   1      37.558  22.193  25.124  1.00  0.00     0.163 HD
ATOM     32  O   UNL A   1      39.709  22.224  26.217  1.00  0.00    -0.269 OA
BRANCH  30  33
ATOM     33  C   UNL A   1      39.361  24.436  26.828  1.00  0.00     0.039 A 
ATOM     34  C   UNL A   1      40.125  25.411  26.164  1.00  0.00     0.014 A 
ATOM     35  C   UNL A   1      39.044  24.601  28.168  1.00  0.00     0.014 A 
ATOM     36  C   UNL A   1      40.503  26.580  26.840  1.00  0.00     0.010 A 
ATOM     37  C   UNL A   1      39.288  25.808  28.785  1.00  0.00     0.010 A 
ATOM     38  C   UNL A   1      40.057  26.795  28.150  1.00  0.00    -0.014 A 
BRANCH  38  39
ATOM     39  C   UNL A   1      40.412  27.967  28.987  1.00  0.00     0.031 A 
ATOM     40  C   UNL A   1      41.636  27.853  29.862  1.00  0.00     0.074 A 
ATOM     41  C   UNL A   1      39.549  28.990  29.125  1.00  0.00     0.049 A 
ATOM     42  N   UNL A   1      41.941  28.501  30.953  1.00  0.00    -0.248 NA
ATOM     43  C   UNL A   1      42.588  26.778  29.516  1.00  0.00     0.031 C 
ATOM     44  C   UNL A   1      38.310  29.177  28.367  1.00  0.00     0.029 A 
ATOM     45  N   UNL A   1      39.568  30.050  29.994  1.00  0.00    -0.354 N 
ATOM     46  C   UNL A   1      43.060  27.853  31.469  1.00  0.00     0.074 A 
ATOM     47  C   UNL A   1      43.337  26.727  30.607  1.00  0.00     0.031 C 
ATOM     48  C   UNL A   1      37.696  30.294  28.793  1.00  0.00     0.029 A 
ATOM     49  C   UNL A   1      38.469  30.869  29.888  1.00  0.00     0.049 A 
ATOM     50  H   UNL A   1      40.301  30.211  30.633  1.00  0.00     0.167 HD
ATOM     51  C   UNL A   1      43.801  28.183  32.552  1.00  0.00     0.031 A 
ATOM     52  C   UNL A   1      38.124  31.953  30.609  1.00  0.00     0.031 A 
ATOM     53  C   UNL A   1      43.556  29.368  33.327  1.00  0.00     0.049 A 
ATOM     54  C   UNL A   1      39.032  32.379  31.733  1.00  0.00     0.074 A 
ATOM     55  C   UNL A   1      44.296  29.887  34.373  1.00  0.00     0.029 A 
ATOM     56  N   UNL A   1      42.502  30.244  33.102  1.00  0.00    -0.354 N 
ATOM     57  N   UNL A   1      40.106  31.780  32.193  1.00  0.00    -0.248 NA
ATOM     58  C   UNL A   1      38.692  33.630  32.421  1.00  0.00     0.031 C 
ATOM     59  C   UNL A   1      43.675  31.070  34.793  1.00  0.00     0.029 A 
ATOM     60  C   UNL A   1      42.576  31.307  33.980  1.00  0.00     0.049 A 
ATOM     61  H   UNL A   1      41.805  30.124  32.418  1.00  0.00     0.167 HD
ATOM     62  C   UNL A   1      40.591  32.599  33.206  1.00  0.00     0.074 A 
ATOM     63  C   UNL A   1      39.698  33.740  33.279  1.00  0.00     0.031 C 
ATOM     64  C   UNL A   1      41.673  32.429  34.006  1.00  0.00     0.031 A 
BRANCH  51  65
ATOM     65  C   UNL A   1      44.947  27.277  32.929  1.00  0.00    -0.014 A 
ATOM     66  C   UNL A   1      46.270  27.576  32.551  1.00  0.00     0.010 A 
ATOM     67  C   UNL A   1      44.706  26.113  33.684  1.00  0.00     0.010 A 
ATOM     68  C   UNL A   1      47.316  26.703  32.860  1.00  0.00     0.020 A 
ATOM     69  C   UNL A   1      45.757  25.254  34.030  1.00  0.00     0.020 A 
ATOM     70  C   UNL A   1      47.052  25.545  33.596  1.00  0.00     0.054 A 
BRANCH  70  71
ATOM     71  S   UNL A   1      48.435  24.442  34.001  1.00  0.00     0.124 S 
ATOM     72  O   UNL A   1      49.186  24.429  32.748  1.00  0.00    -0.237 OA
ATOM     73  O   UNL A   1      49.081  25.133  35.113  1.00  0.00    -0.237 OA
ATOM     74  O   UNL A   1      47.783  23.181  34.349  1.00  0.00    -0.744 OA
ENDBRANCH  70  71
ENDBRANCH  51  65
BRANCH  52  75
ATOM     75  C   UNL A   1      36.907  32.732  30.251  1.00  0.00    -0.014 A 
ATOM     76  C   UNL A   1      36.957  33.658  29.193  1.00  0.00     0.010 A 
ATOM     77  C   UNL A   1      35.687  32.530  30.922  1.00  0.00     0.010 A 
ATOM     78  C   UNL A   1      35.818  34.379  28.824  1.00  0.00     0.020 A 
ATOM     79  C   UNL A   1      34.538  33.231  30.538  1.00  0.00     0.020 A 
ATOM     80  C   UNL A   1      34.613  34.160  29.498  1.00  0.00     0.054 A 
BRANCH  80  81
ATOM     81  S   UNL A   1      33.136  35.066  28.960  1.00  0.00     0.124 S 
ATOM     82  O   UNL A   1      32.549  34.144  27.993  1.00  0.00    -0.237 OA
ATOM     83  O   UNL A   1      32.395  35.231  30.209  1.00  0.00    -0.237 OA
ATOM     84  O   UNL A   1      33.678  36.302  28.400  1.00  0.00    -0.744 OA
ENDBRANCH  80  81
ENDBRANCH  52  75
BRANCH  64  85
ATOM     85  C   UNL A   1      41.973  33.523  34.991  1.00  0.00    -0.014 A 
ATOM     86  C   UNL A   1      41.513  33.451  36.316  1.00  0.00     0.010 A 
ATOM     87  C   UNL A   1      42.791  34.597  34.599  1.00  0.00     0.010 A 
ATOM     88  C   UNL A   1      41.844  34.455  37.229  1.00  0.00     0.020 A 
ATOM     89  C   UNL A   1      43.146  35.587  35.515  1.00  0.00     0.020 A 
ATOM     90  C   UNL A   1      42.660  35.515  36.822  1.00  0.00     0.054 A 
BRANCH  90  91
ATOM     91  S   UNL A   1      43.120  36.776  38.040  1.00  0.00     0.124 S 
ATOM     92  O   UNL A   1      43.770  37.782  37.204  1.00  0.00    -0.237 OA
ATOM     93  O   UNL A   1      41.828  37.165  38.601  1.00  0.00    -0.237 OA
ATOM     94  O   UNL A   1      44.002  36.063  38.960  1.00  0.00    -0.744 OA
ENDBRANCH  90  91
ENDBRANCH  64  85
ENDBRANCH  38  39
ENDBRANCH  30  33
ENDBRANCH  28  29
ENDBRANCH   1  28
TORSDOF 16
ENDMDL
MODEL 3
REMARK VINA RESULT:     -10.9      3.729      9.539
REMARK SMILES C[NH2+][C@@]1(C(=O)NCCCNC(=O)c2ccc(-c3c4nc(c(-c5ccc(S(=O)(=O)[O-])cc5)c5ccc([nH]5)c(-c5ccc(S(=O)(=O)[O-])cc5)c5nc(c(-c6ccc(S(=O)(=O)[O-])cc6)c6ccc3[nH]6)C=C5)C=C4)cc2)CCC[C@H]([N@H+](C)C2CC[NH+](C)CC2)C1
REMARK SMILES IDX 8 1 7 2 6 3 4 4 5 5 3 7 73 8 86 9 74 10 76 11 75 12 2 13
REMARK SMILES IDX 1 14 77 17 78 18 79 20 80 21 85 22 81 23 84 24 82 25 83 26
REMARK SMILES IDX 9 28 10 29 11 30 12 32 13 33 14 34 72 35 15 36 71 37 16 38
REMARK SMILES IDX 17 39 18 40 65 41 19 42 70 43 64 44 66 45 20 46 69 47 63 48
REMARK SMILES IDX 62 49 21 51 51 52 32 53 50 54 33 55 36 56 49 57 67 58 34 59
REMARK SMILES IDX 35 60 48 62 68 63 37 64 22 65 23 66 31 67 24 68 30 69 25 70
REMARK SMILES IDX 26 71 27 72 28 73 29 74 52 75 53 76 61 77 54 78 60 79 55 80
REMARK SMILES IDX 56 81 57 82 58 83 59 84 38 85 39 86 47 87 40 88 46 89 41 90
REMARK SMILES IDX 42 91 43 92 44 93 45 94
REMARK H PARENT 6 6 2 15 2 16 77 19 82 27 10 31 66 50 36 61
REMARK Flexibility Score: inf
ROOT
ATOM      1  C   UNL A   1      35.895  23.477  26.244  1.00  0.00     0.042 C 
ENDROOT
BRANCH   1   2
ATOM      2  C   UNL A   1      34.719  24.448  26.157  1.00  0.00     0.118 C 
BRANCH   2   3
ATOM      3  N   UNL A   1      34.052  24.478  24.859  1.00  0.00    -0.351 N 
ATOM      4  C   UNL A   1      32.664  24.362  24.776  1.00  0.00     0.281 C 
ATOM      5  O   UNL A   1      31.941  24.717  25.709  1.00  0.00    -0.268 OA
ATOM      6  H   UNL A   1      34.584  24.581  24.037  1.00  0.00     0.163 HD
BRANCH   4   7
ATOM      7  C   UNL A   1      32.061  23.837  23.409  1.00  0.00     0.181 C 
ATOM      8  C   UNL A   1      33.040  23.954  22.199  1.00  0.00     0.079 C 
ATOM      9  C   UNL A   1      30.745  24.580  23.066  1.00  0.00     0.144 C 
ATOM     10  C   UNL A   1      33.065  25.239  21.379  1.00  0.00     0.013 C 
ATOM     11  C   UNL A   1      30.942  26.052  22.571  1.00  0.00     0.190 C 
ATOM     12  C   UNL A   1      31.743  25.968  21.273  1.00  0.00     0.065 C 
BRANCH   7  13
ATOM     13  N   UNL A   1      31.745  22.372  23.607  1.00  0.00    -0.336 N 
ATOM     14  C   UNL A   1      32.126  21.529  22.464  1.00  0.00     0.331 C 
ATOM     15  H   UNL A   1      32.247  22.043  24.432  1.00  0.00     0.346 HD
ATOM     16  H   UNL A   1      30.733  22.296  23.713  1.00  0.00     0.346 HD
ENDBRANCH   7  13
BRANCH  11  17
ATOM     17  N   UNL A   1      31.295  26.979  23.696  1.00  0.00    -0.332 N 
ATOM     18  C   UNL A   1      30.008  27.141  24.446  1.00  0.00     0.333 C 
ATOM     19  H   UNL A   1      32.093  26.528  24.146  1.00  0.00     0.348 HD
BRANCH  17  20
ATOM     20  C   UNL A   1      31.879  28.352  23.471  1.00  0.00     0.195 C 
ATOM     21  C   UNL A   1      33.394  28.590  23.382  1.00  0.00     0.126 C 
ATOM     22  C   UNL A   1      31.456  29.402  24.556  1.00  0.00     0.126 C 
ATOM     23  C   UNL A   1      34.101  28.320  24.706  1.00  0.00     0.268 C 
ATOM     24  C   UNL A   1      32.372  29.595  25.792  1.00  0.00     0.268 C 
ATOM     25  N   UNL A   1      33.807  29.347  25.690  1.00  0.00    -0.337 N 
ATOM     26  C   UNL A   1      34.335  28.932  27.004  1.00  0.00     0.332 C 
ATOM     27  H   UNL A   1      34.255  30.213  25.392  1.00  0.00     0.347 HD
ENDBRANCH  17  20
ENDBRANCH  11  17
ENDBRANCH   4   7
ENDBRANCH   2   3
ENDBRANCH   1   2
BRANCH   1  28
ATOM     28  C   UNL A   1      37.096  23.665  25.293  1.00  0.00     0.118 C 
BRANCH  28  29
ATOM     29  N   UNL A   1      38.267  22.793  25.427  1.00  0.00    -0.352 N 
ATOM     30  C   UNL A   1      39.510  22.984  26.014  1.00  0.00     0.251 C 
ATOM     31  H   UNL A   1      38.150  21.903  25.023  1.00  0.00     0.163 HD
ATOM     32  O   UNL A   1      40.352  22.086  25.993  1.00  0.00    -0.269 OA
BRANCH  30  33
ATOM     33  C   UNL A   1      39.858  24.243  26.694  1.00  0.00     0.039 A 
ATOM     34  C   UNL A   1      40.585  25.257  26.048  1.00  0.00     0.014 A 
ATOM     35  C   UNL A   1      39.518  24.381  28.031  1.00  0.00     0.014 A 
ATOM     36  C   UNL A   1      40.900  26.436  26.738  1.00  0.00     0.010 A 
ATOM     37  C   UNL A   1      39.699  25.592  28.661  1.00  0.00     0.010 A 
ATOM     38  C   UNL A   1      40.430  26.619  28.045  1.00  0.00    -0.014 A 
BRANCH  38  39
ATOM     39  C   UNL A   1      40.719  27.799  28.895  1.00  0.00     0.031 A 
ATOM     40  C   UNL A   1      41.911  27.716  29.818  1.00  0.00     0.074 A 
ATOM     41  C   UNL A   1      39.825  28.798  29.000  1.00  0.00     0.049 A 
ATOM     42  N   UNL A   1      42.155  28.370  30.920  1.00  0.00    -0.248 NA
ATOM     43  C   UNL A   1      42.904  26.668  29.509  1.00  0.00     0.031 C 
ATOM     44  C   UNL A   1      38.612  28.953  28.194  1.00  0.00     0.029 A 
ATOM     45  N   UNL A   1      39.781  29.857  29.870  1.00  0.00    -0.354 N 
ATOM     46  C   UNL A   1      43.270  27.751  31.479  1.00  0.00     0.074 A 
ATOM     47  C   UNL A   1      43.611  26.634  30.628  1.00  0.00     0.031 C 
ATOM     48  C   UNL A   1      37.952  30.052  28.597  1.00  0.00     0.029 A 
ATOM     49  C   UNL A   1      38.665  30.646  29.722  1.00  0.00     0.049 A 
ATOM     50  H   UNL A   1      40.483  30.036  30.538  1.00  0.00     0.167 HD
ATOM     51  C   UNL A   1      43.959  28.099  32.591  1.00  0.00     0.031 A 
ATOM     52  C   UNL A   1      38.263  31.719  30.429  1.00  0.00     0.031 A 
ATOM     53  C   UNL A   1      43.652  29.276  33.356  1.00  0.00     0.049 A 
ATOM     54  C   UNL A   1      39.115  32.167  31.588  1.00  0.00     0.074 A 
ATOM     55  C   UNL A   1      44.336  29.813  34.431  1.00  0.00     0.029 A 
ATOM     56  N   UNL A   1      42.584  30.124  33.091  1.00  0.00    -0.354 N 
ATOM     57  N   UNL A   1      40.185  31.597  32.090  1.00  0.00    -0.248 NA
ATOM     58  C   UNL A   1      38.715  33.407  32.263  1.00  0.00     0.031 C 
ATOM     59  C   UNL A   1      43.668  30.977  34.827  1.00  0.00     0.029 A 
ATOM     60  C   UNL A   1      42.596  31.187  33.972  1.00  0.00     0.049 A 
ATOM     61  H   UNL A   1      41.918  29.986  32.379  1.00  0.00     0.167 HD
ATOM     62  C   UNL A   1      40.608  32.427  33.121  1.00  0.00     0.074 A 
ATOM     63  C   UNL A   1      39.683  33.543  33.160  1.00  0.00     0.031 C 
ATOM     64  C   UNL A   1      41.662  32.284  33.963  1.00  0.00     0.031 A 
BRANCH  51  65
ATOM     65  C   UNL A   1      45.113  27.223  33.012  1.00  0.00    -0.014 A 
ATOM     66  C   UNL A   1      46.432  27.508  32.609  1.00  0.00     0.010 A 
ATOM     67  C   UNL A   1      44.885  26.103  33.834  1.00  0.00     0.010 A 
ATOM     68  C   UNL A   1      47.485  26.662  32.961  1.00  0.00     0.020 A 
ATOM     69  C   UNL A   1      45.943  25.273  34.222  1.00  0.00     0.020 A 
ATOM     70  C   UNL A   1      47.233  25.546  33.764  1.00  0.00     0.054 A 
BRANCH  70  71
ATOM     71  S   UNL A   1      48.626  24.477  34.223  1.00  0.00     0.124 S 
ATOM     72  O   UNL A   1      49.167  25.173  35.388  1.00  0.00    -0.237 OA
ATOM     73  O   UNL A   1      47.972  23.201  34.501  1.00  0.00    -0.237 OA
ATOM     74  O   UNL A   1      49.480  24.490  33.038  1.00  0.00    -0.744 OA
ENDBRANCH  70  71
ENDBRANCH  51  65
BRANCH  52  75
ATOM     75  C   UNL A   1      37.041  32.466  30.024  1.00  0.00    -0.014 A 
ATOM     76  C   UNL A   1      35.817  32.205  30.668  1.00  0.00     0.010 A 
ATOM     77  C   UNL A   1      37.090  33.466  29.036  1.00  0.00     0.010 A 
ATOM     78  C   UNL A   1      34.664  32.914  30.321  1.00  0.00     0.020 A 
ATOM     79  C   UNL A   1      35.943  34.197  28.704  1.00  0.00     0.020 A 
ATOM     80  C   UNL A   1      34.734  33.909  29.342  1.00  0.00     0.054 A 
BRANCH  80  81
ATOM     81  S   UNL A   1      33.237  34.856  28.951  1.00  0.00     0.124 S 
ATOM     82  O   UNL A   1      32.607  34.023  27.933  1.00  0.00    -0.237 OA
ATOM     83  O   UNL A   1      32.551  34.909  30.240  1.00  0.00    -0.237 OA
ATOM     84  O   UNL A   1      33.756  36.138  28.480  1.00  0.00    -0.744 OA
ENDBRANCH  80  81
ENDBRANCH  52  75
BRANCH  64  85
ATOM     85  C   UNL A   1      41.894  33.384  34.960  1.00  0.00    -0.014 A 
ATOM     86  C   UNL A   1      41.343  33.320  36.250  1.00  0.00     0.010 A 
ATOM     87  C   UNL A   1      42.738  34.456  34.619  1.00  0.00     0.010 A 
ATOM     88  C   UNL A   1      41.610  34.330  37.177  1.00  0.00     0.020 A 
ATOM     89  C   UNL A   1      43.029  35.451  35.551  1.00  0.00     0.020 A 
ATOM     90  C   UNL A   1      42.453  35.387  36.822  1.00  0.00     0.054 A 
BRANCH  90  91
ATOM     91  S   UNL A   1      42.828  36.656  38.061  1.00  0.00     0.124 S 
ATOM     92  O   UNL A   1      41.494  37.085  38.468  1.00  0.00    -0.237 OA
ATOM     93  O   UNL A   1      43.582  35.909  39.065  1.00  0.00    -0.237 OA
ATOM     94  O   UNL A   1      43.604  37.646  37.318  1.00  0.00    -0.744 OA
ENDBRANCH  90  91
ENDBRANCH  64  85
ENDBRANCH  38  39
ENDBRANCH  30  33
ENDBRANCH  28  29
ENDBRANCH   1  28
TORSDOF 16
ENDMDL
