MODEL 1
REMARK VINA RESULT:     -12.0      0.000      0.000
REMARK SMILES O=C(NCCCNC(=O)[C@H]1CC2(CCN(S(=O)(=O)N3CCOCC3)CC2)C[NH2+]1)c1ccc(-c2c3nc(c(-c4ccc(S(=O)(=O)[O-])cc4)c4ccc([nH]4)c(-c4ccc(S(=O)(=O)[O-])cc4)c4nc(c(-c5ccc(S(=O)(=O)[O-])cc5)c5ccc2[nH]5)C=C4)C=C3)cc1
REMARK SMILES IDX 4 1 3 2 1 3 2 4 29 6 30 7 88 8 31 9 87 10 32 11 33 12 34 13
REMARK SMILES IDX 81 14 35 15 86 16 80 17 82 18 36 19 85 20 79 21 78 22 37 24
REMARK SMILES IDX 67 25 48 26 66 27 49 28 52 29 65 30 83 31 50 32 51 33 64 35
REMARK SMILES IDX 84 36 53 37 38 38 39 39 47 40 40 41 46 42 41 43 42 44 43 45
REMARK SMILES IDX 44 46 45 47 68 48 69 49 77 50 70 51 76 52 71 53 72 54 73 55
REMARK SMILES IDX 74 56 75 57 54 58 55 59 63 60 56 61 62 62 57 63 58 64 59 65
REMARK SMILES IDX 60 66 61 67 5 68 6 69 7 70 8 71 9 73 10 74 11 75 28 76 12 77
REMARK SMILES IDX 27 78 13 81 26 82 14 83 25 84 15 85 16 86 17 87 18 88 19 89
REMARK SMILES IDX 20 90 24 91 21 92 23 93 22 94
REMARK H PARENT 3 5 82 23 52 34 7 72 28 79 28 80
REMARK Flexibility Score: inf
ROOT
ATOM      1  C   UNL A   1      41.833  23.184  27.479  1.00  0.00     0.118 C 
ENDROOT
BRANCH   1   2
ATOM      2  N   UNL A   1      42.076  23.979  26.281  1.00  0.00    -0.352 N 
ATOM      3  O   UNL A   1      41.972  25.790  24.947  1.00  0.00    -0.269 OA
ATOM      4  C   UNL A   1      41.913  25.327  26.082  1.00  0.00     0.251 C 
ATOM      5  H   UNL A   1      42.404  23.475  25.502  1.00  0.00     0.163 HD
BRANCH   4   6
ATOM      6  C   UNL A   1      41.653  26.205  27.239  1.00  0.00     0.039 A 
ATOM      7  C   UNL A   1      42.508  27.274  27.516  1.00  0.00     0.014 A 
ATOM      8  C   UNL A   1      40.545  25.958  28.053  1.00  0.00     0.014 A 
ATOM      9  C   UNL A   1      42.346  27.999  28.687  1.00  0.00     0.010 A 
ATOM     10  C   UNL A   1      40.326  26.756  29.179  1.00  0.00     0.010 A 
ATOM     11  C   UNL A   1      41.239  27.766  29.520  1.00  0.00    -0.014 A 
BRANCH  11  12
ATOM     12  C   UNL A   1      41.021  28.646  30.693  1.00  0.00     0.031 A 
ATOM     13  C   UNL A   1      41.897  28.558  31.912  1.00  0.00     0.074 A 
ATOM     14  C   UNL A   1      40.024  29.552  30.635  1.00  0.00     0.049 A 
ATOM     15  N   UNL A   1      41.846  29.269  33.009  1.00  0.00    -0.248 NA
ATOM     16  C   UNL A   1      42.957  27.539  31.904  1.00  0.00     0.031 C 
ATOM     17  C   UNL A   1      39.108  29.727  29.503  1.00  0.00     0.029 A 
ATOM     18  N   UNL A   1      39.623  30.506  31.533  1.00  0.00    -0.354 N 
ATOM     19  C   UNL A   1      42.854  28.776  33.830  1.00  0.00     0.074 A 
ATOM     20  C   UNL A   1      43.480  27.685  33.115  1.00  0.00     0.031 C 
ATOM     21  C   UNL A   1      38.290  30.757  29.752  1.00  0.00     0.029 A 
ATOM     22  C   UNL A   1      38.569  31.267  31.088  1.00  0.00     0.049 A 
ATOM     23  H   UNL A   1      40.051  30.636  32.411  1.00  0.00     0.167 HD
ATOM     24  C   UNL A   1      43.222  29.199  35.064  1.00  0.00     0.031 A 
ATOM     25  C   UNL A   1      37.880  32.253  31.694  1.00  0.00     0.031 A 
ATOM     26  C   UNL A   1      42.580  30.280  35.770  1.00  0.00     0.049 A 
ATOM     27  C   UNL A   1      38.277  32.666  33.081  1.00  0.00     0.074 A 
ATOM     28  C   UNL A   1      42.898  30.803  37.013  1.00  0.00     0.029 A 
ATOM     29  N   UNL A   1      41.485  30.995  35.307  1.00  0.00    -0.354 N 
ATOM     30  N   UNL A   1      39.258  32.214  33.824  1.00  0.00    -0.248 NA
ATOM     31  C   UNL A   1      37.475  33.723  33.709  1.00  0.00     0.031 C 
ATOM     32  C   UNL A   1      41.955  31.787  37.327  1.00  0.00     0.029 A 
ATOM     33  C   UNL A   1      41.094  31.930  36.251  1.00  0.00     0.049 A 
ATOM     34  H   UNL A   1      41.051  30.858  34.434  1.00  0.00     0.167 HD
ATOM     35  C   UNL A   1      39.205  32.947  35.003  1.00  0.00     0.074 A 
ATOM     36  C   UNL A   1      38.110  33.885  34.861  1.00  0.00     0.031 C 
ATOM     37  C   UNL A   1      39.994  32.852  36.101  1.00  0.00     0.031 A 
BRANCH  24  38
ATOM     38  C   UNL A   1      44.350  28.468  35.749  1.00  0.00    -0.014 A 
ATOM     39  C   UNL A   1      45.686  28.889  35.615  1.00  0.00     0.010 A 
ATOM     40  C   UNL A   1      44.064  27.368  36.579  1.00  0.00     0.010 A 
ATOM     41  C   UNL A   1      46.716  28.197  36.259  1.00  0.00     0.020 A 
ATOM     42  C   UNL A   1      45.087  26.692  37.251  1.00  0.00     0.020 A 
ATOM     43  C   UNL A   1      46.410  27.101  37.071  1.00  0.00     0.054 A 
BRANCH  43  44
ATOM     44  S   UNL A   1      47.766  26.229  37.904  1.00  0.00     0.124 S 
ATOM     45  O   UNL A   1      48.582  25.793  36.773  1.00  0.00    -0.237 OA
ATOM     46  O   UNL A   1      48.355  27.276  38.734  1.00  0.00    -0.237 OA
ATOM     47  O   UNL A   1      47.095  25.159  38.637  1.00  0.00    -0.744 OA
ENDBRANCH  43  44
ENDBRANCH  24  38
BRANCH  25  48
ATOM     48  C   UNL A   1      36.737  32.892  30.989  1.00  0.00    -0.014 A 
ATOM     49  C   UNL A   1      35.418  32.691  31.430  1.00  0.00     0.010 A 
ATOM     50  C   UNL A   1      36.969  33.737  29.887  1.00  0.00     0.010 A 
ATOM     51  C   UNL A   1      34.351  33.313  30.774  1.00  0.00     0.020 A 
ATOM     52  C   UNL A   1      35.910  34.387  29.251  1.00  0.00     0.020 A 
ATOM     53  C   UNL A   1      34.606  34.160  29.692  1.00  0.00     0.054 A 
BRANCH  53  54
ATOM     54  S   UNL A   1      33.210  34.999  28.893  1.00  0.00     0.124 S 
ATOM     55  O   UNL A   1      32.331  35.270  30.026  1.00  0.00    -0.237 OA
ATOM     56  O   UNL A   1      33.847  36.168  28.292  1.00  0.00    -0.237 OA
ATOM     57  O   UNL A   1      32.715  34.008  27.940  1.00  0.00    -0.744 OA
ENDBRANCH  53  54
ENDBRANCH  25  48
BRANCH  37  58
ATOM     58  C   UNL A   1      39.718  33.809  37.231  1.00  0.00    -0.014 A 
ATOM     59  C   UNL A   1      38.918  33.438  38.327  1.00  0.00     0.010 A 
ATOM     60  C   UNL A   1      40.303  35.089  37.213  1.00  0.00     0.010 A 
ATOM     61  C   UNL A   1      38.681  34.342  39.367  1.00  0.00     0.020 A 
ATOM     62  C   UNL A   1      40.097  35.982  38.266  1.00  0.00     0.020 A 
ATOM     63  C   UNL A   1      39.273  35.608  39.330  1.00  0.00     0.054 A 
BRANCH  63  64
ATOM     64  S   UNL A   1      38.985  36.745  40.712  1.00  0.00     0.124 S 
ATOM     65  O   UNL A   1      38.378  37.892  40.041  1.00  0.00    -0.237 OA
ATOM     66  O   UNL A   1      38.092  35.977  41.577  1.00  0.00    -0.237 OA
ATOM     67  O   UNL A   1      40.321  36.979  41.255  1.00  0.00    -0.744 OA
ENDBRANCH  63  64
ENDBRANCH  37  58
ENDBRANCH  11  12
ENDBRANCH   4   6
ENDBRANCH   1   2
BRANCH   1  68
ATOM     68  C   UNL A   1      40.742  22.137  27.274  1.00  0.00     0.042 C 
BRANCH  68  69
ATOM     69  C   UNL A   1      39.446  22.723  26.733  1.00  0.00     0.118 C 
BRANCH  69  70
ATOM     70  N   UNL A   1      38.900  21.881  25.691  1.00  0.00    -0.351 N 
ATOM     71  C   UNL A   1      37.603  21.663  25.342  1.00  0.00     0.278 C 
ATOM     72  H   UNL A   1      39.567  21.395  25.153  1.00  0.00     0.163 HD
ATOM     73  O   UNL A   1      37.384  20.806  24.483  1.00  0.00    -0.268 OA
BRANCH  71  74
ATOM     74  C   UNL A   1      36.511  22.559  25.928  1.00  0.00     0.273 C 
ATOM     75  C   UNL A   1      35.754  23.287  24.830  1.00  0.00     0.088 C 
ATOM     76  N   UNL A   1      35.420  21.813  26.584  1.00  0.00    -0.336 N 
ATOM     77  C   UNL A   1      34.380  23.614  25.445  1.00  0.00     0.028 C 
ATOM     78  C   UNL A   1      34.361  22.810  26.756  1.00  0.00     0.268 C 
ATOM     79  H   UNL A   1      35.722  21.445  27.486  1.00  0.00     0.346 HD
ATOM     80  H   UNL A   1      35.113  21.006  26.039  1.00  0.00     0.346 HD
ATOM     81  C   UNL A   1      33.270  23.122  24.500  1.00  0.00     0.030 C 
ATOM     82  C   UNL A   1      34.238  25.129  25.711  1.00  0.00     0.030 C 
ATOM     83  C   UNL A   1      33.185  24.004  23.266  1.00  0.00     0.104 C 
ATOM     84  C   UNL A   1      34.051  25.949  24.432  1.00  0.00     0.104 C 
ATOM     85  N   UNL A   1      32.926  25.419  23.611  1.00  0.00    -0.189 NA
BRANCH  85  86
ATOM     86  S   UNL A   1      31.383  25.880  24.141  1.00  0.00     0.282 S 
ATOM     87  O   UNL A   1      30.397  25.056  23.491  1.00  0.00    -0.195 OA
ATOM     88  O   UNL A   1      31.443  25.950  25.586  1.00  0.00    -0.195 OA
BRANCH  86  89
ATOM     89  N   UNL A   1      31.252  27.424  23.562  1.00  0.00    -0.184 NA
ATOM     90  C   UNL A   1      30.443  27.725  22.373  1.00  0.00     0.132 C 
ATOM     91  C   UNL A   1      31.741  28.614  24.290  1.00  0.00     0.132 C 
ATOM     92  C   UNL A   1      29.321  28.675  22.769  1.00  0.00     0.177 C 
ATOM     93  C   UNL A   1      30.645  29.692  24.443  1.00  0.00     0.177 C 
ATOM     94  O   UNL A   1      29.879  29.908  23.249  1.00  0.00    -0.379 OA
ENDBRANCH  86  89
ENDBRANCH  85  86
ENDBRANCH  71  74
ENDBRANCH  69  70
ENDBRANCH  68  69
ENDBRANCH   1  68
TORSDOF 15
ENDMDL
MODEL 2
REMARK VINA RESULT:     -12.0      5.848      8.159
REMARK SMILES O=C(NCCCNC(=O)[C@H]1CC2(CCN(S(=O)(=O)N3CCOCC3)CC2)C[NH2+]1)c1ccc(-c2c3nc(c(-c4ccc(S(=O)(=O)[O-])cc4)c4ccc([nH]4)c(-c4ccc(S(=O)(=O)[O-])cc4)c4nc(c(-c5ccc(S(=O)(=O)[O-])cc5)c5ccc2[nH]5)C=C4)C=C3)cc1
REMARK SMILES IDX 4 1 3 2 1 3 2 4 29 6 30 7 88 8 31 9 87 10 32 11 33 12 34 13
REMARK SMILES IDX 81 14 35 15 86 16 80 17 82 18 36 19 85 20 79 21 78 22 37 24
REMARK SMILES IDX 67 25 48 26 66 27 49 28 52 29 65 30 83 31 50 32 51 33 64 35
REMARK SMILES IDX 84 36 53 37 38 38 39 39 47 40 40 41 46 42 41 43 42 44 43 45
REMARK SMILES IDX 44 46 45 47 68 48 69 49 77 50 70 51 76 52 71 53 72 54 73 55
REMARK SMILES IDX 74 56 75 57 54 58 55 59 63 60 56 61 62 62 57 63 58 64 59 65
REMARK SMILES IDX 60 66 61 67 5 68 6 69 7 70 8 71 9 73 10 74 11 75 28 76 12 77
REMARK SMILES IDX 27 78 13 81 26 82 14 83 25 84 15 85 16 86 17 87 18 88 19 89
REMARK SMILES IDX 20 90 24 91 21 92 23 93 22 94
REMARK H PARENT 3 5 82 23 52 34 7 72 28 79 28 80
REMARK Flexibility Score: inf
ROOT
ATOM      1  C   UNL A   1      39.299  20.322  26.022  1.00  0.00     0.118 C 
ENDROOT
BRANCH   1   2
ATOM      2  N   UNL A   1      40.388  19.355  26.095  1.00  0.00    -0.352 N 
ATOM      3  O   UNL A   1      42.521  18.636  26.041  1.00  0.00    -0.269 OA
ATOM      4  C   UNL A   1      41.739  19.568  26.199  1.00  0.00     0.251 C 
ATOM      5  H   UNL A   1      40.112  18.409  26.064  1.00  0.00     0.163 HD
BRANCH   4   6
ATOM      6  C   UNL A   1      42.239  20.927  26.485  1.00  0.00     0.039 A 
ATOM      7  C   UNL A   1      42.501  21.813  25.437  1.00  0.00     0.014 A 
ATOM      8  C   UNL A   1      42.446  21.319  27.809  1.00  0.00     0.014 A 
ATOM      9  C   UNL A   1      43.113  23.029  25.702  1.00  0.00     0.010 A 
ATOM     10  C   UNL A   1      42.967  22.586  28.080  1.00  0.00     0.010 A 
ATOM     11  C   UNL A   1      43.330  23.441  27.028  1.00  0.00    -0.014 A 
BRANCH  11  12
ATOM     12  C   UNL A   1      43.863  24.802  27.281  1.00  0.00     0.031 A 
ATOM     13  C   UNL A   1      45.306  25.138  27.028  1.00  0.00     0.074 A 
ATOM     14  C   UNL A   1      43.011  25.748  27.729  1.00  0.00     0.049 A 
ATOM     15  N   UNL A   1      45.918  26.284  27.182  1.00  0.00    -0.248 NA
ATOM     16  C   UNL A   1      46.174  24.053  26.549  1.00  0.00     0.031 C 
ATOM     17  C   UNL A   1      41.588  25.534  28.012  1.00  0.00     0.029 A 
ATOM     18  N   UNL A   1      43.207  27.075  28.005  1.00  0.00    -0.354 N 
ATOM     19  C   UNL A   1      47.246  26.057  26.836  1.00  0.00     0.074 A 
ATOM     20  C   UNL A   1      47.355  24.655  26.494  1.00  0.00     0.031 C 
ATOM     21  C   UNL A   1      41.031  26.698  28.371  1.00  0.00     0.029 A 
ATOM     22  C   UNL A   1      42.067  27.722  28.418  1.00  0.00     0.049 A 
ATOM     23  H   UNL A   1      44.080  27.523  27.915  1.00  0.00     0.167 HD
ATOM     24  C   UNL A   1      48.274  26.939  26.807  1.00  0.00     0.031 A 
ATOM     25  C   UNL A   1      41.874  28.993  28.817  1.00  0.00     0.031 A 
ATOM     26  C   UNL A   1      48.154  28.330  27.164  1.00  0.00     0.049 A 
ATOM     27  C   UNL A   1      43.043  29.935  28.823  1.00  0.00     0.074 A 
ATOM     28  C   UNL A   1      49.130  29.312  27.139  1.00  0.00     0.029 A 
ATOM     29  N   UNL A   1      46.994  28.937  27.623  1.00  0.00    -0.354 N 
ATOM     30  N   UNL A   1      44.281  29.710  28.455  1.00  0.00    -0.248 NA
ATOM     31  C   UNL A   1      42.787  31.300  29.295  1.00  0.00     0.031 C 
ATOM     32  C   UNL A   1      48.577  30.493  27.645  1.00  0.00     0.029 A 
ATOM     33  C   UNL A   1      47.237  30.269  27.916  1.00  0.00     0.049 A 
ATOM     34  H   UNL A   1      46.124  28.487  27.725  1.00  0.00     0.167 HD
ATOM     35  C   UNL A   1      44.950  30.915  28.632  1.00  0.00     0.074 A 
ATOM     36  C   UNL A   1      43.972  31.867  29.118  1.00  0.00     0.031 C 
ATOM     37  C   UNL A   1      46.256  31.205  28.410  1.00  0.00     0.031 A 
BRANCH  24  38
ATOM     38  C   UNL A   1      49.633  26.419  26.408  1.00  0.00    -0.014 A 
ATOM     39  C   UNL A   1      50.137  26.603  25.107  1.00  0.00     0.010 A 
ATOM     40  C   UNL A   1      50.441  25.774  27.364  1.00  0.00     0.010 A 
ATOM     41  C   UNL A   1      51.399  26.114  24.758  1.00  0.00     0.020 A 
ATOM     42  C   UNL A   1      51.717  25.312  27.029  1.00  0.00     0.020 A 
ATOM     43  C   UNL A   1      52.180  25.468  25.722  1.00  0.00     0.054 A 
BRANCH  43  44
ATOM     44  S   UNL A   1      53.819  24.853  25.244  1.00  0.00     0.124 S 
ATOM     45  O   UNL A   1      53.569  23.422  25.089  1.00  0.00    -0.237 OA
ATOM     46  O   UNL A   1      54.083  25.581  24.006  1.00  0.00    -0.237 OA
ATOM     47  O   UNL A   1      54.671  25.218  26.372  1.00  0.00    -0.744 OA
ENDBRANCH  43  44
ENDBRANCH  24  38
BRANCH  25  48
ATOM     48  C   UNL A   1      40.522  29.428  29.258  1.00  0.00    -0.014 A 
ATOM     49  C   UNL A   1      40.215  29.542  30.625  1.00  0.00     0.010 A 
ATOM     50  C   UNL A   1      39.542  29.765  28.307  1.00  0.00     0.010 A 
ATOM     51  C   UNL A   1      38.948  29.971  31.031  1.00  0.00     0.020 A 
ATOM     52  C   UNL A   1      38.287  30.228  28.707  1.00  0.00     0.020 A 
ATOM     53  C   UNL A   1      37.994  30.316  30.069  1.00  0.00     0.054 A 
BRANCH  53  54
ATOM     54  S   UNL A   1      36.378  30.924  30.621  1.00  0.00     0.124 S 
ATOM     55  O   UNL A   1      35.596  30.867  29.390  1.00  0.00    -0.237 OA
ATOM     56  O   UNL A   1      36.011  29.954  31.649  1.00  0.00    -0.237 OA
ATOM     57  O   UNL A   1      36.668  32.267  31.117  1.00  0.00    -0.744 OA
ENDBRANCH  53  54
ENDBRANCH  25  48
BRANCH  37  58
ATOM     58  C   UNL A   1      46.698  32.622  28.666  1.00  0.00    -0.014 A 
ATOM     59  C   UNL A   1      46.531  33.627  27.696  1.00  0.00     0.010 A 
ATOM     60  C   UNL A   1      47.253  32.960  29.914  1.00  0.00     0.010 A 
ATOM     61  C   UNL A   1      46.944  34.937  27.959  1.00  0.00     0.020 A 
ATOM     62  C   UNL A   1      47.634  34.274  30.192  1.00  0.00     0.020 A 
ATOM     63  C   UNL A   1      47.492  35.252  29.206  1.00  0.00     0.054 A 
BRANCH  63  64
ATOM     64  S   UNL A   1      47.978  36.966  29.536  1.00  0.00     0.124 S 
ATOM     65  O   UNL A   1      49.340  37.003  29.009  1.00  0.00    -0.237 OA
ATOM     66  O   UNL A   1      46.990  37.730  28.779  1.00  0.00    -0.237 OA
ATOM     67  O   UNL A   1      47.870  37.085  30.988  1.00  0.00    -0.744 OA
ENDBRANCH  63  64
ENDBRANCH  37  58
ENDBRANCH  11  12
ENDBRANCH   4   6
ENDBRANCH   1   2
BRANCH   1  68
ATOM     68  C   UNL A   1      38.249  19.944  24.983  1.00  0.00     0.042 C 
BRANCH  68  69
ATOM     69  C   UNL A   1      36.968  20.758  25.103  1.00  0.00     0.118 C 
BRANCH  69  70
ATOM     70  N   UNL A   1      35.811  19.936  24.822  1.00  0.00    -0.351 N 
ATOM     71  C   UNL A   1      34.524  20.077  25.240  1.00  0.00     0.278 C 
ATOM     72  H   UNL A   1      35.980  19.159  24.240  1.00  0.00     0.163 HD
ATOM     73  O   UNL A   1      33.734  19.176  24.955  1.00  0.00    -0.268 OA
BRANCH  71  74
ATOM     74  C   UNL A   1      34.099  21.379  25.921  1.00  0.00     0.273 C 
ATOM     75  C   UNL A   1      33.336  22.274  24.959  1.00  0.00     0.088 C 
ATOM     76  N   UNL A   1      33.102  21.190  26.992  1.00  0.00    -0.336 N 
ATOM     77  C   UNL A   1      32.469  23.175  25.860  1.00  0.00     0.028 C 
ATOM     78  C   UNL A   1      32.602  22.542  27.255  1.00  0.00     0.268 C 
ATOM     79  H   UNL A   1      33.535  20.795  27.826  1.00  0.00     0.346 HD
ATOM     80  H   UNL A   1      32.358  20.543  26.726  1.00  0.00     0.346 HD
ATOM     81  C   UNL A   1      31.008  23.115  25.382  1.00  0.00     0.030 C 
ATOM     82  C   UNL A   1      32.987  24.631  25.850  1.00  0.00     0.030 C 
ATOM     83  C   UNL A   1      30.839  23.868  24.073  1.00  0.00     0.104 C 
ATOM     84  C   UNL A   1      32.691  25.366  24.540  1.00  0.00     0.104 C 
ATOM     85  N   UNL A   1      31.245  25.285  24.191  1.00  0.00    -0.189 NA
BRANCH  85  86
ATOM     86  S   UNL A   1      30.251  26.370  25.032  1.00  0.00     0.282 S 
ATOM     87  O   UNL A   1      28.921  26.313  24.483  1.00  0.00    -0.195 OA
ATOM     88  O   UNL A   1      30.473  26.130  26.443  1.00  0.00    -0.195 OA
BRANCH  86  89
ATOM     89  N   UNL A   1      30.921  27.836  24.655  1.00  0.00    -0.184 NA
ATOM     90  C   UNL A   1      31.587  28.653  25.678  1.00  0.00     0.132 C 
ATOM     91  C   UNL A   1      31.089  28.327  23.272  1.00  0.00     0.132 C 
ATOM     92  C   UNL A   1      33.049  28.830  25.291  1.00  0.00     0.177 C 
ATOM     93  C   UNL A   1      32.542  28.762  22.983  1.00  0.00     0.177 C 
ATOM     94  O   UNL A   1      33.135  29.531  24.040  1.00  0.00    -0.379 OA
ENDBRANCH  86  89
ENDBRANCH  85  86
ENDBRANCH  71  74
ENDBRANCH  69  70
ENDBRANCH  68  69
ENDBRANCH   1  68
TORSDOF 15
ENDMDL
MODEL 3
REMARK VINA RESULT:     -11.9      4.793     12.023
REMARK SMILES O=C(NCCCNC(=O)[C@H]1CC2(CCN(S(=O)(=O)N3CCOCC3)CC2)C[NH2+]1)c1ccc(-c2c3nc(c(-c4ccc(S(=O)(=O)[O-])cc4)c4ccc([nH]4)c(-c4ccc(S(=O)(=O)[O-])cc4)c4nc(c(-c5ccc(S(=O)(=O)[O-])cc5)c5ccc2[nH]5)C=C4)C=C3)cc1
REMARK SMILES IDX 4 1 3 2 1 3 2 4 29 6 30 7 88 8 31 9 87 10 32 11 33 12 34 13
REMARK SMILES IDX 81 14 35 15 86 16 80 17 82 18 36 19 85 20 79 21 78 22 37 24
REMARK SMILES IDX 67 25 48 26 66 27 49 28 52 29 65 30 83 31 50 32 51 33 64 35
REMARK SMILES IDX 84 36 53 37 38 38 39 39 47 40 40 41 46 42 41 43 42 44 43 45
REMARK SMILES IDX 44 46 45 47 68 48 69 49 77 50 70 51 76 52 71 53 72 54 73 55
REMARK SMILES IDX 74 56 75 57 54 58 55 59 63 60 56 61 62 62 57 63 58 64 59 65
REMARK SMILES IDX 60 66 61 67 5 68 6 69 7 70 8 71 9 73 10 74 11 75 28 76 12 77
REMARK SMILES IDX 27 78 13 81 26 82 14 83 25 84 15 85 16 86 17 87 18 88 19 89
REMARK SMILES IDX 20 90 24 91 21 92 23 93 22 94
REMARK H PARENT 3 5 82 23 52 34 7 72 28 79 28 80
REMARK Flexibility Score: inf
ROOT
ATOM      1  C   UNL A   1      34.627  32.692  28.343  1.00  0.00     0.118 C 
ENDROOT
BRANCH   1   2
ATOM      2  N   UNL A   1      33.919  31.435  28.134  1.00  0.00    -0.352 N 
ATOM      3  O   UNL A   1      33.685  29.257  27.612  1.00  0.00    -0.269 OA
ATOM      4  C   UNL A   1      34.421  30.166  27.983  1.00  0.00     0.251 C 
ATOM      5  H   UNL A   1      32.938  31.506  28.096  1.00  0.00     0.163 HD
BRANCH   4   6
ATOM      6  C   UNL A   1      35.849  29.914  28.254  1.00  0.00     0.039 A 
ATOM      7  C   UNL A   1      36.795  30.070  27.238  1.00  0.00     0.014 A 
ATOM      8  C   UNL A   1      36.246  29.519  29.533  1.00  0.00     0.014 A 
ATOM      9  C   UNL A   1      38.109  29.685  27.456  1.00  0.00     0.010 A 
ATOM     10  C   UNL A   1      37.591  29.229  29.779  1.00  0.00     0.010 A 
ATOM     11  C   UNL A   1      38.528  29.284  28.736  1.00  0.00    -0.014 A 
BRANCH  11  12
ATOM     12  C   UNL A   1      39.967  29.008  28.969  1.00  0.00     0.031 A 
ATOM     13  C   UNL A   1      40.578  27.683  28.607  1.00  0.00     0.074 A 
ATOM     14  C   UNL A   1      40.728  29.987  29.500  1.00  0.00     0.049 A 
ATOM     15  N   UNL A   1      41.822  27.295  28.732  1.00  0.00    -0.248 NA
ATOM     16  C   UNL A   1      39.684  26.662  28.042  1.00  0.00     0.031 C 
ATOM     17  C   UNL A   1      40.240  31.313  29.892  1.00  0.00     0.029 A 
ATOM     18  N   UNL A   1      42.067  30.031  29.782  1.00  0.00    -0.354 N 
ATOM     19  C   UNL A   1      41.859  25.981  28.277  1.00  0.00     0.074 A 
ATOM     20  C   UNL A   1      40.505  25.630  27.903  1.00  0.00     0.031 C 
ATOM     21  C   UNL A   1      41.272  32.055  30.314  1.00  0.00     0.029 A 
ATOM     22  C   UNL A   1      42.479  31.238  30.295  1.00  0.00     0.049 A 
ATOM     23  H   UNL A   1      42.677  29.272  29.630  1.00  0.00     0.167 HD
ATOM     24  C   UNL A   1      42.924  25.150  28.180  1.00  0.00     0.031 A 
ATOM     25  C   UNL A   1      43.687  31.641  30.730  1.00  0.00     0.031 A 
ATOM     26  C   UNL A   1      44.265  25.509  28.570  1.00  0.00     0.049 A 
ATOM     27  C   UNL A   1      44.839  30.682  30.658  1.00  0.00     0.074 A 
ATOM     28  C   UNL A   1      45.418  24.747  28.483  1.00  0.00     0.029 A 
ATOM     29  N   UNL A   1      44.633  26.723  29.130  1.00  0.00    -0.354 N 
ATOM     30  N   UNL A   1      44.861  29.457  30.189  1.00  0.00    -0.248 NA
ATOM     31  C   UNL A   1      46.127  31.159  31.173  1.00  0.00     0.031 C 
ATOM     32  C   UNL A   1      46.468  25.476  29.052  1.00  0.00     0.029 A 
ATOM     33  C   UNL A   1      45.987  26.721  29.425  1.00  0.00     0.049 A 
ATOM     34  H   UNL A   1      44.021  27.478  29.293  1.00  0.00     0.167 HD
ATOM     35  C   UNL A   1      46.173  29.023  30.332  1.00  0.00     0.074 A 
ATOM     36  C   UNL A   1      46.915  30.125  30.911  1.00  0.00     0.031 C 
ATOM     37  C   UNL A   1      46.712  27.821  30.012  1.00  0.00     0.031 A 
BRANCH  24  38
ATOM     38  C   UNL A   1      42.679  23.752  27.665  1.00  0.00    -0.014 A 
ATOM     39  C   UNL A   1      42.753  23.453  26.292  1.00  0.00     0.010 A 
ATOM     40  C   UNL A   1      42.417  22.711  28.575  1.00  0.00     0.010 A 
ATOM     41  C   UNL A   1      42.524  22.152  25.836  1.00  0.00     0.020 A 
ATOM     42  C   UNL A   1      42.219  21.402  28.126  1.00  0.00     0.020 A 
ATOM     43  C   UNL A   1      42.255  21.134  26.757  1.00  0.00     0.054 A 
BRANCH  43  44
ATOM     44  S   UNL A   1      41.973  19.453  26.137  1.00  0.00     0.124 S 
ATOM     45  O   UNL A   1      42.395  18.639  27.274  1.00  0.00    -0.237 OA
ATOM     46  O   UNL A   1      40.538  19.451  25.863  1.00  0.00    -0.237 OA
ATOM     47  O   UNL A   1      42.830  19.367  24.957  1.00  0.00    -0.744 OA
ENDBRANCH  43  44
ENDBRANCH  24  38
BRANCH  25  48
ATOM     48  C   UNL A   1      43.850  33.011  31.285  1.00  0.00    -0.014 A 
ATOM     49  C   UNL A   1      43.921  34.127  30.434  1.00  0.00     0.010 A 
ATOM     50  C   UNL A   1      43.900  33.209  32.678  1.00  0.00     0.010 A 
ATOM     51  C   UNL A   1      44.054  35.413  30.964  1.00  0.00     0.020 A 
ATOM     52  C   UNL A   1      43.997  34.495  33.213  1.00  0.00     0.020 A 
ATOM     53  C   UNL A   1      44.086  35.588  32.352  1.00  0.00     0.054 A 
BRANCH  53  54
ATOM     54  S   UNL A   1      44.202  37.271  33.016  1.00  0.00     0.124 S 
ATOM     55  O   UNL A   1      44.119  38.082  31.805  1.00  0.00    -0.237 OA
ATOM     56  O   UNL A   1      43.043  37.340  33.904  1.00  0.00    -0.237 OA
ATOM     57  O   UNL A   1      45.497  37.285  33.692  1.00  0.00    -0.744 OA
ENDBRANCH  53  54
ENDBRANCH  25  48
BRANCH  37  58
ATOM     58  C   UNL A   1      48.188  27.644  30.255  1.00  0.00    -0.014 A 
ATOM     59  C   UNL A   1      49.140  28.026  29.292  1.00  0.00     0.010 A 
ATOM     60  C   UNL A   1      48.629  27.123  31.486  1.00  0.00     0.010 A 
ATOM     61  C   UNL A   1      50.505  27.856  29.544  1.00  0.00     0.020 A 
ATOM     62  C   UNL A   1      49.993  26.985  31.754  1.00  0.00     0.020 A 
ATOM     63  C   UNL A   1      50.922  27.339  30.774  1.00  0.00     0.054 A 
BRANCH  63  64
ATOM     64  S   UNL A   1      52.699  27.171  31.091  1.00  0.00     0.124 S 
ATOM     65  O   UNL A   1      53.110  26.247  30.036  1.00  0.00    -0.237 OA
ATOM     66  O   UNL A   1      53.180  28.543  30.947  1.00  0.00    -0.237 OA
ATOM     67  O   UNL A   1      52.761  26.633  32.448  1.00  0.00    -0.744 OA
ENDBRANCH  63  64
ENDBRANCH  37  58
ENDBRANCH  11  12
ENDBRANCH   4   6
ENDBRANCH   1   2
BRANCH   1  68
ATOM     68  C   UNL A   1      33.700  33.902  28.280  1.00  0.00     0.042 C 
BRANCH  68  69
ATOM     69  C   UNL A   1      34.432  35.225  28.455  1.00  0.00     0.118 C 
BRANCH  69  70
ATOM     70  N   UNL A   1      33.695  36.104  29.339  1.00  0.00    -0.351 N 
ATOM     71  C   UNL A   1      33.194  35.863  30.580  1.00  0.00     0.278 C 
ATOM     72  H   UNL A   1      33.534  37.010  28.990  1.00  0.00     0.163 HD
ATOM     73  O   UNL A   1      32.499  36.744  31.091  1.00  0.00    -0.268 OA
BRANCH  71  74
ATOM     74  C   UNL A   1      33.609  34.590  31.321  1.00  0.00     0.273 C 
ATOM     75  C   UNL A   1      35.091  34.613  31.656  1.00  0.00     0.088 C 
ATOM     76  N   UNL A   1      33.011  34.463  32.663  1.00  0.00    -0.336 N 
ATOM     77  C   UNL A   1      35.237  33.672  32.867  1.00  0.00     0.028 C 
ATOM     78  C   UNL A   1      33.788  33.395  33.298  1.00  0.00     0.268 C 
ATOM     79  H   UNL A   1      32.026  34.207  32.600  1.00  0.00     0.346 HD
ATOM     80  H   UNL A   1      33.042  35.336  33.191  1.00  0.00     0.346 HD
ATOM     81  C   UNL A   1      35.999  34.401  33.987  1.00  0.00     0.030 C 
ATOM     82  C   UNL A   1      35.967  32.368  32.471  1.00  0.00     0.030 C 
ATOM     83  C   UNL A   1      37.468  34.548  33.632  1.00  0.00     0.104 C 
ATOM     84  C   UNL A   1      37.466  32.568  32.229  1.00  0.00     0.104 C 
ATOM     85  N   UNL A   1      38.114  33.241  33.388  1.00  0.00    -0.189 NA
BRANCH  85  86
ATOM     86  S   UNL A   1      38.455  32.222  34.699  1.00  0.00     0.282 S 
ATOM     87  O   UNL A   1      37.263  32.056  35.490  1.00  0.00    -0.195 OA
ATOM     88  O   UNL A   1      39.144  31.067  34.160  1.00  0.00    -0.195 OA
BRANCH  86  89
ATOM     89  N   UNL A   1      39.552  33.107  35.567  1.00  0.00    -0.184 NA
ATOM     90  C   UNL A   1      40.822  33.540  34.970  1.00  0.00     0.132 C 
ATOM     91  C   UNL A   1      39.263  33.696  36.890  1.00  0.00     0.132 C 
ATOM     92  C   UNL A   1      40.867  35.062  34.958  1.00  0.00     0.177 C 
ATOM     93  C   UNL A   1      39.577  35.208  36.934  1.00  0.00     0.177 C 
ATOM     94  O   UNL A   1      40.819  35.557  36.306  1.00  0.00    -0.379 OA
ENDBRANCH  86  89
ENDBRANCH  85  86
ENDBRANCH  71  74
ENDBRANCH  69  70
ENDBRANCH  68  69
ENDBRANCH   1  68
TORSDOF 15
ENDMDL
