MODEL 1
REMARK VINA RESULT:      -9.6      0.000      0.000
REMARK SMILES COC(=O)c1ccc(Cl)c(-c2ccc(C(=O)NCCCNC(=O)c3ccc(-c4c5nc(c(-c6ccc(S(=O)(=O)[O-])cc6)c6ccc([nH]6)c(-c6ccc(S(=O)(=O)[O-])cc6)c6nc(c(-c7ccc(S(=O)(=O)[O-])cc7)c7ccc4[nH]7)C=C6)C=C5)cc3)nc2)c1
REMARK SMILES IDX 19 1 18 2 17 3 15 4 16 5 14 7 11 8 12 9 85 10 13 11 84 12
REMARK SMILES IDX 10 13 5 14 6 15 86 16 7 17 8 18 9 19 3 20 4 21 2 22 1 23
REMARK SMILES IDX 20 24 21 25 22 26 23 28 24 29 25 30 83 31 26 32 82 33 27 34
REMARK SMILES IDX 28 35 29 36 76 37 30 38 81 39 75 40 77 41 31 42 80 43 74 44
REMARK SMILES IDX 73 45 32 47 62 48 43 49 61 50 44 51 47 52 60 53 78 54 45 55
REMARK SMILES IDX 46 56 59 58 79 59 48 60 33 61 34 62 42 63 35 64 41 65 36 66
REMARK SMILES IDX 37 67 38 68 39 69 40 70 63 71 64 72 72 73 65 74 71 75 66 76
REMARK SMILES IDX 67 77 68 78 69 79 70 80 49 81 50 82 58 83 51 84 57 85 52 86
REMARK SMILES IDX 53 87 54 88 55 89 56 90
REMARK H PARENT 17 6 21 27 77 46 47 57
REMARK Flexibility Score: inf
ROOT
ATOM      1  C   UNL A   1      33.533  33.665  28.287  1.00  0.00     0.042 C 
ENDROOT
BRANCH   1   2
ATOM      2  C   UNL A   1      34.052  34.772  29.205  1.00  0.00     0.118 C 
BRANCH   2   3
ATOM      3  N   UNL A   1      33.408  34.723  30.504  1.00  0.00    -0.351 N 
ATOM      4  C   UNL A   1      33.832  34.309  31.747  1.00  0.00     0.269 C 
ATOM      5  O   UNL A   1      33.033  34.470  32.673  1.00  0.00    -0.268 OA
ATOM      6  H   UNL A   1      32.480  35.053  30.495  1.00  0.00     0.163 HD
BRANCH   4   7
ATOM      7  C   UNL A   1      35.189  33.716  32.021  1.00  0.00     0.128 A 
ATOM      8  C   UNL A   1      37.618  32.582  32.751  1.00  0.00     0.002 A 
ATOM      9  C   UNL A   1      37.336  32.832  31.407  1.00  0.00     0.013 A 
ATOM     10  C   UNL A   1      36.623  32.912  33.666  1.00  0.00     0.120 A 
ATOM     11  C   UNL A   1      36.105  33.375  31.035  1.00  0.00     0.035 A 
ATOM     12  N   UNL A   1      35.440  33.479  33.338  1.00  0.00    -0.250 NA
BRANCH   8  13
ATOM     13  C   UNL A   1      38.872  31.944  33.157  1.00  0.00     0.003 A 
ATOM     14  C   UNL A   1      40.186  29.890  33.342  1.00  0.00     0.060 A 
ATOM     15  C   UNL A   1      41.275  30.617  33.830  1.00  0.00     0.017 A 
ATOM     16  C   UNL A   1      39.002  30.552  32.998  1.00  0.00     0.026 A 
ATOM     17  C   UNL A   1      41.165  31.999  33.995  1.00  0.00     0.022 A 
ATOM     18  C   UNL A   1      39.973  32.657  33.671  1.00  0.00     0.048 A 
ATOM     19  Cl  UNL A   1      39.906  34.365  33.941  1.00  0.00    -0.084 Cl
BRANCH  14  20
ATOM     20  C   UNL A   1      40.229  28.417  33.167  1.00  0.00     0.337 C 
ATOM     21  O   UNL A   1      39.245  27.734  32.971  1.00  0.00    -0.246 OA
BRANCH  20  22
ATOM     22  O   UNL A   1      41.496  27.972  33.367  1.00  0.00    -0.465 OA
ATOM     23  C   UNL A   1      41.630  27.141  34.521  1.00  0.00     0.282 C 
ENDBRANCH  20  22
ENDBRANCH  14  20
ENDBRANCH   8  13
ENDBRANCH   4   7
ENDBRANCH   2   3
ENDBRANCH   1   2
BRANCH   1  24
ATOM     24  C   UNL A   1      34.561  32.563  28.026  1.00  0.00     0.118 C 
BRANCH  24  25
ATOM     25  N   UNL A   1      33.945  31.242  27.999  1.00  0.00    -0.352 N 
ATOM     26  C   UNL A   1      34.520  29.996  27.964  1.00  0.00     0.251 C 
ATOM     27  H   UNL A   1      32.960  31.244  28.006  1.00  0.00     0.163 HD
ATOM     28  O   UNL A   1      33.834  29.023  27.669  1.00  0.00    -0.269 OA
BRANCH  26  29
ATOM     29  C   UNL A   1      35.956  29.823  28.275  1.00  0.00     0.039 A 
ATOM     30  C   UNL A   1      36.335  29.524  29.587  1.00  0.00     0.014 A 
ATOM     31  C   UNL A   1      36.927  29.992  27.286  1.00  0.00     0.014 A 
ATOM     32  C   UNL A   1      37.684  29.319  29.889  1.00  0.00     0.010 A 
ATOM     33  C   UNL A   1      38.263  29.723  27.573  1.00  0.00     0.010 A 
ATOM     34  C   UNL A   1      38.654  29.374  28.874  1.00  0.00    -0.014 A 
BRANCH  34  35
ATOM     35  C   UNL A   1      40.073  29.027  29.135  1.00  0.00     0.031 A 
ATOM     36  C   UNL A   1      41.028  30.065  29.656  1.00  0.00     0.074 A 
ATOM     37  C   UNL A   1      40.519  27.797  28.812  1.00  0.00     0.049 A 
ATOM     38  N   UNL A   1      42.321  29.978  29.837  1.00  0.00    -0.248 NA
ATOM     39  C   UNL A   1      40.460  31.379  29.995  1.00  0.00     0.031 C 
ATOM     40  C   UNL A   1      39.694  26.712  28.273  1.00  0.00     0.029 A 
ATOM     41  N   UNL A   1      41.778  27.255  28.871  1.00  0.00    -0.354 N 
ATOM     42  C   UNL A   1      42.724  31.225  30.297  1.00  0.00     0.074 A 
ATOM     43  C   UNL A   1      41.545  32.065  30.324  1.00  0.00     0.031 C 
ATOM     44  C   UNL A   1      40.465  25.632  28.070  1.00  0.00     0.029 A 
ATOM     45  C   UNL A   1      41.845  25.961  28.411  1.00  0.00     0.049 A 
ATOM     46  H   UNL A   1      42.561  27.747  29.211  1.00  0.00     0.167 HD
ATOM     47  C   UNL A   1      43.961  31.631  30.673  1.00  0.00     0.031 A 
ATOM     48  C   UNL A   1      42.898  25.136  28.258  1.00  0.00     0.031 A 
ATOM     49  C   UNL A   1      45.129  30.790  30.637  1.00  0.00     0.049 A 
ATOM     50  C   UNL A   1      44.270  25.625  28.633  1.00  0.00     0.074 A 
ATOM     51  C   UNL A   1      46.416  31.088  31.048  1.00  0.00     0.029 A 
ATOM     52  N   UNL A   1      45.155  29.491  30.151  1.00  0.00    -0.354 N 
ATOM     53  N   UNL A   1      44.620  26.786  29.130  1.00  0.00    -0.248 NA
ATOM     54  C   UNL A   1      45.387  24.694  28.421  1.00  0.00     0.031 C 
ATOM     55  C   UNL A   1      47.233  29.991  30.752  1.00  0.00     0.029 A 
ATOM     56  C   UNL A   1      46.444  28.988  30.213  1.00  0.00     0.049 A 
ATOM     57  H   UNL A   1      44.374  29.000  29.810  1.00  0.00     0.167 HD
ATOM     58  C   UNL A   1      45.997  26.723  29.306  1.00  0.00     0.074 A 
ATOM     59  C   UNL A   1      46.412  25.401  28.879  1.00  0.00     0.031 C 
ATOM     60  C   UNL A   1      46.842  27.674  29.774  1.00  0.00     0.031 A 
BRANCH  47  61
ATOM     61  C   UNL A   1      44.114  33.055  31.142  1.00  0.00    -0.014 A 
ATOM     62  C   UNL A   1      43.994  33.390  32.503  1.00  0.00     0.010 A 
ATOM     63  C   UNL A   1      44.414  34.070  30.214  1.00  0.00     0.010 A 
ATOM     64  C   UNL A   1      44.119  34.717  32.921  1.00  0.00     0.020 A 
ATOM     65  C   UNL A   1      44.570  35.395  30.632  1.00  0.00     0.020 A 
ATOM     66  C   UNL A   1      44.402  35.712  31.981  1.00  0.00     0.054 A 
BRANCH  66  67
ATOM     67  S   UNL A   1      44.565  37.426  32.554  1.00  0.00     0.124 S 
ATOM     68  O   UNL A   1      43.905  37.372  33.857  1.00  0.00    -0.237 OA
ATOM     69  O   UNL A   1      46.013  37.614  32.592  1.00  0.00    -0.237 OA
ATOM     70  O   UNL A   1      43.865  38.202  31.533  1.00  0.00    -0.744 OA
ENDBRANCH  66  67
ENDBRANCH  47  61
BRANCH  48  71
ATOM     71  C   UNL A   1      42.691  23.763  27.721  1.00  0.00    -0.014 A 
ATOM     72  C   UNL A   1      42.801  23.516  26.342  1.00  0.00     0.010 A 
ATOM     73  C   UNL A   1      42.415  22.690  28.588  1.00  0.00     0.010 A 
ATOM     74  C   UNL A   1      42.632  22.223  25.839  1.00  0.00     0.020 A 
ATOM     75  C   UNL A   1      42.273  21.390  28.093  1.00  0.00     0.020 A 
ATOM     76  C   UNL A   1      42.377  21.167  26.719  1.00  0.00     0.054 A 
BRANCH  76  77
ATOM     77  S   UNL A   1      42.232  19.486  26.048  1.00  0.00     0.124 S 
ATOM     78  O   UNL A   1      40.801  19.388  25.779  1.00  0.00    -0.237 OA
ATOM     79  O   UNL A   1      43.096  19.542  24.872  1.00  0.00    -0.237 OA
ATOM     80  O   UNL A   1      42.726  18.642  27.134  1.00  0.00    -0.744 OA
ENDBRANCH  76  77
ENDBRANCH  48  71
BRANCH  60  81
ATOM     81  C   UNL A   1      48.304  27.324  29.855  1.00  0.00    -0.014 A 
ATOM     82  C   UNL A   1      49.191  27.688  28.827  1.00  0.00     0.010 A 
ATOM     83  C   UNL A   1      48.809  26.693  31.007  1.00  0.00     0.010 A 
ATOM     84  C   UNL A   1      50.557  27.415  28.943  1.00  0.00     0.020 A 
ATOM     85  C   UNL A   1      50.177  26.445  31.139  1.00  0.00     0.020 A 
ATOM     86  C   UNL A   1      51.041  26.801  30.103  1.00  0.00     0.054 A 
BRANCH  86  87
ATOM     87  S   UNL A   1      52.828  26.527  30.259  1.00  0.00     0.124 S 
ATOM     88  O   UNL A   1      53.301  27.837  30.698  1.00  0.00    -0.237 OA
ATOM     89  O   UNL A   1      52.902  25.464  31.259  1.00  0.00    -0.237 OA
ATOM     90  O   UNL A   1      53.238  26.137  28.912  1.00  0.00    -0.744 OA
ENDBRANCH  86  87
ENDBRANCH  60  81
ENDBRANCH  34  35
ENDBRANCH  26  29
ENDBRANCH  24  25
ENDBRANCH   1  24
TORSDOF 16
ENDMDL
MODEL 2
REMARK VINA RESULT:      -9.3      1.602      2.125
REMARK SMILES COC(=O)c1ccc(Cl)c(-c2ccc(C(=O)NCCCNC(=O)c3ccc(-c4c5nc(c(-c6ccc(S(=O)(=O)[O-])cc6)c6ccc([nH]6)c(-c6ccc(S(=O)(=O)[O-])cc6)c6nc(c(-c7ccc(S(=O)(=O)[O-])cc7)c7ccc4[nH]7)C=C6)C=C5)cc3)nc2)c1
REMARK SMILES IDX 19 1 18 2 17 3 15 4 16 5 14 7 11 8 12 9 85 10 13 11 84 12
REMARK SMILES IDX 10 13 5 14 6 15 86 16 7 17 8 18 9 19 3 20 4 21 2 22 1 23
REMARK SMILES IDX 20 24 21 25 22 26 23 28 24 29 25 30 83 31 26 32 82 33 27 34
REMARK SMILES IDX 28 35 29 36 76 37 30 38 81 39 75 40 77 41 31 42 80 43 74 44
REMARK SMILES IDX 73 45 32 47 62 48 43 49 61 50 44 51 47 52 60 53 78 54 45 55
REMARK SMILES IDX 46 56 59 58 79 59 48 60 33 61 34 62 42 63 35 64 41 65 36 66
REMARK SMILES IDX 37 67 38 68 39 69 40 70 63 71 64 72 72 73 65 74 71 75 66 76
REMARK SMILES IDX 67 77 68 78 69 79 70 80 49 81 50 82 58 83 51 84 57 85 52 86
REMARK SMILES IDX 53 87 54 88 55 89 56 90
REMARK H PARENT 17 6 21 27 77 46 47 57
REMARK Flexibility Score: inf
ROOT
ATOM      1  C   UNL A   1      33.289  33.613  28.009  1.00  0.00     0.042 C 
ENDROOT
BRANCH   1   2
ATOM      2  C   UNL A   1      33.812  34.973  28.473  1.00  0.00     0.118 C 
BRANCH   2   3
ATOM      3  N   UNL A   1      32.897  35.597  29.410  1.00  0.00    -0.351 N 
ATOM      4  C   UNL A   1      32.941  35.801  30.771  1.00  0.00     0.269 C 
ATOM      5  O   UNL A   1      32.003  36.440  31.254  1.00  0.00    -0.268 OA
ATOM      6  H   UNL A   1      32.079  35.945  28.987  1.00  0.00     0.163 HD
BRANCH   4   7
ATOM      7  C   UNL A   1      34.058  35.319  31.660  1.00  0.00     0.128 A 
ATOM      8  C   UNL A   1      36.175  34.276  33.125  1.00  0.00     0.002 A 
ATOM      9  C   UNL A   1      35.539  35.446  33.546  1.00  0.00     0.013 A 
ATOM     10  C   UNL A   1      35.702  33.701  31.951  1.00  0.00     0.120 A 
ATOM     11  C   UNL A   1      34.494  35.987  32.796  1.00  0.00     0.035 A 
ATOM     12  N   UNL A   1      34.665  34.179  31.228  1.00  0.00    -0.250 NA
BRANCH   8  13
ATOM     13  C   UNL A   1      37.322  33.732  33.856  1.00  0.00     0.003 A 
ATOM     14  C   UNL A   1      38.147  32.533  35.821  1.00  0.00     0.060 A 
ATOM     15  C   UNL A   1      39.448  32.575  35.314  1.00  0.00     0.017 A 
ATOM     16  C   UNL A   1      37.094  33.096  35.090  1.00  0.00     0.026 A 
ATOM     17  C   UNL A   1      39.695  33.202  34.092  1.00  0.00     0.022 A 
ATOM     18  C   UNL A   1      38.644  33.784  33.372  1.00  0.00     0.048 A 
ATOM     19  Cl  UNL A   1      39.039  34.575  31.884  1.00  0.00    -0.084 Cl
BRANCH  14  20
ATOM     20  C   UNL A   1      37.823  31.904  37.125  1.00  0.00     0.337 C 
ATOM     21  O   UNL A   1      37.631  30.714  37.269  1.00  0.00    -0.246 OA
BRANCH  20  22
ATOM     22  O   UNL A   1      37.677  32.868  38.071  1.00  0.00    -0.465 OA
ATOM     23  C   UNL A   1      37.927  32.402  39.397  1.00  0.00     0.282 C 
ENDBRANCH  20  22
ENDBRANCH  14  20
ENDBRANCH   8  13
ENDBRANCH   4   7
ENDBRANCH   2   3
ENDBRANCH   1   2
BRANCH   1  24
ATOM     24  C   UNL A   1      34.340  32.504  28.084  1.00  0.00     0.118 C 
BRANCH  24  25
ATOM     25  N   UNL A   1      33.755  31.187  27.863  1.00  0.00    -0.352 N 
ATOM     26  C   UNL A   1      34.354  29.957  27.757  1.00  0.00     0.251 C 
ATOM     27  H   UNL A   1      32.774  31.178  27.776  1.00  0.00     0.163 HD
ATOM     28  O   UNL A   1      33.718  29.012  27.300  1.00  0.00    -0.269 OA
BRANCH  26  29
ATOM     29  C   UNL A   1      35.757  29.766  28.185  1.00  0.00     0.039 A 
ATOM     30  C   UNL A   1      36.022  29.416  29.512  1.00  0.00     0.014 A 
ATOM     31  C   UNL A   1      36.811  29.968  27.290  1.00  0.00     0.014 A 
ATOM     32  C   UNL A   1      37.339  29.194  29.922  1.00  0.00     0.010 A 
ATOM     33  C   UNL A   1      38.117  29.682  27.682  1.00  0.00     0.010 A 
ATOM     34  C   UNL A   1      38.393  29.283  28.998  1.00  0.00    -0.014 A 
BRANCH  34  35
ATOM     35  C   UNL A   1      39.784  28.921  29.368  1.00  0.00     0.031 A 
ATOM     36  C   UNL A   1      40.685  29.928  30.027  1.00  0.00     0.074 A 
ATOM     37  C   UNL A   1      40.262  27.709  29.021  1.00  0.00     0.049 A 
ATOM     38  N   UNL A   1      41.956  29.829  30.319  1.00  0.00    -0.248 NA
ATOM     39  C   UNL A   1      40.083  31.223  30.383  1.00  0.00     0.031 C 
ATOM     40  C   UNL A   1      39.492  26.655  28.354  1.00  0.00     0.029 A 
ATOM     41  N   UNL A   1      41.512  27.162  29.166  1.00  0.00    -0.354 N 
ATOM     42  C   UNL A   1      42.311  31.050  30.879  1.00  0.00     0.074 A 
ATOM     43  C   UNL A   1      41.133  31.889  30.844  1.00  0.00     0.031 C 
ATOM     44  C   UNL A   1      40.282  25.587  28.164  1.00  0.00     0.029 A 
ATOM     45  C   UNL A   1      41.624  25.894  28.646  1.00  0.00     0.049 A 
ATOM     46  H   UNL A   1      42.259  27.634  29.601  1.00  0.00     0.167 HD
ATOM     47  C   UNL A   1      43.508  31.433  31.387  1.00  0.00     0.031 A 
ATOM     48  C   UNL A   1      42.689  25.077  28.546  1.00  0.00     0.031 A 
ATOM     49  C   UNL A   1      44.678  30.594  31.412  1.00  0.00     0.049 A 
ATOM     50  C   UNL A   1      44.020  25.544  29.068  1.00  0.00     0.074 A 
ATOM     51  C   UNL A   1      45.921  30.868  31.954  1.00  0.00     0.029 A 
ATOM     52  N   UNL A   1      44.752  29.323  30.863  1.00  0.00    -0.354 N 
ATOM     53  N   UNL A   1      44.320  26.676  29.656  1.00  0.00    -0.248 NA
ATOM     54  C   UNL A   1      45.155  24.624  28.909  1.00  0.00     0.031 C 
ATOM     55  C   UNL A   1      46.765  29.787  31.676  1.00  0.00     0.029 A 
ATOM     56  C   UNL A   1      46.031  28.815  31.015  1.00  0.00     0.049 A 
ATOM     57  H   UNL A   1      44.006  28.851  30.427  1.00  0.00     0.167 HD
ATOM     58  C   UNL A   1      45.676  26.601  29.952  1.00  0.00     0.074 A 
ATOM     59  C   UNL A   1      46.132  25.304  29.496  1.00  0.00     0.031 C 
ATOM     60  C   UNL A   1      46.471  27.525  30.544  1.00  0.00     0.031 A 
BRANCH  47  61
ATOM     61  C   UNL A   1      43.614  32.831  31.943  1.00  0.00    -0.014 A 
ATOM     62  C   UNL A   1      43.396  33.089  33.308  1.00  0.00     0.010 A 
ATOM     63  C   UNL A   1      43.966  33.897  31.095  1.00  0.00     0.010 A 
ATOM     64  C   UNL A   1      43.479  34.392  33.806  1.00  0.00     0.020 A 
ATOM     65  C   UNL A   1      44.079  35.198  31.594  1.00  0.00     0.020 A 
ATOM     66  C   UNL A   1      43.815  35.439  32.944  1.00  0.00     0.054 A 
BRANCH  66  67
ATOM     67  S   UNL A   1      43.920  37.119  33.619  1.00  0.00     0.124 S 
ATOM     68  O   UNL A   1      45.041  37.001  34.549  1.00  0.00    -0.237 OA
ATOM     69  O   UNL A   1      44.175  37.928  32.429  1.00  0.00    -0.237 OA
ATOM     70  O   UNL A   1      42.615  37.326  34.242  1.00  0.00    -0.744 OA
ENDBRANCH  66  67
ENDBRANCH  47  61
BRANCH  48  71
ATOM     71  C   UNL A   1      42.536  23.735  27.920  1.00  0.00    -0.014 A 
ATOM     72  C   UNL A   1      42.806  23.554  26.553  1.00  0.00     0.010 A 
ATOM     73  C   UNL A   1      42.152  22.625  28.694  1.00  0.00     0.010 A 
ATOM     74  C   UNL A   1      42.688  22.289  25.969  1.00  0.00     0.020 A 
ATOM     75  C   UNL A   1      42.060  21.353  28.121  1.00  0.00     0.020 A 
ATOM     76  C   UNL A   1      42.322  21.195  26.759  1.00  0.00     0.054 A 
BRANCH  76  77
ATOM     77  S   UNL A   1      42.244  19.551  25.993  1.00  0.00     0.124 S 
ATOM     78  O   UNL A   1      43.135  19.706  24.848  1.00  0.00    -0.237 OA
ATOM     79  O   UNL A   1      42.730  18.683  27.063  1.00  0.00    -0.237 OA
ATOM     80  O   UNL A   1      40.828  19.393  25.670  1.00  0.00    -0.744 OA
ENDBRANCH  76  77
ENDBRANCH  48  71
BRANCH  60  81
ATOM     81  C   UNL A   1      47.921  27.169  30.739  1.00  0.00    -0.014 A 
ATOM     82  C   UNL A   1      48.880  27.489  29.762  1.00  0.00     0.010 A 
ATOM     83  C   UNL A   1      48.340  26.578  31.945  1.00  0.00     0.010 A 
ATOM     84  C   UNL A   1      50.232  27.212  29.982  1.00  0.00     0.020 A 
ATOM     85  C   UNL A   1      49.694  26.327  32.180  1.00  0.00     0.020 A 
ATOM     86  C   UNL A   1      50.631  26.639  31.194  1.00  0.00     0.054 A 
BRANCH  86  87
ATOM     87  S   UNL A   1      52.400  26.359  31.483  1.00  0.00     0.124 S 
ATOM     88  O   UNL A   1      52.981  26.729  30.195  1.00  0.00    -0.237 OA
ATOM     89  O   UNL A   1      52.691  27.269  32.588  1.00  0.00    -0.237 OA
ATOM     90  O   UNL A   1      52.476  24.939  31.816  1.00  0.00    -0.744 OA
ENDBRANCH  86  87
ENDBRANCH  60  81
ENDBRANCH  34  35
ENDBRANCH  26  29
ENDBRANCH  24  25
ENDBRANCH   1  24
TORSDOF 16
ENDMDL
MODEL 3
REMARK VINA RESULT:      -9.2      4.187      7.000
REMARK SMILES COC(=O)c1ccc(Cl)c(-c2ccc(C(=O)NCCCNC(=O)c3ccc(-c4c5nc(c(-c6ccc(S(=O)(=O)[O-])cc6)c6ccc([nH]6)c(-c6ccc(S(=O)(=O)[O-])cc6)c6nc(c(-c7ccc(S(=O)(=O)[O-])cc7)c7ccc4[nH]7)C=C6)C=C5)cc3)nc2)c1
REMARK SMILES IDX 19 1 18 2 17 3 15 4 16 5 14 7 11 8 12 9 85 10 13 11 84 12
REMARK SMILES IDX 10 13 5 14 6 15 86 16 7 17 8 18 9 19 3 20 4 21 2 22 1 23
REMARK SMILES IDX 20 24 21 25 22 26 23 28 24 29 25 30 83 31 26 32 82 33 27 34
REMARK SMILES IDX 28 35 29 36 76 37 30 38 81 39 75 40 77 41 31 42 80 43 74 44
REMARK SMILES IDX 73 45 32 47 62 48 43 49 61 50 44 51 47 52 60 53 78 54 45 55
REMARK SMILES IDX 46 56 59 58 79 59 48 60 33 61 34 62 42 63 35 64 41 65 36 66
REMARK SMILES IDX 37 67 38 68 39 69 40 70 63 71 64 72 72 73 65 74 71 75 66 76
REMARK SMILES IDX 67 77 68 78 69 79 70 80 49 81 50 82 58 83 51 84 57 85 52 86
REMARK SMILES IDX 53 87 54 88 55 89 56 90
REMARK H PARENT 17 6 21 27 77 46 47 57
REMARK Flexibility Score: inf
ROOT
ATOM      1  C   UNL A   1      32.986  28.026  25.823  1.00  0.00     0.042 C 
ENDROOT
BRANCH   1   2
ATOM      2  C   UNL A   1      31.505  28.314  25.574  1.00  0.00     0.118 C 
BRANCH   2   3
ATOM      3  N   UNL A   1      31.178  28.212  24.164  1.00  0.00    -0.351 N 
ATOM      4  C   UNL A   1      31.267  27.184  23.252  1.00  0.00     0.269 C 
ATOM      5  O   UNL A   1      30.831  27.423  22.123  1.00  0.00    -0.268 OA
ATOM      6  H   UNL A   1      30.822  29.046  23.782  1.00  0.00     0.163 HD
BRANCH   4   7
ATOM      7  C   UNL A   1      31.827  25.822  23.568  1.00  0.00     0.128 A 
ATOM      8  C   UNL A   1      33.076  23.398  24.097  1.00  0.00     0.002 A 
ATOM      9  C   UNL A   1      31.743  23.595  24.462  1.00  0.00     0.013 A 
ATOM     10  C   UNL A   1      33.718  24.471  23.488  1.00  0.00     0.120 A 
ATOM     11  C   UNL A   1      31.122  24.822  24.222  1.00  0.00     0.035 A 
ATOM     12  N   UNL A   1      33.129  25.655  23.206  1.00  0.00    -0.250 NA
BRANCH   8  13
ATOM     13  C   UNL A   1      33.770  22.145  24.406  1.00  0.00     0.003 A 
ATOM     14  C   UNL A   1      33.667  19.708  24.575  1.00  0.00     0.060 A 
ATOM     15  C   UNL A   1      35.025  19.662  24.901  1.00  0.00     0.017 A 
ATOM     16  C   UNL A   1      33.051  20.938  24.318  1.00  0.00     0.026 A 
ATOM     17  C   UNL A   1      35.754  20.849  24.993  1.00  0.00     0.022 A 
ATOM     18  C   UNL A   1      35.132  22.080  24.757  1.00  0.00     0.048 A 
ATOM     19  Cl  UNL A   1      36.097  23.507  24.929  1.00  0.00    -0.084 Cl
BRANCH  14  20
ATOM     20  C   UNL A   1      32.831  18.486  24.486  1.00  0.00     0.337 C 
ATOM     21  O   UNL A   1      32.016  18.165  25.328  1.00  0.00    -0.246 OA
BRANCH  20  22
ATOM     22  O   UNL A   1      33.197  17.762  23.397  1.00  0.00    -0.465 OA
ATOM     23  C   UNL A   1      32.410  18.042  22.239  1.00  0.00     0.282 C 
ENDBRANCH  20  22
ENDBRANCH  14  20
ENDBRANCH   8  13
ENDBRANCH   4   7
ENDBRANCH   2   3
ENDBRANCH   1   2
BRANCH   1  24
ATOM     24  C   UNL A   1      33.454  28.433  27.221  1.00  0.00     0.118 C 
BRANCH  24  25
ATOM     25  N   UNL A   1      33.438  29.880  27.398  1.00  0.00    -0.352 N 
ATOM     26  C   UNL A   1      34.348  30.709  28.005  1.00  0.00     0.251 C 
ATOM     27  H   UNL A   1      32.649  30.335  27.023  1.00  0.00     0.163 HD
ATOM     28  O   UNL A   1      34.022  31.857  28.292  1.00  0.00    -0.269 OA
BRANCH  26  29
ATOM     29  C   UNL A   1      35.710  30.226  28.319  1.00  0.00     0.039 A 
ATOM     30  C   UNL A   1      36.681  30.232  27.314  1.00  0.00     0.014 A 
ATOM     31  C   UNL A   1      36.020  29.734  29.590  1.00  0.00     0.014 A 
ATOM     32  C   UNL A   1      37.983  29.817  27.605  1.00  0.00     0.010 A 
ATOM     33  C   UNL A   1      37.332  29.383  29.896  1.00  0.00     0.010 A 
ATOM     34  C   UNL A   1      38.329  29.431  28.910  1.00  0.00    -0.014 A 
BRANCH  34  35
ATOM     35  C   UNL A   1      39.731  29.115  29.283  1.00  0.00     0.031 A 
ATOM     36  C   UNL A   1      40.610  30.167  29.901  1.00  0.00     0.074 A 
ATOM     37  C   UNL A   1      40.237  27.905  28.974  1.00  0.00     0.049 A 
ATOM     38  N   UNL A   1      41.884  30.110  30.189  1.00  0.00    -0.248 NA
ATOM     39  C   UNL A   1      39.978  31.458  30.217  1.00  0.00     0.031 C 
ATOM     40  C   UNL A   1      39.490  26.810  28.348  1.00  0.00     0.029 A 
ATOM     41  N   UNL A   1      41.501  27.395  29.130  1.00  0.00    -0.354 N 
ATOM     42  C   UNL A   1      42.212  31.357  30.705  1.00  0.00     0.074 A 
ATOM     43  C   UNL A   1      41.013  32.165  30.650  1.00  0.00     0.031 C 
ATOM     44  C   UNL A   1      40.305  25.756  28.189  1.00  0.00     0.029 A 
ATOM     45  C   UNL A   1      41.642  26.113  28.652  1.00  0.00     0.049 A 
ATOM     46  H   UNL A   1      42.238  27.900  29.543  1.00  0.00     0.167 HD
ATOM     47  C   UNL A   1      43.402  31.787  31.192  1.00  0.00     0.031 A 
ATOM     48  C   UNL A   1      42.727  25.320  28.572  1.00  0.00     0.031 A 
ATOM     49  C   UNL A   1      44.593  30.979  31.238  1.00  0.00     0.049 A 
ATOM     50  C   UNL A   1      44.048  25.836  29.070  1.00  0.00     0.074 A 
ATOM     51  C   UNL A   1      45.832  31.301  31.762  1.00  0.00     0.029 A 
ATOM     52  N   UNL A   1      44.695  29.691  30.731  1.00  0.00    -0.354 N 
ATOM     53  N   UNL A   1      44.323  26.995  29.618  1.00  0.00    -0.248 NA
ATOM     54  C   UNL A   1      45.205  24.940  28.935  1.00  0.00     0.031 C 
ATOM     55  C   UNL A   1      46.701  30.233  31.515  1.00  0.00     0.029 A 
ATOM     56  C   UNL A   1      45.988  29.221  30.892  1.00  0.00     0.049 A 
ATOM     57  H   UNL A   1      43.959  29.187  30.316  1.00  0.00     0.167 HD
ATOM     58  C   UNL A   1      45.682  26.964  29.907  1.00  0.00     0.074 A 
ATOM     59  C   UNL A   1      46.168  25.664  29.492  1.00  0.00     0.031 C 
ATOM     60  C   UNL A   1      46.458  27.927  30.462  1.00  0.00     0.031 A 
BRANCH  47  61
ATOM     61  C   UNL A   1      43.476  33.204  31.699  1.00  0.00    -0.014 A 
ATOM     62  C   UNL A   1      44.065  34.223  30.929  1.00  0.00     0.010 A 
ATOM     63  C   UNL A   1      42.920  33.531  32.951  1.00  0.00     0.010 A 
ATOM     64  C   UNL A   1      44.144  35.529  31.419  1.00  0.00     0.020 A 
ATOM     65  C   UNL A   1      42.970  34.843  33.432  1.00  0.00     0.020 A 
ATOM     66  C   UNL A   1      43.600  35.829  32.671  1.00  0.00     0.054 A 
BRANCH  66  67
ATOM     67  S   UNL A   1      43.712  37.534  33.280  1.00  0.00     0.124 S 
ATOM     68  O   UNL A   1      42.551  37.615  34.165  1.00  0.00    -0.237 OA
ATOM     69  O   UNL A   1      45.011  37.551  33.947  1.00  0.00    -0.237 OA
ATOM     70  O   UNL A   1      43.626  38.342  32.066  1.00  0.00    -0.744 OA
ENDBRANCH  66  67
ENDBRANCH  47  61
BRANCH  48  71
ATOM     71  C   UNL A   1      42.604  23.954  27.994  1.00  0.00    -0.014 A 
ATOM     72  C   UNL A   1      42.310  22.856  28.820  1.00  0.00     0.010 A 
ATOM     73  C   UNL A   1      42.749  23.748  26.609  1.00  0.00     0.010 A 
ATOM     74  C   UNL A   1      42.169  21.577  28.276  1.00  0.00     0.020 A 
ATOM     75  C   UNL A   1      42.581  22.475  26.056  1.00  0.00     0.020 A 
ATOM     76  C   UNL A   1      42.298  21.395  26.895  1.00  0.00     0.054 A 
BRANCH  76  77
ATOM     77  S   UNL A   1      42.041  19.737  26.203  1.00  0.00     0.124 S 
ATOM     78  O   UNL A   1      42.926  19.751  25.043  1.00  0.00    -0.237 OA
ATOM     79  O   UNL A   1      42.452  18.870  27.305  1.00  0.00    -0.237 OA
ATOM     80  O   UNL A   1      40.612  19.711  25.903  1.00  0.00    -0.744 OA
ENDBRANCH  76  77
ENDBRANCH  48  71
BRANCH  60  81
ATOM     81  C   UNL A   1      47.917  27.614  30.660  1.00  0.00    -0.014 A 
ATOM     82  C   UNL A   1      48.365  26.971  31.827  1.00  0.00     0.010 A 
ATOM     83  C   UNL A   1      48.838  27.897  29.634  1.00  0.00     0.010 A 
ATOM     84  C   UNL A   1      49.712  26.627  31.970  1.00  0.00     0.020 A 
ATOM     85  C   UNL A   1      50.179  27.529  29.762  1.00  0.00     0.020 A 
ATOM     86  C   UNL A   1      50.609  26.903  30.933  1.00  0.00     0.054 A 
BRANCH  86  87
ATOM     87  S   UNL A   1      52.336  26.378  31.115  1.00  0.00     0.124 S 
ATOM     88  O   UNL A   1      52.195  25.099  31.805  1.00  0.00    -0.237 OA
ATOM     89  O   UNL A   1      52.794  26.298  29.730  1.00  0.00    -0.237 OA
ATOM     90  O   UNL A   1      52.942  27.448  31.905  1.00  0.00    -0.744 OA
ENDBRANCH  86  87
ENDBRANCH  60  81
ENDBRANCH  34  35
ENDBRANCH  26  29
ENDBRANCH  24  25
ENDBRANCH   1  24
TORSDOF 16
ENDMDL
