MODEL 1
REMARK VINA RESULT:     -11.3      0.000      0.000
REMARK SMILES Cc1ncsc1CCC(=O)N[C@@H](Cc1cnc[nH]1)C(=O)NCCCNC(=O)c1ccc(-c2c3nc(c(-c4ccc(S(=O)(=O)[O-])cc4)c4ccc([nH]4)c(-c4ccc(S(=O)(=O)[O-])cc4)c4nc(c(-c5ccc(S(=O)(=O)[O-])cc5)c5ccc2[nH]5)C=C4)C=C3)cc1
REMARK SMILES IDX 22 1 21 2 19 3 20 4 12 6 11 7 9 8 10 9 8 11 7 12 6 13 1 14
REMARK SMILES IDX 2 15 3 16 4 17 5 18 13 19 14 20 15 21 18 22 16 23 17 24
REMARK SMILES IDX 23 26 24 27 25 28 26 29 27 31 28 32 29 33 87 34 30 35 86 36
REMARK SMILES IDX 31 37 32 38 33 39 80 40 34 41 85 42 79 43 81 44 35 45 84 46
REMARK SMILES IDX 78 47 77 48 36 50 66 51 47 52 65 53 48 54 51 55 64 56 82 57
REMARK SMILES IDX 49 58 50 59 63 61 83 62 52 63 37 64 38 65 46 66 39 67 45 68
REMARK SMILES IDX 40 69 41 70 42 71 43 72 44 73 67 74 68 75 76 76 69 77 75 78
REMARK SMILES IDX 70 79 71 80 72 81 73 82 74 83 53 84 54 85 62 86 55 87 61 88
REMARK SMILES IDX 56 89 57 90 58 91 59 92 60 93
REMARK H PARENT 21 5 11 10 18 25 25 30 81 49 51 60
REMARK Flexibility Score: inf
ROOT
ATOM      1  C   UNL A   1      36.494  23.425  26.125  1.00  0.00     0.117 C 
ENDROOT
BRANCH   1   2
ATOM      2  N   UNL A   1      36.462  21.994  25.932  1.00  0.00    -0.354 N 
ATOM      3  C   UNL A   1      35.502  21.246  25.319  1.00  0.00     0.242 C 
ATOM      4  O   UNL A   1      35.767  20.061  25.091  1.00  0.00    -0.273 OA
ATOM      5  H   UNL A   1      37.232  21.496  26.290  1.00  0.00     0.163 HD
BRANCH   3   6
ATOM      6  C   UNL A   1      34.122  21.823  24.929  1.00  0.00     0.177 C 
BRANCH   6   7
ATOM      7  N   UNL A   1      34.063  22.255  23.529  1.00  0.00    -0.344 N 
ATOM      8  C   UNL A   1      33.253  23.175  22.941  1.00  0.00     0.221 C 
ATOM      9  O   UNL A   1      33.410  23.390  21.737  1.00  0.00    -0.275 OA
ATOM     10  H   UNL A   1      34.703  21.812  22.926  1.00  0.00     0.164 HD
BRANCH   8  11
ATOM     11  C   UNL A   1      32.174  23.903  23.718  1.00  0.00     0.105 C 
BRANCH  11  12
ATOM     12  C   UNL A   1      32.714  25.133  24.451  1.00  0.00     0.058 C 
BRANCH  12  13
ATOM     13  C   UNL A   1      32.065  26.413  24.015  1.00  0.00     0.028 A 
ATOM     14  C   UNL A   1      32.013  27.809  26.187  1.00  0.00     0.068 C 
ATOM     15  C   UNL A   1      31.721  27.538  24.754  1.00  0.00     0.051 A 
ATOM     16  N   UNL A   1      30.991  28.488  24.057  1.00  0.00    -0.250 NA
ATOM     17  C   UNL A   1      30.897  28.140  22.794  1.00  0.00     0.176 A 
ATOM     18  S   UNL A   1      31.708  26.696  22.356  1.00  0.00    -0.127 S 
ENDBRANCH  12  13
ENDBRANCH  11  12
ENDBRANCH   8  11
ENDBRANCH   6   7
BRANCH   6  19
ATOM     19  C   UNL A   1      32.878  21.064  25.420  1.00  0.00     0.090 C 
BRANCH  19  20
ATOM     20  C   UNL A   1      32.760  19.588  25.255  1.00  0.00     0.037 A 
ATOM     21  C   UNL A   1      32.594  18.829  24.114  1.00  0.00     0.134 A 
ATOM     22  N   UNL A   1      32.923  18.660  26.261  1.00  0.00    -0.348 N 
ATOM     23  N   UNL A   1      32.532  17.498  24.418  1.00  0.00    -0.245 NA
ATOM     24  C   UNL A   1      32.716  17.425  25.715  1.00  0.00     0.196 A 
ATOM     25  H   UNL A   1      33.147  18.853  27.200  1.00  0.00     0.167 HD
ENDBRANCH  19  20
ENDBRANCH   6  19
ENDBRANCH   3   6
ENDBRANCH   1   2
BRANCH   1  26
ATOM     26  C   UNL A   1      37.840  24.068  25.883  1.00  0.00     0.042 C 
BRANCH  26  27
ATOM     27  C   UNL A   1      38.920  23.535  26.806  1.00  0.00     0.118 C 
BRANCH  27  28
ATOM     28  N   UNL A   1      40.277  23.751  26.305  1.00  0.00    -0.352 N 
ATOM     29  C   UNL A   1      41.167  24.785  26.501  1.00  0.00     0.251 C 
ATOM     30  H   UNL A   1      40.613  23.031  25.724  1.00  0.00     0.163 HD
ATOM     31  O   UNL A   1      42.225  24.808  25.888  1.00  0.00    -0.269 OA
BRANCH  29  32
ATOM     32  C   UNL A   1      40.821  25.888  27.421  1.00  0.00     0.039 A 
ATOM     33  C   UNL A   1      39.931  25.652  28.472  1.00  0.00     0.014 A 
ATOM     34  C   UNL A   1      41.413  27.140  27.276  1.00  0.00     0.014 A 
ATOM     35  C   UNL A   1      39.736  26.637  29.442  1.00  0.00     0.010 A 
ATOM     36  C   UNL A   1      41.335  28.056  28.313  1.00  0.00     0.010 A 
ATOM     37  C   UNL A   1      40.492  27.821  29.409  1.00  0.00    -0.014 A 
BRANCH  37  38
ATOM     38  C   UNL A   1      40.428  28.832  30.493  1.00  0.00     0.031 A 
ATOM     39  C   UNL A   1      41.349  28.714  31.681  1.00  0.00     0.074 A 
ATOM     40  C   UNL A   1      39.478  29.789  30.464  1.00  0.00     0.049 A 
ATOM     41  N   UNL A   1      41.360  29.408  32.789  1.00  0.00    -0.248 NA
ATOM     42  C   UNL A   1      42.357  27.639  31.640  1.00  0.00     0.031 C 
ATOM     43  C   UNL A   1      38.481  29.970  29.403  1.00  0.00     0.029 A 
ATOM     44  N   UNL A   1      39.186  30.788  31.359  1.00  0.00    -0.354 N 
ATOM     45  C   UNL A   1      42.342  28.830  33.586  1.00  0.00     0.074 A 
ATOM     46  C   UNL A   1      42.861  27.692  32.864  1.00  0.00     0.031 C 
ATOM     47  C   UNL A   1      37.720  31.039  29.688  1.00  0.00     0.029 A 
ATOM     48  C   UNL A   1      38.136  31.589  30.973  1.00  0.00     0.049 A 
ATOM     49  H   UNL A   1      39.681  30.919  32.200  1.00  0.00     0.167 HD
ATOM     50  C   UNL A   1      42.793  29.227  34.799  1.00  0.00     0.031 A 
ATOM     51  C   UNL A   1      37.570  32.645  31.586  1.00  0.00     0.031 A 
ATOM     52  C   UNL A   1      42.309  30.391  35.489  1.00  0.00     0.049 A 
ATOM     53  C   UNL A   1      38.110  33.089  32.917  1.00  0.00     0.074 A 
ATOM     54  C   UNL A   1      42.759  30.935  36.678  1.00  0.00     0.029 A 
ATOM     55  N   UNL A   1      41.271  31.195  35.045  1.00  0.00    -0.354 N 
ATOM     56  N   UNL A   1      39.090  32.573  33.620  1.00  0.00    -0.248 NA
ATOM     57  C   UNL A   1      37.474  34.262  33.534  1.00  0.00     0.031 C 
ATOM     58  C   UNL A   1      41.964  32.045  36.976  1.00  0.00     0.029 A 
ATOM     59  C   UNL A   1      41.050  32.219  35.948  1.00  0.00     0.049 A 
ATOM     60  H   UNL A   1      40.765  31.057  34.211  1.00  0.00     0.167 HD
ATOM     61  C   UNL A   1      39.199  33.367  34.756  1.00  0.00     0.074 A 
ATOM     62  C   UNL A   1      38.199  34.410  34.634  1.00  0.00     0.031 C 
ATOM     63  C   UNL A   1      40.046  33.243  35.806  1.00  0.00     0.031 A 
BRANCH  50  64
ATOM     64  C   UNL A   1      43.873  28.399  35.445  1.00  0.00    -0.014 A 
ATOM     65  C   UNL A   1      43.566  27.205  36.124  1.00  0.00     0.010 A 
ATOM     66  C   UNL A   1      45.215  28.809  35.355  1.00  0.00     0.010 A 
ATOM     67  C   UNL A   1      44.574  26.462  36.740  1.00  0.00     0.020 A 
ATOM     68  C   UNL A   1      46.231  28.051  35.945  1.00  0.00     0.020 A 
ATOM     69  C   UNL A   1      45.901  26.892  36.651  1.00  0.00     0.054 A 
BRANCH  69  70
ATOM     70  S   UNL A   1      47.193  25.896  37.444  1.00  0.00     0.124 S 
ATOM     71  O   UNL A   1      47.107  24.644  36.697  1.00  0.00    -0.237 OA
ATOM     72  O   UNL A   1      48.398  26.686  37.207  1.00  0.00    -0.237 OA
ATOM     73  O   UNL A   1      46.765  25.821  38.839  1.00  0.00    -0.744 OA
ENDBRANCH  69  70
ENDBRANCH  50  64
BRANCH  51  74
ATOM     74  C   UNL A   1      36.442  33.369  30.936  1.00  0.00    -0.014 A 
ATOM     75  C   UNL A   1      35.233  33.564  31.628  1.00  0.00     0.010 A 
ATOM     76  C   UNL A   1      36.576  33.884  29.634  1.00  0.00     0.010 A 
ATOM     77  C   UNL A   1      34.173  34.248  31.023  1.00  0.00     0.020 A 
ATOM     78  C   UNL A   1      35.527  34.591  29.037  1.00  0.00     0.020 A 
ATOM     79  C   UNL A   1      34.328  34.759  29.732  1.00  0.00     0.054 A 
BRANCH  79  80
ATOM     80  S   UNL A   1      32.960  35.693  28.990  1.00  0.00     0.124 S 
ATOM     81  O   UNL A   1      32.362  34.702  28.102  1.00  0.00    -0.237 OA
ATOM     82  O   UNL A   1      32.161  36.063  30.155  1.00  0.00    -0.237 OA
ATOM     83  O   UNL A   1      33.630  36.809  28.325  1.00  0.00    -0.744 OA
ENDBRANCH  79  80
ENDBRANCH  51  74
BRANCH  63  84
ATOM     84  C   UNL A   1      39.942  34.269  36.900  1.00  0.00    -0.014 A 
ATOM     85  C   UNL A   1      40.612  35.500  36.800  1.00  0.00     0.010 A 
ATOM     86  C   UNL A   1      39.112  34.022  38.009  1.00  0.00     0.010 A 
ATOM     87  C   UNL A   1      40.472  36.460  37.805  1.00  0.00     0.020 A 
ATOM     88  C   UNL A   1      38.951  34.989  39.003  1.00  0.00     0.020 A 
ATOM     89  C   UNL A   1      39.643  36.198  38.900  1.00  0.00     0.054 A 
BRANCH  89  90
ATOM     90  S   UNL A   1      39.438  37.481  40.166  1.00  0.00     0.124 S 
ATOM     91  O   UNL A   1      38.456  38.365  39.544  1.00  0.00    -0.237 OA
ATOM     92  O   UNL A   1      38.959  36.723  41.318  1.00  0.00    -0.237 OA
ATOM     93  O   UNL A   1      40.779  38.043  40.310  1.00  0.00    -0.744 OA
ENDBRANCH  89  90
ENDBRANCH  63  84
ENDBRANCH  37  38
ENDBRANCH  29  32
ENDBRANCH  27  28
ENDBRANCH  26  27
ENDBRANCH   1  26
TORSDOF 19
ENDMDL
MODEL 2
REMARK VINA RESULT:     -11.1      3.169      3.946
REMARK SMILES Cc1ncsc1CCC(=O)N[C@@H](Cc1cnc[nH]1)C(=O)NCCCNC(=O)c1ccc(-c2c3nc(c(-c4ccc(S(=O)(=O)[O-])cc4)c4ccc([nH]4)c(-c4ccc(S(=O)(=O)[O-])cc4)c4nc(c(-c5ccc(S(=O)(=O)[O-])cc5)c5ccc2[nH]5)C=C4)C=C3)cc1
REMARK SMILES IDX 22 1 21 2 19 3 20 4 12 6 11 7 9 8 10 9 8 11 7 12 6 13 1 14
REMARK SMILES IDX 2 15 3 16 4 17 5 18 13 19 14 20 15 21 18 22 16 23 17 24
REMARK SMILES IDX 23 26 24 27 25 28 26 29 27 31 28 32 29 33 87 34 30 35 86 36
REMARK SMILES IDX 31 37 32 38 33 39 80 40 34 41 85 42 79 43 81 44 35 45 84 46
REMARK SMILES IDX 78 47 77 48 36 50 66 51 47 52 65 53 48 54 51 55 64 56 82 57
REMARK SMILES IDX 49 58 50 59 63 61 83 62 52 63 37 64 38 65 46 66 39 67 45 68
REMARK SMILES IDX 40 69 41 70 42 71 43 72 44 73 67 74 68 75 76 76 69 77 75 78
REMARK SMILES IDX 70 79 71 80 72 81 73 82 74 83 53 84 54 85 62 86 55 87 61 88
REMARK SMILES IDX 56 89 57 90 58 91 59 92 60 93
REMARK H PARENT 21 5 11 10 18 25 25 30 81 49 51 60
REMARK Flexibility Score: inf
ROOT
ATOM      1  C   UNL A   1      34.874  24.469  25.345  1.00  0.00     0.117 C 
ENDROOT
BRANCH   1   2
ATOM      2  N   UNL A   1      34.221  23.988  24.149  1.00  0.00    -0.354 N 
ATOM      3  C   UNL A   1      32.922  23.608  23.991  1.00  0.00     0.242 C 
ATOM      4  O   UNL A   1      32.524  23.415  22.837  1.00  0.00    -0.273 OA
ATOM      5  H   UNL A   1      34.787  23.927  23.346  1.00  0.00     0.163 HD
BRANCH   3   6
ATOM      6  C   UNL A   1      31.967  23.398  25.188  1.00  0.00     0.177 C 
BRANCH   6   7
ATOM      7  N   UNL A   1      30.729  24.176  25.068  1.00  0.00    -0.344 N 
ATOM      8  C   UNL A   1      30.505  25.491  25.333  1.00  0.00     0.221 C 
ATOM      9  O   UNL A   1      29.373  25.932  25.126  1.00  0.00    -0.275 OA
ATOM     10  H   UNL A   1      29.945  23.672  24.751  1.00  0.00     0.164 HD
BRANCH   8  11
ATOM     11  C   UNL A   1      31.593  26.392  25.885  1.00  0.00     0.105 C 
BRANCH  11  12
ATOM     12  C   UNL A   1      32.374  27.105  24.779  1.00  0.00     0.058 C 
BRANCH  12  13
ATOM     13  C   UNL A   1      31.496  27.872  23.835  1.00  0.00     0.028 A 
ATOM     14  C   UNL A   1      31.395  26.339  21.758  1.00  0.00     0.068 C 
ATOM     15  C   UNL A   1      31.112  27.577  22.533  1.00  0.00     0.051 A 
ATOM     16  N   UNL A   1      30.411  28.588  21.893  1.00  0.00    -0.250 NA
ATOM     17  C   UNL A   1      30.169  29.566  22.736  1.00  0.00     0.176 A 
ATOM     18  S   UNL A   1      30.716  29.319  24.341  1.00  0.00    -0.127 S 
ENDBRANCH  12  13
ENDBRANCH  11  12
ENDBRANCH   8  11
ENDBRANCH   6   7
BRANCH   6  19
ATOM     19  C   UNL A   1      31.773  21.957  25.690  1.00  0.00     0.090 C 
BRANCH  19  20
ATOM     20  C   UNL A   1      32.617  20.842  25.178  1.00  0.00     0.037 A 
ATOM     21  C   UNL A   1      33.895  20.458  25.529  1.00  0.00     0.134 A 
ATOM     22  N   UNL A   1      32.200  19.871  24.293  1.00  0.00    -0.348 N 
ATOM     23  N   UNL A   1      34.295  19.371  24.803  1.00  0.00    -0.245 NA
ATOM     24  C   UNL A   1      33.266  19.048  24.057  1.00  0.00     0.196 A 
ATOM     25  H   UNL A   1      31.301  19.786  23.903  1.00  0.00     0.167 HD
ENDBRANCH  19  20
ENDBRANCH   6  19
ENDBRANCH   3   6
ENDBRANCH   1   2
BRANCH   1  26
ATOM     26  C   UNL A   1      35.946  23.556  25.893  1.00  0.00     0.042 C 
BRANCH  26  27
ATOM     27  C   UNL A   1      37.148  23.442  24.974  1.00  0.00     0.118 C 
BRANCH  27  28
ATOM     28  N   UNL A   1      38.210  22.588  25.503  1.00  0.00    -0.352 N 
ATOM     29  C   UNL A   1      39.280  22.868  26.326  1.00  0.00     0.251 C 
ATOM     30  H   UNL A   1      38.151  21.646  25.222  1.00  0.00     0.163 HD
ATOM     31  O   UNL A   1      40.116  22.007  26.560  1.00  0.00    -0.269 OA
BRANCH  29  32
ATOM     32  C   UNL A   1      39.438  24.225  26.891  1.00  0.00     0.039 A 
ATOM     33  C   UNL A   1      38.971  24.489  28.181  1.00  0.00     0.014 A 
ATOM     34  C   UNL A   1      40.089  25.219  26.168  1.00  0.00     0.014 A 
ATOM     35  C   UNL A   1      39.270  25.713  28.783  1.00  0.00     0.010 A 
ATOM     36  C   UNL A   1      40.512  26.368  26.816  1.00  0.00     0.010 A 
ATOM     37  C   UNL A   1      40.105  26.635  28.131  1.00  0.00    -0.014 A 
BRANCH  37  38
ATOM     38  C   UNL A   1      40.572  27.883  28.785  1.00  0.00     0.031 A 
ATOM     39  C   UNL A   1      41.954  27.941  29.385  1.00  0.00     0.074 A 
ATOM     40  C   UNL A   1      39.722  28.919  28.936  1.00  0.00     0.049 A 
ATOM     41  N   UNL A   1      42.498  28.881  30.113  1.00  0.00    -0.248 NA
ATOM     42  C   UNL A   1      42.820  26.766  29.181  1.00  0.00     0.031 C 
ATOM     43  C   UNL A   1      38.335  28.963  28.462  1.00  0.00     0.029 A 
ATOM     44  N   UNL A   1      39.896  30.139  29.543  1.00  0.00    -0.354 N 
ATOM     45  C   UNL A   1      43.746  28.393  30.485  1.00  0.00     0.074 A 
ATOM     46  C   UNL A   1      43.855  27.054  29.957  1.00  0.00     0.031 C 
ATOM     47  C   UNL A   1      37.803  30.160  28.757  1.00  0.00     0.029 A 
ATOM     48  C   UNL A   1      38.788  30.951  29.485  1.00  0.00     0.049 A 
ATOM     49  H   UNL A   1      40.737  30.407  29.980  1.00  0.00     0.167 HD
ATOM     50  C   UNL A   1      44.727  29.014  31.180  1.00  0.00     0.031 A 
ATOM     51  C   UNL A   1      38.585  32.191  29.967  1.00  0.00     0.031 A 
ATOM     52  C   UNL A   1      44.634  30.367  31.658  1.00  0.00     0.049 A 
ATOM     53  C   UNL A   1      39.702  32.876  30.705  1.00  0.00     0.074 A 
ATOM     54  C   UNL A   1      45.602  31.124  32.292  1.00  0.00     0.029 A 
ATOM     55  N   UNL A   1      43.507  31.166  31.545  1.00  0.00    -0.354 N 
ATOM     56  N   UNL A   1      40.902  32.424  30.983  1.00  0.00    -0.248 NA
ATOM     57  C   UNL A   1      39.440  34.238  31.191  1.00  0.00     0.031 C 
ATOM     58  C   UNL A   1      45.046  32.368  32.602  1.00  0.00     0.029 A 
ATOM     59  C   UNL A   1      43.747  32.402  32.118  1.00  0.00     0.049 A 
ATOM     60  H   UNL A   1      42.661  30.894  31.121  1.00  0.00     0.167 HD
ATOM     61  C   UNL A   1      41.545  33.453  31.661  1.00  0.00     0.074 A 
ATOM     62  C   UNL A   1      40.607  34.556  31.733  1.00  0.00     0.031 C 
ATOM     63  C   UNL A   1      42.796  33.483  32.180  1.00  0.00     0.031 A 
BRANCH  50  64
ATOM     64  C   UNL A   1      45.989  28.238  31.449  1.00  0.00    -0.014 A 
ATOM     65  C   UNL A   1      46.122  27.444  32.604  1.00  0.00     0.010 A 
ATOM     66  C   UNL A   1      47.049  28.284  30.527  1.00  0.00     0.010 A 
ATOM     67  C   UNL A   1      47.307  26.750  32.854  1.00  0.00     0.020 A 
ATOM     68  C   UNL A   1      48.226  27.566  30.759  1.00  0.00     0.020 A 
ATOM     69  C   UNL A   1      48.355  26.818  31.931  1.00  0.00     0.054 A 
BRANCH  69  70
ATOM     70  S   UNL A   1      49.875  25.890  32.272  1.00  0.00     0.124 S 
ATOM     71  O   UNL A   1      50.498  25.840  30.952  1.00  0.00    -0.237 OA
ATOM     72  O   UNL A   1      50.552  26.732  33.254  1.00  0.00    -0.237 OA
ATOM     73  O   UNL A   1      49.392  24.609  32.782  1.00  0.00    -0.744 OA
ENDBRANCH  69  70
ENDBRANCH  50  64
BRANCH  51  74
ATOM     74  C   UNL A   1      37.281  32.874  29.746  1.00  0.00    -0.014 A 
ATOM     75  C   UNL A   1      36.951  33.379  28.475  1.00  0.00     0.010 A 
ATOM     76  C   UNL A   1      36.353  33.005  30.795  1.00  0.00     0.010 A 
ATOM     77  C   UNL A   1      35.725  34.016  28.262  1.00  0.00     0.020 A 
ATOM     78  C   UNL A   1      35.115  33.619  30.579  1.00  0.00     0.020 A 
ATOM     79  C   UNL A   1      34.813  34.130  29.315  1.00  0.00     0.054 A 
BRANCH  79  80
ATOM     80  S   UNL A   1      33.205  34.910  29.000  1.00  0.00     0.124 S 
ATOM     81  O   UNL A   1      32.604  34.914  30.330  1.00  0.00    -0.237 OA
ATOM     82  O   UNL A   1      33.585  36.218  28.474  1.00  0.00    -0.237 OA
ATOM     83  O   UNL A   1      32.576  34.016  28.029  1.00  0.00    -0.744 OA
ENDBRANCH  79  80
ENDBRANCH  51  74
BRANCH  63  84
ATOM     84  C   UNL A   1      43.231  34.752  32.858  1.00  0.00    -0.014 A 
ATOM     85  C   UNL A   1      43.779  35.814  32.118  1.00  0.00     0.010 A 
ATOM     86  C   UNL A   1      43.029  34.906  34.242  1.00  0.00     0.010 A 
ATOM     87  C   UNL A   1      44.141  37.002  32.756  1.00  0.00     0.020 A 
ATOM     88  C   UNL A   1      43.366  36.102  34.878  1.00  0.00     0.020 A 
ATOM     89  C   UNL A   1      43.932  37.139  34.132  1.00  0.00     0.054 A 
BRANCH  89  90
ATOM     90  S   UNL A   1      44.361  38.712  34.927  1.00  0.00     0.124 S 
ATOM     91  O   UNL A   1      45.774  38.848  34.585  1.00  0.00    -0.237 OA
ATOM     92  O   UNL A   1      43.463  39.659  34.273  1.00  0.00    -0.237 OA
ATOM     93  O   UNL A   1      44.082  38.471  36.341  1.00  0.00    -0.744 OA
ENDBRANCH  89  90
ENDBRANCH  63  84
ENDBRANCH  37  38
ENDBRANCH  29  32
ENDBRANCH  27  28
ENDBRANCH  26  27
ENDBRANCH   1  26
TORSDOF 19
ENDMDL
MODEL 3
REMARK VINA RESULT:     -11.0      6.454     12.119
REMARK SMILES Cc1ncsc1CCC(=O)N[C@@H](Cc1cnc[nH]1)C(=O)NCCCNC(=O)c1ccc(-c2c3nc(c(-c4ccc(S(=O)(=O)[O-])cc4)c4ccc([nH]4)c(-c4ccc(S(=O)(=O)[O-])cc4)c4nc(c(-c5ccc(S(=O)(=O)[O-])cc5)c5ccc2[nH]5)C=C4)C=C3)cc1
REMARK SMILES IDX 22 1 21 2 19 3 20 4 12 6 11 7 9 8 10 9 8 11 7 12 6 13 1 14
REMARK SMILES IDX 2 15 3 16 4 17 5 18 13 19 14 20 15 21 18 22 16 23 17 24
REMARK SMILES IDX 23 26 24 27 25 28 26 29 27 31 28 32 29 33 87 34 30 35 86 36
REMARK SMILES IDX 31 37 32 38 33 39 80 40 34 41 85 42 79 43 81 44 35 45 84 46
REMARK SMILES IDX 78 47 77 48 36 50 66 51 47 52 65 53 48 54 51 55 64 56 82 57
REMARK SMILES IDX 49 58 50 59 63 61 83 62 52 63 37 64 38 65 46 66 39 67 45 68
REMARK SMILES IDX 40 69 41 70 42 71 43 72 44 73 67 74 68 75 76 76 69 77 75 78
REMARK SMILES IDX 70 79 71 80 72 81 73 82 74 83 53 84 54 85 62 86 55 87 61 88
REMARK SMILES IDX 56 89 57 90 58 91 59 92 60 93
REMARK H PARENT 21 5 11 10 18 25 25 30 81 49 51 60
REMARK Flexibility Score: inf
ROOT
ATOM      1  C   UNL A   1      33.862  29.175  26.556  1.00  0.00     0.117 C 
ENDROOT
BRANCH   1   2
ATOM      2  N   UNL A   1      32.633  28.966  27.287  1.00  0.00    -0.354 N 
ATOM      3  C   UNL A   1      31.773  27.912  27.208  1.00  0.00     0.242 C 
ATOM      4  O   UNL A   1      30.883  27.841  28.062  1.00  0.00    -0.273 OA
ATOM      5  H   UNL A   1      32.386  29.676  27.922  1.00  0.00     0.163 HD
BRANCH   3   6
ATOM      6  C   UNL A   1      31.868  26.844  26.094  1.00  0.00     0.177 C 
BRANCH   6   7
ATOM      7  N   UNL A   1      31.393  25.527  26.531  1.00  0.00    -0.344 N 
ATOM      8  C   UNL A   1      32.093  24.378  26.730  1.00  0.00     0.221 C 
ATOM      9  O   UNL A   1      31.471  23.391  27.130  1.00  0.00    -0.275 OA
ATOM     10  H   UNL A   1      30.426  25.465  26.703  1.00  0.00     0.164 HD
BRANCH   8  11
ATOM     11  C   UNL A   1      33.581  24.290  26.453  1.00  0.00     0.105 C 
BRANCH  11  12
ATOM     12  C   UNL A   1      33.881  23.921  24.999  1.00  0.00     0.058 C 
BRANCH  12  13
ATOM     13  C   UNL A   1      33.694  22.461  24.708  1.00  0.00     0.028 A 
ATOM     14  C   UNL A   1      31.662  22.440  23.114  1.00  0.00     0.068 C 
ATOM     15  C   UNL A   1      32.727  21.819  23.946  1.00  0.00     0.051 A 
ATOM     16  N   UNL A   1      32.762  20.434  24.014  1.00  0.00    -0.250 NA
ATOM     17  C   UNL A   1      33.807  20.048  24.711  1.00  0.00     0.176 A 
ATOM     18  S   UNL A   1      34.827  21.301  25.281  1.00  0.00    -0.127 S 
ENDBRANCH  12  13
ENDBRANCH  11  12
ENDBRANCH   8  11
ENDBRANCH   6   7
BRANCH   6  19
ATOM     19  C   UNL A   1      31.412  27.255  24.684  1.00  0.00     0.090 C 
BRANCH  19  20
ATOM     20  C   UNL A   1      32.385  27.370  23.562  1.00  0.00     0.037 A 
ATOM     21  C   UNL A   1      32.723  26.462  22.579  1.00  0.00     0.134 A 
ATOM     22  N   UNL A   1      33.074  28.514  23.221  1.00  0.00    -0.348 N 
ATOM     23  N   UNL A   1      33.672  26.980  21.741  1.00  0.00    -0.245 NA
ATOM     24  C   UNL A   1      33.877  28.207  22.158  1.00  0.00     0.196 A 
ATOM     25  H   UNL A   1      33.002  29.390  23.663  1.00  0.00     0.167 HD
ENDBRANCH  19  20
ENDBRANCH   6  19
ENDBRANCH   3   6
ENDBRANCH   1   2
BRANCH   1  26
ATOM     26  C   UNL A   1      34.868  30.065  27.248  1.00  0.00     0.042 C 
BRANCH  26  27
ATOM     27  C   UNL A   1      35.158  29.628  28.673  1.00  0.00     0.118 C 
BRANCH  27  28
ATOM     28  N   UNL A   1      35.527  30.731  29.559  1.00  0.00    -0.352 N 
ATOM     29  C   UNL A   1      36.740  31.102  30.095  1.00  0.00     0.251 C 
ATOM     30  H   UNL A   1      34.774  31.311  29.818  1.00  0.00     0.163 HD
ATOM     31  O   UNL A   1      36.799  32.013  30.909  1.00  0.00    -0.269 OA
BRANCH  29  32
ATOM     32  C   UNL A   1      37.967  30.368  29.718  1.00  0.00     0.039 A 
ATOM     33  C   UNL A   1      38.290  30.222  28.366  1.00  0.00     0.014 A 
ATOM     34  C   UNL A   1      38.821  29.869  30.696  1.00  0.00     0.014 A 
ATOM     35  C   UNL A   1      39.528  29.685  28.009  1.00  0.00     0.010 A 
ATOM     36  C   UNL A   1      40.103  29.477  30.348  1.00  0.00     0.010 A 
ATOM     37  C   UNL A   1      40.474  29.374  29.000  1.00  0.00    -0.014 A 
BRANCH  37  38
ATOM     38  C   UNL A   1      41.854  28.939  28.669  1.00  0.00     0.031 A 
ATOM     39  C   UNL A   1      42.970  29.952  28.637  1.00  0.00     0.074 A 
ATOM     40  C   UNL A   1      42.084  27.663  28.294  1.00  0.00     0.049 A 
ATOM     41  N   UNL A   1      44.208  29.804  28.242  1.00  0.00    -0.248 NA
ATOM     42  C   UNL A   1      42.637  31.325  29.055  1.00  0.00     0.031 C 
ATOM     43  C   UNL A   1      41.076  26.601  28.217  1.00  0.00     0.029 A 
ATOM     44  N   UNL A   1      43.243  27.042  27.896  1.00  0.00    -0.354 N 
ATOM     45  C   UNL A   1      44.784  31.067  28.327  1.00  0.00     0.074 A 
ATOM     46  C   UNL A   1      43.748  31.980  28.749  1.00  0.00     0.031 C 
ATOM     47  C   UNL A   1      41.668  25.455  27.841  1.00  0.00     0.029 A 
ATOM     48  C   UNL A   1      43.083  25.709  27.600  1.00  0.00     0.049 A 
ATOM     49  H   UNL A   1      44.107  27.509  27.828  1.00  0.00     0.167 HD
ATOM     50  C   UNL A   1      46.068  31.431  28.101  1.00  0.00     0.031 A 
ATOM     51  C   UNL A   1      43.975  24.794  27.177  1.00  0.00     0.031 A 
ATOM     52  C   UNL A   1      47.106  30.509  27.732  1.00  0.00     0.049 A 
ATOM     53  C   UNL A   1      45.404  25.213  26.967  1.00  0.00     0.074 A 
ATOM     54  C   UNL A   1      48.457  30.755  27.569  1.00  0.00     0.029 A 
ATOM     55  N   UNL A   1      46.909  29.160  27.479  1.00  0.00    -0.354 N 
ATOM     56  N   UNL A   1      45.943  26.398  27.124  1.00  0.00    -0.248 NA
ATOM     57  C   UNL A   1      46.344  24.172  26.529  1.00  0.00     0.031 C 
ATOM     58  C   UNL A   1      49.071  29.563  27.174  1.00  0.00     0.029 A 
ATOM     59  C   UNL A   1      48.109  28.565  27.138  1.00  0.00     0.049 A 
ATOM     60  H   UNL A   1      46.042  28.695  27.532  1.00  0.00     0.167 HD
ATOM     61  C   UNL A   1      47.291  26.242  26.820  1.00  0.00     0.074 A 
ATOM     62  C   UNL A   1      47.486  24.844  26.490  1.00  0.00     0.031 C 
ATOM     63  C   UNL A   1      48.277  27.171  26.810  1.00  0.00     0.031 A 
BRANCH  50  64
ATOM     64  C   UNL A   1      46.417  32.887  28.262  1.00  0.00    -0.014 A 
ATOM     65  C   UNL A   1      46.839  33.401  29.503  1.00  0.00     0.010 A 
ATOM     66  C   UNL A   1      46.342  33.751  27.155  1.00  0.00     0.010 A 
ATOM     67  C   UNL A   1      47.135  34.757  29.644  1.00  0.00     0.020 A 
ATOM     68  C   UNL A   1      46.667  35.104  27.286  1.00  0.00     0.020 A 
ATOM     69  C   UNL A   1      47.042  35.603  28.535  1.00  0.00     0.054 A 
BRANCH  69  70
ATOM     70  S   UNL A   1      47.452  37.357  28.743  1.00  0.00     0.124 S 
ATOM     71  O   UNL A   1      48.756  37.440  28.091  1.00  0.00    -0.237 OA
ATOM     72  O   UNL A   1      46.358  38.027  28.045  1.00  0.00    -0.237 OA
ATOM     73  O   UNL A   1      47.467  37.541  30.192  1.00  0.00    -0.744 OA
ENDBRANCH  69  70
ENDBRANCH  50  64
BRANCH  51  74
ATOM     74  C   UNL A   1      43.548  23.386  26.948  1.00  0.00    -0.014 A 
ATOM     75  C   UNL A   1      43.116  22.591  28.025  1.00  0.00     0.010 A 
ATOM     76  C   UNL A   1      43.550  22.837  25.652  1.00  0.00     0.010 A 
ATOM     77  C   UNL A   1      42.709  21.270  27.814  1.00  0.00     0.020 A 
ATOM     78  C   UNL A   1      43.119  21.525  25.434  1.00  0.00     0.020 A 
ATOM     79  C   UNL A   1      42.711  20.746  26.519  1.00  0.00     0.054 A 
BRANCH  79  80
ATOM     80  S   UNL A   1      42.124  19.048  26.259  1.00  0.00     0.124 S 
ATOM     81  O   UNL A   1      43.015  18.576  25.204  1.00  0.00    -0.237 OA
ATOM     82  O   UNL A   1      42.323  18.441  27.573  1.00  0.00    -0.237 OA
ATOM     83  O   UNL A   1      40.727  19.226  25.870  1.00  0.00    -0.744 OA
ENDBRANCH  79  80
ENDBRANCH  51  74
BRANCH  63  84
ATOM     84  C   UNL A   1      49.660  26.705  26.448  1.00  0.00    -0.014 A 
ATOM     85  C   UNL A   1      50.467  26.042  27.388  1.00  0.00     0.010 A 
ATOM     86  C   UNL A   1      50.129  26.876  25.133  1.00  0.00     0.010 A 
ATOM     87  C   UNL A   1      51.733  25.578  27.025  1.00  0.00     0.020 A 
ATOM     88  C   UNL A   1      51.385  26.391  24.760  1.00  0.00     0.020 A 
ATOM     89  C   UNL A   1      52.184  25.756  25.713  1.00  0.00     0.054 A 
BRANCH  89  90
ATOM     90  S   UNL A   1      53.810  25.098  25.253  1.00  0.00     0.124 S 
ATOM     91  O   UNL A   1      54.680  25.717  26.249  1.00  0.00    -0.237 OA
ATOM     92  O   UNL A   1      53.624  23.656  25.391  1.00  0.00    -0.237 OA
ATOM     93  O   UNL A   1      53.998  25.568  23.882  1.00  0.00    -0.744 OA
ENDBRANCH  89  90
ENDBRANCH  63  84
ENDBRANCH  37  38
ENDBRANCH  29  32
ENDBRANCH  27  28
ENDBRANCH  26  27
ENDBRANCH   1  26
TORSDOF 19
ENDMDL
