MODEL 1
REMARK VINA RESULT:     -11.9      0.000      0.000
REMARK SMILES O=C(NCCCNC(=O)c1ccc(-c2c3nc(c(-c4ccc(S(=O)(=O)[O-])cc4)c4ccc([nH]4)c(-c4ccc(S(=O)(=O)[O-])cc4)c4nc(c(-c5ccc(S(=O)(=O)[O-])cc5)c5ccc2[nH]5)C=C4)C=C3)cc1)c1ccc(/C=N/NC(=O)c2cccc3ccccc23)cc1
REMARK SMILES IDX 5 1 4 2 3 3 1 4 2 5 70 7 71 8 90 9 72 10 89 11 73 12 74 13
REMARK SMILES IDX 75 14 76 15 77 16 78 18 79 19 80 20 88 21 81 22 83 23 87 24
REMARK SMILES IDX 82 25 84 26 86 27 85 28 6 29 7 30 8 31 9 33 10 34 11 35
REMARK SMILES IDX 69 36 12 37 68 38 13 39 14 40 15 41 62 42 16 43 67 44 61 45
REMARK SMILES IDX 63 46 17 47 66 48 60 49 59 50 18 52 48 53 29 54 47 55 30 56
REMARK SMILES IDX 33 57 46 58 64 59 31 60 32 61 45 63 65 64 34 65 19 66 20 67
REMARK SMILES IDX 28 68 21 69 27 70 22 71 23 72 24 73 25 74 26 75 49 76 50 77
REMARK SMILES IDX 58 78 51 79 57 80 52 81 53 82 54 83 55 84 56 85 35 86 36 87
REMARK SMILES IDX 44 88 37 89 43 90 38 91 39 92 40 93 41 94 42 95
REMARK H PARENT 3 6 76 17 7 32 63 51 33 62
REMARK Flexibility Score: inf
ROOT
ATOM      1  C   UNL A   1      33.359  27.848  24.892  1.00  0.00     0.042 C 
ENDROOT
BRANCH   1   2
ATOM      2  C   UNL A   1      33.358  28.825  23.727  1.00  0.00     0.118 C 
BRANCH   2   3
ATOM      3  N   UNL A   1      32.032  29.017  23.156  1.00  0.00    -0.352 N 
ATOM      4  O   UNL A   1      30.195  28.527  21.948  1.00  0.00    -0.269 OA
ATOM      5  C   UNL A   1      31.206  28.126  22.525  1.00  0.00     0.251 C 
ATOM      6  H   UNL A   1      31.673  29.931  23.236  1.00  0.00     0.163 HD
BRANCH   5   7
ATOM      7  C   UNL A   1      31.521  26.684  22.515  1.00  0.00     0.039 A 
ATOM      8  C   UNL A   1      30.815  25.781  23.320  1.00  0.00     0.014 A 
ATOM      9  C   UNL A   1      32.528  26.230  21.655  1.00  0.00     0.014 A 
ATOM     10  C   UNL A   1      31.188  24.440  23.347  1.00  0.00     0.010 A 
ATOM     11  C   UNL A   1      32.869  24.880  21.641  1.00  0.00     0.010 A 
ATOM     12  C   UNL A   1      32.212  24.001  22.506  1.00  0.00    -0.005 A 
BRANCH  12  13
ATOM     13  C   UNL A   1      32.701  22.621  22.589  1.00  0.00     0.141 C 
ATOM     14  N   UNL A   1      31.946  21.707  23.099  1.00  0.00    -0.180 NA
BRANCH  14  15
ATOM     15  N   UNL A   1      32.471  20.489  23.383  1.00  0.00    -0.243 N 
ATOM     16  C   UNL A   1      33.334  20.067  24.375  1.00  0.00     0.271 C 
ATOM     17  H   UNL A   1      32.184  19.775  22.769  1.00  0.00     0.194 HD
ATOM     18  O   UNL A   1      33.674  18.879  24.393  1.00  0.00    -0.267 OA
BRANCH  16  19
ATOM     19  C   UNL A   1      33.931  20.959  25.402  1.00  0.00     0.049 A 
ATOM     20  C   UNL A   1      33.247  20.936  26.633  1.00  0.00     0.014 A 
ATOM     21  C   UNL A   1      35.029  21.846  25.202  1.00  0.00    -0.006 A 
ATOM     22  C   UNL A   1      33.605  21.794  27.663  1.00  0.00     0.001 A 
ATOM     23  C   UNL A   1      35.362  22.731  26.265  1.00  0.00    -0.018 A 
ATOM     24  C   UNL A   1      35.834  21.919  24.036  1.00  0.00     0.009 A 
ATOM     25  C   UNL A   1      34.640  22.702  27.468  1.00  0.00     0.009 A 
ATOM     26  C   UNL A   1      36.425  23.638  26.133  1.00  0.00     0.009 A 
ATOM     27  C   UNL A   1      36.942  22.769  23.955  1.00  0.00     0.001 A 
ATOM     28  C   UNL A   1      37.227  23.641  24.997  1.00  0.00     0.001 A 
ENDBRANCH  16  19
ENDBRANCH  14  15
ENDBRANCH  12  13
ENDBRANCH   5   7
ENDBRANCH   2   3
ENDBRANCH   1   2
BRANCH   1  29
ATOM     29  C   UNL A   1      34.207  28.281  26.078  1.00  0.00     0.118 C 
BRANCH  29  30
ATOM     30  N   UNL A   1      33.730  29.508  26.701  1.00  0.00    -0.352 N 
ATOM     31  C   UNL A   1      34.321  30.307  27.649  1.00  0.00     0.251 C 
ATOM     32  H   UNL A   1      32.845  29.814  26.394  1.00  0.00     0.163 HD
ATOM     33  O   UNL A   1      33.669  31.209  28.170  1.00  0.00    -0.269 OA
BRANCH  31  34
ATOM     34  C   UNL A   1      35.721  30.068  28.061  1.00  0.00     0.039 A 
ATOM     35  C   UNL A   1      35.975  29.584  29.348  1.00  0.00     0.014 A 
ATOM     36  C   UNL A   1      36.782  30.317  27.188  1.00  0.00     0.014 A 
ATOM     37  C   UNL A   1      37.285  29.283  29.728  1.00  0.00     0.010 A 
ATOM     38  C   UNL A   1      38.071  29.923  27.532  1.00  0.00     0.010 A 
ATOM     39  C   UNL A   1      38.340  29.409  28.809  1.00  0.00    -0.014 A 
BRANCH  39  40
ATOM     40  C   UNL A   1      39.726  29.011  29.162  1.00  0.00     0.031 A 
ATOM     41  C   UNL A   1      40.655  29.998  29.819  1.00  0.00     0.074 A 
ATOM     42  C   UNL A   1      40.172  27.781  28.832  1.00  0.00     0.049 A 
ATOM     43  N   UNL A   1      41.911  29.851  30.152  1.00  0.00    -0.248 NA
ATOM     44  C   UNL A   1      40.109  31.332  30.116  1.00  0.00     0.031 C 
ATOM     45  C   UNL A   1      39.387  26.749  28.150  1.00  0.00     0.029 A 
ATOM     46  N   UNL A   1      41.399  27.192  29.019  1.00  0.00    -0.354 N 
ATOM     47  C   UNL A   1      42.310  31.075  30.677  1.00  0.00     0.074 A 
ATOM     48  C   UNL A   1      41.179  31.970  30.567  1.00  0.00     0.031 C 
ATOM     49  C   UNL A   1      40.139  25.647  28.006  1.00  0.00     0.029 A 
ATOM     50  C   UNL A   1      41.473  25.905  28.539  1.00  0.00     0.049 A 
ATOM     51  H   UNL A   1      42.152  27.648  29.458  1.00  0.00     0.167 HD
ATOM     52  C   UNL A   1      43.502  31.419  31.219  1.00  0.00     0.031 A 
ATOM     53  C   UNL A   1      42.500  25.034  28.519  1.00  0.00     0.031 A 
ATOM     54  C   UNL A   1      44.622  30.523  31.334  1.00  0.00     0.049 A 
ATOM     55  C   UNL A   1      43.817  25.441  29.119  1.00  0.00     0.074 A 
ATOM     56  C   UNL A   1      45.852  30.756  31.925  1.00  0.00     0.029 A 
ATOM     57  N   UNL A   1      44.653  29.226  30.845  1.00  0.00    -0.354 N 
ATOM     58  N   UNL A   1      44.150  26.580  29.680  1.00  0.00    -0.248 NA
ATOM     59  C   UNL A   1      44.895  24.442  29.096  1.00  0.00     0.031 C 
ATOM     60  C   UNL A   1      46.648  29.623  31.736  1.00  0.00     0.029 A 
ATOM     61  C   UNL A   1      45.891  28.656  31.092  1.00  0.00     0.049 A 
ATOM     62  H   UNL A   1      43.905  28.776  30.389  1.00  0.00     0.167 HD
ATOM     63  C   UNL A   1      45.466  26.423  30.102  1.00  0.00     0.074 A 
ATOM     64  C   UNL A   1      45.861  25.076  29.746  1.00  0.00     0.031 C 
ATOM     65  C   UNL A   1      46.273  27.315  30.730  1.00  0.00     0.031 A 
BRANCH  52  66
ATOM     66  C   UNL A   1      43.661  32.833  31.720  1.00  0.00    -0.014 A 
ATOM     67  C   UNL A   1      43.393  33.168  33.060  1.00  0.00     0.010 A 
ATOM     68  C   UNL A   1      44.125  33.834  30.847  1.00  0.00     0.010 A 
ATOM     69  C   UNL A   1      43.542  34.484  33.505  1.00  0.00     0.020 A 
ATOM     70  C   UNL A   1      44.307  35.145  31.297  1.00  0.00     0.020 A 
ATOM     71  C   UNL A   1      43.998  35.465  32.619  1.00  0.00     0.054 A 
BRANCH  71  72
ATOM     72  S   UNL A   1      44.204  37.159  33.232  1.00  0.00     0.124 S 
ATOM     73  O   UNL A   1      44.423  37.903  31.994  1.00  0.00    -0.237 OA
ATOM     74  O   UNL A   1      42.931  37.414  33.901  1.00  0.00    -0.237 OA
ATOM     75  O   UNL A   1      45.364  37.070  34.118  1.00  0.00    -0.744 OA
ENDBRANCH  71  72
ENDBRANCH  52  66
BRANCH  53  76
ATOM     76  C   UNL A   1      42.316  23.684  27.916  1.00  0.00    -0.014 A 
ATOM     77  C   UNL A   1      42.741  23.422  26.602  1.00  0.00     0.010 A 
ATOM     78  C   UNL A   1      41.728  22.646  28.663  1.00  0.00     0.010 A 
ATOM     79  C   UNL A   1      42.566  22.154  26.039  1.00  0.00     0.020 A 
ATOM     80  C   UNL A   1      41.580  21.369  28.115  1.00  0.00     0.020 A 
ATOM     81  C   UNL A   1      41.990  21.134  26.801  1.00  0.00     0.054 A 
BRANCH  81  82
ATOM     82  S   UNL A   1      41.823  19.482  26.070  1.00  0.00     0.124 S 
ATOM     83  O   UNL A   1      42.669  19.588  24.885  1.00  0.00    -0.237 OA
ATOM     84  O   UNL A   1      42.326  18.616  27.133  1.00  0.00    -0.237 OA
ATOM     85  O   UNL A   1      40.390  19.367  25.808  1.00  0.00    -0.744 OA
ENDBRANCH  81  82
ENDBRANCH  53  76
BRANCH  65  86
ATOM     86  C   UNL A   1      47.657  26.853  31.107  1.00  0.00    -0.014 A 
ATOM     87  C   UNL A   1      47.892  26.132  32.291  1.00  0.00     0.010 A 
ATOM     88  C   UNL A   1      48.729  27.100  30.231  1.00  0.00     0.010 A 
ATOM     89  C   UNL A   1      49.182  25.697  32.607  1.00  0.00     0.020 A 
ATOM     90  C   UNL A   1      50.014  26.639  30.527  1.00  0.00     0.020 A 
ATOM     91  C   UNL A   1      50.234  25.951  31.723  1.00  0.00     0.054 A 
BRANCH  91  92
ATOM     92  S   UNL A   1      51.890  25.337  32.136  1.00  0.00     0.124 S 
ATOM     93  O   UNL A   1      51.656  23.903  32.276  1.00  0.00    -0.237 OA
ATOM     94  O   UNL A   1      52.678  25.736  30.973  1.00  0.00    -0.237 OA
ATOM     95  O   UNL A   1      52.221  26.037  33.375  1.00  0.00    -0.744 OA
ENDBRANCH  91  92
ENDBRANCH  65  86
ENDBRANCH  39  40
ENDBRANCH  31  34
ENDBRANCH  29  30
ENDBRANCH   1  29
TORSDOF 16
ENDMDL
MODEL 2
REMARK VINA RESULT:     -11.6      2.365      2.952
REMARK SMILES O=C(NCCCNC(=O)c1ccc(-c2c3nc(c(-c4ccc(S(=O)(=O)[O-])cc4)c4ccc([nH]4)c(-c4ccc(S(=O)(=O)[O-])cc4)c4nc(c(-c5ccc(S(=O)(=O)[O-])cc5)c5ccc2[nH]5)C=C4)C=C3)cc1)c1ccc(/C=N/NC(=O)c2cccc3ccccc23)cc1
REMARK SMILES IDX 5 1 4 2 3 3 1 4 2 5 70 7 71 8 90 9 72 10 89 11 73 12 74 13
REMARK SMILES IDX 75 14 76 15 77 16 78 18 79 19 80 20 88 21 81 22 83 23 87 24
REMARK SMILES IDX 82 25 84 26 86 27 85 28 6 29 7 30 8 31 9 33 10 34 11 35
REMARK SMILES IDX 69 36 12 37 68 38 13 39 14 40 15 41 62 42 16 43 67 44 61 45
REMARK SMILES IDX 63 46 17 47 66 48 60 49 59 50 18 52 48 53 29 54 47 55 30 56
REMARK SMILES IDX 33 57 46 58 64 59 31 60 32 61 45 63 65 64 34 65 19 66 20 67
REMARK SMILES IDX 28 68 21 69 27 70 22 71 23 72 24 73 25 74 26 75 49 76 50 77
REMARK SMILES IDX 58 78 51 79 57 80 52 81 53 82 54 83 55 84 56 85 35 86 36 87
REMARK SMILES IDX 44 88 37 89 43 90 38 91 39 92 40 93 41 94 42 95
REMARK H PARENT 3 6 76 17 7 32 63 51 33 62
REMARK Flexibility Score: inf
ROOT
ATOM      1  C   UNL A   1      32.966  28.125  25.242  1.00  0.00     0.042 C 
ENDROOT
BRANCH   1   2
ATOM      2  C   UNL A   1      33.087  28.950  23.970  1.00  0.00     0.118 C 
BRANCH   2   3
ATOM      3  N   UNL A   1      31.809  29.130  23.293  1.00  0.00    -0.352 N 
ATOM      4  O   UNL A   1      30.091  28.633  21.925  1.00  0.00    -0.269 OA
ATOM      5  C   UNL A   1      31.058  28.238  22.576  1.00  0.00     0.251 C 
ATOM      6  H   UNL A   1      31.426  30.034  23.363  1.00  0.00     0.163 HD
BRANCH   5   7
ATOM      7  C   UNL A   1      31.403  26.803  22.561  1.00  0.00     0.039 A 
ATOM      8  C   UNL A   1      30.720  25.884  23.367  1.00  0.00     0.014 A 
ATOM      9  C   UNL A   1      32.415  26.372  21.695  1.00  0.00     0.014 A 
ATOM     10  C   UNL A   1      31.121  24.551  23.389  1.00  0.00     0.010 A 
ATOM     11  C   UNL A   1      32.784  25.029  21.676  1.00  0.00     0.010 A 
ATOM     12  C   UNL A   1      32.150  24.135  22.543  1.00  0.00    -0.005 A 
BRANCH  12  13
ATOM     13  C   UNL A   1      32.668  22.765  22.620  1.00  0.00     0.141 C 
ATOM     14  N   UNL A   1      31.898  21.815  23.033  1.00  0.00    -0.180 NA
BRANCH  14  15
ATOM     15  N   UNL A   1      32.431  20.601  23.318  1.00  0.00    -0.243 N 
ATOM     16  C   UNL A   1      33.286  20.183  24.319  1.00  0.00     0.271 C 
ATOM     17  H   UNL A   1      32.158  19.887  22.698  1.00  0.00     0.194 HD
ATOM     18  O   UNL A   1      33.635  18.998  24.337  1.00  0.00    -0.267 OA
BRANCH  16  19
ATOM     19  C   UNL A   1      33.861  21.077  25.357  1.00  0.00     0.049 A 
ATOM     20  C   UNL A   1      33.119  21.099  26.554  1.00  0.00     0.014 A 
ATOM     21  C   UNL A   1      34.995  21.925  25.193  1.00  0.00    -0.006 A 
ATOM     22  C   UNL A   1      33.457  21.966  27.584  1.00  0.00     0.001 A 
ATOM     23  C   UNL A   1      35.306  22.820  26.254  1.00  0.00    -0.018 A 
ATOM     24  C   UNL A   1      35.856  21.950  24.065  1.00  0.00     0.009 A 
ATOM     25  C   UNL A   1      34.527  22.838  27.421  1.00  0.00     0.009 A 
ATOM     26  C   UNL A   1      36.402  23.692  26.155  1.00  0.00     0.009 A 
ATOM     27  C   UNL A   1      36.993  22.764  24.021  1.00  0.00     0.001 A 
ATOM     28  C   UNL A   1      37.256  23.647  25.059  1.00  0.00     0.001 A 
ENDBRANCH  16  19
ENDBRANCH  14  15
ENDBRANCH  12  13
ENDBRANCH   5   7
ENDBRANCH   2   3
ENDBRANCH   1   2
BRANCH   1  29
ATOM     29  C   UNL A   1      33.864  28.585  26.379  1.00  0.00     0.118 C 
BRANCH  29  30
ATOM     30  N   UNL A   1      33.768  30.015  26.638  1.00  0.00    -0.352 N 
ATOM     31  C   UNL A   1      34.530  30.821  27.448  1.00  0.00     0.251 C 
ATOM     32  H   UNL A   1      33.043  30.477  26.157  1.00  0.00     0.163 HD
ATOM     33  O   UNL A   1      34.171  31.977  27.661  1.00  0.00    -0.269 OA
BRANCH  31  34
ATOM     34  C   UNL A   1      35.758  30.296  28.083  1.00  0.00     0.039 A 
ATOM     35  C   UNL A   1      36.984  30.466  27.432  1.00  0.00     0.014 A 
ATOM     36  C   UNL A   1      35.710  29.639  29.315  1.00  0.00     0.014 A 
ATOM     37  C   UNL A   1      38.162  30.043  28.052  1.00  0.00     0.010 A 
ATOM     38  C   UNL A   1      36.890  29.310  29.974  1.00  0.00     0.010 A 
ATOM     39  C   UNL A   1      38.129  29.500  29.347  1.00  0.00    -0.014 A 
BRANCH  39  40
ATOM     40  C   UNL A   1      39.377  29.126  30.061  1.00  0.00     0.031 A 
ATOM     41  C   UNL A   1      39.798  29.877  31.296  1.00  0.00     0.074 A 
ATOM     42  C   UNL A   1      40.167  28.154  29.560  1.00  0.00     0.049 A 
ATOM     43  N   UNL A   1      40.878  29.731  32.021  1.00  0.00    -0.248 NA
ATOM     44  C   UNL A   1      38.905  30.950  31.764  1.00  0.00     0.031 C 
ATOM     45  C   UNL A   1      39.895  27.384  28.344  1.00  0.00     0.029 A 
ATOM     46  N   UNL A   1      41.363  27.651  30.008  1.00  0.00    -0.354 N 
ATOM     47  C   UNL A   1      40.802  30.702  33.014  1.00  0.00     0.074 A 
ATOM     48  C   UNL A   1      39.600  31.467  32.765  1.00  0.00     0.031 C 
ATOM     49  C   UNL A   1      40.878  26.487  28.161  1.00  0.00     0.029 A 
ATOM     50  C   UNL A   1      41.874  26.648  29.216  1.00  0.00     0.049 A 
ATOM     51  H   UNL A   1      41.813  27.977  30.821  1.00  0.00     0.167 HD
ATOM     52  C   UNL A   1      41.645  30.926  34.049  1.00  0.00     0.031 A 
ATOM     53  C   UNL A   1      43.017  25.944  29.320  1.00  0.00     0.031 A 
ATOM     54  C   UNL A   1      42.836  30.157  34.297  1.00  0.00     0.049 A 
ATOM     55  C   UNL A   1      43.942  26.216  30.473  1.00  0.00     0.074 A 
ATOM     56  C   UNL A   1      43.722  30.263  35.355  1.00  0.00     0.029 A 
ATOM     57  N   UNL A   1      43.310  29.144  33.478  1.00  0.00    -0.354 N 
ATOM     58  N   UNL A   1      43.813  27.088  31.445  1.00  0.00    -0.248 NA
ATOM     59  C   UNL A   1      45.162  25.399  30.553  1.00  0.00     0.031 C 
ATOM     60  C   UNL A   1      44.767  29.359  35.141  1.00  0.00     0.029 A 
ATOM     61  C   UNL A   1      44.494  28.638  33.989  1.00  0.00     0.049 A 
ATOM     62  H   UNL A   1      42.871  28.830  32.655  1.00  0.00     0.167 HD
ATOM     63  C   UNL A   1      44.921  26.906  32.267  1.00  0.00     0.074 A 
ATOM     64  C   UNL A   1      45.697  25.830  31.687  1.00  0.00     0.031 C 
ATOM     65  C   UNL A   1      45.261  27.568  33.400  1.00  0.00     0.031 A 
BRANCH  52  66
ATOM     66  C   UNL A   1      41.316  32.059  34.988  1.00  0.00    -0.014 A 
ATOM     67  C   UNL A   1      40.565  31.844  36.159  1.00  0.00     0.010 A 
ATOM     68  C   UNL A   1      41.798  33.353  34.716  1.00  0.00     0.010 A 
ATOM     69  C   UNL A   1      40.266  32.908  37.014  1.00  0.00     0.020 A 
ATOM     70  C   UNL A   1      41.529  34.413  35.587  1.00  0.00     0.020 A 
ATOM     71  C   UNL A   1      40.750  34.186  36.722  1.00  0.00     0.054 A 
BRANCH  71  72
ATOM     72  S   UNL A   1      40.365  35.541  37.864  1.00  0.00     0.124 S 
ATOM     73  O   UNL A   1      40.079  36.639  36.944  1.00  0.00    -0.237 OA
ATOM     74  O   UNL A   1      39.213  35.023  38.598  1.00  0.00    -0.237 OA
ATOM     75  O   UNL A   1      41.587  35.691  38.651  1.00  0.00    -0.744 OA
ENDBRANCH  71  72
ENDBRANCH  52  66
BRANCH  53  76
ATOM     76  C   UNL A   1      43.343  24.906  28.303  1.00  0.00    -0.014 A 
ATOM     77  C   UNL A   1      42.920  23.576  28.473  1.00  0.00     0.010 A 
ATOM     78  C   UNL A   1      44.067  25.248  27.145  1.00  0.00     0.010 A 
ATOM     79  C   UNL A   1      43.229  22.605  27.516  1.00  0.00     0.020 A 
ATOM     80  C   UNL A   1      44.351  24.287  26.171  1.00  0.00     0.020 A 
ATOM     81  C   UNL A   1      43.939  22.968  26.369  1.00  0.00     0.054 A 
BRANCH  81  82
ATOM     82  S   UNL A   1      44.281  21.702  25.114  1.00  0.00     0.124 S 
ATOM     83  O   UNL A   1      45.635  21.286  25.463  1.00  0.00    -0.237 OA
ATOM     84  O   UNL A   1      43.230  20.719  25.366  1.00  0.00    -0.237 OA
ATOM     85  O   UNL A   1      44.154  22.429  23.852  1.00  0.00    -0.744 OA
ENDBRANCH  81  82
ENDBRANCH  53  76
BRANCH  65  86
ATOM     86  C   UNL A   1      46.512  27.127  34.115  1.00  0.00    -0.014 A 
ATOM     87  C   UNL A   1      47.757  27.721  33.846  1.00  0.00     0.010 A 
ATOM     88  C   UNL A   1      46.425  26.138  35.112  1.00  0.00     0.010 A 
ATOM     89  C   UNL A   1      48.899  27.309  34.539  1.00  0.00     0.020 A 
ATOM     90  C   UNL A   1      47.558  25.746  35.828  1.00  0.00     0.020 A 
ATOM     91  C   UNL A   1      48.792  26.325  35.526  1.00  0.00     0.054 A 
BRANCH  91  92
ATOM     92  S   UNL A   1      50.282  25.839  36.440  1.00  0.00     0.124 S 
ATOM     93  O   UNL A   1      50.221  26.714  37.608  1.00  0.00    -0.237 OA
ATOM     94  O   UNL A   1      50.047  24.422  36.703  1.00  0.00    -0.237 OA
ATOM     95  O   UNL A   1      51.369  26.122  35.507  1.00  0.00    -0.744 OA
ENDBRANCH  91  92
ENDBRANCH  65  86
ENDBRANCH  39  40
ENDBRANCH  31  34
ENDBRANCH  29  30
ENDBRANCH   1  29
TORSDOF 16
ENDMDL
MODEL 3
REMARK VINA RESULT:     -11.6      2.896      3.661
REMARK SMILES O=C(NCCCNC(=O)c1ccc(-c2c3nc(c(-c4ccc(S(=O)(=O)[O-])cc4)c4ccc([nH]4)c(-c4ccc(S(=O)(=O)[O-])cc4)c4nc(c(-c5ccc(S(=O)(=O)[O-])cc5)c5ccc2[nH]5)C=C4)C=C3)cc1)c1ccc(/C=N/NC(=O)c2cccc3ccccc23)cc1
REMARK SMILES IDX 5 1 4 2 3 3 1 4 2 5 70 7 71 8 90 9 72 10 89 11 73 12 74 13
REMARK SMILES IDX 75 14 76 15 77 16 78 18 79 19 80 20 88 21 81 22 83 23 87 24
REMARK SMILES IDX 82 25 84 26 86 27 85 28 6 29 7 30 8 31 9 33 10 34 11 35
REMARK SMILES IDX 69 36 12 37 68 38 13 39 14 40 15 41 62 42 16 43 67 44 61 45
REMARK SMILES IDX 63 46 17 47 66 48 60 49 59 50 18 52 48 53 29 54 47 55 30 56
REMARK SMILES IDX 33 57 46 58 64 59 31 60 32 61 45 63 65 64 34 65 19 66 20 67
REMARK SMILES IDX 28 68 21 69 27 70 22 71 23 72 24 73 25 74 26 75 49 76 50 77
REMARK SMILES IDX 58 78 51 79 57 80 52 81 53 82 54 83 55 84 56 85 35 86 36 87
REMARK SMILES IDX 44 88 37 89 43 90 38 91 39 92 40 93 41 94 42 95
REMARK H PARENT 3 6 76 17 7 32 63 51 33 62
REMARK Flexibility Score: inf
ROOT
ATOM      1  C   UNL A   1      34.912  29.377  27.802  1.00  0.00     0.042 C 
ENDROOT
BRANCH   1   2
ATOM      2  C   UNL A   1      34.290  29.530  26.422  1.00  0.00     0.118 C 
BRANCH   2   3
ATOM      3  N   UNL A   1      33.118  30.393  26.427  1.00  0.00    -0.352 N 
ATOM      4  O   UNL A   1      31.106  31.175  25.784  1.00  0.00    -0.269 OA
ATOM      5  C   UNL A   1      31.908  30.242  25.805  1.00  0.00     0.251 C 
ATOM      6  H   UNL A   1      33.210  31.215  26.962  1.00  0.00     0.163 HD
BRANCH   5   7
ATOM      7  C   UNL A   1      31.556  28.970  25.143  1.00  0.00     0.039 A 
ATOM      8  C   UNL A   1      31.411  27.785  25.875  1.00  0.00     0.014 A 
ATOM      9  C   UNL A   1      31.338  28.980  23.760  1.00  0.00     0.014 A 
ATOM     10  C   UNL A   1      31.157  26.588  25.212  1.00  0.00     0.010 A 
ATOM     11  C   UNL A   1      31.031  27.792  23.099  1.00  0.00     0.010 A 
ATOM     12  C   UNL A   1      30.968  26.603  23.829  1.00  0.00    -0.005 A 
BRANCH  12  13
ATOM     13  C   UNL A   1      30.807  25.348  23.088  1.00  0.00     0.141 C 
ATOM     14  N   UNL A   1      31.325  24.262  23.554  1.00  0.00    -0.180 NA
BRANCH  14  15
ATOM     15  N   UNL A   1      31.373  23.155  22.771  1.00  0.00    -0.243 N 
ATOM     16  C   UNL A   1      32.075  21.972  22.892  1.00  0.00     0.271 C 
ATOM     17  H   UNL A   1      30.805  23.205  21.969  1.00  0.00     0.194 HD
ATOM     18  O   UNL A   1      31.946  21.119  22.008  1.00  0.00    -0.267 OA
BRANCH  16  19
ATOM     19  C   UNL A   1      33.021  21.668  23.996  1.00  0.00     0.049 A 
ATOM     20  C   UNL A   1      32.449  20.909  25.035  1.00  0.00     0.014 A 
ATOM     21  C   UNL A   1      34.361  22.143  24.102  1.00  0.00    -0.006 A 
ATOM     22  C   UNL A   1      33.163  20.634  26.193  1.00  0.00     0.001 A 
ATOM     23  C   UNL A   1      35.064  21.867  25.307  1.00  0.00    -0.018 A 
ATOM     24  C   UNL A   1      35.068  22.860  23.102  1.00  0.00     0.009 A 
ATOM     25  C   UNL A   1      34.452  21.134  26.336  1.00  0.00     0.009 A 
ATOM     26  C   UNL A   1      36.383  22.314  25.484  1.00  0.00     0.009 A 
ATOM     27  C   UNL A   1      36.410  23.223  23.261  1.00  0.00     0.001 A 
ATOM     28  C   UNL A   1      37.061  22.965  24.459  1.00  0.00     0.001 A 
ENDBRANCH  16  19
ENDBRANCH  14  15
ENDBRANCH  12  13
ENDBRANCH   5   7
ENDBRANCH   2   3
ENDBRANCH   1   2
BRANCH   1  29
ATOM     29  C   UNL A   1      35.546  30.645  28.352  1.00  0.00     0.118 C 
BRANCH  29  30
ATOM     30  N   UNL A   1      35.481  30.730  29.804  1.00  0.00    -0.352 N 
ATOM     31  C   UNL A   1      36.443  30.473  30.749  1.00  0.00     0.251 C 
ATOM     32  H   UNL A   1      34.611  31.019  30.165  1.00  0.00     0.163 HD
ATOM     33  O   UNL A   1      36.129  30.439  31.938  1.00  0.00    -0.269 OA
BRANCH  31  34
ATOM     34  C   UNL A   1      37.840  30.210  30.343  1.00  0.00     0.039 A 
ATOM     35  C   UNL A   1      38.762  29.799  31.311  1.00  0.00     0.014 A 
ATOM     36  C   UNL A   1      38.247  30.365  29.016  1.00  0.00     0.014 A 
ATOM     37  C   UNL A   1      40.066  29.476  30.932  1.00  0.00     0.010 A 
ATOM     38  C   UNL A   1      39.515  29.948  28.625  1.00  0.00     0.010 A 
ATOM     39  C   UNL A   1      40.443  29.506  29.578  1.00  0.00    -0.014 A 
BRANCH  39  40
ATOM     40  C   UNL A   1      41.797  29.081  29.142  1.00  0.00     0.031 A 
ATOM     41  C   UNL A   1      42.928  30.075  29.103  1.00  0.00     0.074 A 
ATOM     42  C   UNL A   1      41.995  27.816  28.717  1.00  0.00     0.049 A 
ATOM     43  N   UNL A   1      44.161  29.903  28.702  1.00  0.00    -0.248 NA
ATOM     44  C   UNL A   1      42.628  31.446  29.548  1.00  0.00     0.031 C 
ATOM     45  C   UNL A   1      40.970  26.771  28.659  1.00  0.00     0.029 A 
ATOM     46  N   UNL A   1      43.126  27.196  28.245  1.00  0.00    -0.354 N 
ATOM     47  C   UNL A   1      44.776  31.145  28.826  1.00  0.00     0.074 A 
ATOM     48  C   UNL A   1      43.766  32.071  29.287  1.00  0.00     0.031 C 
ATOM     49  C   UNL A   1      41.526  25.633  28.210  1.00  0.00     0.029 A 
ATOM     50  C   UNL A   1      42.931  25.878  27.902  1.00  0.00     0.049 A 
ATOM     51  H   UNL A   1      43.994  27.651  28.161  1.00  0.00     0.167 HD
ATOM     52  C   UNL A   1      46.068  31.480  28.597  1.00  0.00     0.031 A 
ATOM     53  C   UNL A   1      43.783  24.969  27.389  1.00  0.00     0.031 A 
ATOM     54  C   UNL A   1      47.071  30.552  28.146  1.00  0.00     0.049 A 
ATOM     55  C   UNL A   1      45.211  25.367  27.134  1.00  0.00     0.074 A 
ATOM     56  C   UNL A   1      48.422  30.779  27.945  1.00  0.00     0.029 A 
ATOM     57  N   UNL A   1      46.836  29.225  27.822  1.00  0.00    -0.354 N 
ATOM     58  N   UNL A   1      45.790  26.527  27.331  1.00  0.00    -0.248 NA
ATOM     59  C   UNL A   1      46.104  24.328  26.600  1.00  0.00     0.031 C 
ATOM     60  C   UNL A   1      48.990  29.606  27.437  1.00  0.00     0.029 A 
ATOM     61  C   UNL A   1      48.009  28.628  27.391  1.00  0.00     0.049 A 
ATOM     62  H   UNL A   1      45.964  28.773  27.887  1.00  0.00     0.167 HD
ATOM     63  C   UNL A   1      47.123  26.351  26.972  1.00  0.00     0.074 A 
ATOM     64  C   UNL A   1      47.264  24.968  26.562  1.00  0.00     0.031 C 
ATOM     65  C   UNL A   1      48.136  27.251  26.983  1.00  0.00     0.031 A 
BRANCH  52  66
ATOM     66  C   UNL A   1      46.468  32.917  28.818  1.00  0.00    -0.014 A 
ATOM     67  C   UNL A   1      46.292  33.888  27.814  1.00  0.00     0.010 A 
ATOM     68  C   UNL A   1      46.991  33.311  30.063  1.00  0.00     0.010 A 
ATOM     69  C   UNL A   1      46.673  35.214  28.037  1.00  0.00     0.020 A 
ATOM     70  C   UNL A   1      47.342  34.644  30.301  1.00  0.00     0.020 A 
ATOM     71  C   UNL A   1      47.196  35.583  29.279  1.00  0.00     0.054 A 
BRANCH  71  72
ATOM     72  S   UNL A   1      47.659  37.316  29.545  1.00  0.00     0.124 S 
ATOM     73  O   UNL A   1      46.405  38.010  29.261  1.00  0.00    -0.237 OA
ATOM     74  O   UNL A   1      48.078  37.324  30.945  1.00  0.00    -0.237 OA
ATOM     75  O   UNL A   1      48.729  37.543  28.576  1.00  0.00    -0.744 OA
ENDBRANCH  71  72
ENDBRANCH  52  66
BRANCH  53  76
ATOM     76  C   UNL A   1      43.306  23.590  27.091  1.00  0.00    -0.014 A 
ATOM     77  C   UNL A   1      43.055  23.187  25.768  1.00  0.00     0.010 A 
ATOM     78  C   UNL A   1      43.115  22.663  28.134  1.00  0.00     0.010 A 
ATOM     79  C   UNL A   1      42.606  21.892  25.493  1.00  0.00     0.020 A 
ATOM     80  C   UNL A   1      42.697  21.358  27.860  1.00  0.00     0.020 A 
ATOM     81  C   UNL A   1      42.434  20.984  26.541  1.00  0.00     0.054 A 
BRANCH  81  82
ATOM     82  S   UNL A   1      41.904  19.292  26.155  1.00  0.00     0.124 S 
ATOM     83  O   UNL A   1      42.702  18.986  24.972  1.00  0.00    -0.237 OA
ATOM     84  O   UNL A   1      42.266  18.566  27.370  1.00  0.00    -0.237 OA
ATOM     85  O   UNL A   1      40.468  19.428  25.924  1.00  0.00    -0.744 OA
ENDBRANCH  81  82
ENDBRANCH  53  76
BRANCH  65  86
ATOM     86  C   UNL A   1      49.503  26.765  26.573  1.00  0.00    -0.014 A 
ATOM     87  C   UNL A   1      50.387  26.193  27.503  1.00  0.00     0.010 A 
ATOM     88  C   UNL A   1      49.881  26.834  25.219  1.00  0.00     0.010 A 
ATOM     89  C   UNL A   1      51.640  25.730  27.093  1.00  0.00     0.020 A 
ATOM     90  C   UNL A   1      51.120  26.343  24.800  1.00  0.00     0.020 A 
ATOM     91  C   UNL A   1      51.998  25.806  25.744  1.00  0.00     0.054 A 
BRANCH  91  92
ATOM     92  S   UNL A   1      53.613  25.158  25.231  1.00  0.00     0.124 S 
ATOM     93  O   UNL A   1      53.388  23.716  25.269  1.00  0.00    -0.237 OA
ATOM     94  O   UNL A   1      53.779  25.734  23.899  1.00  0.00    -0.237 OA
ATOM     95  O   UNL A   1      54.531  25.672  26.244  1.00  0.00    -0.744 OA
ENDBRANCH  91  92
ENDBRANCH  65  86
ENDBRANCH  39  40
ENDBRANCH  31  34
ENDBRANCH  29  30
ENDBRANCH   1  29
TORSDOF 16
ENDMDL
