MODEL 1
REMARK VINA RESULT:     -11.5      0.000      0.000
REMARK SMILES CC(=O)N/C(=C\c1ccccc1)C(=O)N[C@H](C(=O)NCCCNC(=O)c1ccc(-c2c3nc(c(-c4ccc(S(=O)(=O)[O-])cc4)c4ccc([nH]4)c(-c4ccc(S(=O)(=O)[O-])cc4)c4nc(c(-c5ccc(S(=O)(=O)[O-])cc5)c5ccc2[nH]5)C=C4)C=C3)cc1)C(C)C
REMARK SMILES IDX 21 1 20 2 19 3 17 4 18 5 16 7 15 8 13 9 14 10 5 12 6 13 4 14
REMARK SMILES IDX 1 15 2 16 3 17 7 19 8 20 12 21 9 22 11 23 10 24 86 25 87 26
REMARK SMILES IDX 88 27 22 28 23 29 24 30 25 32 26 33 27 34 85 35 28 36 84 37
REMARK SMILES IDX 29 38 30 39 31 40 78 41 32 42 83 43 77 44 79 45 33 46 82 47
REMARK SMILES IDX 76 48 75 49 34 51 64 52 45 53 63 54 46 55 49 56 62 57 80 58
REMARK SMILES IDX 47 59 48 60 61 62 81 63 50 64 35 65 36 66 44 67 37 68 43 69
REMARK SMILES IDX 38 70 39 71 40 72 41 73 42 74 65 75 66 76 74 77 67 78 73 79
REMARK SMILES IDX 68 80 69 81 70 82 71 83 72 84 51 85 52 86 60 87 53 88 59 89
REMARK SMILES IDX 54 90 55 91 56 92 57 93 58 94
REMARK H PARENT 19 6 15 11 4 18 23 31 79 50 49 61
REMARK Flexibility Score: inf
ROOT
ATOM      1  C   UNL A   1      33.752  28.162  25.830  1.00  0.00     0.042 C 
ENDROOT
BRANCH   1   2
ATOM      2  C   UNL A   1      32.499  28.122  24.959  1.00  0.00     0.117 C 
BRANCH   2   3
ATOM      3  N   UNL A   1      31.436  27.357  25.579  1.00  0.00    -0.354 N 
ATOM      4  C   UNL A   1      31.235  26.024  25.739  1.00  0.00     0.242 C 
ATOM      5  O   UNL A   1      30.191  25.716  26.335  1.00  0.00    -0.273 OA
ATOM      6  H   UNL A   1      30.718  27.913  25.959  1.00  0.00     0.163 HD
BRANCH   4   7
ATOM      7  C   UNL A   1      32.244  24.896  25.286  1.00  0.00     0.174 C 
BRANCH   7   8
ATOM      8  N   UNL A   1      32.062  23.884  26.368  1.00  0.00    -0.339 N 
ATOM      9  C   UNL A   1      32.669  22.759  26.836  1.00  0.00     0.268 C 
ATOM     10  O   UNL A   1      32.517  22.513  28.032  1.00  0.00    -0.268 OA
ATOM     11  H   UNL A   1      31.264  24.093  26.905  1.00  0.00     0.164 HD
BRANCH   9  12
ATOM     12  C   UNL A   1      33.430  21.811  25.956  1.00  0.00     0.107 C 
ATOM     13  C   UNL A   1      32.708  21.092  25.077  1.00  0.00     0.040 C 
BRANCH  12  14
ATOM     14  N   UNL A   1      34.811  21.714  25.967  1.00  0.00    -0.322 N 
ATOM     15  C   UNL A   1      35.742  23.992  25.404  1.00  0.00     0.114 C 
ATOM     16  C   UNL A   1      35.869  22.541  25.746  1.00  0.00     0.221 C 
ATOM     17  O   UNL A   1      36.995  22.033  25.830  1.00  0.00    -0.275 OA
ATOM     18  H   UNL A   1      35.107  20.804  26.195  1.00  0.00     0.170 HD
ENDBRANCH  12  14
BRANCH  13  19
ATOM     19  C   UNL A   1      33.092  19.900  24.289  1.00  0.00    -0.023 A 
ATOM     20  C   UNL A   1      32.279  19.534  23.207  1.00  0.00     0.008 A 
ATOM     21  C   UNL A   1      34.058  18.982  24.736  1.00  0.00     0.008 A 
ATOM     22  C   UNL A   1      32.421  18.285  22.598  1.00  0.00     0.001 A 
ATOM     23  C   UNL A   1      34.215  17.744  24.111  1.00  0.00     0.001 A 
ATOM     24  C   UNL A   1      33.388  17.390  23.050  1.00  0.00     0.000 A 
ENDBRANCH  13  19
ENDBRANCH   9  12
ENDBRANCH   7   8
BRANCH   7  25
ATOM     25  C   UNL A   1      32.005  24.453  23.818  1.00  0.00     0.015 C 
ATOM     26  C   UNL A   1      30.625  23.796  23.632  1.00  0.00     0.010 C 
ATOM     27  C   UNL A   1      32.237  25.477  22.711  1.00  0.00     0.010 C 
ENDBRANCH   7  25
ENDBRANCH   4   7
ENDBRANCH   2   3
ENDBRANCH   1   2
BRANCH   1  28
ATOM     28  C   UNL A   1      33.491  28.454  27.297  1.00  0.00     0.118 C 
BRANCH  28  29
ATOM     29  N   UNL A   1      33.463  29.876  27.598  1.00  0.00    -0.352 N 
ATOM     30  C   UNL A   1      34.447  30.671  28.136  1.00  0.00     0.251 C 
ATOM     31  H   UNL A   1      32.618  30.336  27.387  1.00  0.00     0.163 HD
ATOM     32  O   UNL A   1      34.185  31.832  28.443  1.00  0.00    -0.269 OA
BRANCH  30  33
ATOM     33  C   UNL A   1      35.803  30.123  28.383  1.00  0.00     0.039 A 
ATOM     34  C   UNL A   1      36.734  30.129  27.341  1.00  0.00     0.014 A 
ATOM     35  C   UNL A   1      36.164  29.623  29.636  1.00  0.00     0.014 A 
ATOM     36  C   UNL A   1      38.046  29.707  27.579  1.00  0.00     0.010 A 
ATOM     37  C   UNL A   1      37.491  29.296  29.895  1.00  0.00     0.010 A 
ATOM     38  C   UNL A   1      38.447  29.328  28.868  1.00  0.00    -0.014 A 
BRANCH  38  39
ATOM     39  C   UNL A   1      39.851  28.952  29.176  1.00  0.00     0.031 A 
ATOM     40  C   UNL A   1      40.789  29.980  29.754  1.00  0.00     0.074 A 
ATOM     41  C   UNL A   1      40.305  27.726  28.850  1.00  0.00     0.049 A 
ATOM     42  N   UNL A   1      42.074  29.890  29.978  1.00  0.00    -0.248 NA
ATOM     43  C   UNL A   1      40.215  31.294  30.091  1.00  0.00     0.031 C 
ATOM     44  C   UNL A   1      39.506  26.658  28.238  1.00  0.00     0.029 A 
ATOM     45  N   UNL A   1      41.555  27.171  28.969  1.00  0.00    -0.354 N 
ATOM     46  C   UNL A   1      42.467  31.140  30.442  1.00  0.00     0.074 A 
ATOM     47  C   UNL A   1      41.293  31.984  30.431  1.00  0.00     0.031 C 
ATOM     48  C   UNL A   1      40.281  25.577  28.056  1.00  0.00     0.029 A 
ATOM     49  C   UNL A   1      41.639  25.884  28.490  1.00  0.00     0.049 A 
ATOM     50  H   UNL A   1      42.321  27.650  29.360  1.00  0.00     0.167 HD
ATOM     51  C   UNL A   1      43.691  31.544  30.856  1.00  0.00     0.031 A 
ATOM     52  C   UNL A   1      42.694  25.050  28.395  1.00  0.00     0.031 A 
ATOM     53  C   UNL A   1      44.843  30.686  30.905  1.00  0.00     0.049 A 
ATOM     54  C   UNL A   1      44.041  25.519  28.876  1.00  0.00     0.074 A 
ATOM     55  C   UNL A   1      46.103  30.970  31.400  1.00  0.00     0.029 A 
ATOM     56  N   UNL A   1      44.875  29.380  30.444  1.00  0.00    -0.354 N 
ATOM     57  N   UNL A   1      44.369  26.678  29.398  1.00  0.00    -0.248 NA
ATOM     58  C   UNL A   1      45.157  24.571  28.760  1.00  0.00     0.031 C 
ATOM     59  C   UNL A   1      46.915  29.852  31.187  1.00  0.00     0.029 A 
ATOM     60  C   UNL A   1      46.144  28.854  30.610  1.00  0.00     0.049 A 
ATOM     61  H   UNL A   1      44.110  28.898  30.054  1.00  0.00     0.167 HD
ATOM     62  C   UNL A   1      45.725  26.588  29.692  1.00  0.00     0.074 A 
ATOM     63  C   UNL A   1      46.150  25.258  29.308  1.00  0.00     0.031 C 
ATOM     64  C   UNL A   1      46.545  27.524  30.229  1.00  0.00     0.031 A 
BRANCH  51  65
ATOM     65  C   UNL A   1      43.852  32.978  31.287  1.00  0.00    -0.014 A 
ATOM     66  C   UNL A   1      44.198  33.983  30.365  1.00  0.00     0.010 A 
ATOM     67  C   UNL A   1      43.598  33.335  32.624  1.00  0.00     0.010 A 
ATOM     68  C   UNL A   1      44.319  35.312  30.779  1.00  0.00     0.020 A 
ATOM     69  C   UNL A   1      43.690  34.667  33.037  1.00  0.00     0.020 A 
ATOM     70  C   UNL A   1      44.065  35.646  32.113  1.00  0.00     0.054 A 
BRANCH  70  71
ATOM     71  S   UNL A   1      44.193  37.385  32.614  1.00  0.00     0.124 S 
ATOM     72  O   UNL A   1      43.917  38.079  31.358  1.00  0.00    -0.237 OA
ATOM     73  O   UNL A   1      43.155  37.501  33.635  1.00  0.00    -0.237 OA
ATOM     74  O   UNL A   1      45.563  37.505  33.104  1.00  0.00    -0.744 OA
ENDBRANCH  70  71
ENDBRANCH  51  65
BRANCH  52  75
ATOM     75  C   UNL A   1      42.524  23.688  27.817  1.00  0.00    -0.014 A 
ATOM     76  C   UNL A   1      42.375  22.569  28.655  1.00  0.00     0.010 A 
ATOM     77  C   UNL A   1      42.515  23.502  26.422  1.00  0.00     0.010 A 
ATOM     78  C   UNL A   1      42.247  21.287  28.111  1.00  0.00     0.020 A 
ATOM     79  C   UNL A   1      42.359  22.224  25.874  1.00  0.00     0.020 A 
ATOM     80  C   UNL A   1      42.241  21.123  26.723  1.00  0.00     0.054 A 
BRANCH  80  81
ATOM     81  S   UNL A   1      42.039  19.455  26.038  1.00  0.00     0.124 S 
ATOM     82  O   UNL A   1      42.492  18.617  27.142  1.00  0.00    -0.237 OA
ATOM     83  O   UNL A   1      40.607  19.404  25.749  1.00  0.00    -0.237 OA
ATOM     84  O   UNL A   1      42.903  19.464  24.860  1.00  0.00    -0.744 OA
ENDBRANCH  80  81
ENDBRANCH  52  75
BRANCH  64  85
ATOM     85  C   UNL A   1      47.980  27.141  30.460  1.00  0.00    -0.014 A 
ATOM     86  C   UNL A   1      48.949  27.323  29.457  1.00  0.00     0.010 A 
ATOM     87  C   UNL A   1      48.379  26.676  31.727  1.00  0.00     0.010 A 
ATOM     88  C   UNL A   1      50.290  27.030  29.714  1.00  0.00     0.020 A 
ATOM     89  C   UNL A   1      49.723  26.408  31.995  1.00  0.00     0.020 A 
ATOM     90  C   UNL A   1      50.669  26.579  30.983  1.00  0.00     0.054 A 
BRANCH  90  91
ATOM     91  S   UNL A   1      52.427  26.278  31.311  1.00  0.00     0.124 S 
ATOM     92  O   UNL A   1      52.733  27.309  32.299  1.00  0.00    -0.237 OA
ATOM     93  O   UNL A   1      52.429  24.906  31.812  1.00  0.00    -0.237 OA
ATOM     94  O   UNL A   1      53.059  26.459  30.006  1.00  0.00    -0.744 OA
ENDBRANCH  90  91
ENDBRANCH  64  85
ENDBRANCH  38  39
ENDBRANCH  30  33
ENDBRANCH  28  29
ENDBRANCH   1  28
TORSDOF 18
ENDMDL
MODEL 2
REMARK VINA RESULT:     -11.2      2.895      9.516
REMARK SMILES CC(=O)N/C(=C\c1ccccc1)C(=O)N[C@H](C(=O)NCCCNC(=O)c1ccc(-c2c3nc(c(-c4ccc(S(=O)(=O)[O-])cc4)c4ccc([nH]4)c(-c4ccc(S(=O)(=O)[O-])cc4)c4nc(c(-c5ccc(S(=O)(=O)[O-])cc5)c5ccc2[nH]5)C=C4)C=C3)cc1)C(C)C
REMARK SMILES IDX 21 1 20 2 19 3 17 4 18 5 16 7 15 8 13 9 14 10 5 12 6 13 4 14
REMARK SMILES IDX 1 15 2 16 3 17 7 19 8 20 12 21 9 22 11 23 10 24 86 25 87 26
REMARK SMILES IDX 88 27 22 28 23 29 24 30 25 32 26 33 27 34 85 35 28 36 84 37
REMARK SMILES IDX 29 38 30 39 31 40 78 41 32 42 83 43 77 44 79 45 33 46 82 47
REMARK SMILES IDX 76 48 75 49 34 51 64 52 45 53 63 54 46 55 49 56 62 57 80 58
REMARK SMILES IDX 47 59 48 60 61 62 81 63 50 64 35 65 36 66 44 67 37 68 43 69
REMARK SMILES IDX 38 70 39 71 40 72 41 73 42 74 65 75 66 76 74 77 67 78 73 79
REMARK SMILES IDX 68 80 69 81 70 82 71 83 72 84 51 85 52 86 60 87 53 88 59 89
REMARK SMILES IDX 54 90 55 91 56 92 57 93 58 94
REMARK H PARENT 19 6 15 11 4 18 23 31 79 50 49 61
REMARK Flexibility Score: inf
ROOT
ATOM      1  C   UNL A   1      35.732  23.700  25.877  1.00  0.00     0.042 C 
ENDROOT
BRANCH   1   2
ATOM      2  C   UNL A   1      34.615  22.780  25.389  1.00  0.00     0.117 C 
BRANCH   2   3
ATOM      3  N   UNL A   1      34.389  22.917  23.964  1.00  0.00    -0.354 N 
ATOM      4  C   UNL A   1      33.785  23.876  23.216  1.00  0.00     0.242 C 
ATOM      5  O   UNL A   1      33.776  23.661  21.994  1.00  0.00    -0.273 OA
ATOM      6  H   UNL A   1      34.742  22.166  23.434  1.00  0.00     0.163 HD
BRANCH   4   7
ATOM      7  C   UNL A   1      33.181  25.219  23.785  1.00  0.00     0.174 C 
BRANCH   7   8
ATOM      8  N   UNL A   1      33.498  26.176  22.683  1.00  0.00    -0.339 N 
ATOM      9  C   UNL A   1      33.333  27.494  22.388  1.00  0.00     0.268 C 
ATOM     10  O   UNL A   1      34.169  27.994  21.635  1.00  0.00    -0.268 OA
ATOM     11  H   UNL A   1      33.966  25.714  21.950  1.00  0.00     0.164 HD
BRANCH   9  12
ATOM     12  C   UNL A   1      32.170  28.306  22.878  1.00  0.00     0.107 C 
ATOM     13  C   UNL A   1      30.972  28.041  22.323  1.00  0.00     0.040 C 
BRANCH  12  14
ATOM     14  N   UNL A   1      32.273  29.232  23.901  1.00  0.00    -0.322 N 
ATOM     15  C   UNL A   1      31.527  28.103  26.032  1.00  0.00     0.114 C 
ATOM     16  C   UNL A   1      32.029  29.269  25.239  1.00  0.00     0.221 C 
ATOM     17  O   UNL A   1      32.234  30.349  25.810  1.00  0.00    -0.275 OA
ATOM     18  H   UNL A   1      32.614  30.095  23.574  1.00  0.00     0.170 HD
ENDBRANCH  12  14
BRANCH  13  19
ATOM     19  C   UNL A   1      29.717  28.822  22.364  1.00  0.00    -0.023 A 
ATOM     20  C   UNL A   1      29.743  30.138  21.884  1.00  0.00     0.008 A 
ATOM     21  C   UNL A   1      28.594  28.404  23.100  1.00  0.00     0.008 A 
ATOM     22  C   UNL A   1      28.683  31.013  22.140  1.00  0.00     0.001 A 
ATOM     23  C   UNL A   1      27.526  29.271  23.334  1.00  0.00     0.001 A 
ATOM     24  C   UNL A   1      27.577  30.579  22.865  1.00  0.00     0.000 A 
ENDBRANCH  13  19
ENDBRANCH   9  12
ENDBRANCH   7   8
BRANCH   7  25
ATOM     25  C   UNL A   1      31.699  25.058  24.215  1.00  0.00     0.015 C 
ATOM     26  C   UNL A   1      30.846  24.408  23.110  1.00  0.00     0.010 C 
ATOM     27  C   UNL A   1      31.407  24.381  25.550  1.00  0.00     0.010 C 
ENDBRANCH   7  25
ENDBRANCH   4   7
ENDBRANCH   2   3
ENDBRANCH   1   2
BRANCH   1  28
ATOM     28  C   UNL A   1      36.984  23.681  25.019  1.00  0.00     0.118 C 
BRANCH  28  29
ATOM     29  N   UNL A   1      37.954  22.686  25.447  1.00  0.00    -0.352 N 
ATOM     30  C   UNL A   1      39.094  22.851  26.198  1.00  0.00     0.251 C 
ATOM     31  H   UNL A   1      37.768  21.764  25.158  1.00  0.00     0.163 HD
ATOM     32  O   UNL A   1      39.862  21.903  26.343  1.00  0.00    -0.269 OA
BRANCH  30  33
ATOM     33  C   UNL A   1      39.417  24.170  26.794  1.00  0.00     0.039 A 
ATOM     34  C   UNL A   1      39.016  24.435  28.106  1.00  0.00     0.014 A 
ATOM     35  C   UNL A   1      40.125  25.135  26.074  1.00  0.00     0.014 A 
ATOM     36  C   UNL A   1      39.393  25.633  28.719  1.00  0.00     0.010 A 
ATOM     37  C   UNL A   1      40.581  26.282  26.716  1.00  0.00     0.010 A 
ATOM     38  C   UNL A   1      40.215  26.548  28.045  1.00  0.00    -0.014 A 
BRANCH  38  39
ATOM     39  C   UNL A   1      40.704  27.792  28.693  1.00  0.00     0.031 A 
ATOM     40  C   UNL A   1      42.093  27.835  29.276  1.00  0.00     0.074 A 
ATOM     41  C   UNL A   1      39.872  28.843  28.842  1.00  0.00     0.049 A 
ATOM     42  N   UNL A   1      42.660  28.775  29.986  1.00  0.00    -0.248 NA
ATOM     43  C   UNL A   1      42.942  26.650  29.066  1.00  0.00     0.031 C 
ATOM     44  C   UNL A   1      38.487  28.905  28.364  1.00  0.00     0.029 A 
ATOM     45  N   UNL A   1      40.062  30.058  29.452  1.00  0.00    -0.354 N 
ATOM     46  C   UNL A   1      43.912  28.281  30.337  1.00  0.00     0.074 A 
ATOM     47  C   UNL A   1      44.007  26.944  29.797  1.00  0.00     0.031 C 
ATOM     48  C   UNL A   1      37.963  30.100  28.683  1.00  0.00     0.029 A 
ATOM     49  C   UNL A   1      38.953  30.871  29.427  1.00  0.00     0.049 A 
ATOM     50  H   UNL A   1      40.914  30.322  29.870  1.00  0.00     0.167 HD
ATOM     51  C   UNL A   1      44.899  28.893  31.032  1.00  0.00     0.031 A 
ATOM     52  C   UNL A   1      38.748  32.094  29.958  1.00  0.00     0.031 A 
ATOM     53  C   UNL A   1      44.813  30.240  31.529  1.00  0.00     0.049 A 
ATOM     54  C   UNL A   1      39.868  32.757  30.714  1.00  0.00     0.074 A 
ATOM     55  C   UNL A   1      45.793  30.985  32.158  1.00  0.00     0.029 A 
ATOM     56  N   UNL A   1      43.684  31.040  31.451  1.00  0.00    -0.354 N 
ATOM     57  N   UNL A   1      41.077  32.306  30.955  1.00  0.00    -0.248 NA
ATOM     58  C   UNL A   1      39.599  34.092  31.266  1.00  0.00     0.031 C 
ATOM     59  C   UNL A   1      45.239  32.219  32.512  1.00  0.00     0.029 A 
ATOM     60  C   UNL A   1      43.932  32.261  32.052  1.00  0.00     0.049 A 
ATOM     61  H   UNL A   1      42.833  30.778  31.031  1.00  0.00     0.167 HD
ATOM     62  C   UNL A   1      41.719  33.313  31.667  1.00  0.00     0.074 A 
ATOM     63  C   UNL A   1      40.772  34.401  31.802  1.00  0.00     0.031 C 
ATOM     64  C   UNL A   1      42.978  33.334  32.168  1.00  0.00     0.031 A 
BRANCH  51  65
ATOM     65  C   UNL A   1      46.159  28.114  31.304  1.00  0.00    -0.014 A 
ATOM     66  C   UNL A   1      47.268  28.196  30.443  1.00  0.00     0.010 A 
ATOM     67  C   UNL A   1      46.255  27.332  32.469  1.00  0.00     0.010 A 
ATOM     68  C   UNL A   1      48.437  27.484  30.725  1.00  0.00     0.020 A 
ATOM     69  C   UNL A   1      47.431  26.640  32.770  1.00  0.00     0.020 A 
ATOM     70  C   UNL A   1      48.511  26.710  31.887  1.00  0.00     0.054 A 
BRANCH  70  71
ATOM     71  S   UNL A   1      50.055  25.828  32.246  1.00  0.00     0.124 S 
ATOM     72  O   UNL A   1      50.732  26.761  33.144  1.00  0.00    -0.237 OA
ATOM     73  O   UNL A   1      49.581  24.593  32.867  1.00  0.00    -0.237 OA
ATOM     74  O   UNL A   1      50.675  25.665  30.934  1.00  0.00    -0.744 OA
ENDBRANCH  70  71
ENDBRANCH  51  65
BRANCH  52  75
ATOM     75  C   UNL A   1      37.431  32.768  29.800  1.00  0.00    -0.014 A 
ATOM     76  C   UNL A   1      37.167  33.569  28.675  1.00  0.00     0.010 A 
ATOM     77  C   UNL A   1      36.431  32.619  30.780  1.00  0.00     0.010 A 
ATOM     78  C   UNL A   1      35.941  34.228  28.543  1.00  0.00     0.020 A 
ATOM     79  C   UNL A   1      35.192  33.254  30.638  1.00  0.00     0.020 A 
ATOM     80  C   UNL A   1      34.961  34.067  29.528  1.00  0.00     0.054 A 
BRANCH  80  81
ATOM     81  S   UNL A   1      33.364  34.902  29.320  1.00  0.00     0.124 S 
ATOM     82  O   UNL A   1      33.771  36.221  28.849  1.00  0.00    -0.237 OA
ATOM     83  O   UNL A   1      32.691  34.058  28.336  1.00  0.00    -0.237 OA
ATOM     84  O   UNL A   1      32.784  34.865  30.660  1.00  0.00    -0.744 OA
ENDBRANCH  80  81
ENDBRANCH  52  75
BRANCH  64  85
ATOM     85  C   UNL A   1      43.421  34.578  32.886  1.00  0.00    -0.014 A 
ATOM     86  C   UNL A   1      43.386  34.657  34.289  1.00  0.00     0.010 A 
ATOM     87  C   UNL A   1      43.960  35.650  32.149  1.00  0.00     0.010 A 
ATOM     88  C   UNL A   1      43.869  35.792  34.942  1.00  0.00     0.020 A 
ATOM     89  C   UNL A   1      44.469  36.775  32.801  1.00  0.00     0.020 A 
ATOM     90  C   UNL A   1      44.412  36.842  34.194  1.00  0.00     0.054 A 
BRANCH  90  91
ATOM     91  S   UNL A   1      45.100  38.272  35.072  1.00  0.00     0.124 S 
ATOM     92  O   UNL A   1      45.922  37.634  36.096  1.00  0.00    -0.237 OA
ATOM     93  O   UNL A   1      45.835  38.970  34.021  1.00  0.00    -0.237 OA
ATOM     94  O   UNL A   1      43.919  38.974  35.570  1.00  0.00    -0.744 OA
ENDBRANCH  90  91
ENDBRANCH  64  85
ENDBRANCH  38  39
ENDBRANCH  30  33
ENDBRANCH  28  29
ENDBRANCH   1  28
TORSDOF 18
ENDMDL
MODEL 3
REMARK VINA RESULT:     -11.2      4.713     10.611
REMARK SMILES CC(=O)N/C(=C\c1ccccc1)C(=O)N[C@H](C(=O)NCCCNC(=O)c1ccc(-c2c3nc(c(-c4ccc(S(=O)(=O)[O-])cc4)c4ccc([nH]4)c(-c4ccc(S(=O)(=O)[O-])cc4)c4nc(c(-c5ccc(S(=O)(=O)[O-])cc5)c5ccc2[nH]5)C=C4)C=C3)cc1)C(C)C
REMARK SMILES IDX 21 1 20 2 19 3 17 4 18 5 16 7 15 8 13 9 14 10 5 12 6 13 4 14
REMARK SMILES IDX 1 15 2 16 3 17 7 19 8 20 12 21 9 22 11 23 10 24 86 25 87 26
REMARK SMILES IDX 88 27 22 28 23 29 24 30 25 32 26 33 27 34 85 35 28 36 84 37
REMARK SMILES IDX 29 38 30 39 31 40 78 41 32 42 83 43 77 44 79 45 33 46 82 47
REMARK SMILES IDX 76 48 75 49 34 51 64 52 45 53 63 54 46 55 49 56 62 57 80 58
REMARK SMILES IDX 47 59 48 60 61 62 81 63 50 64 35 65 36 66 44 67 37 68 43 69
REMARK SMILES IDX 38 70 39 71 40 72 41 73 42 74 65 75 66 76 74 77 67 78 73 79
REMARK SMILES IDX 68 80 69 81 70 82 71 83 72 84 51 85 52 86 60 87 53 88 59 89
REMARK SMILES IDX 54 90 55 91 56 92 57 93 58 94
REMARK H PARENT 19 6 15 11 4 18 23 31 79 50 49 61
REMARK Flexibility Score: inf
ROOT
ATOM      1  C   UNL A   1      37.282  23.485  25.385  1.00  0.00     0.042 C 
ENDROOT
BRANCH   1   2
ATOM      2  C   UNL A   1      36.374  22.421  25.997  1.00  0.00     0.117 C 
BRANCH   2   3
ATOM      3  N   UNL A   1      35.463  21.863  25.017  1.00  0.00    -0.354 N 
ATOM      4  C   UNL A   1      34.324  22.334  24.447  1.00  0.00     0.242 C 
ATOM      5  O   UNL A   1      33.792  21.570  23.626  1.00  0.00    -0.273 OA
ATOM      6  H   UNL A   1      35.720  20.965  24.704  1.00  0.00     0.163 HD
BRANCH   4   7
ATOM      7  C   UNL A   1      33.705  23.762  24.710  1.00  0.00     0.174 C 
BRANCH   7   8
ATOM      8  N   UNL A   1      33.470  24.244  23.317  1.00  0.00    -0.339 N 
ATOM      9  C   UNL A   1      33.378  25.420  22.637  1.00  0.00     0.268 C 
ATOM     10  O   UNL A   1      33.687  25.389  21.446  1.00  0.00    -0.268 OA
ATOM     11  H   UNL A   1      33.342  23.483  22.706  1.00  0.00     0.164 HD
BRANCH   9  12
ATOM     12  C   UNL A   1      32.866  26.688  23.256  1.00  0.00     0.107 C 
ATOM     13  C   UNL A   1      33.459  27.083  24.399  1.00  0.00     0.040 C 
BRANCH  12  14
ATOM     14  N   UNL A   1      31.893  27.477  22.668  1.00  0.00    -0.322 N 
ATOM     15  C   UNL A   1      29.704  26.980  23.821  1.00  0.00     0.114 C 
ATOM     16  C   UNL A   1      30.555  27.678  22.808  1.00  0.00     0.221 C 
ATOM     17  O   UNL A   1      30.033  28.487  22.029  1.00  0.00    -0.275 OA
ATOM     18  H   UNL A   1      32.270  28.044  21.957  1.00  0.00     0.170 HD
ENDBRANCH  12  14
BRANCH  13  19
ATOM     19  C   UNL A   1      33.024  28.093  25.389  1.00  0.00    -0.023 A 
ATOM     20  C   UNL A   1      32.391  27.643  26.555  1.00  0.00     0.008 A 
ATOM     21  C   UNL A   1      32.974  29.466  25.091  1.00  0.00     0.008 A 
ATOM     22  C   UNL A   1      31.718  28.537  27.393  1.00  0.00     0.001 A 
ATOM     23  C   UNL A   1      32.323  30.361  25.941  1.00  0.00     0.001 A 
ATOM     24  C   UNL A   1      31.684  29.894  27.085  1.00  0.00     0.000 A 
ENDBRANCH  13  19
ENDBRANCH   9  12
ENDBRANCH   7   8
BRANCH   7  25
ATOM     25  C   UNL A   1      32.496  23.706  25.682  1.00  0.00     0.015 C 
ATOM     26  C   UNL A   1      31.159  23.575  24.930  1.00  0.00     0.010 C 
ATOM     27  C   UNL A   1      32.540  22.698  26.826  1.00  0.00     0.010 C 
ENDBRANCH   7  25
ENDBRANCH   4   7
ENDBRANCH   2   3
ENDBRANCH   1   2
BRANCH   1  28
ATOM     28  C   UNL A   1      38.183  24.192  26.380  1.00  0.00     0.118 C 
BRANCH  28  29
ATOM     29  N   UNL A   1      39.574  23.781  26.283  1.00  0.00    -0.352 N 
ATOM     30  C   UNL A   1      40.694  24.366  26.825  1.00  0.00     0.251 C 
ATOM     31  H   UNL A   1      39.738  22.968  25.752  1.00  0.00     0.163 HD
ATOM     32  O   UNL A   1      41.805  23.942  26.516  1.00  0.00    -0.269 OA
BRANCH  30  33
ATOM     33  C   UNL A   1      40.567  25.523  27.743  1.00  0.00     0.039 A 
ATOM     34  C   UNL A   1      39.433  25.621  28.554  1.00  0.00     0.014 A 
ATOM     35  C   UNL A   1      41.564  26.498  27.821  1.00  0.00     0.014 A 
ATOM     36  C   UNL A   1      39.338  26.652  29.494  1.00  0.00     0.010 A 
ATOM     37  C   UNL A   1      41.513  27.463  28.821  1.00  0.00     0.010 A 
ATOM     38  C   UNL A   1      40.396  27.556  29.666  1.00  0.00    -0.014 A 
BRANCH  38  39
ATOM     39  C   UNL A   1      40.366  28.612  30.711  1.00  0.00     0.031 A 
ATOM     40  C   UNL A   1      41.258  28.494  31.919  1.00  0.00     0.074 A 
ATOM     41  C   UNL A   1      39.475  29.620  30.621  1.00  0.00     0.049 A 
ATOM     42  N   UNL A   1      41.294  29.238  32.993  1.00  0.00    -0.248 NA
ATOM     43  C   UNL A   1      42.209  27.368  31.939  1.00  0.00     0.031 C 
ATOM     44  C   UNL A   1      38.522  29.817  29.523  1.00  0.00     0.029 A 
ATOM     45  N   UNL A   1      39.211  30.662  31.475  1.00  0.00    -0.354 N 
ATOM     46  C   UNL A   1      42.239  28.651  33.828  1.00  0.00     0.074 A 
ATOM     47  C   UNL A   1      42.724  27.467  33.155  1.00  0.00     0.031 C 
ATOM     48  C   UNL A   1      37.795  30.921  29.763  1.00  0.00     0.029 A 
ATOM     49  C   UNL A   1      38.192  31.483  31.049  1.00  0.00     0.049 A 
ATOM     50  H   UNL A   1      39.704  30.808  32.314  1.00  0.00     0.167 HD
ATOM     51  C   UNL A   1      42.675  29.070  35.040  1.00  0.00     0.031 A 
ATOM     52  C   UNL A   1      37.629  32.559  31.635  1.00  0.00     0.031 A 
ATOM     53  C   UNL A   1      42.219  30.272  35.683  1.00  0.00     0.049 A 
ATOM     54  C   UNL A   1      38.142  33.012  32.975  1.00  0.00     0.074 A 
ATOM     55  C   UNL A   1      42.668  30.836  36.863  1.00  0.00     0.029 A 
ATOM     56  N   UNL A   1      41.212  31.093  35.201  1.00  0.00    -0.354 N 
ATOM     57  N   UNL A   1      39.102  32.493  33.705  1.00  0.00    -0.248 NA
ATOM     58  C   UNL A   1      37.503  34.194  33.568  1.00  0.00     0.031 C 
ATOM     59  C   UNL A   1      41.894  31.970  37.124  1.00  0.00     0.029 A 
ATOM     60  C   UNL A   1      41.001  32.142  36.077  1.00  0.00     0.049 A 
ATOM     61  H   UNL A   1      40.719  30.950  34.361  1.00  0.00     0.167 HD
ATOM     62  C   UNL A   1      39.194  33.300  34.834  1.00  0.00     0.074 A 
ATOM     63  C   UNL A   1      38.208  34.350  34.681  1.00  0.00     0.031 C 
ATOM     64  C   UNL A   1      40.019  33.182  35.903  1.00  0.00     0.031 A 
BRANCH  51  65
ATOM     65  C   UNL A   1      43.695  28.223  35.755  1.00  0.00    -0.014 A 
ATOM     66  C   UNL A   1      45.073  28.458  35.605  1.00  0.00     0.010 A 
ATOM     67  C   UNL A   1      43.265  27.213  36.635  1.00  0.00     0.010 A 
ATOM     68  C   UNL A   1      46.003  27.677  36.296  1.00  0.00     0.020 A 
ATOM     69  C   UNL A   1      44.190  26.448  37.349  1.00  0.00     0.020 A 
ATOM     70  C   UNL A   1      45.556  26.676  37.164  1.00  0.00     0.054 A 
BRANCH  70  71
ATOM     71  S   UNL A   1      46.786  25.703  38.077  1.00  0.00     0.124 S 
ATOM     72  O   UNL A   1      46.479  24.344  37.638  1.00  0.00    -0.237 OA
ATOM     73  O   UNL A   1      48.050  26.250  37.590  1.00  0.00    -0.237 OA
ATOM     74  O   UNL A   1      46.484  25.989  39.477  1.00  0.00    -0.744 OA
ENDBRANCH  70  71
ENDBRANCH  51  65
BRANCH  52  75
ATOM     75  C   UNL A   1      36.513  33.280  30.964  1.00  0.00    -0.014 A 
ATOM     76  C   UNL A   1      36.746  34.037  29.802  1.00  0.00     0.010 A 
ATOM     77  C   UNL A   1      35.207  33.218  31.486  1.00  0.00     0.010 A 
ATOM     78  C   UNL A   1      35.703  34.740  29.191  1.00  0.00     0.020 A 
ATOM     79  C   UNL A   1      34.155  33.897  30.861  1.00  0.00     0.020 A 
ATOM     80  C   UNL A   1      34.414  34.666  29.726  1.00  0.00     0.054 A 
BRANCH  80  81
ATOM     81  S   UNL A   1      33.068  35.556  28.897  1.00  0.00     0.124 S 
ATOM     82  O   UNL A   1      33.799  36.494  28.053  1.00  0.00    -0.237 OA
ATOM     83  O   UNL A   1      32.366  34.485  28.192  1.00  0.00    -0.237 OA
ATOM     84  O   UNL A   1      32.323  36.154  30.002  1.00  0.00    -0.744 OA
ENDBRANCH  80  81
ENDBRANCH  52  75
BRANCH  64  85
ATOM     85  C   UNL A   1      39.915  34.223  36.982  1.00  0.00    -0.014 A 
ATOM     86  C   UNL A   1      40.508  35.488  36.828  1.00  0.00     0.010 A 
ATOM     87  C   UNL A   1      39.139  33.960  38.127  1.00  0.00     0.010 A 
ATOM     88  C   UNL A   1      40.339  36.468  37.808  1.00  0.00     0.020 A 
ATOM     89  C   UNL A   1      38.946  34.947  39.095  1.00  0.00     0.020 A 
ATOM     90  C   UNL A   1      39.555  36.193  38.933  1.00  0.00     0.054 A 
BRANCH  90  91
ATOM     91  S   UNL A   1      39.291  37.508  40.154  1.00  0.00     0.124 S 
ATOM     92  O   UNL A   1      38.246  38.306  39.521  1.00  0.00    -0.237 OA
ATOM     93  O   UNL A   1      38.882  36.764  41.343  1.00  0.00    -0.237 OA
ATOM     94  O   UNL A   1      40.597  38.157  40.251  1.00  0.00    -0.744 OA
ENDBRANCH  90  91
ENDBRANCH  64  85
ENDBRANCH  38  39
ENDBRANCH  30  33
ENDBRANCH  28  29
ENDBRANCH   1  28
TORSDOF 18
ENDMDL
