MODEL 1
REMARK VINA RESULT:     -10.3      0.000      0.000
REMARK SMILES C[NH2+][C@]1(C(=O)NCCCNC(=O)c2ccc(-c3c4nc(c(-c5ccc(S(=O)(=O)[O-])cc5)c5ccc([nH]5)c(-c5ccc(S(=O)(=O)[O-])cc5)c5nc(c(-c6ccc(S(=O)(=O)[O-])cc6)c6ccc3[nH]6)C=C5)C=C4)cc2)CC[C@@H]([N@@H+](C)C[C@@H]2CCCCO2)C1
REMARK SMILES IDX 8 1 7 2 6 3 4 4 5 5 3 7 73 8 85 9 74 10 75 11 2 12 1 13
REMARK SMILES IDX 76 16 77 17 78 19 79 20 80 21 84 22 81 23 83 24 82 25 9 26
REMARK SMILES IDX 10 27 11 28 12 30 13 31 14 32 72 33 15 34 71 35 16 36 17 37
REMARK SMILES IDX 18 38 65 39 19 40 70 41 64 42 66 43 20 44 69 45 63 46 62 47
REMARK SMILES IDX 21 49 51 50 32 51 50 52 33 53 36 54 49 55 67 56 34 57 35 58
REMARK SMILES IDX 48 60 68 61 37 62 22 63 23 64 31 65 24 66 30 67 25 68 26 69
REMARK SMILES IDX 27 70 28 71 29 72 52 73 53 74 61 75 54 76 60 77 55 78 56 79
REMARK SMILES IDX 57 80 58 81 59 82 38 83 39 84 47 85 40 86 46 87 41 88 42 89
REMARK SMILES IDX 43 90 44 91 45 92
REMARK H PARENT 6 6 2 14 2 15 76 18 10 29 66 48 36 59
REMARK Flexibility Score: inf
ROOT
ATOM      1  C   UNL A   1      35.256  23.612  25.021  1.00  0.00     0.042 C 
ENDROOT
BRANCH   1   2
ATOM      2  C   UNL A   1      34.269  24.764  25.108  1.00  0.00     0.118 C 
BRANCH   2   3
ATOM      3  N   UNL A   1      33.353  24.675  26.226  1.00  0.00    -0.351 N 
ATOM      4  C   UNL A   1      31.988  24.651  26.247  1.00  0.00     0.281 C 
ATOM      5  O   UNL A   1      31.465  24.535  27.364  1.00  0.00    -0.268 OA
ATOM      6  H   UNL A   1      33.782  24.625  27.110  1.00  0.00     0.163 HD
BRANCH   4   7
ATOM      7  C   UNL A   1      31.106  24.903  24.968  1.00  0.00     0.181 C 
ATOM      8  C   UNL A   1      29.859  25.650  25.433  1.00  0.00     0.085 C 
ATOM      9  C   UNL A   1      31.744  25.807  23.879  1.00  0.00     0.144 C 
ATOM     10  C   UNL A   1      29.434  26.467  24.243  1.00  0.00     0.072 C 
ATOM     11  C   UNL A   1      30.653  26.812  23.412  1.00  0.00     0.191 C 
BRANCH   7  12
ATOM     12  N   UNL A   1      30.790  23.562  24.389  1.00  0.00    -0.336 N 
ATOM     13  C   UNL A   1      31.537  23.130  23.223  1.00  0.00     0.331 C 
ATOM     14  H   UNL A   1      30.946  22.871  25.123  1.00  0.00     0.346 HD
ATOM     15  H   UNL A   1      29.828  23.646  24.060  1.00  0.00     0.346 HD
ENDBRANCH   7  12
BRANCH  11  16
ATOM     16  N   UNL A   1      31.080  28.221  23.406  1.00  0.00    -0.333 N 
ATOM     17  C   UNL A   1      29.985  29.167  23.190  1.00  0.00     0.333 C 
ATOM     18  H   UNL A   1      31.676  28.125  22.584  1.00  0.00     0.348 HD
BRANCH  16  19
ATOM     19  C   UNL A   1      32.101  28.764  24.330  1.00  0.00     0.294 C 
BRANCH  19  20
ATOM     20  C   UNL A   1      32.109  28.769  25.913  1.00  0.00     0.173 C 
ATOM     21  C   UNL A   1      32.043  30.145  26.615  1.00  0.00     0.038 C 
ATOM     22  O   UNL A   1      33.002  27.862  26.545  1.00  0.00    -0.372 OA
ATOM     23  C   UNL A   1      33.319  30.671  27.273  1.00  0.00     0.005 C 
ATOM     24  C   UNL A   1      34.317  28.350  26.733  1.00  0.00     0.161 C 
ATOM     25  C   UNL A   1      34.383  29.621  27.567  1.00  0.00     0.029 C 
ENDBRANCH  19  20
ENDBRANCH  16  19
ENDBRANCH  11  16
ENDBRANCH   4   7
ENDBRANCH   2   3
ENDBRANCH   1   2
BRANCH   1  26
ATOM     26  C   UNL A   1      36.711  24.035  25.078  1.00  0.00     0.118 C 
BRANCH  26  27
ATOM     27  N   UNL A   1      37.594  22.935  25.440  1.00  0.00    -0.352 N 
ATOM     28  C   UNL A   1      38.802  22.936  26.090  1.00  0.00     0.251 C 
ATOM     29  H   UNL A   1      37.271  22.043  25.174  1.00  0.00     0.163 HD
ATOM     30  O   UNL A   1      39.477  21.912  26.102  1.00  0.00    -0.269 OA
BRANCH  28  31
ATOM     31  C   UNL A   1      39.294  24.160  26.759  1.00  0.00     0.039 A 
ATOM     32  C   UNL A   1      40.079  25.059  26.032  1.00  0.00     0.014 A 
ATOM     33  C   UNL A   1      39.011  24.411  28.103  1.00  0.00     0.014 A 
ATOM     34  C   UNL A   1      40.529  26.232  26.640  1.00  0.00     0.010 A 
ATOM     35  C   UNL A   1      39.367  25.627  28.673  1.00  0.00     0.010 A 
ATOM     36  C   UNL A   1      40.149  26.541  27.956  1.00  0.00    -0.014 A 
BRANCH  36  37
ATOM     37  C   UNL A   1      40.580  27.800  28.614  1.00  0.00     0.031 A 
ATOM     38  C   UNL A   1      41.960  27.900  29.209  1.00  0.00     0.074 A 
ATOM     39  C   UNL A   1      39.711  28.822  28.733  1.00  0.00     0.049 A 
ATOM     40  N   UNL A   1      42.497  28.885  29.882  1.00  0.00    -0.248 NA
ATOM     41  C   UNL A   1      42.841  26.730  29.054  1.00  0.00     0.031 C 
ATOM     42  C   UNL A   1      38.334  28.829  28.234  1.00  0.00     0.029 A 
ATOM     43  N   UNL A   1      39.855  30.054  29.320  1.00  0.00    -0.354 N 
ATOM     44  C   UNL A   1      43.765  28.445  30.248  1.00  0.00     0.074 A 
ATOM     45  C   UNL A   1      43.896  27.086  29.774  1.00  0.00     0.031 C 
ATOM     46  C   UNL A   1      37.773  30.019  28.505  1.00  0.00     0.029 A 
ATOM     47  C   UNL A   1      38.731  30.840  29.238  1.00  0.00     0.049 A 
ATOM     48  H   UNL A   1      40.687  30.348  29.758  1.00  0.00     0.167 HD
ATOM     49  C   UNL A   1      44.741  29.119  30.901  1.00  0.00     0.031 A 
ATOM     50  C   UNL A   1      38.492  32.079  29.708  1.00  0.00     0.031 A 
ATOM     51  C   UNL A   1      44.608  30.476  31.358  1.00  0.00     0.049 A 
ATOM     52  C   UNL A   1      39.589  32.804  30.441  1.00  0.00     0.074 A 
ATOM     53  C   UNL A   1      45.558  31.271  31.976  1.00  0.00     0.029 A 
ATOM     54  N   UNL A   1      43.456  31.240  31.247  1.00  0.00    -0.354 N 
ATOM     55  N   UNL A   1      40.804  32.396  30.718  1.00  0.00    -0.248 NA
ATOM     56  C   UNL A   1      39.285  34.162  30.913  1.00  0.00     0.031 C 
ATOM     57  C   UNL A   1      44.959  32.494  32.296  1.00  0.00     0.029 A 
ATOM     58  C   UNL A   1      43.661  32.486  31.812  1.00  0.00     0.049 A 
ATOM     59  H   UNL A   1      42.617  30.939  30.830  1.00  0.00     0.167 HD
ATOM     60  C   UNL A   1      41.422  33.461  31.366  1.00  0.00     0.074 A 
ATOM     61  C   UNL A   1      40.449  34.532  31.428  1.00  0.00     0.031 C 
ATOM     62  C   UNL A   1      42.681  33.544  31.863  1.00  0.00     0.031 A 
BRANCH  49  63
ATOM     63  C   UNL A   1      46.034  28.392  31.168  1.00  0.00    -0.014 A 
ATOM     64  C   UNL A   1      47.087  28.407  30.235  1.00  0.00     0.010 A 
ATOM     65  C   UNL A   1      46.213  27.711  32.386  1.00  0.00     0.010 A 
ATOM     66  C   UNL A   1      48.276  27.721  30.496  1.00  0.00     0.020 A 
ATOM     67  C   UNL A   1      47.413  27.052  32.666  1.00  0.00     0.020 A 
ATOM     68  C   UNL A   1      48.431  27.046  31.711  1.00  0.00     0.054 A 
BRANCH  68  69
ATOM     69  S   UNL A   1      49.994  26.184  32.032  1.00  0.00     0.124 S 
ATOM     70  O   UNL A   1      50.925  27.299  32.188  1.00  0.00    -0.237 OA
ATOM     71  O   UNL A   1      49.701  25.435  33.252  1.00  0.00    -0.237 OA
ATOM     72  O   UNL A   1      50.193  25.369  30.836  1.00  0.00    -0.744 OA
ENDBRANCH  68  69
ENDBRANCH  49  63
BRANCH  50  73
ATOM     73  C   UNL A   1      37.166  32.719  29.485  1.00  0.00    -0.014 A 
ATOM     74  C   UNL A   1      36.255  32.863  30.547  1.00  0.00     0.010 A 
ATOM     75  C   UNL A   1      36.811  33.199  28.211  1.00  0.00     0.010 A 
ATOM     76  C   UNL A   1      35.006  33.456  30.333  1.00  0.00     0.020 A 
ATOM     77  C   UNL A   1      35.577  33.820  28.001  1.00  0.00     0.020 A 
ATOM     78  C   UNL A   1      34.676  33.932  29.061  1.00  0.00     0.054 A 
BRANCH  78  79
ATOM     79  S   UNL A   1      33.068  34.736  28.820  1.00  0.00     0.124 S 
ATOM     80  O   UNL A   1      32.423  33.844  27.863  1.00  0.00    -0.237 OA
ATOM     81  O   UNL A   1      32.509  34.732  30.170  1.00  0.00    -0.237 OA
ATOM     82  O   UNL A   1      33.421  36.058  28.305  1.00  0.00    -0.744 OA
ENDBRANCH  78  79
ENDBRANCH  50  73
BRANCH  62  83
ATOM     83  C   UNL A   1      43.100  34.853  32.478  1.00  0.00    -0.014 A 
ATOM     84  C   UNL A   1      43.737  35.851  31.720  1.00  0.00     0.010 A 
ATOM     85  C   UNL A   1      42.796  35.108  33.829  1.00  0.00     0.010 A 
ATOM     86  C   UNL A   1      44.093  37.067  32.310  1.00  0.00     0.020 A 
ATOM     87  C   UNL A   1      43.120  36.334  34.414  1.00  0.00     0.020 A 
ATOM     88  C   UNL A   1      43.780  37.300  33.654  1.00  0.00     0.054 A 
BRANCH  88  89
ATOM     89  S   UNL A   1      44.213  38.903  34.383  1.00  0.00     0.124 S 
ATOM     90  O   UNL A   1      44.283  38.580  35.806  1.00  0.00    -0.237 OA
ATOM     91  O   UNL A   1      45.491  39.210  33.745  1.00  0.00    -0.237 OA
ATOM     92  O   UNL A   1      43.104  39.772  33.997  1.00  0.00    -0.744 OA
ENDBRANCH  88  89
ENDBRANCH  62  83
ENDBRANCH  36  37
ENDBRANCH  28  31
ENDBRANCH  26  27
ENDBRANCH   1  26
TORSDOF 17
ENDMDL
MODEL 2
REMARK VINA RESULT:     -10.1      2.583      9.243
REMARK SMILES C[NH2+][C@]1(C(=O)NCCCNC(=O)c2ccc(-c3c4nc(c(-c5ccc(S(=O)(=O)[O-])cc5)c5ccc([nH]5)c(-c5ccc(S(=O)(=O)[O-])cc5)c5nc(c(-c6ccc(S(=O)(=O)[O-])cc6)c6ccc3[nH]6)C=C5)C=C4)cc2)CC[C@@H]([N@@H+](C)C[C@@H]2CCCCO2)C1
REMARK SMILES IDX 8 1 7 2 6 3 4 4 5 5 3 7 73 8 85 9 74 10 75 11 2 12 1 13
REMARK SMILES IDX 76 16 77 17 78 19 79 20 80 21 84 22 81 23 83 24 82 25 9 26
REMARK SMILES IDX 10 27 11 28 12 30 13 31 14 32 72 33 15 34 71 35 16 36 17 37
REMARK SMILES IDX 18 38 65 39 19 40 70 41 64 42 66 43 20 44 69 45 63 46 62 47
REMARK SMILES IDX 21 49 51 50 32 51 50 52 33 53 36 54 49 55 67 56 34 57 35 58
REMARK SMILES IDX 48 60 68 61 37 62 22 63 23 64 31 65 24 66 30 67 25 68 26 69
REMARK SMILES IDX 27 70 28 71 29 72 52 73 53 74 61 75 54 76 60 77 55 78 56 79
REMARK SMILES IDX 57 80 58 81 59 82 38 83 39 84 47 85 40 86 46 87 41 88 42 89
REMARK SMILES IDX 43 90 44 91 45 92
REMARK H PARENT 6 6 2 14 2 15 76 18 10 29 66 48 36 59
REMARK Flexibility Score: inf
ROOT
ATOM      1  C   UNL A   1      33.801  28.025  25.454  1.00  0.00     0.042 C 
ENDROOT
BRANCH   1   2
ATOM      2  C   UNL A   1      33.619  26.570  25.055  1.00  0.00     0.118 C 
BRANCH   2   3
ATOM      3  N   UNL A   1      33.919  26.295  23.666  1.00  0.00    -0.351 N 
ATOM      4  C   UNL A   1      33.365  25.388  22.808  1.00  0.00     0.281 C 
ATOM      5  O   UNL A   1      33.807  25.398  21.650  1.00  0.00    -0.268 OA
ATOM      6  H   UNL A   1      34.635  26.847  23.279  1.00  0.00     0.163 HD
BRANCH   4   7
ATOM      7  C   UNL A   1      32.340  24.287  23.268  1.00  0.00     0.181 C 
ATOM      8  C   UNL A   1      32.559  23.075  22.365  1.00  0.00     0.085 C 
ATOM      9  C   UNL A   1      32.525  23.759  24.716  1.00  0.00     0.144 C 
ATOM     10  C   UNL A   1      32.155  21.894  23.203  1.00  0.00     0.072 C 
ATOM     11  C   UNL A   1      32.398  22.209  24.665  1.00  0.00     0.191 C 
BRANCH   7  12
ATOM     12  N   UNL A   1      30.976  24.877  23.116  1.00  0.00    -0.336 N 
ATOM     13  C   UNL A   1      30.282  25.306  24.316  1.00  0.00     0.331 C 
ATOM     14  H   UNL A   1      31.063  25.692  22.508  1.00  0.00     0.346 HD
ATOM     15  H   UNL A   1      30.406  24.113  22.751  1.00  0.00     0.346 HD
ENDBRANCH   7  12
BRANCH  11  16
ATOM     16  N   UNL A   1      33.491  21.483  25.332  1.00  0.00    -0.333 N 
ATOM     17  C   UNL A   1      33.739  20.153  24.775  1.00  0.00     0.333 C 
ATOM     18  H   UNL A   1      33.023  21.442  26.238  1.00  0.00     0.348 HD
BRANCH  16  19
ATOM     19  C   UNL A   1      34.741  22.132  25.784  1.00  0.00     0.294 C 
BRANCH  19  20
ATOM     20  C   UNL A   1      36.037  22.488  24.946  1.00  0.00     0.173 C 
ATOM     21  C   UNL A   1      37.177  21.443  24.933  1.00  0.00     0.038 C 
ATOM     22  O   UNL A   1      36.506  23.825  25.041  1.00  0.00    -0.372 OA
ATOM     23  C   UNL A   1      38.434  21.750  25.748  1.00  0.00     0.005 C 
ATOM     24  C   UNL A   1      37.379  24.078  26.126  1.00  0.00     0.161 C 
ATOM     25  C   UNL A   1      38.632  23.216  26.114  1.00  0.00     0.029 C 
ENDBRANCH  19  20
ENDBRANCH  16  19
ENDBRANCH  11  16
ENDBRANCH   4   7
ENDBRANCH   2   3
ENDBRANCH   1   2
BRANCH   1  26
ATOM     26  C   UNL A   1      33.613  28.292  26.934  1.00  0.00     0.118 C 
BRANCH  26  27
ATOM     27  N   UNL A   1      33.519  29.714  27.233  1.00  0.00    -0.352 N 
ATOM     28  C   UNL A   1      34.381  30.544  27.905  1.00  0.00     0.251 C 
ATOM     29  H   UNL A   1      32.703  30.152  26.898  1.00  0.00     0.163 HD
ATOM     30  O   UNL A   1      34.003  31.665  28.227  1.00  0.00    -0.269 OA
BRANCH  28  31
ATOM     31  C   UNL A   1      35.745  30.090  28.250  1.00  0.00     0.039 A 
ATOM     32  C   UNL A   1      36.733  30.104  27.261  1.00  0.00     0.014 A 
ATOM     33  C   UNL A   1      36.049  29.622  29.530  1.00  0.00     0.014 A 
ATOM     34  C   UNL A   1      38.033  29.703  27.576  1.00  0.00     0.010 A 
ATOM     35  C   UNL A   1      37.363  29.328  29.870  1.00  0.00     0.010 A 
ATOM     36  C   UNL A   1      38.366  29.344  28.892  1.00  0.00    -0.014 A 
BRANCH  36  37
ATOM     37  C   UNL A   1      39.748  28.951  29.264  1.00  0.00     0.031 A 
ATOM     38  C   UNL A   1      40.648  29.942  29.957  1.00  0.00     0.074 A 
ATOM     39  C   UNL A   1      40.211  27.734  28.921  1.00  0.00     0.049 A 
ATOM     40  N   UNL A   1      41.903  29.813  30.300  1.00  0.00    -0.248 NA
ATOM     41  C   UNL A   1      40.070  31.258  30.277  1.00  0.00     0.031 C 
ATOM     42  C   UNL A   1      39.448  26.703  28.212  1.00  0.00     0.029 A 
ATOM     43  N   UNL A   1      41.441  27.158  29.117  1.00  0.00    -0.354 N 
ATOM     44  C   UNL A   1      42.270  31.035  30.854  1.00  0.00     0.074 A 
ATOM     45  C   UNL A   1      41.124  31.909  30.749  1.00  0.00     0.031 C 
ATOM     46  C   UNL A   1      40.216  25.611  28.065  1.00  0.00     0.029 A 
ATOM     47  C   UNL A   1      41.537  25.879  28.622  1.00  0.00     0.049 A 
ATOM     48  H   UNL A   1      42.186  27.617  29.570  1.00  0.00     0.167 HD
ATOM     49  C   UNL A   1      43.447  31.390  31.421  1.00  0.00     0.031 A 
ATOM     50  C   UNL A   1      42.575  25.021  28.610  1.00  0.00     0.031 A 
ATOM     51  C   UNL A   1      44.578  30.509  31.535  1.00  0.00     0.049 A 
ATOM     52  C   UNL A   1      43.878  25.442  29.235  1.00  0.00     0.074 A 
ATOM     53  C   UNL A   1      45.797  30.751  32.145  1.00  0.00     0.029 A 
ATOM     54  N   UNL A   1      44.632  29.219  31.029  1.00  0.00    -0.354 N 
ATOM     55  N   UNL A   1      44.183  26.579  29.814  1.00  0.00    -0.248 NA
ATOM     56  C   UNL A   1      44.970  24.460  29.216  1.00  0.00     0.031 C 
ATOM     57  C   UNL A   1      46.609  29.629  31.952  1.00  0.00     0.029 A 
ATOM     58  C   UNL A   1      45.872  28.662  31.287  1.00  0.00     0.049 A 
ATOM     59  H   UNL A   1      43.896  28.767  30.557  1.00  0.00     0.167 HD
ATOM     60  C   UNL A   1      45.493  26.435  30.260  1.00  0.00     0.074 A 
ATOM     61  C   UNL A   1      45.914  25.099  29.893  1.00  0.00     0.031 C 
ATOM     62  C   UNL A   1      46.275  27.328  30.916  1.00  0.00     0.031 A 
BRANCH  49  63
ATOM     63  C   UNL A   1      43.572  32.796  31.951  1.00  0.00    -0.014 A 
ATOM     64  C   UNL A   1      43.341  33.089  33.307  1.00  0.00     0.010 A 
ATOM     65  C   UNL A   1      43.962  33.835  31.086  1.00  0.00     0.010 A 
ATOM     66  C   UNL A   1      43.453  34.399  33.779  1.00  0.00     0.020 A 
ATOM     67  C   UNL A   1      44.108  35.141  31.560  1.00  0.00     0.020 A 
ATOM     68  C   UNL A   1      43.836  35.418  32.901  1.00  0.00     0.054 A 
BRANCH  68  69
ATOM     69  S   UNL A   1      43.997  37.105  33.547  1.00  0.00     0.124 S 
ATOM     70  O   UNL A   1      44.984  36.927  34.610  1.00  0.00    -0.237 OA
ATOM     71  O   UNL A   1      44.460  37.851  32.379  1.00  0.00    -0.237 OA
ATOM     72  O   UNL A   1      42.648  37.434  33.999  1.00  0.00    -0.744 OA
ENDBRANCH  68  69
ENDBRANCH  49  63
BRANCH  50  73
ATOM     73  C   UNL A   1      42.419  23.671  28.000  1.00  0.00    -0.014 A 
ATOM     74  C   UNL A   1      42.735  23.459  26.646  1.00  0.00     0.010 A 
ATOM     75  C   UNL A   1      41.964  22.587  28.773  1.00  0.00     0.010 A 
ATOM     76  C   UNL A   1      42.579  22.193  26.072  1.00  0.00     0.020 A 
ATOM     77  C   UNL A   1      41.837  21.314  28.211  1.00  0.00     0.020 A 
ATOM     78  C   UNL A   1      42.132  21.128  26.860  1.00  0.00     0.054 A 
BRANCH  78  79
ATOM     79  S   UNL A   1      41.980  19.486  26.103  1.00  0.00     0.124 S 
ATOM     80  O   UNL A   1      42.394  18.609  27.194  1.00  0.00    -0.237 OA
ATOM     81  O   UNL A   1      40.563  19.434  25.749  1.00  0.00    -0.237 OA
ATOM     82  O   UNL A   1      42.896  19.548  24.966  1.00  0.00    -0.744 OA
ENDBRANCH  78  79
ENDBRANCH  50  73
BRANCH  62  83
ATOM     83  C   UNL A   1      47.653  26.877  31.322  1.00  0.00    -0.014 A 
ATOM     84  C   UNL A   1      47.906  26.344  32.599  1.00  0.00     0.010 A 
ATOM     85  C   UNL A   1      48.702  26.938  30.385  1.00  0.00     0.010 A 
ATOM     86  C   UNL A   1      49.190  25.911  32.941  1.00  0.00     0.020 A 
ATOM     87  C   UNL A   1      49.978  26.475  30.712  1.00  0.00     0.020 A 
ATOM     88  C   UNL A   1      50.217  25.978  31.994  1.00  0.00     0.054 A 
BRANCH  88  89
ATOM     89  S   UNL A   1      51.863  25.368  32.449  1.00  0.00     0.124 S 
ATOM     90  O   UNL A   1      51.916  25.672  33.876  1.00  0.00    -0.237 OA
ATOM     91  O   UNL A   1      51.783  23.948  32.111  1.00  0.00    -0.237 OA
ATOM     92  O   UNL A   1      52.768  26.152  31.612  1.00  0.00    -0.744 OA
ENDBRANCH  88  89
ENDBRANCH  62  83
ENDBRANCH  36  37
ENDBRANCH  28  31
ENDBRANCH  26  27
ENDBRANCH   1  26
TORSDOF 17
ENDMDL
MODEL 3
REMARK VINA RESULT:      -9.9      3.555      4.538
REMARK SMILES C[NH2+][C@]1(C(=O)NCCCNC(=O)c2ccc(-c3c4nc(c(-c5ccc(S(=O)(=O)[O-])cc5)c5ccc([nH]5)c(-c5ccc(S(=O)(=O)[O-])cc5)c5nc(c(-c6ccc(S(=O)(=O)[O-])cc6)c6ccc3[nH]6)C=C5)C=C4)cc2)CC[C@@H]([N@@H+](C)C[C@@H]2CCCCO2)C1
REMARK SMILES IDX 8 1 7 2 6 3 4 4 5 5 3 7 73 8 85 9 74 10 75 11 2 12 1 13
REMARK SMILES IDX 76 16 77 17 78 19 79 20 80 21 84 22 81 23 83 24 82 25 9 26
REMARK SMILES IDX 10 27 11 28 12 30 13 31 14 32 72 33 15 34 71 35 16 36 17 37
REMARK SMILES IDX 18 38 65 39 19 40 70 41 64 42 66 43 20 44 69 45 63 46 62 47
REMARK SMILES IDX 21 49 51 50 32 51 50 52 33 53 36 54 49 55 67 56 34 57 35 58
REMARK SMILES IDX 48 60 68 61 37 62 22 63 23 64 31 65 24 66 30 67 25 68 26 69
REMARK SMILES IDX 27 70 28 71 29 72 52 73 53 74 61 75 54 76 60 77 55 78 56 79
REMARK SMILES IDX 57 80 58 81 59 82 38 83 39 84 47 85 40 86 46 87 41 88 42 89
REMARK SMILES IDX 43 90 44 91 45 92
REMARK H PARENT 6 6 2 14 2 15 76 18 10 29 66 48 36 59
REMARK Flexibility Score: inf
ROOT
ATOM      1  C   UNL A   1      37.774  23.829  25.880  1.00  0.00     0.042 C 
ENDROOT
BRANCH   1   2
ATOM      2  C   UNL A   1      36.932  22.564  25.823  1.00  0.00     0.118 C 
BRANCH   2   3
ATOM      3  N   UNL A   1      35.756  22.598  26.666  1.00  0.00    -0.351 N 
ATOM      4  C   UNL A   1      34.463  22.258  26.387  1.00  0.00     0.281 C 
ATOM      5  O   UNL A   1      33.661  22.359  27.327  1.00  0.00    -0.268 OA
ATOM      6  H   UNL A   1      35.912  22.915  27.583  1.00  0.00     0.163 HD
BRANCH   4   7
ATOM      7  C   UNL A   1      33.962  21.903  24.938  1.00  0.00     0.181 C 
ATOM      8  C   UNL A   1      32.438  21.984  24.965  1.00  0.00     0.085 C 
ATOM      9  C   UNL A   1      34.405  22.881  23.815  1.00  0.00     0.144 C 
ATOM     10  C   UNL A   1      32.047  22.351  23.560  1.00  0.00     0.072 C 
ATOM     11  C   UNL A   1      33.160  23.160  22.926  1.00  0.00     0.191 C 
BRANCH   7  12
ATOM     12  N   UNL A   1      34.460  20.527  24.634  1.00  0.00    -0.336 N 
ATOM     13  C   UNL A   1      33.641  19.401  25.041  1.00  0.00     0.331 C 
ATOM     14  H   UNL A   1      34.581  20.465  23.622  1.00  0.00     0.346 HD
ATOM     15  H   UNL A   1      35.313  20.437  25.186  1.00  0.00     0.346 HD
ENDBRANCH   7  12
BRANCH  11  16
ATOM     16  N   UNL A   1      32.891  24.587  22.679  1.00  0.00    -0.333 N 
ATOM     17  C   UNL A   1      31.474  24.941  22.764  1.00  0.00     0.333 C 
ATOM     18  H   UNL A   1      33.229  24.571  21.717  1.00  0.00     0.348 HD
BRANCH  16  19
ATOM     19  C   UNL A   1      33.761  25.675  23.176  1.00  0.00     0.294 C 
BRANCH  19  20
ATOM     20  C   UNL A   1      33.704  26.441  24.561  1.00  0.00     0.173 C 
ATOM     21  C   UNL A   1      33.308  25.616  25.808  1.00  0.00     0.038 C 
ATOM     22  O   UNL A   1      33.128  27.739  24.544  1.00  0.00    -0.372 OA
ATOM     23  C   UNL A   1      31.911  25.834  26.391  1.00  0.00     0.005 C 
ATOM     24  C   UNL A   1      31.721  27.772  24.693  1.00  0.00     0.161 C 
ATOM     25  C   UNL A   1      31.229  27.134  25.984  1.00  0.00     0.029 C 
ENDBRANCH  19  20
ENDBRANCH  16  19
ENDBRANCH  11  16
ENDBRANCH   4   7
ENDBRANCH   2   3
ENDBRANCH   1   2
BRANCH   1  26
ATOM     26  C   UNL A   1      38.890  23.787  26.904  1.00  0.00     0.118 C 
BRANCH  26  27
ATOM     27  N   UNL A   1      40.201  23.992  26.304  1.00  0.00    -0.352 N 
ATOM     28  C   UNL A   1      41.103  25.015  26.456  1.00  0.00     0.251 C 
ATOM     29  H   UNL A   1      40.488  23.279  25.688  1.00  0.00     0.163 HD
ATOM     30  O   UNL A   1      42.057  25.091  25.689  1.00  0.00    -0.269 OA
BRANCH  28  31
ATOM     31  C   UNL A   1      40.921  26.024  27.522  1.00  0.00     0.039 A 
ATOM     32  C   UNL A   1      39.859  25.878  28.417  1.00  0.00     0.014 A 
ATOM     33  C   UNL A   1      41.772  27.127  27.625  1.00  0.00     0.014 A 
ATOM     34  C   UNL A   1      39.688  26.807  29.446  1.00  0.00     0.010 A 
ATOM     35  C   UNL A   1      41.667  27.987  28.710  1.00  0.00     0.010 A 
ATOM     36  C   UNL A   1      40.611  27.851  29.620  1.00  0.00    -0.014 A 
BRANCH  36  37
ATOM     37  C   UNL A   1      40.477  28.829  30.728  1.00  0.00     0.031 A 
ATOM     38  C   UNL A   1      41.344  28.698  31.953  1.00  0.00     0.074 A 
ATOM     39  C   UNL A   1      39.534  29.789  30.660  1.00  0.00     0.049 A 
ATOM     40  N   UNL A   1      41.330  29.409  33.051  1.00  0.00    -0.248 NA
ATOM     41  C   UNL A   1      42.335  27.608  31.957  1.00  0.00     0.031 C 
ATOM     42  C   UNL A   1      38.607  29.991  29.544  1.00  0.00     0.029 A 
ATOM     43  N   UNL A   1      39.195  30.773  31.554  1.00  0.00    -0.354 N 
ATOM     44  C   UNL A   1      42.291  28.840  33.881  1.00  0.00     0.074 A 
ATOM     45  C   UNL A   1      42.826  27.692  33.185  1.00  0.00     0.031 C 
ATOM     46  C   UNL A   1      37.830  31.055  29.806  1.00  0.00     0.029 A 
ATOM     47  C   UNL A   1      38.167  31.579  31.125  1.00  0.00     0.049 A 
ATOM     48  H   UNL A   1      39.646  30.892  32.422  1.00  0.00     0.167 HD
ATOM     49  C   UNL A   1      42.705  29.248  35.103  1.00  0.00     0.031 A 
ATOM     50  C   UNL A   1      37.558  32.617  31.728  1.00  0.00     0.031 A 
ATOM     51  C   UNL A   1      42.177  30.400  35.784  1.00  0.00     0.049 A 
ATOM     52  C   UNL A   1      38.028  33.046  33.092  1.00  0.00     0.074 A 
ATOM     53  C   UNL A   1      42.569  30.935  36.999  1.00  0.00     0.029 A 
ATOM     54  N   UNL A   1      41.143  31.194  35.311  1.00  0.00    -0.354 N 
ATOM     55  N   UNL A   1      38.984  32.536  33.832  1.00  0.00    -0.248 NA
ATOM     56  C   UNL A   1      37.346  34.199  33.696  1.00  0.00     0.031 C 
ATOM     57  C   UNL A   1      41.730  32.016  37.289  1.00  0.00     0.029 A 
ATOM     58  C   UNL A   1      40.864  32.198  36.222  1.00  0.00     0.049 A 
ATOM     59  H   UNL A   1      40.677  31.063  34.454  1.00  0.00     0.167 HD
ATOM     60  C   UNL A   1      39.041  33.328  34.974  1.00  0.00     0.074 A 
ATOM     61  C   UNL A   1      38.032  34.356  34.820  1.00  0.00     0.031 C 
ATOM     62  C   UNL A   1      39.857  33.215  36.052  1.00  0.00     0.031 A 
BRANCH  49  63
ATOM     63  C   UNL A   1      43.776  28.436  35.786  1.00  0.00    -0.014 A 
ATOM     64  C   UNL A   1      43.450  27.364  36.637  1.00  0.00     0.010 A 
ATOM     65  C   UNL A   1      45.132  28.727  35.546  1.00  0.00     0.010 A 
ATOM     66  C   UNL A   1      44.456  26.628  37.268  1.00  0.00     0.020 A 
ATOM     67  C   UNL A   1      46.141  27.972  36.148  1.00  0.00     0.020 A 
ATOM     68  C   UNL A   1      45.797  26.938  37.020  1.00  0.00     0.054 A 
BRANCH  68  69
ATOM     69  S   UNL A   1      47.081  25.950  37.834  1.00  0.00     0.124 S 
ATOM     70  O   UNL A   1      47.940  25.587  36.708  1.00  0.00    -0.237 OA
ATOM     71  O   UNL A   1      47.659  26.897  38.784  1.00  0.00    -0.237 OA
ATOM     72  O   UNL A   1      46.340  24.843  38.433  1.00  0.00    -0.744 OA
ENDBRANCH  68  69
ENDBRANCH  49  63
BRANCH  50  73
ATOM     73  C   UNL A   1      36.450  33.334  31.039  1.00  0.00    -0.014 A 
ATOM     74  C   UNL A   1      35.198  33.481  31.663  1.00  0.00     0.010 A 
ATOM     75  C   UNL A   1      36.643  33.886  29.759  1.00  0.00     0.010 A 
ATOM     76  C   UNL A   1      34.154  34.145  31.011  1.00  0.00     0.020 A 
ATOM     77  C   UNL A   1      35.613  34.578  29.118  1.00  0.00     0.020 A 
ATOM     78  C   UNL A   1      34.370  34.692  29.742  1.00  0.00     0.054 A 
BRANCH  78  79
ATOM     79  S   UNL A   1      33.014  35.587  28.936  1.00  0.00     0.124 S 
ATOM     80  O   UNL A   1      32.242  36.063  30.079  1.00  0.00    -0.237 OA
ATOM     81  O   UNL A   1      33.724  36.615  28.178  1.00  0.00    -0.237 OA
ATOM     82  O   UNL A   1      32.364  34.562  28.122  1.00  0.00    -0.744 OA
ENDBRANCH  78  79
ENDBRANCH  50  73
BRANCH  62  83
ATOM     83  C   UNL A   1      39.727  34.256  37.133  1.00  0.00    -0.014 A 
ATOM     84  C   UNL A   1      38.907  34.051  38.256  1.00  0.00     0.010 A 
ATOM     85  C   UNL A   1      40.487  35.438  37.046  1.00  0.00     0.010 A 
ATOM     86  C   UNL A   1      38.823  35.024  39.256  1.00  0.00     0.020 A 
ATOM     87  C   UNL A   1      40.433  36.397  38.059  1.00  0.00     0.020 A 
ATOM     88  C   UNL A   1      39.589  36.190  39.151  1.00  0.00     0.054 A 
BRANCH  88  89
ATOM     89  S   UNL A   1      39.496  37.416  40.484  1.00  0.00     0.124 S 
ATOM     90  O   UNL A   1      40.782  38.097  40.360  1.00  0.00    -0.237 OA
ATOM     91  O   UNL A   1      38.327  38.208  40.109  1.00  0.00    -0.237 OA
ATOM     92  O   UNL A   1      39.334  36.608  41.690  1.00  0.00    -0.744 OA
ENDBRANCH  88  89
ENDBRANCH  62  83
ENDBRANCH  36  37
ENDBRANCH  28  31
ENDBRANCH  26  27
ENDBRANCH   1  26
TORSDOF 17
ENDMDL
