MODEL 1
REMARK VINA RESULT:     -11.7      0.000      0.000
REMARK SMILES CCCc1cc2c(cc1Cl)C=C(C(=O)NCCCNC(=O)c1ccc(-c3c4nc(c(-c5ccc(S(=O)(=O)[O-])cc5)c5ccc([nH]5)c(-c5ccc(S(=O)(=O)[O-])cc5)c5nc(c(-c6ccc(S(=O)(=O)[O-])cc6)c6ccc3[nH]6)C=C5)C=C4)cc1)[C@@H](C(F)(F)F)O2
REMARK SMILES IDX 17 1 16 2 15 3 13 4 14 5 12 7 4 8 5 9 9 10 6 11 8 12 10 13
REMARK SMILES IDX 7 14 87 15 11 16 82 17 3 18 2 19 1 20 83 21 84 22 85 23
REMARK SMILES IDX 86 24 18 25 19 26 20 27 21 29 22 30 23 31 81 32 24 33 80 34
REMARK SMILES IDX 25 35 26 36 27 37 74 38 28 39 79 40 73 41 75 42 29 43 78 44
REMARK SMILES IDX 72 45 71 46 30 48 60 49 41 50 59 51 42 52 45 53 58 54 76 55
REMARK SMILES IDX 43 56 44 57 57 59 77 60 46 61 31 62 32 63 40 64 33 65 39 66
REMARK SMILES IDX 34 67 35 68 36 69 37 70 38 71 61 72 62 73 70 74 63 75 69 76
REMARK SMILES IDX 64 77 65 78 66 79 67 80 68 81 47 82 48 83 56 84 49 85 55 86
REMARK SMILES IDX 50 87 51 88 52 89 53 90 54 91
REMARK H PARENT 15 6 19 28 75 47 45 58
REMARK Flexibility Score: inf
ROOT
ATOM      1  C   UNL A   1      33.873  28.173  24.516  1.00  0.00     0.042 C 
ENDROOT
BRANCH   1   2
ATOM      2  C   UNL A   1      33.729  26.711  24.118  1.00  0.00     0.118 C 
BRANCH   2   3
ATOM      3  N   UNL A   1      32.342  26.348  23.861  1.00  0.00    -0.352 N 
ATOM      4  C   UNL A   1      31.591  25.224  23.887  1.00  0.00     0.251 C 
ATOM      5  O   UNL A   1      30.399  25.378  23.598  1.00  0.00    -0.270 OA
ATOM      6  H   UNL A   1      31.808  27.133  23.598  1.00  0.00     0.163 HD
BRANCH   4   7
ATOM      7  C   UNL A   1      32.092  23.865  24.238  1.00  0.00     0.067 C 
ATOM      8  C   UNL A   1      33.306  18.976  24.314  1.00  0.00    -0.026 A 
ATOM      9  C   UNL A   1      33.673  20.096  25.073  1.00  0.00     0.052 A 
ATOM     10  C   UNL A   1      32.580  19.205  23.125  1.00  0.00     0.045 A 
ATOM     11  C   UNL A   1      33.231  21.369  24.724  1.00  0.00     0.128 A 
ATOM     12  C   UNL A   1      32.182  20.498  22.750  1.00  0.00     0.032 A 
ATOM     13  Cl  UNL A   1      32.140  17.909  22.067  1.00  0.00    -0.084 Cl
ATOM     14  C   UNL A   1      32.485  21.585  23.568  1.00  0.00     0.019 A 
ATOM     15  O   UNL A   1      33.563  22.387  25.573  1.00  0.00    -0.475 OA
ATOM     16  C   UNL A   1      32.050  22.943  23.256  1.00  0.00     0.025 C 
ATOM     17  C   UNL A   1      32.595  23.475  25.600  1.00  0.00     0.314 C 
BRANCH   8  18
ATOM     18  C   UNL A   1      33.690  17.573  24.740  1.00  0.00     0.037 C 
BRANCH  18  19
ATOM     19  C   UNL A   1      32.662  16.743  25.529  1.00  0.00     0.001 C 
ATOM     20  C   UNL A   1      32.883  15.239  25.430  1.00  0.00     0.004 C 
ENDBRANCH  18  19
ENDBRANCH   8  18
BRANCH  17  21
ATOM     21  C   UNL A   1      31.452  23.138  26.580  1.00  0.00     0.429 C 
ATOM     22  F   UNL A   1      30.764  24.258  26.914  1.00  0.00    -0.167 F 
ATOM     23  F   UNL A   1      30.550  22.277  26.048  1.00  0.00    -0.167 F 
ATOM     24  F   UNL A   1      31.886  22.574  27.730  1.00  0.00    -0.167 F 
ENDBRANCH  17  21
ENDBRANCH   4   7
ENDBRANCH   2   3
ENDBRANCH   1   2
BRANCH   1  25
ATOM     25  C   UNL A   1      34.312  28.341  25.965  1.00  0.00     0.118 C 
BRANCH  25  26
ATOM     26  N   UNL A   1      33.821  29.589  26.548  1.00  0.00    -0.352 N 
ATOM     27  C   UNL A   1      34.343  30.369  27.552  1.00  0.00     0.251 C 
ATOM     28  H   UNL A   1      32.982  29.924  26.158  1.00  0.00     0.163 HD
ATOM     29  O   UNL A   1      33.655  31.258  28.049  1.00  0.00    -0.269 OA
BRANCH  27  30
ATOM     30  C   UNL A   1      35.714  30.124  28.044  1.00  0.00     0.039 A 
ATOM     31  C   UNL A   1      36.812  30.442  27.248  1.00  0.00     0.014 A 
ATOM     32  C   UNL A   1      35.905  29.573  29.314  1.00  0.00     0.014 A 
ATOM     33  C   UNL A   1      38.079  30.027  27.629  1.00  0.00     0.010 A 
ATOM     34  C   UNL A   1      37.198  29.255  29.744  1.00  0.00     0.010 A 
ATOM     35  C   UNL A   1      38.290  29.432  28.883  1.00  0.00    -0.014 A 
BRANCH  35  36
ATOM     36  C   UNL A   1      39.666  29.011  29.257  1.00  0.00     0.031 A 
ATOM     37  C   UNL A   1      40.495  29.841  30.198  1.00  0.00     0.074 A 
ATOM     38  C   UNL A   1      40.126  27.824  28.816  1.00  0.00     0.049 A 
ATOM     39  N   UNL A   1      41.693  29.596  30.668  1.00  0.00    -0.248 NA
ATOM     40  C   UNL A   1      39.915  31.106  30.679  1.00  0.00     0.031 C 
ATOM     41  C   UNL A   1      39.393  26.920  27.926  1.00  0.00     0.029 A 
ATOM     42  N   UNL A   1      41.287  27.148  29.090  1.00  0.00    -0.354 N 
ATOM     43  C   UNL A   1      42.011  30.674  31.486  1.00  0.00     0.074 A 
ATOM     44  C   UNL A   1      40.897  31.594  31.423  1.00  0.00     0.031 C 
ATOM     45  C   UNL A   1      40.077  25.776  27.801  1.00  0.00     0.029 A 
ATOM     46  C   UNL A   1      41.336  25.893  28.528  1.00  0.00     0.049 A 
ATOM     47  H   UNL A   1      42.015  27.523  29.636  1.00  0.00     0.167 HD
ATOM     48  C   UNL A   1      43.124  30.869  32.231  1.00  0.00     0.031 A 
ATOM     49  C   UNL A   1      42.286  24.939  28.582  1.00  0.00     0.031 A 
ATOM     50  C   UNL A   1      44.226  29.944  32.289  1.00  0.00     0.049 A 
ATOM     51  C   UNL A   1      43.535  25.199  29.370  1.00  0.00     0.074 A 
ATOM     52  C   UNL A   1      45.411  30.065  32.992  1.00  0.00     0.029 A 
ATOM     53  N   UNL A   1      44.274  28.723  31.631  1.00  0.00    -0.354 N 
ATOM     54  N   UNL A   1      43.836  26.247  30.099  1.00  0.00    -0.248 NA
ATOM     55  C   UNL A   1      44.575  24.164  29.336  1.00  0.00     0.031 C 
ATOM     56  C   UNL A   1      46.197  28.943  32.720  1.00  0.00     0.029 A 
ATOM     57  C   UNL A   1      45.476  28.091  31.899  1.00  0.00     0.049 A 
ATOM     58  H   UNL A   1      43.561  28.361  31.058  1.00  0.00     0.167 HD
ATOM     59  C   UNL A   1      45.104  26.001  30.609  1.00  0.00     0.074 A 
ATOM     60  C   UNL A   1      45.501  24.694  30.127  1.00  0.00     0.031 C 
ATOM     61  C   UNL A   1      45.868  26.794  31.399  1.00  0.00     0.031 A 
BRANCH  48  62
ATOM     62  C   UNL A   1      43.219  32.133  33.045  1.00  0.00    -0.014 A 
ATOM     63  C   UNL A   1      43.823  33.279  32.496  1.00  0.00     0.010 A 
ATOM     64  C   UNL A   1      42.787  32.165  34.384  1.00  0.00     0.010 A 
ATOM     65  C   UNL A   1      44.011  34.425  33.273  1.00  0.00     0.020 A 
ATOM     66  C   UNL A   1      42.949  33.319  35.156  1.00  0.00     0.020 A 
ATOM     67  C   UNL A   1      43.578  34.437  34.601  1.00  0.00     0.054 A 
BRANCH  67  68
ATOM     68  S   UNL A   1      43.820  35.936  35.594  1.00  0.00     0.124 S 
ATOM     69  O   UNL A   1      42.732  35.844  36.562  1.00  0.00    -0.237 OA
ATOM     70  O   UNL A   1      45.165  35.750  36.133  1.00  0.00    -0.237 OA
ATOM     71  O   UNL A   1      43.698  37.014  34.614  1.00  0.00    -0.744 OA
ENDBRANCH  67  68
ENDBRANCH  48  62
BRANCH  49  72
ATOM     72  C   UNL A   1      42.049  23.655  27.867  1.00  0.00    -0.014 A 
ATOM     73  C   UNL A   1      41.363  22.604  28.507  1.00  0.00     0.010 A 
ATOM     74  C   UNL A   1      42.630  23.426  26.608  1.00  0.00     0.010 A 
ATOM     75  C   UNL A   1      41.333  21.329  27.941  1.00  0.00     0.020 A 
ATOM     76  C   UNL A   1      42.574  22.157  26.023  1.00  0.00     0.020 A 
ATOM     77  C   UNL A   1      41.961  21.107  26.713  1.00  0.00     0.054 A 
BRANCH  77  78
ATOM     78  S   UNL A   1      41.996  19.422  26.044  1.00  0.00     0.124 S 
ATOM     79  O   UNL A   1      42.866  19.581  24.882  1.00  0.00    -0.237 OA
ATOM     80  O   UNL A   1      42.558  18.649  27.149  1.00  0.00    -0.237 OA
ATOM     81  O   UNL A   1      40.595  19.144  25.742  1.00  0.00    -0.744 OA
ENDBRANCH  77  78
ENDBRANCH  49  72
BRANCH  61  82
ATOM     82  C   UNL A   1      47.231  26.294  31.791  1.00  0.00    -0.014 A 
ATOM     83  C   UNL A   1      48.308  26.429  30.895  1.00  0.00     0.010 A 
ATOM     84  C   UNL A   1      47.412  25.570  32.983  1.00  0.00     0.010 A 
ATOM     85  C   UNL A   1      49.533  25.815  31.166  1.00  0.00     0.020 A 
ATOM     86  C   UNL A   1      48.645  24.976  33.268  1.00  0.00     0.020 A 
ATOM     87  C   UNL A   1      49.689  25.081  32.344  1.00  0.00     0.054 A 
BRANCH  87  88
ATOM     88  S   UNL A   1      51.272  24.254  32.658  1.00  0.00     0.124 S 
ATOM     89  O   UNL A   1      51.379  24.338  34.111  1.00  0.00    -0.237 OA
ATOM     90  O   UNL A   1      51.049  22.915  32.119  1.00  0.00    -0.237 OA
ATOM     91  O   UNL A   1      52.235  25.064  31.913  1.00  0.00    -0.744 OA
ENDBRANCH  87  88
ENDBRANCH  61  82
ENDBRANCH  35  36
ENDBRANCH  27  30
ENDBRANCH  25  26
ENDBRANCH   1  25
TORSDOF 16
ENDMDL
MODEL 2
REMARK VINA RESULT:     -11.6      3.563      9.816
REMARK SMILES CCCc1cc2c(cc1Cl)C=C(C(=O)NCCCNC(=O)c1ccc(-c3c4nc(c(-c5ccc(S(=O)(=O)[O-])cc5)c5ccc([nH]5)c(-c5ccc(S(=O)(=O)[O-])cc5)c5nc(c(-c6ccc(S(=O)(=O)[O-])cc6)c6ccc3[nH]6)C=C5)C=C4)cc1)[C@@H](C(F)(F)F)O2
REMARK SMILES IDX 17 1 16 2 15 3 13 4 14 5 12 7 4 8 5 9 9 10 6 11 8 12 10 13
REMARK SMILES IDX 7 14 87 15 11 16 82 17 3 18 2 19 1 20 83 21 84 22 85 23
REMARK SMILES IDX 86 24 18 25 19 26 20 27 21 29 22 30 23 31 81 32 24 33 80 34
REMARK SMILES IDX 25 35 26 36 27 37 74 38 28 39 79 40 73 41 75 42 29 43 78 44
REMARK SMILES IDX 72 45 71 46 30 48 60 49 41 50 59 51 42 52 45 53 58 54 76 55
REMARK SMILES IDX 43 56 44 57 57 59 77 60 46 61 31 62 32 63 40 64 33 65 39 66
REMARK SMILES IDX 34 67 35 68 36 69 37 70 38 71 61 72 62 73 70 74 63 75 69 76
REMARK SMILES IDX 64 77 65 78 66 79 67 80 68 81 47 82 48 83 56 84 49 85 55 86
REMARK SMILES IDX 50 87 51 88 52 89 53 90 54 91
REMARK H PARENT 15 6 19 28 75 47 45 58
REMARK Flexibility Score: inf
ROOT
ATOM      1  C   UNL A   1      35.395  22.926  26.537  1.00  0.00     0.042 C 
ENDROOT
BRANCH   1   2
ATOM      2  C   UNL A   1      34.113  22.884  25.718  1.00  0.00     0.118 C 
BRANCH   2   3
ATOM      3  N   UNL A   1      34.376  22.909  24.287  1.00  0.00    -0.352 N 
ATOM      4  C   UNL A   1      34.055  23.695  23.233  1.00  0.00     0.251 C 
ATOM      5  O   UNL A   1      34.524  23.338  22.147  1.00  0.00    -0.270 OA
ATOM      6  H   UNL A   1      34.940  22.150  24.011  1.00  0.00     0.163 HD
BRANCH   4   7
ATOM      7  C   UNL A   1      33.210  24.920  23.303  1.00  0.00     0.067 C 
ATOM      8  C   UNL A   1      31.220  29.426  24.361  1.00  0.00    -0.026 A 
ATOM      9  C   UNL A   1      31.005  28.461  23.367  1.00  0.00     0.052 A 
ATOM     10  C   UNL A   1      32.355  29.269  25.186  1.00  0.00     0.045 A 
ATOM     11  C   UNL A   1      31.817  27.333  23.282  1.00  0.00     0.128 A 
ATOM     12  C   UNL A   1      33.200  28.156  25.061  1.00  0.00     0.032 A 
ATOM     13  Cl  UNL A   1      32.765  30.438  26.394  1.00  0.00    -0.084 Cl
ATOM     14  C   UNL A   1      32.915  27.167  24.122  1.00  0.00     0.019 A 
ATOM     15  O   UNL A   1      31.476  26.402  22.341  1.00  0.00    -0.475 OA
ATOM     16  C   UNL A   1      33.728  25.962  23.985  1.00  0.00     0.025 C 
ATOM     17  C   UNL A   1      31.840  25.039  22.698  1.00  0.00     0.314 C 
BRANCH   8  18
ATOM     18  C   UNL A   1      30.282  30.604  24.533  1.00  0.00     0.037 C 
BRANCH  18  19
ATOM     19  C   UNL A   1      29.175  30.813  23.485  1.00  0.00     0.001 C 
ATOM     20  C   UNL A   1      28.706  32.259  23.369  1.00  0.00     0.004 C 
ENDBRANCH  18  19
ENDBRANCH   8  18
BRANCH  17  21
ATOM     21  C   UNL A   1      30.743  24.418  23.589  1.00  0.00     0.429 C 
ATOM     22  F   UNL A   1      29.617  25.172  23.556  1.00  0.00    -0.167 F 
ATOM     23  F   UNL A   1      30.386  23.175  23.181  1.00  0.00    -0.167 F 
ATOM     24  F   UNL A   1      31.114  24.302  24.885  1.00  0.00    -0.167 F 
ENDBRANCH  17  21
ENDBRANCH   4   7
ENDBRANCH   2   3
ENDBRANCH   1   2
BRANCH   1  25
ATOM     25  C   UNL A   1      36.595  23.381  25.716  1.00  0.00     0.118 C 
BRANCH  25  26
ATOM     26  N   UNL A   1      37.763  22.527  25.928  1.00  0.00    -0.352 N 
ATOM     27  C   UNL A   1      39.026  22.839  26.369  1.00  0.00     0.251 C 
ATOM     28  H   UNL A   1      37.620  21.575  25.721  1.00  0.00     0.163 HD
ATOM     29  O   UNL A   1      39.929  22.012  26.259  1.00  0.00    -0.269 OA
BRANCH  27  30
ATOM     30  C   UNL A   1      39.300  24.167  26.954  1.00  0.00     0.039 A 
ATOM     31  C   UNL A   1      39.920  25.155  26.192  1.00  0.00     0.014 A 
ATOM     32  C   UNL A   1      38.934  24.430  28.277  1.00  0.00     0.014 A 
ATOM     33  C   UNL A   1      40.354  26.322  26.802  1.00  0.00     0.010 A 
ATOM     34  C   UNL A   1      39.275  25.654  28.861  1.00  0.00     0.010 A 
ATOM     35  C   UNL A   1      40.035  26.589  28.143  1.00  0.00    -0.014 A 
BRANCH  35  36
ATOM     36  C   UNL A   1      40.510  27.857  28.757  1.00  0.00     0.031 A 
ATOM     37  C   UNL A   1      41.972  28.075  29.037  1.00  0.00     0.074 A 
ATOM     38  C   UNL A   1      39.624  28.849  28.973  1.00  0.00     0.049 A 
ATOM     39  N   UNL A   1      42.563  29.138  29.522  1.00  0.00    -0.248 NA
ATOM     40  C   UNL A   1      42.893  26.967  28.736  1.00  0.00     0.031 C 
ATOM     41  C   UNL A   1      38.186  28.759  28.705  1.00  0.00     0.029 A 
ATOM     42  N   UNL A   1      39.799  30.136  29.412  1.00  0.00    -0.354 N 
ATOM     43  C   UNL A   1      43.915  28.825  29.594  1.00  0.00     0.074 A 
ATOM     44  C   UNL A   1      44.057  27.460  29.137  1.00  0.00     0.031 C 
ATOM     45  C   UNL A   1      37.628  29.961  28.900  1.00  0.00     0.029 A 
ATOM     46  C   UNL A   1      38.646  30.885  29.387  1.00  0.00     0.049 A 
ATOM     47  H   UNL A   1      40.665  30.489  29.717  1.00  0.00     0.167 HD
ATOM     48  C   UNL A   1      44.944  29.609  29.991  1.00  0.00     0.031 A 
ATOM     49  C   UNL A   1      38.422  32.171  29.722  1.00  0.00     0.031 A 
ATOM     50  C   UNL A   1      44.792  30.968  30.442  1.00  0.00     0.049 A 
ATOM     51  C   UNL A   1      39.567  33.005  30.211  1.00  0.00     0.074 A 
ATOM     52  C   UNL A   1      45.770  31.836  30.893  1.00  0.00     0.029 A 
ATOM     53  N   UNL A   1      43.591  31.661  30.487  1.00  0.00    -0.354 N 
ATOM     54  N   UNL A   1      40.832  32.674  30.316  1.00  0.00    -0.248 NA
ATOM     55  C   UNL A   1      39.261  34.376  30.639  1.00  0.00     0.031 C 
ATOM     56  C   UNL A   1      45.155  33.036  31.258  1.00  0.00     0.029 A 
ATOM     57  C   UNL A   1      43.802  32.939  30.974  1.00  0.00     0.049 A 
ATOM     58  H   UNL A   1      42.718  31.297  30.214  1.00  0.00     0.167 HD
ATOM     59  C   UNL A   1      41.475  33.794  30.826  1.00  0.00     0.074 A 
ATOM     60  C   UNL A   1      40.465  34.820  30.983  1.00  0.00     0.031 C 
ATOM     61  C   UNL A   1      42.784  33.949  31.141  1.00  0.00     0.031 A 
BRANCH  48  62
ATOM     62  C   UNL A   1      46.332  29.023  29.967  1.00  0.00    -0.014 A 
ATOM     63  C   UNL A   1      46.850  28.393  31.113  1.00  0.00     0.010 A 
ATOM     64  C   UNL A   1      47.159  29.171  28.837  1.00  0.00     0.010 A 
ATOM     65  C   UNL A   1      48.170  27.937  31.139  1.00  0.00     0.020 A 
ATOM     66  C   UNL A   1      48.472  28.692  28.850  1.00  0.00     0.020 A 
ATOM     67  C   UNL A   1      48.976  28.094  30.009  1.00  0.00     0.054 A 
BRANCH  67  68
ATOM     68  S   UNL A   1      50.686  27.489  30.054  1.00  0.00     0.124 S 
ATOM     69  O   UNL A   1      51.397  28.617  30.645  1.00  0.00    -0.237 OA
ATOM     70  O   UNL A   1      50.582  26.297  30.892  1.00  0.00    -0.237 OA
ATOM     71  O   UNL A   1      50.989  27.224  28.648  1.00  0.00    -0.744 OA
ENDBRANCH  67  68
ENDBRANCH  48  62
BRANCH  49  72
ATOM     72  C   UNL A   1      37.044  32.716  29.578  1.00  0.00    -0.014 A 
ATOM     73  C   UNL A   1      36.517  32.980  28.298  1.00  0.00     0.010 A 
ATOM     74  C   UNL A   1      36.313  33.107  30.712  1.00  0.00     0.010 A 
ATOM     75  C   UNL A   1      35.328  33.697  28.155  1.00  0.00     0.020 A 
ATOM     76  C   UNL A   1      35.105  33.798  30.572  1.00  0.00     0.020 A 
ATOM     77  C   UNL A   1      34.642  34.123  29.294  1.00  0.00     0.054 A 
BRANCH  77  78
ATOM     78  S   UNL A   1      33.154  35.139  29.086  1.00  0.00     0.124 S 
ATOM     79  O   UNL A   1      32.573  35.095  30.425  1.00  0.00    -0.237 OA
ATOM     80  O   UNL A   1      33.701  36.431  28.679  1.00  0.00    -0.237 OA
ATOM     81  O   UNL A   1      32.400  34.432  28.054  1.00  0.00    -0.744 OA
ENDBRANCH  77  78
ENDBRANCH  49  72
BRANCH  61  82
ATOM     82  C   UNL A   1      43.220  35.271  31.710  1.00  0.00    -0.014 A 
ATOM     83  C   UNL A   1      43.076  35.519  33.087  1.00  0.00     0.010 A 
ATOM     84  C   UNL A   1      43.639  36.311  30.862  1.00  0.00     0.010 A 
ATOM     85  C   UNL A   1      43.307  36.797  33.603  1.00  0.00     0.020 A 
ATOM     86  C   UNL A   1      43.895  37.584  31.379  1.00  0.00     0.020 A 
ATOM     87  C   UNL A   1      43.701  37.825  32.743  1.00  0.00     0.054 A 
BRANCH  87  88
ATOM     88  S   UNL A   1      43.955  39.487  33.422  1.00  0.00     0.124 S 
ATOM     89  O   UNL A   1      42.816  40.218  32.875  1.00  0.00    -0.237 OA
ATOM     90  O   UNL A   1      43.920  39.255  34.864  1.00  0.00    -0.237 OA
ATOM     91  O   UNL A   1      45.260  39.877  32.894  1.00  0.00    -0.744 OA
ENDBRANCH  87  88
ENDBRANCH  61  82
ENDBRANCH  35  36
ENDBRANCH  27  30
ENDBRANCH  25  26
ENDBRANCH   1  25
TORSDOF 16
ENDMDL
MODEL 3
REMARK VINA RESULT:     -11.6      3.790      5.340
REMARK SMILES CCCc1cc2c(cc1Cl)C=C(C(=O)NCCCNC(=O)c1ccc(-c3c4nc(c(-c5ccc(S(=O)(=O)[O-])cc5)c5ccc([nH]5)c(-c5ccc(S(=O)(=O)[O-])cc5)c5nc(c(-c6ccc(S(=O)(=O)[O-])cc6)c6ccc3[nH]6)C=C5)C=C4)cc1)[C@@H](C(F)(F)F)O2
REMARK SMILES IDX 17 1 16 2 15 3 13 4 14 5 12 7 4 8 5 9 9 10 6 11 8 12 10 13
REMARK SMILES IDX 7 14 87 15 11 16 82 17 3 18 2 19 1 20 83 21 84 22 85 23
REMARK SMILES IDX 86 24 18 25 19 26 20 27 21 29 22 30 23 31 81 32 24 33 80 34
REMARK SMILES IDX 25 35 26 36 27 37 74 38 28 39 79 40 73 41 75 42 29 43 78 44
REMARK SMILES IDX 72 45 71 46 30 48 60 49 41 50 59 51 42 52 45 53 58 54 76 55
REMARK SMILES IDX 43 56 44 57 57 59 77 60 46 61 31 62 32 63 40 64 33 65 39 66
REMARK SMILES IDX 34 67 35 68 36 69 37 70 38 71 61 72 62 73 70 74 63 75 69 76
REMARK SMILES IDX 64 77 65 78 66 79 67 80 68 81 47 82 48 83 56 84 49 85 55 86
REMARK SMILES IDX 50 87 51 88 52 89 53 90 54 91
REMARK H PARENT 15 6 19 28 75 47 45 58
REMARK Flexibility Score: inf
ROOT
ATOM      1  C   UNL A   1      31.623  31.979  26.795  1.00  0.00     0.042 C 
ENDROOT
BRANCH   1   2
ATOM      2  C   UNL A   1      31.879  30.504  26.522  1.00  0.00     0.118 C 
BRANCH   2   3
ATOM      3  N   UNL A   1      31.515  30.128  25.163  1.00  0.00    -0.352 N 
ATOM      4  C   UNL A   1      31.374  28.984  24.455  1.00  0.00     0.251 C 
ATOM      5  O   UNL A   1      31.020  29.130  23.280  1.00  0.00    -0.270 OA
ATOM      6  H   UNL A   1      31.318  30.920  24.611  1.00  0.00     0.163 HD
BRANCH   4   7
ATOM      7  C   UNL A   1      31.602  27.611  24.989  1.00  0.00     0.067 C 
ATOM      8  C   UNL A   1      33.558  23.219  26.495  1.00  0.00    -0.026 A 
ATOM      9  C   UNL A   1      32.327  23.866  26.678  1.00  0.00     0.052 A 
ATOM     10  C   UNL A   1      34.611  23.971  25.930  1.00  0.00     0.045 A 
ATOM     11  C   UNL A   1      32.127  25.161  26.209  1.00  0.00     0.128 A 
ATOM     12  C   UNL A   1      34.417  25.294  25.506  1.00  0.00     0.032 A 
ATOM     13  Cl  UNL A   1      36.195  23.303  25.729  1.00  0.00    -0.084 Cl
ATOM     14  C   UNL A   1      33.161  25.886  25.620  1.00  0.00     0.019 A 
ATOM     15  O   UNL A   1      30.869  25.677  26.350  1.00  0.00    -0.475 OA
ATOM     16  C   UNL A   1      32.888  27.239  25.146  1.00  0.00     0.025 C 
ATOM     17  C   UNL A   1      30.504  26.639  25.320  1.00  0.00     0.314 C 
BRANCH   8  18
ATOM     18  C   UNL A   1      33.758  21.774  26.906  1.00  0.00     0.037 C 
BRANCH  18  19
ATOM     19  C   UNL A   1      33.845  20.707  25.800  1.00  0.00     0.001 C 
ATOM     20  C   UNL A   1      32.960  21.000  24.595  1.00  0.00     0.004 C 
ENDBRANCH  18  19
ENDBRANCH   8  18
BRANCH  17  21
ATOM     21  C   UNL A   1      29.972  25.900  24.075  1.00  0.00     0.429 C 
ATOM     22  F   UNL A   1      29.896  24.566  24.306  1.00  0.00    -0.167 F 
ATOM     23  F   UNL A   1      28.724  26.302  23.728  1.00  0.00    -0.167 F 
ATOM     24  F   UNL A   1      30.748  26.076  22.981  1.00  0.00    -0.167 F 
ENDBRANCH  17  21
ENDBRANCH   4   7
ENDBRANCH   2   3
ENDBRANCH   1   2
BRANCH   1  25
ATOM     25  C   UNL A   1      32.848  32.687  27.359  1.00  0.00     0.118 C 
BRANCH  25  26
ATOM     26  N   UNL A   1      32.580  34.093  27.663  1.00  0.00    -0.352 N 
ATOM     27  C   UNL A   1      33.095  34.905  28.644  1.00  0.00     0.251 C 
ATOM     28  H   UNL A   1      31.926  34.526  27.069  1.00  0.00     0.163 HD
ATOM     29  O   UNL A   1      32.567  35.991  28.871  1.00  0.00    -0.269 OA
BRANCH  27  30
ATOM     30  C   UNL A   1      34.262  34.464  29.435  1.00  0.00     0.039 A 
ATOM     31  C   UNL A   1      35.549  34.584  28.913  1.00  0.00     0.014 A 
ATOM     32  C   UNL A   1      34.070  33.927  30.711  1.00  0.00     0.014 A 
ATOM     33  C   UNL A   1      36.614  33.988  29.570  1.00  0.00     0.010 A 
ATOM     34  C   UNL A   1      35.165  33.425  31.423  1.00  0.00     0.010 A 
ATOM     35  C   UNL A   1      36.438  33.404  30.835  1.00  0.00    -0.014 A 
BRANCH  35  36
ATOM     36  C   UNL A   1      37.609  32.784  31.511  1.00  0.00     0.031 A 
ATOM     37  C   UNL A   1      38.056  33.261  32.865  1.00  0.00     0.074 A 
ATOM     38  C   UNL A   1      38.207  31.724  30.934  1.00  0.00     0.049 A 
ATOM     39  N   UNL A   1      39.024  32.800  33.617  1.00  0.00    -0.248 NA
ATOM     40  C   UNL A   1      37.330  34.396  33.459  1.00  0.00     0.031 C 
ATOM     41  C   UNL A   1      37.833  31.155  29.637  1.00  0.00     0.029 A 
ATOM     42  N   UNL A   1      39.213  30.904  31.378  1.00  0.00    -0.354 N 
ATOM     43  C   UNL A   1      39.030  33.591  34.760  1.00  0.00     0.074 A 
ATOM     44  C   UNL A   1      37.993  34.584  34.592  1.00  0.00     0.031 C 
ATOM     45  C   UNL A   1      38.534  30.032  29.432  1.00  0.00     0.029 A 
ATOM     46  C   UNL A   1      39.467  29.845  30.537  1.00  0.00     0.049 A 
ATOM     47  H   UNL A   1      39.706  31.058  32.215  1.00  0.00     0.167 HD
ATOM     48  C   UNL A   1      39.819  33.486  35.855  1.00  0.00     0.031 A 
ATOM     49  C   UNL A   1      40.354  28.835  30.635  1.00  0.00     0.031 A 
ATOM     50  C   UNL A   1      40.846  32.491  36.014  1.00  0.00     0.049 A 
ATOM     51  C   UNL A   1      41.255  28.770  31.831  1.00  0.00     0.074 A 
ATOM     52  C   UNL A   1      41.718  32.321  37.075  1.00  0.00     0.029 A 
ATOM     53  N   UNL A   1      41.133  31.490  35.097  1.00  0.00    -0.354 N 
ATOM     54  N   UNL A   1      41.275  29.557  32.880  1.00  0.00    -0.248 NA
ATOM     55  C   UNL A   1      42.257  27.699  31.856  1.00  0.00     0.031 C 
ATOM     56  C   UNL A   1      42.565  31.250  36.777  1.00  0.00     0.029 A 
ATOM     57  C   UNL A   1      42.179  30.710  35.560  1.00  0.00     0.049 A 
ATOM     58  H   UNL A   1      40.662  31.355  34.243  1.00  0.00     0.167 HD
ATOM     59  C   UNL A   1      42.296  29.079  33.691  1.00  0.00     0.074 A 
ATOM     60  C   UNL A   1      42.851  27.919  33.024  1.00  0.00     0.031 C 
ATOM     61  C   UNL A   1      42.734  29.566  34.878  1.00  0.00     0.031 A 
BRANCH  48  62
ATOM     62  C   UNL A   1      39.614  34.475  36.973  1.00  0.00    -0.014 A 
ATOM     63  C   UNL A   1      40.222  35.743  36.912  1.00  0.00     0.010 A 
ATOM     64  C   UNL A   1      38.889  34.123  38.127  1.00  0.00     0.010 A 
ATOM     65  C   UNL A   1      40.126  36.631  37.986  1.00  0.00     0.020 A 
ATOM     66  C   UNL A   1      38.768  35.019  39.193  1.00  0.00     0.020 A 
ATOM     67  C   UNL A   1      39.404  36.262  39.123  1.00  0.00     0.054 A 
BRANCH  67  68
ATOM     68  S   UNL A   1      39.280  37.430  40.506  1.00  0.00     0.124 S 
ATOM     69  O   UNL A   1      38.254  38.355  40.038  1.00  0.00    -0.237 OA
ATOM     70  O   UNL A   1      38.895  36.568  41.621  1.00  0.00    -0.237 OA
ATOM     71  O   UNL A   1      40.629  37.986  40.601  1.00  0.00    -0.744 OA
ENDBRANCH  67  68
ENDBRANCH  48  62
BRANCH  49  72
ATOM     72  C   UNL A   1      40.392  27.813  29.554  1.00  0.00    -0.014 A 
ATOM     73  C   UNL A   1      39.459  26.757  29.543  1.00  0.00     0.010 A 
ATOM     74  C   UNL A   1      41.441  27.806  28.618  1.00  0.00     0.010 A 
ATOM     75  C   UNL A   1      39.621  25.675  28.677  1.00  0.00     0.020 A 
ATOM     76  C   UNL A   1      41.589  26.739  27.727  1.00  0.00     0.020 A 
ATOM     77  C   UNL A   1      40.701  25.662  27.790  1.00  0.00     0.054 A 
BRANCH  77  78
ATOM     78  S   UNL A   1      40.951  24.201  26.744  1.00  0.00     0.124 S 
ATOM     79  O   UNL A   1      39.580  23.871  26.362  1.00  0.00    -0.237 OA
ATOM     80  O   UNL A   1      41.796  24.715  25.669  1.00  0.00    -0.237 OA
ATOM     81  O   UNL A   1      41.598  23.246  27.639  1.00  0.00    -0.744 OA
ENDBRANCH  77  78
ENDBRANCH  49  72
BRANCH  61  82
ATOM     82  C   UNL A   1      43.888  28.867  35.544  1.00  0.00    -0.014 A 
ATOM     83  C   UNL A   1      45.204  29.155  35.139  1.00  0.00     0.010 A 
ATOM     84  C   UNL A   1      43.661  27.831  36.466  1.00  0.00     0.010 A 
ATOM     85  C   UNL A   1      46.272  28.392  35.617  1.00  0.00     0.020 A 
ATOM     86  C   UNL A   1      44.730  27.082  36.964  1.00  0.00     0.020 A 
ATOM     87  C   UNL A   1      46.027  27.351  36.515  1.00  0.00     0.054 A 
BRANCH  87  88
ATOM     88  S   UNL A   1      47.420  26.343  37.091  1.00  0.00     0.124 S 
ATOM     89  O   UNL A   1      48.004  25.882  35.836  1.00  0.00    -0.237 OA
ATOM     90  O   UNL A   1      48.223  27.304  37.844  1.00  0.00    -0.237 OA
ATOM     91  O   UNL A   1      46.782  25.308  37.902  1.00  0.00    -0.744 OA
ENDBRANCH  87  88
ENDBRANCH  61  82
ENDBRANCH  35  36
ENDBRANCH  27  30
ENDBRANCH  25  26
ENDBRANCH   1  25
TORSDOF 16
ENDMDL
