MODEL 1
REMARK VINA RESULT:     -12.9      0.000      0.000
REMARK SMILES CC[C@@H](Sc1nnc2ccc3ccccc3n12)C(=O)Nc1cccc(C(=O)NCCCNC(=O)c2ccc(-c3c4nc(c(-c5ccc(S(=O)(=O)[O-])cc5)c5ccc([nH]5)c(-c5ccc(S(=O)(=O)[O-])cc5)c5nc(c(-c6ccc(S(=O)(=O)[O-])cc6)c6ccc3[nH]6)C=C5)C=C4)cc2)c1
REMARK SMILES IDX 29 1 28 2 26 3 27 4 25 6 21 7 22 8 95 9 23 10 24 11 20 12
REMARK SMILES IDX 18 13 19 14 3 16 2 17 1 18 4 19 5 20 6 21 17 22 7 23 8 24
REMARK SMILES IDX 16 25 9 26 11 27 15 28 10 29 12 30 14 31 13 32 30 33 31 34
REMARK SMILES IDX 32 35 33 36 34 38 35 39 36 40 94 41 37 42 93 43 38 44 39 45
REMARK SMILES IDX 40 46 87 47 41 48 92 49 86 50 88 51 42 52 91 53 85 54 84 55
REMARK SMILES IDX 43 57 73 58 54 59 72 60 55 61 58 62 71 63 89 64 56 65 57 66
REMARK SMILES IDX 70 68 90 69 59 70 44 71 45 72 53 73 46 74 52 75 47 76 48 77
REMARK SMILES IDX 49 78 50 79 51 80 74 81 75 82 83 83 76 84 82 85 77 86 78 87
REMARK SMILES IDX 79 88 80 89 81 90 60 91 61 92 69 93 62 94 68 95 63 96 64 97
REMARK SMILES IDX 65 98 66 99 67 100
REMARK H PARENT 28 5 20 15 32 37 88 56 58 67
REMARK Flexibility Score: inf
ROOT
ATOM      1  C   UNL A   1      39.395  22.722  26.445  1.00  0.00     0.118 C 
ENDROOT
BRANCH   1   2
ATOM      2  N   UNL A   1      38.644  21.603  25.907  1.00  0.00    -0.352 N 
ATOM      3  C   UNL A   1      37.435  21.453  25.279  1.00  0.00     0.251 C 
ATOM      4  O   UNL A   1      37.181  20.311  24.882  1.00  0.00    -0.269 OA
ATOM      5  H   UNL A   1      39.116  20.746  26.021  1.00  0.00     0.163 HD
BRANCH   3   6
ATOM      6  C   UNL A   1      36.407  22.519  25.073  1.00  0.00     0.041 A 
ATOM      7  C   UNL A   1      34.525  23.903  25.728  1.00  0.00     0.041 A 
ATOM      8  C   UNL A   1      34.447  24.428  24.448  1.00  0.00     0.026 A 
ATOM      9  C   UNL A   1      35.606  23.089  26.062  1.00  0.00     0.040 A 
ATOM     10  C   UNL A   1      35.279  23.943  23.447  1.00  0.00     0.003 A 
ATOM     11  C   UNL A   1      36.210  22.951  23.748  1.00  0.00     0.014 A 
BRANCH   7  12
ATOM     12  N   UNL A   1      33.545  24.097  26.719  1.00  0.00    -0.325 N 
ATOM     13  C   UNL A   1      32.191  23.849  26.587  1.00  0.00     0.237 C 
ATOM     14  O   UNL A   1      31.589  23.539  27.621  1.00  0.00    -0.273 OA
ATOM     15  H   UNL A   1      33.852  24.442  27.588  1.00  0.00     0.169 HD
BRANCH  13  16
ATOM     16  C   UNL A   1      31.406  23.935  25.254  1.00  0.00     0.144 C 
BRANCH  16  17
ATOM     17  C   UNL A   1      31.220  22.482  24.767  1.00  0.00     0.021 C 
ATOM     18  C   UNL A   1      32.240  21.414  25.080  1.00  0.00     0.005 C 
ENDBRANCH  16  17
BRANCH  16  19
ATOM     19  S   UNL A   1      30.118  25.267  25.451  1.00  0.00    -0.072 SA
BRANCH  19  20
ATOM     20  C   UNL A   1      30.932  26.616  26.168  1.00  0.00     0.196 A 
ATOM     21  N   UNL A   1      30.761  26.897  27.438  1.00  0.00    -0.122 NA
ATOM     22  N   UNL A   1      31.986  27.383  25.670  1.00  0.00    -0.270 N 
ATOM     23  N   UNL A   1      31.662  27.828  27.829  1.00  0.00    -0.129 NA
ATOM     24  C   UNL A   1      32.418  28.095  26.794  1.00  0.00     0.161 A 
ATOM     25  C   UNL A   1      32.617  27.552  24.399  1.00  0.00     0.057 A 
ATOM     26  C   UNL A   1      33.538  28.950  26.725  1.00  0.00     0.050 A 
ATOM     27  C   UNL A   1      33.729  28.434  24.361  1.00  0.00    -0.001 A 
ATOM     28  C   UNL A   1      32.192  26.945  23.217  1.00  0.00     0.027 A 
ATOM     29  C   UNL A   1      34.189  29.120  25.571  1.00  0.00     0.014 A 
ATOM     30  C   UNL A   1      34.403  28.681  23.159  1.00  0.00     0.010 A 
ATOM     31  C   UNL A   1      32.876  27.208  22.018  1.00  0.00     0.002 A 
ATOM     32  C   UNL A   1      33.976  28.067  21.988  1.00  0.00     0.001 A 
ENDBRANCH  19  20
ENDBRANCH  16  19
ENDBRANCH  13  16
ENDBRANCH   7  12
ENDBRANCH   3   6
ENDBRANCH   1   2
BRANCH   1  33
ATOM     33  C   UNL A   1      40.358  22.345  27.559  1.00  0.00     0.042 C 
BRANCH  33  34
ATOM     34  C   UNL A   1      41.594  21.567  27.128  1.00  0.00     0.118 C 
BRANCH  34  35
ATOM     35  N   UNL A   1      42.196  22.015  25.889  1.00  0.00    -0.352 N 
ATOM     36  C   UNL A   1      42.765  23.177  25.452  1.00  0.00     0.251 C 
ATOM     37  H   UNL A   1      42.195  21.314  25.197  1.00  0.00     0.163 HD
ATOM     38  O   UNL A   1      43.354  23.102  24.369  1.00  0.00    -0.269 OA
BRANCH  36  39
ATOM     39  C   UNL A   1      42.671  24.503  26.124  1.00  0.00     0.039 A 
ATOM     40  C   UNL A   1      43.288  24.860  27.321  1.00  0.00     0.014 A 
ATOM     41  C   UNL A   1      41.793  25.428  25.526  1.00  0.00     0.014 A 
ATOM     42  C   UNL A   1      42.927  26.037  27.978  1.00  0.00     0.010 A 
ATOM     43  C   UNL A   1      41.457  26.621  26.158  1.00  0.00     0.010 A 
ATOM     44  C   UNL A   1      41.975  26.896  27.418  1.00  0.00    -0.014 A 
BRANCH  44  45
ATOM     45  C   UNL A   1      41.602  28.098  28.160  1.00  0.00     0.031 A 
ATOM     46  C   UNL A   1      42.563  29.237  28.076  1.00  0.00     0.074 A 
ATOM     47  C   UNL A   1      40.433  28.244  28.819  1.00  0.00     0.049 A 
ATOM     48  N   UNL A   1      43.225  29.791  29.038  1.00  0.00    -0.248 NA
ATOM     49  C   UNL A   1      42.890  29.764  26.743  1.00  0.00     0.031 C 
ATOM     50  C   UNL A   1      39.253  27.375  28.798  1.00  0.00     0.029 A 
ATOM     51  N   UNL A   1      40.026  29.290  29.591  1.00  0.00    -0.354 N 
ATOM     52  C   UNL A   1      43.962  30.828  28.467  1.00  0.00     0.074 A 
ATOM     53  C   UNL A   1      43.790  30.705  27.039  1.00  0.00     0.031 C 
ATOM     54  C   UNL A   1      38.197  28.043  29.321  1.00  0.00     0.029 A 
ATOM     55  C   UNL A   1      38.663  29.312  29.855  1.00  0.00     0.049 A 
ATOM     56  H   UNL A   1      40.647  29.974  29.933  1.00  0.00     0.167 HD
ATOM     57  C   UNL A   1      44.576  31.792  29.209  1.00  0.00     0.031 A 
ATOM     58  C   UNL A   1      37.966  30.333  30.416  1.00  0.00     0.031 A 
ATOM     59  C   UNL A   1      44.659  31.432  30.596  1.00  0.00     0.049 A 
ATOM     60  C   UNL A   1      38.938  31.163  31.169  1.00  0.00     0.074 A 
ATOM     61  C   UNL A   1      45.318  30.442  31.296  1.00  0.00     0.029 A 
ATOM     62  N   UNL A   1      43.699  31.925  31.446  1.00  0.00    -0.354 N 
ATOM     63  N   UNL A   1      39.566  30.753  32.235  1.00  0.00    -0.248 NA
ATOM     64  C   UNL A   1      39.530  32.307  30.493  1.00  0.00     0.031 C 
ATOM     65  C   UNL A   1      44.410  30.056  32.321  1.00  0.00     0.029 A 
ATOM     66  C   UNL A   1      43.284  30.878  32.229  1.00  0.00     0.049 A 
ATOM     67  H   UNL A   1      43.372  32.853  31.486  1.00  0.00     0.167 HD
ATOM     68  C   UNL A   1      40.837  31.294  32.123  1.00  0.00     0.074 A 
ATOM     69  C   UNL A   1      40.728  32.313  31.081  1.00  0.00     0.031 C 
ATOM     70  C   UNL A   1      41.922  30.688  32.689  1.00  0.00     0.031 A 
BRANCH  57  71
ATOM     71  C   UNL A   1      44.913  33.175  28.721  1.00  0.00    -0.014 A 
ATOM     72  C   UNL A   1      43.943  34.056  28.202  1.00  0.00     0.010 A 
ATOM     73  C   UNL A   1      46.191  33.713  28.983  1.00  0.00     0.010 A 
ATOM     74  C   UNL A   1      44.235  35.394  27.924  1.00  0.00     0.020 A 
ATOM     75  C   UNL A   1      46.483  35.065  28.748  1.00  0.00     0.020 A 
ATOM     76  C   UNL A   1      45.501  35.895  28.209  1.00  0.00     0.054 A 
BRANCH  76  77
ATOM     77  S   UNL A   1      45.811  37.655  27.922  1.00  0.00     0.124 S 
ATOM     78  O   UNL A   1      45.537  38.227  29.238  1.00  0.00    -0.237 OA
ATOM     79  O   UNL A   1      47.211  37.663  27.511  1.00  0.00    -0.237 OA
ATOM     80  O   UNL A   1      44.853  38.009  26.877  1.00  0.00    -0.744 OA
ENDBRANCH  76  77
ENDBRANCH  57  71
BRANCH  58  81
ATOM     81  C   UNL A   1      36.680  30.903  29.930  1.00  0.00    -0.014 A 
ATOM     82  C   UNL A   1      36.521  31.221  28.566  1.00  0.00     0.010 A 
ATOM     83  C   UNL A   1      35.764  31.458  30.848  1.00  0.00     0.010 A 
ATOM     84  C   UNL A   1      35.566  32.152  28.147  1.00  0.00     0.020 A 
ATOM     85  C   UNL A   1      34.804  32.397  30.433  1.00  0.00     0.020 A 
ATOM     86  C   UNL A   1      34.749  32.773  29.090  1.00  0.00     0.054 A 
BRANCH  86  87
ATOM     87  S   UNL A   1      33.707  34.159  28.549  1.00  0.00     0.124 S 
ATOM     88  O   UNL A   1      33.157  34.632  29.820  1.00  0.00    -0.237 OA
ATOM     89  O   UNL A   1      34.680  35.056  27.920  1.00  0.00    -0.237 OA
ATOM     90  O   UNL A   1      32.751  33.547  27.642  1.00  0.00    -0.744 OA
ENDBRANCH  86  87
ENDBRANCH  58  81
BRANCH  70  91
ATOM     91  C   UNL A   1      41.709  29.550  33.666  1.00  0.00    -0.014 A 
ATOM     92  C   UNL A   1      41.772  29.860  35.038  1.00  0.00     0.010 A 
ATOM     93  C   UNL A   1      41.665  28.193  33.289  1.00  0.00     0.010 A 
ATOM     94  C   UNL A   1      41.830  28.853  36.003  1.00  0.00     0.020 A 
ATOM     95  C   UNL A   1      41.694  27.175  34.256  1.00  0.00     0.020 A 
ATOM     96  C   UNL A   1      41.799  27.516  35.606  1.00  0.00     0.054 A 
BRANCH  96  97
ATOM     97  S   UNL A   1      41.938  26.247  36.896  1.00  0.00     0.124 S 
ATOM     98  O   UNL A   1      42.331  25.068  36.127  1.00  0.00    -0.237 OA
ATOM     99  O   UNL A   1      42.973  26.793  37.771  1.00  0.00    -0.237 OA
ATOM    100  O   UNL A   1      40.600  26.190  37.482  1.00  0.00    -0.744 OA
ENDBRANCH  96  97
ENDBRANCH  70  91
ENDBRANCH  44  45
ENDBRANCH  36  39
ENDBRANCH  34  35
ENDBRANCH  33  34
ENDBRANCH   1  33
TORSDOF 18
ENDMDL
MODEL 2
REMARK VINA RESULT:     -12.8      1.619      2.301
REMARK SMILES CC[C@@H](Sc1nnc2ccc3ccccc3n12)C(=O)Nc1cccc(C(=O)NCCCNC(=O)c2ccc(-c3c4nc(c(-c5ccc(S(=O)(=O)[O-])cc5)c5ccc([nH]5)c(-c5ccc(S(=O)(=O)[O-])cc5)c5nc(c(-c6ccc(S(=O)(=O)[O-])cc6)c6ccc3[nH]6)C=C5)C=C4)cc2)c1
REMARK SMILES IDX 29 1 28 2 26 3 27 4 25 6 21 7 22 8 95 9 23 10 24 11 20 12
REMARK SMILES IDX 18 13 19 14 3 16 2 17 1 18 4 19 5 20 6 21 17 22 7 23 8 24
REMARK SMILES IDX 16 25 9 26 11 27 15 28 10 29 12 30 14 31 13 32 30 33 31 34
REMARK SMILES IDX 32 35 33 36 34 38 35 39 36 40 94 41 37 42 93 43 38 44 39 45
REMARK SMILES IDX 40 46 87 47 41 48 92 49 86 50 88 51 42 52 91 53 85 54 84 55
REMARK SMILES IDX 43 57 73 58 54 59 72 60 55 61 58 62 71 63 89 64 56 65 57 66
REMARK SMILES IDX 70 68 90 69 59 70 44 71 45 72 53 73 46 74 52 75 47 76 48 77
REMARK SMILES IDX 49 78 50 79 51 80 74 81 75 82 83 83 76 84 82 85 77 86 78 87
REMARK SMILES IDX 79 88 80 89 81 90 60 91 61 92 69 93 62 94 68 95 63 96 64 97
REMARK SMILES IDX 65 98 66 99 67 100
REMARK H PARENT 28 5 20 15 32 37 88 56 58 67
REMARK Flexibility Score: inf
ROOT
ATOM      1  C   UNL A   1      38.171  21.169  25.289  1.00  0.00     0.118 C 
ENDROOT
BRANCH   1   2
ATOM      2  N   UNL A   1      37.788  22.563  25.410  1.00  0.00    -0.352 N 
ATOM      3  C   UNL A   1      36.649  23.286  25.165  1.00  0.00     0.251 C 
ATOM      4  O   UNL A   1      36.695  24.477  25.490  1.00  0.00    -0.269 OA
ATOM      5  H   UNL A   1      38.522  23.125  25.749  1.00  0.00     0.163 HD
BRANCH   3   6
ATOM      6  C   UNL A   1      35.400  22.776  24.518  1.00  0.00     0.041 A 
ATOM      7  C   UNL A   1      33.610  22.810  22.881  1.00  0.00     0.041 A 
ATOM      8  C   UNL A   1      32.965  21.777  23.543  1.00  0.00     0.026 A 
ATOM      9  C   UNL A   1      34.895  23.174  23.282  1.00  0.00     0.040 A 
ATOM     10  C   UNL A   1      33.475  21.297  24.742  1.00  0.00     0.003 A 
ATOM     11  C   UNL A   1      34.652  21.838  25.255  1.00  0.00     0.014 A 
BRANCH   7  12
ATOM     12  N   UNL A   1      33.030  23.564  21.844  1.00  0.00    -0.325 N 
ATOM     13  C   UNL A   1      33.116  24.935  21.686  1.00  0.00     0.237 C 
ATOM     14  O   UNL A   1      33.058  25.355  20.525  1.00  0.00    -0.273 OA
ATOM     15  H   UNL A   1      32.514  23.069  21.168  1.00  0.00     0.169 HD
BRANCH  13  16
ATOM     16  C   UNL A   1      33.278  25.947  22.848  1.00  0.00     0.144 C 
BRANCH  16  17
ATOM     17  C   UNL A   1      33.550  27.318  22.193  1.00  0.00     0.021 C 
ATOM     18  C   UNL A   1      34.165  28.453  22.975  1.00  0.00     0.005 C 
ENDBRANCH  16  17
BRANCH  16  19
ATOM     19  S   UNL A   1      32.015  25.510  24.146  1.00  0.00    -0.072 SA
BRANCH  19  20
ATOM     20  C   UNL A   1      32.069  26.788  25.314  1.00  0.00     0.196 A 
ATOM     21  N   UNL A   1      32.836  26.688  26.373  1.00  0.00    -0.122 NA
ATOM     22  N   UNL A   1      31.589  28.095  25.221  1.00  0.00    -0.270 N 
ATOM     23  N   UNL A   1      32.899  27.880  27.011  1.00  0.00    -0.129 NA
ATOM     24  C   UNL A   1      32.191  28.731  26.312  1.00  0.00     0.161 A 
ATOM     25  C   UNL A   1      30.715  28.804  24.340  1.00  0.00     0.057 A 
ATOM     26  C   UNL A   1      32.012  30.113  26.535  1.00  0.00     0.050 A 
ATOM     27  C   UNL A   1      30.542  30.188  24.605  1.00  0.00    -0.001 A 
ATOM     28  C   UNL A   1      30.011  28.223  23.285  1.00  0.00     0.027 A 
ATOM     29  C   UNL A   1      31.234  30.834  25.724  1.00  0.00     0.014 A 
ATOM     30  C   UNL A   1      29.692  30.966  23.811  1.00  0.00     0.010 A 
ATOM     31  C   UNL A   1      29.157  29.016  22.500  1.00  0.00     0.002 A 
ATOM     32  C   UNL A   1      28.999  30.379  22.758  1.00  0.00     0.001 A 
ENDBRANCH  19  20
ENDBRANCH  16  19
ENDBRANCH  13  16
ENDBRANCH   7  12
ENDBRANCH   3   6
ENDBRANCH   1   2
BRANCH   1  33
ATOM     33  C   UNL A   1      39.542  20.850  25.862  1.00  0.00     0.042 C 
BRANCH  33  34
ATOM     34  C   UNL A   1      40.364  22.049  26.314  1.00  0.00     0.118 C 
BRANCH  34  35
ATOM     35  N   UNL A   1      41.567  22.290  25.544  1.00  0.00    -0.352 N 
ATOM     36  C   UNL A   1      42.545  23.243  25.546  1.00  0.00     0.251 C 
ATOM     37  H   UNL A   1      41.716  21.601  24.856  1.00  0.00     0.163 HD
ATOM     38  O   UNL A   1      43.533  22.988  24.851  1.00  0.00    -0.269 OA
BRANCH  36  39
ATOM     39  C   UNL A   1      42.481  24.559  26.243  1.00  0.00     0.039 A 
ATOM     40  C   UNL A   1      43.139  24.892  27.425  1.00  0.00     0.014 A 
ATOM     41  C   UNL A   1      41.590  25.499  25.688  1.00  0.00     0.014 A 
ATOM     42  C   UNL A   1      42.807  26.061  28.112  1.00  0.00     0.010 A 
ATOM     43  C   UNL A   1      41.283  26.683  26.350  1.00  0.00     0.010 A 
ATOM     44  C   UNL A   1      41.844  26.934  27.596  1.00  0.00    -0.014 A 
BRANCH  44  45
ATOM     45  C   UNL A   1      41.502  28.127  28.369  1.00  0.00     0.031 A 
ATOM     46  C   UNL A   1      42.494  29.241  28.316  1.00  0.00     0.074 A 
ATOM     47  C   UNL A   1      40.337  28.287  29.031  1.00  0.00     0.049 A 
ATOM     48  N   UNL A   1      43.170  29.751  29.293  1.00  0.00    -0.248 NA
ATOM     49  C   UNL A   1      42.838  29.793  26.998  1.00  0.00     0.031 C 
ATOM     50  C   UNL A   1      39.134  27.452  28.987  1.00  0.00     0.029 A 
ATOM     51  N   UNL A   1      39.958  29.323  29.830  1.00  0.00    -0.354 N 
ATOM     52  C   UNL A   1      43.937  30.781  28.749  1.00  0.00     0.074 A 
ATOM     53  C   UNL A   1      43.763  30.701  27.319  1.00  0.00     0.031 C 
ATOM     54  C   UNL A   1      38.096  28.135  29.527  1.00  0.00     0.029 A 
ATOM     55  C   UNL A   1      38.596  29.376  30.095  1.00  0.00     0.049 A 
ATOM     56  H   UNL A   1      40.597  29.981  30.191  1.00  0.00     0.167 HD
ATOM     57  C   UNL A   1      44.576  31.708  29.517  1.00  0.00     0.031 A 
ATOM     58  C   UNL A   1      37.926  30.401  30.681  1.00  0.00     0.031 A 
ATOM     59  C   UNL A   1      44.647  31.310  30.894  1.00  0.00     0.049 A 
ATOM     60  C   UNL A   1      38.920  31.183  31.456  1.00  0.00     0.074 A 
ATOM     61  C   UNL A   1      45.278  30.284  31.569  1.00  0.00     0.029 A 
ATOM     62  N   UNL A   1      43.700  31.807  31.757  1.00  0.00    -0.354 N 
ATOM     63  N   UNL A   1      39.535  30.729  32.512  1.00  0.00    -0.248 NA
ATOM     64  C   UNL A   1      39.544  32.328  30.811  1.00  0.00     0.031 C 
ATOM     65  C   UNL A   1      44.358  29.897  32.583  1.00  0.00     0.029 A 
ATOM     66  C   UNL A   1      43.255  30.752  32.511  1.00  0.00     0.049 A 
ATOM     67  H   UNL A   1      43.399  32.742  31.821  1.00  0.00     0.167 HD
ATOM     68  C   UNL A   1      40.821  31.237  32.415  1.00  0.00     0.074 A 
ATOM     69  C   UNL A   1      40.741  32.286  31.400  1.00  0.00     0.031 C 
ATOM     70  C   UNL A   1      41.888  30.587  32.965  1.00  0.00     0.031 A 
BRANCH  57  71
ATOM     71  C   UNL A   1      44.952  33.094  29.066  1.00  0.00    -0.014 A 
ATOM     72  C   UNL A   1      46.203  33.392  28.489  1.00  0.00     0.010 A 
ATOM     73  C   UNL A   1      43.962  34.098  29.002  1.00  0.00     0.010 A 
ATOM     74  C   UNL A   1      46.471  34.636  27.910  1.00  0.00     0.020 A 
ATOM     75  C   UNL A   1      44.207  35.334  28.386  1.00  0.00     0.020 A 
ATOM     76  C   UNL A   1      45.468  35.597  27.852  1.00  0.00     0.054 A 
BRANCH  76  77
ATOM     77  S   UNL A   1      45.825  37.159  27.011  1.00  0.00     0.124 S 
ATOM     78  O   UNL A   1      46.629  37.861  28.010  1.00  0.00    -0.237 OA
ATOM     79  O   UNL A   1      46.546  36.717  25.821  1.00  0.00    -0.237 OA
ATOM     80  O   UNL A   1      44.503  37.729  26.762  1.00  0.00    -0.744 OA
ENDBRANCH  76  77
ENDBRANCH  57  71
BRANCH  58  81
ATOM     81  C   UNL A   1      36.657  31.018  30.210  1.00  0.00    -0.014 A 
ATOM     82  C   UNL A   1      36.521  31.406  28.862  1.00  0.00     0.010 A 
ATOM     83  C   UNL A   1      35.741  31.546  31.144  1.00  0.00     0.010 A 
ATOM     84  C   UNL A   1      35.588  32.375  28.478  1.00  0.00     0.020 A 
ATOM     85  C   UNL A   1      34.804  32.522  30.765  1.00  0.00     0.020 A 
ATOM     86  C   UNL A   1      34.772  32.964  29.441  1.00  0.00     0.054 A 
BRANCH  86  87
ATOM     87  S   UNL A   1      33.763  34.395  28.957  1.00  0.00     0.124 S 
ATOM     88  O   UNL A   1      32.821  33.790  28.014  1.00  0.00    -0.237 OA
ATOM     89  O   UNL A   1      33.181  34.816  30.233  1.00  0.00    -0.237 OA
ATOM     90  O   UNL A   1      34.722  35.320  28.377  1.00  0.00    -0.744 OA
ENDBRANCH  86  87
ENDBRANCH  58  81
BRANCH  70  91
ATOM     91  C   UNL A   1      41.642  29.430  33.912  1.00  0.00    -0.014 A 
ATOM     92  C   UNL A   1      41.721  29.700  35.292  1.00  0.00     0.010 A 
ATOM     93  C   UNL A   1      41.553  28.086  33.499  1.00  0.00     0.010 A 
ATOM     94  C   UNL A   1      41.750  28.666  36.228  1.00  0.00     0.020 A 
ATOM     95  C   UNL A   1      41.553  27.041  34.437  1.00  0.00     0.020 A 
ATOM     96  C   UNL A   1      41.675  27.341  35.796  1.00  0.00     0.054 A 
BRANCH  96  97
ATOM     97  S   UNL A   1      41.778  26.034  37.050  1.00  0.00     0.124 S 
ATOM     98  O   UNL A   1      42.835  26.531  37.927  1.00  0.00    -0.237 OA
ATOM     99  O   UNL A   1      40.436  26.040  37.628  1.00  0.00    -0.237 OA
ATOM    100  O   UNL A   1      42.116  24.835  36.284  1.00  0.00    -0.744 OA
ENDBRANCH  96  97
ENDBRANCH  70  91
ENDBRANCH  44  45
ENDBRANCH  36  39
ENDBRANCH  34  35
ENDBRANCH  33  34
ENDBRANCH   1  33
TORSDOF 18
ENDMDL
MODEL 3
REMARK VINA RESULT:     -12.8      1.246      2.037
REMARK SMILES CC[C@@H](Sc1nnc2ccc3ccccc3n12)C(=O)Nc1cccc(C(=O)NCCCNC(=O)c2ccc(-c3c4nc(c(-c5ccc(S(=O)(=O)[O-])cc5)c5ccc([nH]5)c(-c5ccc(S(=O)(=O)[O-])cc5)c5nc(c(-c6ccc(S(=O)(=O)[O-])cc6)c6ccc3[nH]6)C=C5)C=C4)cc2)c1
REMARK SMILES IDX 29 1 28 2 26 3 27 4 25 6 21 7 22 8 95 9 23 10 24 11 20 12
REMARK SMILES IDX 18 13 19 14 3 16 2 17 1 18 4 19 5 20 6 21 17 22 7 23 8 24
REMARK SMILES IDX 16 25 9 26 11 27 15 28 10 29 12 30 14 31 13 32 30 33 31 34
REMARK SMILES IDX 32 35 33 36 34 38 35 39 36 40 94 41 37 42 93 43 38 44 39 45
REMARK SMILES IDX 40 46 87 47 41 48 92 49 86 50 88 51 42 52 91 53 85 54 84 55
REMARK SMILES IDX 43 57 73 58 54 59 72 60 55 61 58 62 71 63 89 64 56 65 57 66
REMARK SMILES IDX 70 68 90 69 59 70 44 71 45 72 53 73 46 74 52 75 47 76 48 77
REMARK SMILES IDX 49 78 50 79 51 80 74 81 75 82 83 83 76 84 82 85 77 86 78 87
REMARK SMILES IDX 79 88 80 89 81 90 60 91 61 92 69 93 62 94 68 95 63 96 64 97
REMARK SMILES IDX 65 98 66 99 67 100
REMARK H PARENT 28 5 20 15 32 37 88 56 58 67
REMARK Flexibility Score: inf
ROOT
ATOM      1  C   UNL A   1      39.870  21.475  26.503  1.00  0.00     0.118 C 
ENDROOT
BRANCH   1   2
ATOM      2  N   UNL A   1      39.162  22.705  26.202  1.00  0.00    -0.352 N 
ATOM      3  C   UNL A   1      37.884  23.027  25.825  1.00  0.00     0.251 C 
ATOM      4  O   UNL A   1      37.641  24.236  25.749  1.00  0.00    -0.269 OA
ATOM      5  H   UNL A   1      39.738  23.499  26.287  1.00  0.00     0.163 HD
BRANCH   3   6
ATOM      6  C   UNL A   1      36.797  22.063  25.471  1.00  0.00     0.041 A 
ATOM      7  C   UNL A   1      34.500  21.286  25.386  1.00  0.00     0.041 A 
ATOM      8  C   UNL A   1      34.917  20.064  24.882  1.00  0.00     0.026 A 
ATOM      9  C   UNL A   1      35.427  22.319  25.510  1.00  0.00     0.040 A 
ATOM     10  C   UNL A   1      36.273  19.792  24.755  1.00  0.00     0.003 A 
ATOM     11  C   UNL A   1      37.205  20.766  25.107  1.00  0.00     0.014 A 
BRANCH   7  12
ATOM     12  N   UNL A   1      33.193  21.547  25.836  1.00  0.00    -0.325 N 
ATOM     13  C   UNL A   1      32.084  21.768  25.039  1.00  0.00     0.237 C 
ATOM     14  O   UNL A   1      30.994  21.436  25.515  1.00  0.00    -0.273 OA
ATOM     15  H   UNL A   1      33.054  21.573  26.810  1.00  0.00     0.169 HD
BRANCH  13  16
ATOM     16  C   UNL A   1      32.131  22.392  23.621  1.00  0.00     0.144 C 
BRANCH  16  17
ATOM     17  C   UNL A   1      31.836  21.243  22.633  1.00  0.00     0.021 C 
ATOM     18  C   UNL A   1      32.261  19.825  22.931  1.00  0.00     0.005 C 
ENDBRANCH  16  17
BRANCH  16  19
ATOM     19  S   UNL A   1      31.325  24.069  23.724  1.00  0.00    -0.072 SA
BRANCH  19  20
ATOM     20  C   UNL A   1      32.474  25.191  23.075  1.00  0.00     0.196 A 
ATOM     21  N   UNL A   1      33.031  24.970  21.907  1.00  0.00    -0.122 NA
ATOM     22  N   UNL A   1      32.773  26.490  23.484  1.00  0.00    -0.270 N 
ATOM     23  N   UNL A   1      33.701  26.074  21.501  1.00  0.00    -0.129 NA
ATOM     24  C   UNL A   1      33.521  26.995  22.415  1.00  0.00     0.161 A 
ATOM     25  C   UNL A   1      32.496  27.291  24.636  1.00  0.00     0.057 A 
ATOM     26  C   UNL A   1      33.965  28.334  22.407  1.00  0.00     0.050 A 
ATOM     27  C   UNL A   1      32.973  28.628  24.603  1.00  0.00    -0.001 A 
ATOM     28  C   UNL A   1      31.832  26.835  25.775  1.00  0.00     0.027 A 
ATOM     29  C   UNL A   1      33.705  29.139  23.441  1.00  0.00     0.014 A 
ATOM     30  C   UNL A   1      32.768  29.485  25.690  1.00  0.00     0.010 A 
ATOM     31  C   UNL A   1      31.639  27.706  26.860  1.00  0.00     0.002 A 
ATOM     32  C   UNL A   1      32.101  29.023  26.819  1.00  0.00     0.001 A 
ENDBRANCH  19  20
ENDBRANCH  16  19
ENDBRANCH  13  16
ENDBRANCH   7  12
ENDBRANCH   3   6
ENDBRANCH   1   2
BRANCH   1  33
ATOM     33  C   UNL A   1      40.805  21.572  27.698  1.00  0.00     0.042 C 
BRANCH  33  34
ATOM     34  C   UNL A   1      42.292  21.531  27.377  1.00  0.00     0.118 C 
BRANCH  34  35
ATOM     35  N   UNL A   1      42.641  21.973  26.043  1.00  0.00    -0.352 N 
ATOM     36  C   UNL A   1      43.004  23.164  25.480  1.00  0.00     0.251 C 
ATOM     37  H   UNL A   1      42.611  21.241  25.385  1.00  0.00     0.163 HD
ATOM     38  O   UNL A   1      43.422  23.094  24.320  1.00  0.00    -0.269 OA
BRANCH  36  39
ATOM     39  C   UNL A   1      42.868  24.507  26.111  1.00  0.00     0.039 A 
ATOM     40  C   UNL A   1      43.573  24.964  27.222  1.00  0.00     0.014 A 
ATOM     41  C   UNL A   1      41.858  25.331  25.577  1.00  0.00     0.014 A 
ATOM     42  C   UNL A   1      43.183  26.136  27.872  1.00  0.00     0.010 A 
ATOM     43  C   UNL A   1      41.490  26.520  26.198  1.00  0.00     0.010 A 
ATOM     44  C   UNL A   1      42.110  26.890  27.385  1.00  0.00    -0.014 A 
BRANCH  44  45
ATOM     45  C   UNL A   1      41.715  28.091  28.120  1.00  0.00     0.031 A 
ATOM     46  C   UNL A   1      42.662  29.241  28.041  1.00  0.00     0.074 A 
ATOM     47  C   UNL A   1      40.539  28.224  28.768  1.00  0.00     0.049 A 
ATOM     48  N   UNL A   1      43.309  29.806  29.007  1.00  0.00    -0.248 NA
ATOM     49  C   UNL A   1      42.995  29.767  26.710  1.00  0.00     0.031 C 
ATOM     50  C   UNL A   1      39.370  27.341  28.740  1.00  0.00     0.029 A 
ATOM     51  N   UNL A   1      40.112  29.267  29.533  1.00  0.00    -0.354 N 
ATOM     52  C   UNL A   1      44.039  30.850  28.439  1.00  0.00     0.074 A 
ATOM     53  C   UNL A   1      43.881  30.720  27.011  1.00  0.00     0.031 C 
ATOM     54  C   UNL A   1      38.301  27.997  29.251  1.00  0.00     0.029 A 
ATOM     55  C   UNL A   1      38.747  29.273  29.786  1.00  0.00     0.049 A 
ATOM     56  H   UNL A   1      40.721  29.960  29.878  1.00  0.00     0.167 HD
ATOM     57  C   UNL A   1      44.634  31.824  29.183  1.00  0.00     0.031 A 
ATOM     58  C   UNL A   1      38.032  30.287  30.336  1.00  0.00     0.031 A 
ATOM     59  C   UNL A   1      44.709  31.469  30.573  1.00  0.00     0.049 A 
ATOM     60  C   UNL A   1      38.987  31.131  31.095  1.00  0.00     0.074 A 
ATOM     61  C   UNL A   1      45.374  30.490  31.282  1.00  0.00     0.029 A 
ATOM     62  N   UNL A   1      43.736  31.954  31.413  1.00  0.00    -0.354 N 
ATOM     63  N   UNL A   1      39.610  30.733  32.168  1.00  0.00    -0.248 NA
ATOM     64  C   UNL A   1      39.570  32.281  30.421  1.00  0.00     0.031 C 
ATOM     65  C   UNL A   1      44.461  30.097  32.300  1.00  0.00     0.029 A 
ATOM     66  C   UNL A   1      43.326  30.904  32.195  1.00  0.00     0.049 A 
ATOM     67  H   UNL A   1      43.397  32.878  31.446  1.00  0.00     0.167 HD
ATOM     68  C   UNL A   1      40.876  31.289  32.066  1.00  0.00     0.074 A 
ATOM     69  C   UNL A   1      40.763  32.303  31.019  1.00  0.00     0.031 C 
ATOM     70  C   UNL A   1      41.963  30.699  32.643  1.00  0.00     0.031 A 
BRANCH  57  71
ATOM     71  C   UNL A   1      44.959  33.209  28.694  1.00  0.00    -0.014 A 
ATOM     72  C   UNL A   1      43.965  34.133  28.310  1.00  0.00     0.010 A 
ATOM     73  C   UNL A   1      46.275  33.703  28.822  1.00  0.00     0.010 A 
ATOM     74  C   UNL A   1      44.267  35.469  28.033  1.00  0.00     0.020 A 
ATOM     75  C   UNL A   1      46.581  35.051  28.588  1.00  0.00     0.020 A 
ATOM     76  C   UNL A   1      45.572  35.924  28.184  1.00  0.00     0.054 A 
BRANCH  76  77
ATOM     77  S   UNL A   1      45.904  37.682  27.907  1.00  0.00     0.124 S 
ATOM     78  O   UNL A   1      46.159  37.715  26.468  1.00  0.00    -0.237 OA
ATOM     79  O   UNL A   1      44.659  38.308  28.339  1.00  0.00    -0.237 OA
ATOM     80  O   UNL A   1      47.064  37.952  28.752  1.00  0.00    -0.744 OA
ENDBRANCH  76  77
ENDBRANCH  57  71
BRANCH  58  81
ATOM     81  C   UNL A   1      36.743  30.839  29.838  1.00  0.00    -0.014 A 
ATOM     82  C   UNL A   1      36.606  31.190  28.479  1.00  0.00     0.010 A 
ATOM     83  C   UNL A   1      35.795  31.349  30.749  1.00  0.00     0.010 A 
ATOM     84  C   UNL A   1      35.638  32.109  28.063  1.00  0.00     0.020 A 
ATOM     85  C   UNL A   1      34.822  32.276  30.337  1.00  0.00     0.020 A 
ATOM     86  C   UNL A   1      34.786  32.685  29.003  1.00  0.00     0.054 A 
BRANCH  86  87
ATOM     87  S   UNL A   1      33.724  34.061  28.475  1.00  0.00     0.124 S 
ATOM     88  O   UNL A   1      33.171  34.517  29.751  1.00  0.00    -0.237 OA
ATOM     89  O   UNL A   1      34.682  34.975  27.850  1.00  0.00    -0.237 OA
ATOM     90  O   UNL A   1      32.774  33.441  27.567  1.00  0.00    -0.744 OA
ENDBRANCH  86  87
ENDBRANCH  58  81
BRANCH  70  91
ATOM     91  C   UNL A   1      41.755  29.561  33.622  1.00  0.00    -0.014 A 
ATOM     92  C   UNL A   1      41.753  29.884  34.993  1.00  0.00     0.010 A 
ATOM     93  C   UNL A   1      41.778  28.200  33.257  1.00  0.00     0.010 A 
ATOM     94  C   UNL A   1      41.810  28.889  35.968  1.00  0.00     0.020 A 
ATOM     95  C   UNL A   1      41.807  27.192  34.234  1.00  0.00     0.020 A 
ATOM     96  C   UNL A   1      41.847  27.548  35.584  1.00  0.00     0.054 A 
BRANCH  96  97
ATOM     97  S   UNL A   1      41.983  26.296  36.891  1.00  0.00     0.124 S 
ATOM     98  O   UNL A   1      43.032  26.852  37.742  1.00  0.00    -0.237 OA
ATOM     99  O   UNL A   1      40.643  26.297  37.474  1.00  0.00    -0.237 OA
ATOM    100  O   UNL A   1      42.344  25.074  36.174  1.00  0.00    -0.744 OA
ENDBRANCH  96  97
ENDBRANCH  70  91
ENDBRANCH  44  45
ENDBRANCH  36  39
ENDBRANCH  34  35
ENDBRANCH  33  34
ENDBRANCH   1  33
TORSDOF 18
ENDMDL
