MODEL 1
REMARK VINA RESULT:     -11.0      0.000      0.000
REMARK SMILES C#CCNC(=O)N[C@@]1(C(=O)NCCCNC(=O)c2ccc(-c3c4nc(c(-c5ccc(S(=O)(=O)[O-])cc5)c5ccc([nH]5)c(-c5ccc(S(=O)(=O)[O-])cc5)c5nc(c(-c6ccc(S(=O)(=O)[O-])cc6)c6ccc3[nH]6)C=C5)C=C4)cc2)CCc2ccccc21
REMARK SMILES IDX 13 1 12 2 11 3 9 4 10 5 8 7 78 8 85 9 79 10 80 11 84 12
REMARK SMILES IDX 81 13 83 14 82 15 7 16 4 17 5 18 6 20 3 22 2 23 1 24 14 25
REMARK SMILES IDX 15 26 16 27 17 29 18 30 19 31 77 32 20 33 76 34 21 35 22 36
REMARK SMILES IDX 23 37 70 38 24 39 75 40 69 41 71 42 25 43 74 44 68 45 67 46
REMARK SMILES IDX 26 48 56 49 37 50 55 51 38 52 41 53 54 54 72 55 39 56 40 57
REMARK SMILES IDX 53 59 73 60 42 61 27 62 28 63 36 64 29 65 35 66 30 67 31 68
REMARK SMILES IDX 32 69 33 70 34 71 57 72 58 73 66 74 59 75 65 76 60 77 61 78
REMARK SMILES IDX 62 79 63 80 64 81 43 82 44 83 52 84 45 85 51 86 46 87 47 88
REMARK SMILES IDX 48 89 49 90 50 91
REMARK H PARENT 11 6 4 19 7 21 15 28 71 47 41 58
REMARK Flexibility Score: inf
ROOT
ATOM      1  C   UNL A   1      32.275  28.349  27.098  1.00  0.00     0.042 C 
ENDROOT
BRANCH   1   2
ATOM      2  C   UNL A   1      31.899  29.018  25.785  1.00  0.00     0.117 C 
BRANCH   2   3
ATOM      3  N   UNL A   1      32.929  28.777  24.786  1.00  0.00    -0.354 N 
ATOM      4  C   UNL A   1      33.464  27.795  24.034  1.00  0.00     0.250 C 
ATOM      5  O   UNL A   1      34.030  28.381  23.090  1.00  0.00    -0.272 OA
ATOM      6  H   UNL A   1      33.395  29.622  24.593  1.00  0.00     0.163 HD
BRANCH   4   7
ATOM      7  C   UNL A   1      33.325  26.186  24.109  1.00  0.00     0.146 C 
ATOM      8  C   UNL A   1      31.927  25.928  24.743  1.00  0.00     0.048 C 
ATOM      9  C   UNL A   1      34.120  25.145  24.950  1.00  0.00    -0.010 A 
ATOM     10  C   UNL A   1      31.894  24.712  25.654  1.00  0.00     0.039 C 
ATOM     11  C   UNL A   1      33.344  24.512  25.925  1.00  0.00    -0.042 A 
ATOM     12  C   UNL A   1      35.257  24.402  24.618  1.00  0.00     0.007 A 
ATOM     13  C   UNL A   1      33.820  23.507  26.779  1.00  0.00     0.004 A 
ATOM     14  C   UNL A   1      35.758  23.356  25.409  1.00  0.00     0.000 A 
ATOM     15  C   UNL A   1      35.071  22.958  26.541  1.00  0.00     0.000 A 
BRANCH   7  16
ATOM     16  N   UNL A   1      33.541  25.849  22.698  1.00  0.00    -0.320 N 
ATOM     17  N   UNL A   1      31.591  26.756  21.581  1.00  0.00    -0.327 N 
ATOM     18  C   UNL A   1      32.777  26.097  21.601  1.00  0.00     0.316 C 
ATOM     19  H   UNL A   1      31.339  27.004  20.661  1.00  0.00     0.166 HD
ATOM     20  O   UNL A   1      33.230  25.724  20.513  1.00  0.00    -0.249 OA
ATOM     21  H   UNL A   1      34.378  25.364  22.515  1.00  0.00     0.166 HD
BRANCH  17  22
ATOM     22  C   UNL A   1      30.571  27.202  22.549  1.00  0.00     0.207 C 
BRANCH  22  23
ATOM     23  C   UNL A   1      30.193  28.623  22.469  1.00  0.00    -0.085 C 
ATOM     24  C   UNL A   1      29.623  29.677  22.407  1.00  0.00     0.006 C 
ENDBRANCH  22  23
ENDBRANCH  17  22
ENDBRANCH   7  16
ENDBRANCH   4   7
ENDBRANCH   2   3
ENDBRANCH   1   2
BRANCH   1  25
ATOM     25  C   UNL A   1      33.672  28.747  27.578  1.00  0.00     0.118 C 
BRANCH  25  26
ATOM     26  N   UNL A   1      33.752  30.163  27.930  1.00  0.00    -0.352 N 
ATOM     27  C   UNL A   1      34.763  30.855  28.550  1.00  0.00     0.251 C 
ATOM     28  H   UNL A   1      32.965  30.700  27.686  1.00  0.00     0.163 HD
ATOM     29  O   UNL A   1      34.550  31.971  29.012  1.00  0.00    -0.269 OA
BRANCH  27  30
ATOM     30  C   UNL A   1      36.097  30.237  28.668  1.00  0.00     0.039 A 
ATOM     31  C   UNL A   1      36.934  30.195  27.552  1.00  0.00     0.014 A 
ATOM     32  C   UNL A   1      36.524  29.722  29.895  1.00  0.00     0.014 A 
ATOM     33  C   UNL A   1      38.240  29.724  27.693  1.00  0.00     0.010 A 
ATOM     34  C   UNL A   1      37.848  29.333  30.053  1.00  0.00     0.010 A 
ATOM     35  C   UNL A   1      38.724  29.344  28.958  1.00  0.00    -0.014 A 
BRANCH  35  36
ATOM     36  C   UNL A   1      40.154  29.011  29.172  1.00  0.00     0.031 A 
ATOM     37  C   UNL A   1      41.111  30.057  29.670  1.00  0.00     0.074 A 
ATOM     38  C   UNL A   1      40.602  27.787  28.829  1.00  0.00     0.049 A 
ATOM     39  N   UNL A   1      42.407  29.978  29.825  1.00  0.00    -0.248 NA
ATOM     40  C   UNL A   1      40.542  31.371  30.017  1.00  0.00     0.031 C 
ATOM     41  C   UNL A   1      39.773  26.698  28.302  1.00  0.00     0.029 A 
ATOM     42  N   UNL A   1      41.867  27.253  28.855  1.00  0.00    -0.354 N 
ATOM     43  C   UNL A   1      42.811  31.229  30.274  1.00  0.00     0.074 A 
ATOM     44  C   UNL A   1      41.630  32.064  30.321  1.00  0.00     0.031 C 
ATOM     45  C   UNL A   1      40.546  25.624  28.080  1.00  0.00     0.029 A 
ATOM     46  C   UNL A   1      41.931  25.962  28.388  1.00  0.00     0.049 A 
ATOM     47  H   UNL A   1      42.654  27.750  29.178  1.00  0.00     0.167 HD
ATOM     48  C   UNL A   1      44.053  31.639  30.628  1.00  0.00     0.031 A 
ATOM     49  C   UNL A   1      42.988  25.145  28.204  1.00  0.00     0.031 A 
ATOM     50  C   UNL A   1      45.223  30.802  30.570  1.00  0.00     0.049 A 
ATOM     51  C   UNL A   1      44.363  25.643  28.553  1.00  0.00     0.074 A 
ATOM     52  C   UNL A   1      46.515  31.108  30.955  1.00  0.00     0.029 A 
ATOM     53  N   UNL A   1      45.247  29.504  30.081  1.00  0.00    -0.354 N 
ATOM     54  N   UNL A   1      44.714  26.803  29.056  1.00  0.00    -0.248 NA
ATOM     55  C   UNL A   1      45.484  24.725  28.314  1.00  0.00     0.031 C 
ATOM     56  C   UNL A   1      47.335  30.024  30.630  1.00  0.00     0.029 A 
ATOM     57  C   UNL A   1      46.541  29.012  30.114  1.00  0.00     0.049 A 
ATOM     58  H   UNL A   1      44.461  29.006  29.760  1.00  0.00     0.167 HD
ATOM     59  C   UNL A   1      46.094  26.746  29.210  1.00  0.00     0.074 A 
ATOM     60  C   UNL A   1      46.510  25.429  28.772  1.00  0.00     0.031 C 
ATOM     61  C   UNL A   1      46.942  27.699  29.669  1.00  0.00     0.031 A 
BRANCH  48  62
ATOM     62  C   UNL A   1      44.216  33.064  31.092  1.00  0.00    -0.014 A 
ATOM     63  C   UNL A   1      44.125  33.403  32.455  1.00  0.00     0.010 A 
ATOM     64  C   UNL A   1      44.522  34.071  30.158  1.00  0.00     0.010 A 
ATOM     65  C   UNL A   1      44.298  34.727  32.868  1.00  0.00     0.020 A 
ATOM     66  C   UNL A   1      44.729  35.389  30.571  1.00  0.00     0.020 A 
ATOM     67  C   UNL A   1      44.601  35.712  31.923  1.00  0.00     0.054 A 
BRANCH  67  68
ATOM     68  S   UNL A   1      44.851  37.414  32.495  1.00  0.00     0.124 S 
ATOM     69  O   UNL A   1      45.340  37.205  33.856  1.00  0.00    -0.237 OA
ATOM     70  O   UNL A   1      45.836  37.927  31.547  1.00  0.00    -0.237 OA
ATOM     71  O   UNL A   1      43.523  38.014  32.397  1.00  0.00    -0.744 OA
ENDBRANCH  67  68
ENDBRANCH  48  62
BRANCH  49  72
ATOM     72  C   UNL A   1      42.785  23.779  27.646  1.00  0.00    -0.014 A 
ATOM     73  C   UNL A   1      42.790  22.652  28.487  1.00  0.00     0.010 A 
ATOM     74  C   UNL A   1      42.574  23.598  26.266  1.00  0.00     0.010 A 
ATOM     75  C   UNL A   1      42.607  21.371  27.958  1.00  0.00     0.020 A 
ATOM     76  C   UNL A   1      42.354  22.323  25.737  1.00  0.00     0.020 A 
ATOM     77  C   UNL A   1      42.384  21.216  26.586  1.00  0.00     0.054 A 
BRANCH  77  78
ATOM     78  S   UNL A   1      42.094  19.549  25.932  1.00  0.00     0.124 S 
ATOM     79  O   UNL A   1      42.286  18.720  27.117  1.00  0.00    -0.237 OA
ATOM     80  O   UNL A   1      40.722  19.641  25.439  1.00  0.00    -0.237 OA
ATOM     81  O   UNL A   1      43.113  19.406  24.894  1.00  0.00    -0.744 OA
ENDBRANCH  77  78
ENDBRANCH  49  72
BRANCH  61  82
ATOM     82  C   UNL A   1      48.408  27.357  29.738  1.00  0.00    -0.014 A 
ATOM     83  C   UNL A   1      49.298  27.776  28.734  1.00  0.00     0.010 A 
ATOM     84  C   UNL A   1      48.913  26.682  30.864  1.00  0.00     0.010 A 
ATOM     85  C   UNL A   1      50.665  27.513  28.848  1.00  0.00     0.020 A 
ATOM     86  C   UNL A   1      50.283  26.446  30.999  1.00  0.00     0.020 A 
ATOM     87  C   UNL A   1      51.150  26.858  29.986  1.00  0.00     0.054 A 
BRANCH  87  88
ATOM     88  S   UNL A   1      52.939  26.604  30.144  1.00  0.00     0.124 S 
ATOM     89  O   UNL A   1      53.018  25.693  31.283  1.00  0.00    -0.237 OA
ATOM     90  O   UNL A   1      53.293  26.024  28.851  1.00  0.00    -0.237 OA
ATOM     91  O   UNL A   1      53.462  27.947  30.384  1.00  0.00    -0.744 OA
ENDBRANCH  87  88
ENDBRANCH  61  82
ENDBRANCH  35  36
ENDBRANCH  27  30
ENDBRANCH  25  26
ENDBRANCH   1  25
TORSDOF 16
ENDMDL
MODEL 2
REMARK VINA RESULT:     -11.0      0.700      8.307
REMARK SMILES C#CCNC(=O)N[C@@]1(C(=O)NCCCNC(=O)c2ccc(-c3c4nc(c(-c5ccc(S(=O)(=O)[O-])cc5)c5ccc([nH]5)c(-c5ccc(S(=O)(=O)[O-])cc5)c5nc(c(-c6ccc(S(=O)(=O)[O-])cc6)c6ccc3[nH]6)C=C5)C=C4)cc2)CCc2ccccc21
REMARK SMILES IDX 13 1 12 2 11 3 9 4 10 5 8 7 78 8 85 9 79 10 80 11 84 12
REMARK SMILES IDX 81 13 83 14 82 15 7 16 4 17 5 18 6 20 3 22 2 23 1 24 14 25
REMARK SMILES IDX 15 26 16 27 17 29 18 30 19 31 77 32 20 33 76 34 21 35 22 36
REMARK SMILES IDX 23 37 70 38 24 39 75 40 69 41 71 42 25 43 74 44 68 45 67 46
REMARK SMILES IDX 26 48 56 49 37 50 55 51 38 52 41 53 54 54 72 55 39 56 40 57
REMARK SMILES IDX 53 59 73 60 42 61 27 62 28 63 36 64 29 65 35 66 30 67 31 68
REMARK SMILES IDX 32 69 33 70 34 71 57 72 58 73 66 74 59 75 65 76 60 77 61 78
REMARK SMILES IDX 62 79 63 80 64 81 43 82 44 83 52 84 45 85 51 86 46 87 47 88
REMARK SMILES IDX 48 89 49 90 50 91
REMARK H PARENT 11 6 4 19 7 21 15 28 71 47 41 58
REMARK Flexibility Score: inf
ROOT
ATOM      1  C   UNL A   1      32.262  28.221  27.051  1.00  0.00     0.042 C 
ENDROOT
BRANCH   1   2
ATOM      2  C   UNL A   1      31.871  28.899  25.747  1.00  0.00     0.117 C 
BRANCH   2   3
ATOM      3  N   UNL A   1      32.896  28.676  24.738  1.00  0.00    -0.354 N 
ATOM      4  C   UNL A   1      33.440  27.705  23.981  1.00  0.00     0.250 C 
ATOM      5  O   UNL A   1      33.988  28.301  23.032  1.00  0.00    -0.272 OA
ATOM      6  H   UNL A   1      33.346  29.529  24.542  1.00  0.00     0.163 HD
BRANCH   4   7
ATOM      7  C   UNL A   1      33.329  26.093  24.056  1.00  0.00     0.146 C 
ATOM      8  C   UNL A   1      31.938  25.811  24.694  1.00  0.00     0.048 C 
ATOM      9  C   UNL A   1      34.145  25.065  24.893  1.00  0.00    -0.010 A 
ATOM     10  C   UNL A   1      31.930  24.594  25.604  1.00  0.00     0.039 C 
ATOM     11  C   UNL A   1      33.384  24.419  25.870  1.00  0.00    -0.042 A 
ATOM     12  C   UNL A   1      35.294  24.343  24.557  1.00  0.00     0.007 A 
ATOM     13  C   UNL A   1      33.880  23.422  26.722  1.00  0.00     0.004 A 
ATOM     14  C   UNL A   1      35.815  23.305  25.346  1.00  0.00     0.000 A 
ATOM     15  C   UNL A   1      35.139  22.894  26.480  1.00  0.00     0.000 A 
BRANCH   7  16
ATOM     16  N   UNL A   1      33.546  25.761  22.643  1.00  0.00    -0.320 N 
ATOM     17  N   UNL A   1      31.595  26.667  21.528  1.00  0.00    -0.327 N 
ATOM     18  C   UNL A   1      32.783  26.011  21.547  1.00  0.00     0.316 C 
ATOM     19  H   UNL A   1      31.344  26.918  20.609  1.00  0.00     0.166 HD
ATOM     20  O   UNL A   1      33.237  25.642  20.458  1.00  0.00    -0.249 OA
ATOM     21  H   UNL A   1      34.384  25.277  22.459  1.00  0.00     0.166 HD
BRANCH  17  22
ATOM     22  C   UNL A   1      30.575  27.109  22.497  1.00  0.00     0.207 C 
BRANCH  22  23
ATOM     23  C   UNL A   1      30.183  28.526  22.412  1.00  0.00    -0.085 C 
ATOM     24  C   UNL A   1      29.604  29.575  22.346  1.00  0.00     0.006 C 
ENDBRANCH  22  23
ENDBRANCH  17  22
ENDBRANCH   7  16
ENDBRANCH   4   7
ENDBRANCH   2   3
ENDBRANCH   1   2
BRANCH   1  25
ATOM     25  C   UNL A   1      33.642  28.656  27.545  1.00  0.00     0.118 C 
BRANCH  25  26
ATOM     26  N   UNL A   1      33.690  30.081  27.867  1.00  0.00    -0.352 N 
ATOM     27  C   UNL A   1      34.691  30.812  28.456  1.00  0.00     0.251 C 
ATOM     28  H   UNL A   1      32.885  30.592  27.624  1.00  0.00     0.163 HD
ATOM     29  O   UNL A   1      34.455  31.932  28.899  1.00  0.00    -0.269 OA
BRANCH  27  30
ATOM     30  C   UNL A   1      36.043  30.233  28.566  1.00  0.00     0.039 A 
ATOM     31  C   UNL A   1      36.890  30.255  27.457  1.00  0.00     0.014 A 
ATOM     32  C   UNL A   1      36.476  29.690  29.779  1.00  0.00     0.014 A 
ATOM     33  C   UNL A   1      38.209  29.820  27.595  1.00  0.00     0.010 A 
ATOM     34  C   UNL A   1      37.810  29.338  29.936  1.00  0.00     0.010 A 
ATOM     35  C   UNL A   1      38.694  29.413  28.851  1.00  0.00    -0.014 A 
BRANCH  35  36
ATOM     36  C   UNL A   1      40.132  29.118  29.067  1.00  0.00     0.031 A 
ATOM     37  C   UNL A   1      40.691  27.767  28.718  1.00  0.00     0.074 A 
ATOM     38  C   UNL A   1      40.909  30.042  29.666  1.00  0.00     0.049 A 
ATOM     39  N   UNL A   1      41.893  27.298  28.925  1.00  0.00    -0.248 NA
ATOM     40  C   UNL A   1      39.774  26.813  28.073  1.00  0.00     0.031 C 
ATOM     41  C   UNL A   1      40.470  31.377  30.083  1.00  0.00     0.029 A 
ATOM     42  N   UNL A   1      42.229  29.998  30.043  1.00  0.00    -0.354 N 
ATOM     43  C   UNL A   1      41.877  25.993  28.448  1.00  0.00     0.074 A 
ATOM     44  C   UNL A   1      40.531  25.728  27.986  1.00  0.00     0.031 C 
ATOM     45  C   UNL A   1      41.505  32.030  30.633  1.00  0.00     0.029 A 
ATOM     46  C   UNL A   1      42.664  31.144  30.667  1.00  0.00     0.049 A 
ATOM     47  H   UNL A   1      42.809  29.218  29.883  1.00  0.00     0.167 HD
ATOM     48  C   UNL A   1      42.895  25.101  28.390  1.00  0.00     0.031 A 
ATOM     49  C   UNL A   1      43.853  31.444  31.224  1.00  0.00     0.031 A 
ATOM     50  C   UNL A   1      44.229  25.373  28.861  1.00  0.00     0.049 A 
ATOM     51  C   UNL A   1      44.951  30.417  31.196  1.00  0.00     0.074 A 
ATOM     52  C   UNL A   1      45.342  24.555  28.799  1.00  0.00     0.029 A 
ATOM     53  N   UNL A   1      44.625  26.541  29.494  1.00  0.00    -0.354 N 
ATOM     54  N   UNL A   1      44.940  29.217  30.665  1.00  0.00    -0.248 NA
ATOM     55  C   UNL A   1      46.221  30.782  31.836  1.00  0.00     0.031 C 
ATOM     56  C   UNL A   1      46.392  25.196  29.462  1.00  0.00     0.029 A 
ATOM     57  C   UNL A   1      45.955  26.447  29.868  1.00  0.00     0.049 A 
ATOM     58  H   UNL A   1      44.047  27.322  29.653  1.00  0.00     0.167 HD
ATOM     59  C   UNL A   1      46.207  28.692  30.893  1.00  0.00     0.074 A 
ATOM     60  C   UNL A   1      46.966  29.713  31.585  1.00  0.00     0.031 C 
ATOM     61  C   UNL A   1      46.697  27.472  30.562  1.00  0.00     0.031 A 
BRANCH  48  62
ATOM     62  C   UNL A   1      42.604  23.739  27.814  1.00  0.00    -0.014 A 
ATOM     63  C   UNL A   1      42.776  23.474  26.443  1.00  0.00     0.010 A 
ATOM     64  C   UNL A   1      42.207  22.692  28.666  1.00  0.00     0.010 A 
ATOM     65  C   UNL A   1      42.519  22.199  25.931  1.00  0.00     0.020 A 
ATOM     66  C   UNL A   1      41.982  21.408  28.164  1.00  0.00     0.020 A 
ATOM     67  C   UNL A   1      42.125  21.174  26.796  1.00  0.00     0.054 A 
BRANCH  67  68
ATOM     68  S   UNL A   1      41.830  19.523  26.104  1.00  0.00     0.124 S 
ATOM     69  O   UNL A   1      42.698  19.530  24.929  1.00  0.00    -0.237 OA
ATOM     70  O   UNL A   1      42.252  18.643  27.191  1.00  0.00    -0.237 OA
ATOM     71  O   UNL A   1      40.397  19.515  25.820  1.00  0.00    -0.744 OA
ENDBRANCH  67  68
ENDBRANCH  48  62
BRANCH  49  72
ATOM     72  C   UNL A   1      44.059  32.770  31.873  1.00  0.00    -0.014 A 
ATOM     73  C   UNL A   1      44.533  33.865  31.130  1.00  0.00     0.010 A 
ATOM     74  C   UNL A   1      43.771  32.946  33.239  1.00  0.00     0.010 A 
ATOM     75  C   UNL A   1      44.732  35.105  31.744  1.00  0.00     0.020 A 
ATOM     76  C   UNL A   1      43.933  34.193  33.849  1.00  0.00     0.020 A 
ATOM     77  C   UNL A   1      44.425  35.263  33.099  1.00  0.00     0.054 A 
BRANCH  77  78
ATOM     78  S   UNL A   1      44.639  36.896  33.859  1.00  0.00     0.124 S 
ATOM     79  O   UNL A   1      44.574  37.781  32.701  1.00  0.00    -0.237 OA
ATOM     80  O   UNL A   1      43.504  36.965  34.775  1.00  0.00    -0.237 OA
ATOM     81  O   UNL A   1      45.947  36.803  34.506  1.00  0.00    -0.744 OA
ENDBRANCH  77  78
ENDBRANCH  49  72
BRANCH  61  82
ATOM     82  C   UNL A   1      48.127  27.169  30.929  1.00  0.00    -0.014 A 
ATOM     83  C   UNL A   1      48.454  26.613  32.177  1.00  0.00     0.010 A 
ATOM     84  C   UNL A   1      49.146  27.366  29.978  1.00  0.00     0.010 A 
ATOM     85  C   UNL A   1      49.775  26.272  32.475  1.00  0.00     0.020 A 
ATOM     86  C   UNL A   1      50.463  26.995  30.258  1.00  0.00     0.020 A 
ATOM     87  C   UNL A   1      50.770  26.457  31.508  1.00  0.00     0.054 A 
BRANCH  87  88
ATOM     88  S   UNL A   1      52.462  25.928  31.894  1.00  0.00     0.124 S 
ATOM     89  O   UNL A   1      53.169  26.243  30.655  1.00  0.00    -0.237 OA
ATOM     90  O   UNL A   1      52.803  26.765  33.041  1.00  0.00    -0.237 OA
ATOM     91  O   UNL A   1      52.324  24.503  32.186  1.00  0.00    -0.744 OA
ENDBRANCH  87  88
ENDBRANCH  61  82
ENDBRANCH  35  36
ENDBRANCH  27  30
ENDBRANCH  25  26
ENDBRANCH   1  25
TORSDOF 16
ENDMDL
MODEL 3
REMARK VINA RESULT:     -10.6      4.917     10.451
REMARK SMILES C#CCNC(=O)N[C@@]1(C(=O)NCCCNC(=O)c2ccc(-c3c4nc(c(-c5ccc(S(=O)(=O)[O-])cc5)c5ccc([nH]5)c(-c5ccc(S(=O)(=O)[O-])cc5)c5nc(c(-c6ccc(S(=O)(=O)[O-])cc6)c6ccc3[nH]6)C=C5)C=C4)cc2)CCc2ccccc21
REMARK SMILES IDX 13 1 12 2 11 3 9 4 10 5 8 7 78 8 85 9 79 10 80 11 84 12
REMARK SMILES IDX 81 13 83 14 82 15 7 16 4 17 5 18 6 20 3 22 2 23 1 24 14 25
REMARK SMILES IDX 15 26 16 27 17 29 18 30 19 31 77 32 20 33 76 34 21 35 22 36
REMARK SMILES IDX 23 37 70 38 24 39 75 40 69 41 71 42 25 43 74 44 68 45 67 46
REMARK SMILES IDX 26 48 56 49 37 50 55 51 38 52 41 53 54 54 72 55 39 56 40 57
REMARK SMILES IDX 53 59 73 60 42 61 27 62 28 63 36 64 29 65 35 66 30 67 31 68
REMARK SMILES IDX 32 69 33 70 34 71 57 72 58 73 66 74 59 75 65 76 60 77 61 78
REMARK SMILES IDX 62 79 63 80 64 81 43 82 44 83 52 84 45 85 51 86 46 87 47 88
REMARK SMILES IDX 48 89 49 90 50 91
REMARK H PARENT 11 6 4 19 7 21 15 28 71 47 41 58
REMARK Flexibility Score: inf
ROOT
ATOM      1  C   UNL A   1      37.922  22.637  25.646  1.00  0.00     0.042 C 
ENDROOT
BRANCH   1   2
ATOM      2  C   UNL A   1      36.585  23.182  25.172  1.00  0.00     0.117 C 
BRANCH   2   3
ATOM      3  N   UNL A   1      35.626  23.183  26.266  1.00  0.00    -0.354 N 
ATOM      4  C   UNL A   1      34.378  23.581  26.579  1.00  0.00     0.250 C 
ATOM      5  O   UNL A   1      34.048  22.879  27.556  1.00  0.00    -0.272 OA
ATOM      6  H   UNL A   1      36.028  22.739  27.048  1.00  0.00     0.163 HD
BRANCH   4   7
ATOM      7  C   UNL A   1      33.352  24.586  25.836  1.00  0.00     0.146 C 
ATOM      8  C   UNL A   1      33.409  24.186  24.332  1.00  0.00     0.048 C 
ATOM      9  C   UNL A   1      33.420  26.128  25.634  1.00  0.00    -0.010 A 
ATOM     10  C   UNL A   1      33.273  25.370  23.390  1.00  0.00     0.039 C 
ATOM     11  C   UNL A   1      33.588  26.505  24.300  1.00  0.00    -0.042 A 
ATOM     12  C   UNL A   1      32.882  27.160  26.410  1.00  0.00     0.007 A 
ATOM     13  C   UNL A   1      33.635  27.835  23.858  1.00  0.00     0.004 A 
ATOM     14  C   UNL A   1      32.861  28.503  26.004  1.00  0.00     0.000 A 
ATOM     15  C   UNL A   1      33.312  28.851  24.745  1.00  0.00     0.000 A 
BRANCH   7  16
ATOM     16  N   UNL A   1      32.131  24.309  26.601  1.00  0.00    -0.320 N 
ATOM     17  N   UNL A   1      31.504  22.074  25.904  1.00  0.00    -0.327 N 
ATOM     18  C   UNL A   1      31.328  23.212  26.622  1.00  0.00     0.316 C 
ATOM     19  H   UNL A   1      30.933  21.348  26.245  1.00  0.00     0.166 HD
ATOM     20  O   UNL A   1      30.370  23.240  27.402  1.00  0.00    -0.249 OA
ATOM     21  H   UNL A   1      31.846  25.038  27.199  1.00  0.00     0.166 HD
BRANCH  17  22
ATOM     22  C   UNL A   1      32.310  21.620  24.755  1.00  0.00     0.207 C 
BRANCH  22  23
ATOM     23  C   UNL A   1      32.339  20.165  24.529  1.00  0.00    -0.085 C 
ATOM     24  C   UNL A   1      32.529  18.981  24.571  1.00  0.00     0.006 C 
ENDBRANCH  22  23
ENDBRANCH  17  22
ENDBRANCH   7  16
ENDBRANCH   4   7
ENDBRANCH   2   3
ENDBRANCH   1   2
BRANCH   1  25
ATOM     25  C   UNL A   1      38.735  23.673  26.424  1.00  0.00     0.118 C 
BRANCH  25  26
ATOM     26  N   UNL A   1      40.161  23.603  26.113  1.00  0.00    -0.352 N 
ATOM     27  C   UNL A   1      41.153  24.523  26.343  1.00  0.00     0.251 C 
ATOM     28  H   UNL A   1      40.453  22.772  25.674  1.00  0.00     0.163 HD
ATOM     29  O   UNL A   1      42.235  24.417  25.772  1.00  0.00    -0.269 OA
BRANCH  27  30
ATOM     30  C   UNL A   1      40.901  25.645  27.266  1.00  0.00     0.039 A 
ATOM     31  C   UNL A   1      39.976  25.488  28.299  1.00  0.00     0.014 A 
ATOM     32  C   UNL A   1      41.604  26.844  27.120  1.00  0.00     0.014 A 
ATOM     33  C   UNL A   1      39.827  26.503  29.246  1.00  0.00     0.010 A 
ATOM     34  C   UNL A   1      41.517  27.816  28.108  1.00  0.00     0.010 A 
ATOM     35  C   UNL A   1      40.639  27.649  29.189  1.00  0.00    -0.014 A 
BRANCH  35  36
ATOM     36  C   UNL A   1      40.632  28.658  30.276  1.00  0.00     0.031 A 
ATOM     37  C   UNL A   1      41.579  28.533  31.436  1.00  0.00     0.074 A 
ATOM     38  C   UNL A   1      39.704  29.637  30.258  1.00  0.00     0.049 A 
ATOM     39  N   UNL A   1      41.652  29.260  32.520  1.00  0.00    -0.248 NA
ATOM     40  C   UNL A   1      42.557  27.433  31.382  1.00  0.00     0.031 C 
ATOM     41  C   UNL A   1      38.708  29.841  29.202  1.00  0.00     0.029 A 
ATOM     42  N   UNL A   1      39.435  30.636  31.161  1.00  0.00    -0.354 N 
ATOM     43  C   UNL A   1      42.671  28.703  33.282  1.00  0.00     0.074 A 
ATOM     44  C   UNL A   1      43.156  27.547  32.559  1.00  0.00     0.031 C 
ATOM     45  C   UNL A   1      37.956  30.910  29.505  1.00  0.00     0.029 A 
ATOM     46  C   UNL A   1      38.372  31.432  30.803  1.00  0.00     0.049 A 
ATOM     47  H   UNL A   1      39.954  30.769  31.988  1.00  0.00     0.167 HD
ATOM     48  C   UNL A   1      43.166  29.125  34.471  1.00  0.00     0.031 A 
ATOM     49  C   UNL A   1      37.781  32.454  31.453  1.00  0.00     0.031 A 
ATOM     50  C   UNL A   1      42.670  30.272  35.185  1.00  0.00     0.049 A 
ATOM     51  C   UNL A   1      38.314  32.868  32.797  1.00  0.00     0.074 A 
ATOM     52  C   UNL A   1      43.138  30.811  36.370  1.00  0.00     0.029 A 
ATOM     53  N   UNL A   1      41.587  31.045  34.794  1.00  0.00    -0.354 N 
ATOM     54  N   UNL A   1      39.334  32.380  33.462  1.00  0.00    -0.248 NA
ATOM     55  C   UNL A   1      37.622  33.971  33.476  1.00  0.00     0.031 C 
ATOM     56  C   UNL A   1      42.292  31.862  36.734  1.00  0.00     0.029 A 
ATOM     57  C   UNL A   1      41.343  32.029  35.737  1.00  0.00     0.049 A 
ATOM     58  H   UNL A   1      41.068  30.914  33.967  1.00  0.00     0.167 HD
ATOM     59  C   UNL A   1      39.416  33.129  34.631  1.00  0.00     0.074 A 
ATOM     60  C   UNL A   1      38.360  34.119  34.568  1.00  0.00     0.031 C 
ATOM     61  C   UNL A   1      40.284  33.005  35.664  1.00  0.00     0.031 A 
BRANCH  48  62
ATOM     62  C   UNL A   1      44.290  28.331  35.085  1.00  0.00    -0.014 A 
ATOM     63  C   UNL A   1      44.034  27.256  35.956  1.00  0.00     0.010 A 
ATOM     64  C   UNL A   1      45.622  28.627  34.740  1.00  0.00     0.010 A 
ATOM     65  C   UNL A   1      45.089  26.519  36.500  1.00  0.00     0.020 A 
ATOM     66  C   UNL A   1      46.678  27.871  35.256  1.00  0.00     0.020 A 
ATOM     67  C   UNL A   1      46.405  26.831  36.145  1.00  0.00     0.054 A 
BRANCH  67  68
ATOM     68  S   UNL A   1      47.750  25.835  36.844  1.00  0.00     0.124 S 
ATOM     69  O   UNL A   1      47.293  25.633  38.217  1.00  0.00    -0.237 OA
ATOM     70  O   UNL A   1      47.738  24.645  35.997  1.00  0.00    -0.237 OA
ATOM     71  O   UNL A   1      48.927  26.689  36.700  1.00  0.00    -0.744 OA
ENDBRANCH  67  68
ENDBRANCH  48  62
BRANCH  49  72
ATOM     72  C   UNL A   1      36.606  33.142  30.848  1.00  0.00    -0.014 A 
ATOM     73  C   UNL A   1      35.343  33.077  31.462  1.00  0.00     0.010 A 
ATOM     74  C   UNL A   1      36.747  33.876  29.655  1.00  0.00     0.010 A 
ATOM     75  C   UNL A   1      34.241  33.718  30.887  1.00  0.00     0.020 A 
ATOM     76  C   UNL A   1      35.657  34.548  29.097  1.00  0.00     0.020 A 
ATOM     77  C   UNL A   1      34.407  34.455  29.710  1.00  0.00     0.054 A 
BRANCH  77  78
ATOM     78  S   UNL A   1      32.974  35.323  29.013  1.00  0.00     0.124 S 
ATOM     79  O   UNL A   1      32.436  34.328  28.091  1.00  0.00    -0.237 OA
ATOM     80  O   UNL A   1      32.166  35.591  30.199  1.00  0.00    -0.237 OA
ATOM     81  O   UNL A   1      33.562  36.506  28.387  1.00  0.00    -0.744 OA
ENDBRANCH  77  78
ENDBRANCH  49  72
BRANCH  61  82
ATOM     82  C   UNL A   1      40.146  33.971  36.813  1.00  0.00    -0.014 A 
ATOM     83  C   UNL A   1      40.611  35.294  36.709  1.00  0.00     0.010 A 
ATOM     84  C   UNL A   1      39.467  33.573  37.979  1.00  0.00     0.010 A 
ATOM     85  C   UNL A   1      40.411  36.197  37.755  1.00  0.00     0.020 A 
ATOM     86  C   UNL A   1      39.235  34.481  39.014  1.00  0.00     0.020 A 
ATOM     87  C   UNL A   1      39.715  35.787  38.898  1.00  0.00     0.054 A 
BRANCH  87  88
ATOM     88  S   UNL A   1      39.400  37.004  40.205  1.00  0.00     0.124 S 
ATOM     89  O   UNL A   1      40.715  37.133  40.826  1.00  0.00    -0.237 OA
ATOM     90  O   UNL A   1      38.945  38.170  39.450  1.00  0.00    -0.237 OA
ATOM     91  O   UNL A   1      38.380  36.368  41.035  1.00  0.00    -0.744 OA
ENDBRANCH  87  88
ENDBRANCH  61  82
ENDBRANCH  35  36
ENDBRANCH  27  30
ENDBRANCH  25  26
ENDBRANCH   1  25
TORSDOF 16
ENDMDL
