MODEL 1
REMARK VINA RESULT:     -11.6      0.000      0.000
REMARK SMILES O=C(Cn1nc(C(=O)NCCCNC(=O)c2ccc(-c3c4nc(c(-c5ccc(S(=O)(=O)[O-])cc5)c5ccc([nH]5)c(-c5ccc(S(=O)(=O)[O-])cc5)c5nc(c(-c6ccc(S(=O)(=O)[O-])cc6)c6ccc3[nH]6)C=C5)C=C4)cc2)c2ccccc2c1=O)Nc1ccc2c(c1)C(=O)c1ccccc1C2=O
REMARK SMILES IDX 11 1 10 2 9 3 7 4 8 5 6 7 4 8 5 9 82 10 81 11 83 12 76 13
REMARK SMILES IDX 80 14 77 15 79 16 78 17 3 18 2 19 1 20 84 21 85 23 86 24
REMARK SMILES IDX 90 25 87 26 89 27 88 28 91 29 99 30 92 31 93 32 98 33 100 34
REMARK SMILES IDX 94 35 97 36 95 37 96 38 12 39 13 40 14 41 15 43 16 44 17 45
REMARK SMILES IDX 75 46 18 47 74 48 19 49 20 50 21 51 68 52 22 53 73 54 67 55
REMARK SMILES IDX 69 56 23 57 72 58 66 59 65 60 24 62 54 63 35 64 53 65 36 66
REMARK SMILES IDX 39 67 52 68 70 69 37 70 38 71 51 73 71 74 40 75 25 76 26 77
REMARK SMILES IDX 34 78 27 79 33 80 28 81 29 82 30 83 31 84 32 85 55 86 56 87
REMARK SMILES IDX 64 88 57 89 63 90 58 91 59 92 60 93 61 94 62 95 41 96 42 97
REMARK SMILES IDX 50 98 43 99 49 100 44 101 45 102 46 103 47 104 48 105
REMARK H PARENT 9 6 84 22 13 42 69 61 39 72
REMARK Flexibility Score: inf
ROOT
ATOM      1  C   UNL A   1      34.024  29.943  27.263  1.00  0.00     0.042 C 
ENDROOT
BRANCH   1   2
ATOM      2  C   UNL A   1      33.799  31.365  27.810  1.00  0.00     0.118 C 
BRANCH   2   3
ATOM      3  N   UNL A   1      34.958  32.233  27.651  1.00  0.00    -0.351 N 
ATOM      4  C   UNL A   1      35.581  33.120  28.496  1.00  0.00     0.272 C 
ATOM      5  O   UNL A   1      36.434  33.869  28.024  1.00  0.00    -0.267 OA
ATOM      6  H   UNL A   1      35.377  32.172  26.762  1.00  0.00     0.163 HD
BRANCH   4   7
ATOM      7  C   UNL A   1      35.279  33.201  30.003  1.00  0.00     0.156 A 
ATOM      8  N   UNL A   1      35.482  32.254  32.119  1.00  0.00    -0.219 N 
ATOM      9  N   UNL A   1      35.772  32.277  30.772  1.00  0.00    -0.163 NA
ATOM     10  C   UNL A   1      34.675  33.191  32.748  1.00  0.00     0.275 A 
ATOM     11  C   UNL A   1      34.081  34.233  31.889  1.00  0.00     0.051 A 
ATOM     12  O   UNL A   1      34.444  33.196  33.955  1.00  0.00    -0.267 OA
ATOM     13  C   UNL A   1      34.387  34.272  30.529  1.00  0.00     0.020 A 
ATOM     14  C   UNL A   1      33.212  35.179  32.458  1.00  0.00     0.014 A 
ATOM     15  C   UNL A   1      33.825  35.293  29.748  1.00  0.00     0.011 A 
ATOM     16  C   UNL A   1      32.640  36.171  31.667  1.00  0.00     0.001 A 
ATOM     17  C   UNL A   1      32.950  36.229  30.313  1.00  0.00     0.001 A 
BRANCH   8  18
ATOM     18  C   UNL A   1      36.117  31.209  32.938  1.00  0.00     0.248 C 
BRANCH  18  19
ATOM     19  C   UNL A   1      37.520  31.602  33.386  1.00  0.00     0.246 C 
ATOM     20  O   UNL A   1      37.728  32.096  34.496  1.00  0.00    -0.273 OA
ATOM     21  N   UNL A   1      38.495  31.490  32.403  1.00  0.00    -0.324 N 
ATOM     22  H   UNL A   1      38.481  30.705  31.810  1.00  0.00     0.169 HD
BRANCH  21  23
ATOM     23  C   UNL A   1      39.503  32.458  32.223  1.00  0.00     0.042 A 
ATOM     24  C   UNL A   1      40.720  32.363  32.902  1.00  0.00     0.027 A 
ATOM     25  C   UNL A   1      39.353  33.423  31.228  1.00  0.00     0.039 A 
ATOM     26  C   UNL A   1      41.791  33.208  32.559  1.00  0.00     0.015 A 
ATOM     27  C   UNL A   1      40.424  34.228  30.858  1.00  0.00     0.036 A 
ATOM     28  C   UNL A   1      41.657  34.097  31.487  1.00  0.00     0.034 A 
ATOM     29  C   UNL A   1      40.288  35.082  29.674  1.00  0.00     0.194 C 
ATOM     30  C   UNL A   1      42.835  34.768  30.888  1.00  0.00     0.194 C 
ATOM     31  O   UNL A   1      39.214  35.530  29.300  1.00  0.00    -0.289 OA
ATOM     32  C   UNL A   1      41.483  35.314  28.874  1.00  0.00     0.034 A 
ATOM     33  C   UNL A   1      42.737  35.174  29.461  1.00  0.00     0.034 A 
ATOM     34  O   UNL A   1      43.876  34.889  31.513  1.00  0.00    -0.289 OA
ATOM     35  C   UNL A   1      41.333  35.584  27.511  1.00  0.00     0.013 A 
ATOM     36  C   UNL A   1      43.872  35.330  28.666  1.00  0.00     0.013 A 
ATOM     37  C   UNL A   1      42.463  35.699  26.715  1.00  0.00     0.001 A 
ATOM     38  C   UNL A   1      43.730  35.577  27.293  1.00  0.00     0.001 A 
ENDBRANCH  21  23
ENDBRANCH  18  19
ENDBRANCH   8  18
ENDBRANCH   4   7
ENDBRANCH   2   3
ENDBRANCH   1   2
BRANCH   1  39
ATOM     39  C   UNL A   1      35.429  29.367  27.499  1.00  0.00     0.118 C 
BRANCH  39  40
ATOM     40  N   UNL A   1      35.807  29.392  28.904  1.00  0.00    -0.352 N 
ATOM     41  C   UNL A   1      36.968  29.227  29.613  1.00  0.00     0.251 C 
ATOM     42  H   UNL A   1      35.039  29.573  29.492  1.00  0.00     0.163 HD
ATOM     43  O   UNL A   1      36.842  29.204  30.843  1.00  0.00    -0.269 OA
BRANCH  41  44
ATOM     44  C   UNL A   1      38.344  29.057  29.051  1.00  0.00     0.039 A 
ATOM     45  C   UNL A   1      38.750  29.384  27.756  1.00  0.00     0.014 A 
ATOM     46  C   UNL A   1      39.341  28.668  29.965  1.00  0.00     0.014 A 
ATOM     47  C   UNL A   1      40.109  29.257  27.373  1.00  0.00     0.010 A 
ATOM     48  C   UNL A   1      40.695  28.585  29.596  1.00  0.00     0.010 A 
ATOM     49  C   UNL A   1      41.102  28.844  28.282  1.00  0.00    -0.014 A 
BRANCH  49  50
ATOM     50  C   UNL A   1      42.539  28.653  27.882  1.00  0.00     0.031 A 
ATOM     51  C   UNL A   1      43.543  29.776  28.055  1.00  0.00     0.074 A 
ATOM     52  C   UNL A   1      42.984  27.495  27.348  1.00  0.00     0.049 A 
ATOM     53  N   UNL A   1      44.821  29.797  27.755  1.00  0.00    -0.248 NA
ATOM     54  C   UNL A   1      43.047  31.039  28.625  1.00  0.00     0.031 C 
ATOM     55  C   UNL A   1      42.169  26.310  27.090  1.00  0.00     0.029 A 
ATOM     56  N   UNL A   1      44.247  27.124  26.928  1.00  0.00    -0.354 N 
ATOM     57  C   UNL A   1      45.285  31.051  28.138  1.00  0.00     0.074 A 
ATOM     58  C   UNL A   1      44.136  31.795  28.607  1.00  0.00     0.031 C 
ATOM     59  C   UNL A   1      42.954  25.336  26.598  1.00  0.00     0.029 A 
ATOM     60  C   UNL A   1      44.324  25.832  26.459  1.00  0.00     0.049 A 
ATOM     61  H   UNL A   1      45.022  27.729  26.961  1.00  0.00     0.167 HD
ATOM     62  C   UNL A   1      46.549  31.539  28.142  1.00  0.00     0.031 A 
ATOM     63  C   UNL A   1      45.361  25.115  25.968  1.00  0.00     0.031 A 
ATOM     64  C   UNL A   1      47.718  30.832  27.690  1.00  0.00     0.049 A 
ATOM     65  C   UNL A   1      46.740  25.716  25.868  1.00  0.00     0.074 A 
ATOM     66  C   UNL A   1      49.034  31.267  27.700  1.00  0.00     0.029 A 
ATOM     67  N   UNL A   1      47.725  29.558  27.152  1.00  0.00    -0.354 N 
ATOM     68  N   UNL A   1      47.154  26.893  26.265  1.00  0.00    -0.248 NA
ATOM     69  C   UNL A   1      47.792  24.891  25.247  1.00  0.00     0.031 C 
ATOM     70  C   UNL A   1      49.829  30.283  27.108  1.00  0.00     0.029 A 
ATOM     71  C   UNL A   1      49.016  29.209  26.785  1.00  0.00     0.049 A 
ATOM     72  H   UNL A   1      46.932  28.985  27.045  1.00  0.00     0.167 HD
ATOM     73  C   UNL A   1      48.512  26.945  25.957  1.00  0.00     0.074 A 
ATOM     74  C   UNL A   1      48.857  25.678  25.351  1.00  0.00     0.031 C 
ATOM     75  C   UNL A   1      49.384  27.960  26.169  1.00  0.00     0.031 A 
BRANCH  62  76
ATOM     76  C   UNL A   1      46.766  32.920  28.701  1.00  0.00    -0.014 A 
ATOM     77  C   UNL A   1      47.059  33.994  27.842  1.00  0.00     0.010 A 
ATOM     78  C   UNL A   1      46.810  33.118  30.092  1.00  0.00     0.010 A 
ATOM     79  C   UNL A   1      47.414  35.240  28.365  1.00  0.00     0.020 A 
ATOM     80  C   UNL A   1      47.141  34.368  30.619  1.00  0.00     0.020 A 
ATOM     81  C   UNL A   1      47.461  35.416  29.751  1.00  0.00     0.054 A 
BRANCH  81  82
ATOM     82  S   UNL A   1      47.936  37.035  30.418  1.00  0.00     0.124 S 
ATOM     83  O   UNL A   1      48.727  37.598  29.329  1.00  0.00    -0.237 OA
ATOM     84  O   UNL A   1      46.645  37.674  30.660  1.00  0.00    -0.237 OA
ATOM     85  O   UNL A   1      48.685  36.695  31.627  1.00  0.00    -0.744 OA
ENDBRANCH  81  82
ENDBRANCH  62  76
BRANCH  63  86
ATOM     86  C   UNL A   1      45.129  23.704  25.544  1.00  0.00    -0.014 A 
ATOM     87  C   UNL A   1      45.557  22.636  26.352  1.00  0.00     0.010 A 
ATOM     88  C   UNL A   1      44.531  23.425  24.302  1.00  0.00     0.010 A 
ATOM     89  C   UNL A   1      45.448  21.317  25.902  1.00  0.00     0.020 A 
ATOM     90  C   UNL A   1      44.396  22.105  23.859  1.00  0.00     0.020 A 
ATOM     91  C   UNL A   1      44.887  21.063  24.649  1.00  0.00     0.054 A 
BRANCH  91  92
ATOM     92  S   UNL A   1      44.814  19.350  24.053  1.00  0.00     0.124 S 
ATOM     93  O   UNL A   1      43.708  18.808  24.839  1.00  0.00    -0.237 OA
ATOM     94  O   UNL A   1      44.549  19.515  22.626  1.00  0.00    -0.237 OA
ATOM     95  O   UNL A   1      46.134  18.818  24.381  1.00  0.00    -0.744 OA
ENDBRANCH  91  92
ENDBRANCH  63  86
BRANCH  75  96
ATOM     96  C   UNL A   1      50.822  27.792  25.742  1.00  0.00    -0.014 A 
ATOM     97  C   UNL A   1      51.170  27.915  24.382  1.00  0.00     0.010 A 
ATOM     98  C   UNL A   1      51.801  27.370  26.659  1.00  0.00     0.010 A 
ATOM     99  C   UNL A   1      52.456  27.583  23.942  1.00  0.00     0.020 A 
ATOM    100  C   UNL A   1      53.096  27.061  26.226  1.00  0.00     0.020 A 
ATOM    101  C   UNL A   1      53.408  27.144  24.866  1.00  0.00     0.054 A 
BRANCH 101 102
ATOM    102  S   UNL A   1      55.060  26.678  24.275  1.00  0.00     0.124 S 
ATOM    103  O   UNL A   1      55.916  27.647  24.951  1.00  0.00    -0.237 OA
ATOM    104  O   UNL A   1      55.189  25.296  24.732  1.00  0.00    -0.237 OA
ATOM    105  O   UNL A   1      54.962  26.837  22.825  1.00  0.00    -0.744 OA
ENDBRANCH 101 102
ENDBRANCH  75  96
ENDBRANCH  49  50
ENDBRANCH  41  44
ENDBRANCH  39  40
ENDBRANCH   1  39
TORSDOF 16
ENDMDL
MODEL 2
REMARK VINA RESULT:     -11.4      0.417      7.525
REMARK SMILES O=C(Cn1nc(C(=O)NCCCNC(=O)c2ccc(-c3c4nc(c(-c5ccc(S(=O)(=O)[O-])cc5)c5ccc([nH]5)c(-c5ccc(S(=O)(=O)[O-])cc5)c5nc(c(-c6ccc(S(=O)(=O)[O-])cc6)c6ccc3[nH]6)C=C5)C=C4)cc2)c2ccccc2c1=O)Nc1ccc2c(c1)C(=O)c1ccccc1C2=O
REMARK SMILES IDX 11 1 10 2 9 3 7 4 8 5 6 7 4 8 5 9 82 10 81 11 83 12 76 13
REMARK SMILES IDX 80 14 77 15 79 16 78 17 3 18 2 19 1 20 84 21 85 23 86 24
REMARK SMILES IDX 90 25 87 26 89 27 88 28 91 29 99 30 92 31 93 32 98 33 100 34
REMARK SMILES IDX 94 35 97 36 95 37 96 38 12 39 13 40 14 41 15 43 16 44 17 45
REMARK SMILES IDX 75 46 18 47 74 48 19 49 20 50 21 51 68 52 22 53 73 54 67 55
REMARK SMILES IDX 69 56 23 57 72 58 66 59 65 60 24 62 54 63 35 64 53 65 36 66
REMARK SMILES IDX 39 67 52 68 70 69 37 70 38 71 51 73 71 74 40 75 25 76 26 77
REMARK SMILES IDX 34 78 27 79 33 80 28 81 29 82 30 83 31 84 32 85 55 86 56 87
REMARK SMILES IDX 64 88 57 89 63 90 58 91 59 92 60 93 61 94 62 95 41 96 42 97
REMARK SMILES IDX 50 98 43 99 49 100 44 101 45 102 46 103 47 104 48 105
REMARK H PARENT 9 6 84 22 13 42 69 61 39 72
REMARK Flexibility Score: inf
ROOT
ATOM      1  C   UNL A   1      34.208  30.005  27.298  1.00  0.00     0.042 C 
ENDROOT
BRANCH   1   2
ATOM      2  C   UNL A   1      33.978  31.410  27.884  1.00  0.00     0.118 C 
BRANCH   2   3
ATOM      3  N   UNL A   1      35.123  32.296  27.722  1.00  0.00    -0.351 N 
ATOM      4  C   UNL A   1      35.747  33.175  28.574  1.00  0.00     0.272 C 
ATOM      5  O   UNL A   1      36.583  33.944  28.102  1.00  0.00    -0.267 OA
ATOM      6  H   UNL A   1      35.528  32.258  26.826  1.00  0.00     0.163 HD
BRANCH   4   7
ATOM      7  C   UNL A   1      35.469  33.224  30.087  1.00  0.00     0.156 A 
ATOM      8  N   UNL A   1      35.732  32.249  32.184  1.00  0.00    -0.219 N 
ATOM      9  N   UNL A   1      35.999  32.301  30.833  1.00  0.00    -0.163 NA
ATOM     10  C   UNL A   1      34.912  33.155  32.841  1.00  0.00     0.275 A 
ATOM     11  C   UNL A   1      34.278  34.194  32.009  1.00  0.00     0.051 A 
ATOM     12  O   UNL A   1      34.701  33.135  34.051  1.00  0.00    -0.267 OA
ATOM     13  C   UNL A   1      34.559  34.264  30.645  1.00  0.00     0.020 A 
ATOM     14  C   UNL A   1      33.394  35.109  32.608  1.00  0.00     0.014 A 
ATOM     15  C   UNL A   1      33.958  35.282  29.890  1.00  0.00     0.011 A 
ATOM     16  C   UNL A   1      32.784  36.098  31.843  1.00  0.00     0.001 A 
ATOM     17  C   UNL A   1      33.069  36.186  30.485  1.00  0.00     0.001 A 
BRANCH   8  18
ATOM     18  C   UNL A   1      36.407  31.208  32.974  1.00  0.00     0.248 C 
BRANCH  18  19
ATOM     19  C   UNL A   1      37.818  31.618  33.382  1.00  0.00     0.246 C 
ATOM     20  O   UNL A   1      38.051  32.122  34.482  1.00  0.00    -0.273 OA
ATOM     21  N   UNL A   1      38.766  31.509  32.372  1.00  0.00    -0.324 N 
ATOM     22  H   UNL A   1      38.744  30.719  31.785  1.00  0.00     0.169 HD
BRANCH  21  23
ATOM     23  C   UNL A   1      39.760  32.485  32.158  1.00  0.00     0.042 A 
ATOM     24  C   UNL A   1      40.998  32.404  32.800  1.00  0.00     0.027 A 
ATOM     25  C   UNL A   1      39.569  33.446  31.166  1.00  0.00     0.039 A 
ATOM     26  C   UNL A   1      42.049  33.258  32.421  1.00  0.00     0.015 A 
ATOM     27  C   UNL A   1      40.621  34.260  30.761  1.00  0.00     0.036 A 
ATOM     28  C   UNL A   1      41.873  34.142  31.351  1.00  0.00     0.034 A 
ATOM     29  C   UNL A   1      40.440  35.109  29.579  1.00  0.00     0.194 C 
ATOM     30  C   UNL A   1      43.026  34.823  30.713  1.00  0.00     0.194 C 
ATOM     31  O   UNL A   1      39.350  35.546  29.238  1.00  0.00    -0.289 OA
ATOM     32  C   UNL A   1      41.607  35.350  28.741  1.00  0.00     0.034 A 
ATOM     33  C   UNL A   1      42.880  35.224  29.289  1.00  0.00     0.034 A 
ATOM     34  O   UNL A   1      44.085  34.956  31.305  1.00  0.00    -0.289 OA
ATOM     35  C   UNL A   1      41.411  35.614  27.382  1.00  0.00     0.013 A 
ATOM     36  C   UNL A   1      43.988  35.387  28.459  1.00  0.00     0.013 A 
ATOM     37  C   UNL A   1      42.515  35.738  26.552  1.00  0.00     0.001 A 
ATOM     38  C   UNL A   1      43.801  35.629  27.091  1.00  0.00     0.001 A 
ENDBRANCH  21  23
ENDBRANCH  18  19
ENDBRANCH   8  18
ENDBRANCH   4   7
ENDBRANCH   2   3
ENDBRANCH   1   2
BRANCH   1  39
ATOM     39  C   UNL A   1      35.608  29.418  27.538  1.00  0.00     0.118 C 
BRANCH  39  40
ATOM     40  N   UNL A   1      35.957  29.384  28.952  1.00  0.00    -0.352 N 
ATOM     41  C   UNL A   1      37.106  29.205  29.677  1.00  0.00     0.251 C 
ATOM     42  H   UNL A   1      35.174  29.528  29.531  1.00  0.00     0.163 HD
ATOM     43  O   UNL A   1      36.955  29.124  30.901  1.00  0.00    -0.269 OA
BRANCH  41  44
ATOM     44  C   UNL A   1      38.495  29.079  29.137  1.00  0.00     0.039 A 
ATOM     45  C   UNL A   1      38.896  29.348  27.826  1.00  0.00     0.014 A 
ATOM     46  C   UNL A   1      39.503  28.808  30.080  1.00  0.00     0.014 A 
ATOM     47  C   UNL A   1      40.264  29.277  27.462  1.00  0.00     0.010 A 
ATOM     48  C   UNL A   1      40.863  28.780  29.728  1.00  0.00     0.010 A 
ATOM     49  C   UNL A   1      41.269  28.980  28.403  1.00  0.00    -0.014 A 
BRANCH  49  50
ATOM     50  C   UNL A   1      42.719  28.848  28.026  1.00  0.00     0.031 A 
ATOM     51  C   UNL A   1      43.267  27.528  27.519  1.00  0.00     0.074 A 
ATOM     52  C   UNL A   1      43.582  29.882  28.135  1.00  0.00     0.049 A 
ATOM     53  N   UNL A   1      44.492  27.226  27.159  1.00  0.00    -0.248 NA
ATOM     54  C   UNL A   1      42.323  26.405  27.417  1.00  0.00     0.031 C 
ATOM     55  C   UNL A   1      43.248  31.220  28.616  1.00  0.00     0.029 A 
ATOM     56  N   UNL A   1      44.929  29.965  27.839  1.00  0.00    -0.354 N 
ATOM     57  C   UNL A   1      44.454  25.897  26.748  1.00  0.00     0.074 A 
ATOM     58  C   UNL A   1      43.108  25.424  26.990  1.00  0.00     0.031 C 
ATOM     59  C   UNL A   1      44.341  31.999  28.543  1.00  0.00     0.029 A 
ATOM     60  C   UNL A   1      45.474  31.210  28.054  1.00  0.00     0.049 A 
ATOM     61  H   UNL A   1      45.452  29.202  27.504  1.00  0.00     0.167 HD
ATOM     62  C   UNL A   1      45.427  25.139  26.186  1.00  0.00     0.031 A 
ATOM     63  C   UNL A   1      46.732  31.682  27.889  1.00  0.00     0.031 A 
ATOM     64  C   UNL A   1      46.774  25.571  25.924  1.00  0.00     0.049 A 
ATOM     65  C   UNL A   1      47.832  30.789  27.374  1.00  0.00     0.074 A 
ATOM     66  C   UNL A   1      47.797  24.853  25.325  1.00  0.00     0.029 A 
ATOM     67  N   UNL A   1      47.292  26.815  26.236  1.00  0.00    -0.354 N 
ATOM     68  N   UNL A   1      47.759  29.546  26.967  1.00  0.00    -0.248 NA
ATOM     69  C   UNL A   1      49.188  31.363  27.301  1.00  0.00     0.031 C 
ATOM     70  C   UNL A   1      48.952  25.639  25.333  1.00  0.00     0.029 A 
ATOM     71  C   UNL A   1      48.631  26.869  25.882  1.00  0.00     0.049 A 
ATOM     72  H   UNL A   1      46.784  27.552  26.648  1.00  0.00     0.167 HD
ATOM     73  C   UNL A   1      49.050  29.195  26.578  1.00  0.00     0.074 A 
ATOM     74  C   UNL A   1      49.885  30.357  26.785  1.00  0.00     0.031 C 
ATOM     75  C   UNL A   1      49.488  28.009  26.089  1.00  0.00     0.031 A 
BRANCH  62  76
ATOM     76  C   UNL A   1      45.068  23.741  25.759  1.00  0.00    -0.014 A 
ATOM     77  C   UNL A   1      45.548  22.634  26.482  1.00  0.00     0.010 A 
ATOM     78  C   UNL A   1      44.364  23.528  24.561  1.00  0.00     0.010 A 
ATOM     79  C   UNL A   1      45.348  21.337  26.003  1.00  0.00     0.020 A 
ATOM     80  C   UNL A   1      44.143  22.233  24.091  1.00  0.00     0.020 A 
ATOM     81  C   UNL A   1      44.654  21.146  24.805  1.00  0.00     0.054 A 
BRANCH  81  82
ATOM     82  S   UNL A   1      44.413  19.458  24.186  1.00  0.00     0.124 S 
ATOM     83  O   UNL A   1      44.480  19.645  22.740  1.00  0.00    -0.237 OA
ATOM     84  O   UNL A   1      45.533  18.734  24.783  1.00  0.00    -0.237 OA
ATOM     85  O   UNL A   1      43.099  19.090  24.710  1.00  0.00    -0.744 OA
ENDBRANCH  81  82
ENDBRANCH  62  76
BRANCH  63  86
ATOM     86  C   UNL A   1      47.016  33.111  28.203  1.00  0.00    -0.014 A 
ATOM     87  C   UNL A   1      47.173  34.052  27.169  1.00  0.00     0.010 A 
ATOM     88  C   UNL A   1      47.187  33.526  29.536  1.00  0.00     0.010 A 
ATOM     89  C   UNL A   1      47.557  35.365  27.456  1.00  0.00     0.020 A 
ATOM     90  C   UNL A   1      47.545  34.846  29.829  1.00  0.00     0.020 A 
ATOM     91  C   UNL A   1      47.760  35.747  28.784  1.00  0.00     0.054 A 
BRANCH  91  92
ATOM     92  S   UNL A   1      48.322  37.437  29.133  1.00  0.00     0.124 S 
ATOM     93  O   UNL A   1      47.073  38.095  29.507  1.00  0.00    -0.237 OA
ATOM     94  O   UNL A   1      49.280  37.242  30.219  1.00  0.00    -0.237 OA
ATOM     95  O   UNL A   1      48.903  37.872  27.866  1.00  0.00    -0.744 OA
ENDBRANCH  91  92
ENDBRANCH  63  86
BRANCH  75  96
ATOM     96  C   UNL A   1      50.947  27.856  25.738  1.00  0.00    -0.014 A 
ATOM     97  C   UNL A   1      51.373  28.039  24.407  1.00  0.00     0.010 A 
ATOM     98  C   UNL A   1      51.873  27.392  26.689  1.00  0.00     0.010 A 
ATOM     99  C   UNL A   1      52.681  27.724  24.026  1.00  0.00     0.020 A 
ATOM    100  C   UNL A   1      53.190  27.099  26.317  1.00  0.00     0.020 A 
ATOM    101  C   UNL A   1      53.579  27.242  24.982  1.00  0.00     0.054 A 
BRANCH 101 102
ATOM    102  S   UNL A   1      55.262  26.799  24.465  1.00  0.00     0.124 S 
ATOM    103  O   UNL A   1      56.074  27.778  25.180  1.00  0.00    -0.237 OA
ATOM    104  O   UNL A   1      55.389  25.419  24.927  1.00  0.00    -0.237 OA
ATOM    105  O   UNL A   1      55.227  26.959  23.013  1.00  0.00    -0.744 OA
ENDBRANCH 101 102
ENDBRANCH  75  96
ENDBRANCH  49  50
ENDBRANCH  41  44
ENDBRANCH  39  40
ENDBRANCH   1  39
TORSDOF 16
ENDMDL
MODEL 3
REMARK VINA RESULT:     -11.1     10.886     16.736
REMARK SMILES O=C(Cn1nc(C(=O)NCCCNC(=O)c2ccc(-c3c4nc(c(-c5ccc(S(=O)(=O)[O-])cc5)c5ccc([nH]5)c(-c5ccc(S(=O)(=O)[O-])cc5)c5nc(c(-c6ccc(S(=O)(=O)[O-])cc6)c6ccc3[nH]6)C=C5)C=C4)cc2)c2ccccc2c1=O)Nc1ccc2c(c1)C(=O)c1ccccc1C2=O
REMARK SMILES IDX 11 1 10 2 9 3 7 4 8 5 6 7 4 8 5 9 82 10 81 11 83 12 76 13
REMARK SMILES IDX 80 14 77 15 79 16 78 17 3 18 2 19 1 20 84 21 85 23 86 24
REMARK SMILES IDX 90 25 87 26 89 27 88 28 91 29 99 30 92 31 93 32 98 33 100 34
REMARK SMILES IDX 94 35 97 36 95 37 96 38 12 39 13 40 14 41 15 43 16 44 17 45
REMARK SMILES IDX 75 46 18 47 74 48 19 49 20 50 21 51 68 52 22 53 73 54 67 55
REMARK SMILES IDX 69 56 23 57 72 58 66 59 65 60 24 62 54 63 35 64 53 65 36 66
REMARK SMILES IDX 39 67 52 68 70 69 37 70 38 71 51 73 71 74 40 75 25 76 26 77
REMARK SMILES IDX 34 78 27 79 33 80 28 81 29 82 30 83 31 84 32 85 55 86 56 87
REMARK SMILES IDX 64 88 57 89 63 90 58 91 59 92 60 93 61 94 62 95 41 96 42 97
REMARK SMILES IDX 50 98 43 99 49 100 44 101 45 102 46 103 47 104 48 105
REMARK H PARENT 9 6 84 22 13 42 69 61 39 72
REMARK Flexibility Score: inf
ROOT
ATOM      1  C   UNL A   1      49.389  23.763  38.241  1.00  0.00     0.042 C 
ENDROOT
BRANCH   1   2
ATOM      2  C   UNL A   1      48.878  23.254  39.601  1.00  0.00     0.118 C 
BRANCH   2   3
ATOM      3  N   UNL A   1      47.508  23.656  39.889  1.00  0.00    -0.351 N 
ATOM      4  C   UNL A   1      46.299  23.019  39.740  1.00  0.00     0.272 C 
ATOM      5  O   UNL A   1      45.274  23.681  39.888  1.00  0.00    -0.267 OA
ATOM      6  H   UNL A   1      47.433  24.564  40.264  1.00  0.00     0.163 HD
BRANCH   4   7
ATOM      7  C   UNL A   1      46.172  21.518  39.423  1.00  0.00     0.156 A 
ATOM      8  N   UNL A   1      46.128  19.325  40.200  1.00  0.00    -0.219 N 
ATOM      9  N   UNL A   1      46.170  20.685  40.421  1.00  0.00    -0.163 NA
ATOM     10  C   UNL A   1      46.074  18.752  38.938  1.00  0.00     0.275 A 
ATOM     11  C   UNL A   1      46.103  19.678  37.791  1.00  0.00     0.051 A 
ATOM     12  O   UNL A   1      45.998  17.542  38.738  1.00  0.00    -0.267 OA
ATOM     13  C   UNL A   1      46.125  21.056  38.008  1.00  0.00     0.020 A 
ATOM     14  C   UNL A   1      46.104  19.156  36.486  1.00  0.00     0.014 A 
ATOM     15  C   UNL A   1      46.126  21.907  36.893  1.00  0.00     0.011 A 
ATOM     16  C   UNL A   1      46.131  20.011  35.388  1.00  0.00     0.001 A 
ATOM     17  C   UNL A   1      46.139  21.387  35.593  1.00  0.00     0.001 A 
BRANCH   8  18
ATOM     18  C   UNL A   1      46.077  18.443  41.377  1.00  0.00     0.248 C 
BRANCH  18  19
ATOM     19  C   UNL A   1      44.647  18.111  41.787  1.00  0.00     0.246 C 
ATOM     20  O   UNL A   1      44.198  18.438  42.887  1.00  0.00    -0.273 OA
ATOM     21  N   UNL A   1      43.961  17.303  40.889  1.00  0.00    -0.324 N 
ATOM     22  H   UNL A   1      44.060  17.475  39.925  1.00  0.00     0.169 HD
BRANCH  21  23
ATOM     23  C   UNL A   1      43.127  16.246  41.306  1.00  0.00     0.042 A 
ATOM     24  C   UNL A   1      42.324  15.560  40.393  1.00  0.00     0.027 A 
ATOM     25  C   UNL A   1      43.233  15.768  42.612  1.00  0.00     0.039 A 
ATOM     26  C   UNL A   1      41.662  14.380  40.778  1.00  0.00     0.015 A 
ATOM     27  C   UNL A   1      42.615  14.579  42.980  1.00  0.00     0.036 A 
ATOM     28  C   UNL A   1      41.866  13.857  42.059  1.00  0.00     0.034 A 
ATOM     29  C   UNL A   1      42.919  14.004  44.294  1.00  0.00     0.194 C 
ATOM     30  C   UNL A   1      41.457  12.474  42.403  1.00  0.00     0.194 C 
ATOM     31  O   UNL A   1      43.237  14.686  45.258  1.00  0.00    -0.289 OA
ATOM     32  C   UNL A   1      42.928  12.551  44.405  1.00  0.00     0.034 A 
ATOM     33  C   UNL A   1      42.206  11.791  43.490  1.00  0.00     0.034 A 
ATOM     34  O   UNL A   1      40.608  11.887  41.751  1.00  0.00    -0.289 OA
ATOM     35  C   UNL A   1      43.739  11.960  45.378  1.00  0.00     0.013 A 
ATOM     36  C   UNL A   1      42.280  10.401  43.565  1.00  0.00     0.013 A 
ATOM     37  C   UNL A   1      43.842  10.578  45.425  1.00  0.00     0.001 A 
ATOM     38  C   UNL A   1      43.109   9.800  44.523  1.00  0.00     0.001 A 
ENDBRANCH  21  23
ENDBRANCH  18  19
ENDBRANCH   8  18
ENDBRANCH   4   7
ENDBRANCH   2   3
ENDBRANCH   1   2
BRANCH   1  39
ATOM     39  C   UNL A   1      48.563  24.899  37.617  1.00  0.00     0.118 C 
BRANCH  39  40
ATOM     40  N   UNL A   1      48.791  26.176  38.278  1.00  0.00    -0.352 N 
ATOM     41  C   UNL A   1      48.218  27.420  38.238  1.00  0.00     0.251 C 
ATOM     42  H   UNL A   1      49.543  26.136  38.911  1.00  0.00     0.163 HD
ATOM     43  O   UNL A   1      48.803  28.295  38.886  1.00  0.00    -0.269 OA
BRANCH  41  44
ATOM     44  C   UNL A   1      46.988  27.816  37.485  1.00  0.00     0.039 A 
ATOM     45  C   UNL A   1      45.710  27.281  37.657  1.00  0.00     0.014 A 
ATOM     46  C   UNL A   1      47.117  28.929  36.634  1.00  0.00     0.014 A 
ATOM     47  C   UNL A   1      44.606  27.807  36.940  1.00  0.00     0.010 A 
ATOM     48  C   UNL A   1      46.014  29.478  35.957  1.00  0.00     0.010 A 
ATOM     49  C   UNL A   1      44.741  28.906  36.069  1.00  0.00    -0.014 A 
BRANCH  49  50
ATOM     50  C   UNL A   1      43.593  29.446  35.261  1.00  0.00     0.031 A 
ATOM     51  C   UNL A   1      42.728  30.567  35.804  1.00  0.00     0.074 A 
ATOM     52  C   UNL A   1      43.283  28.953  34.042  1.00  0.00     0.049 A 
ATOM     53  N   UNL A   1      41.689  31.150  35.253  1.00  0.00    -0.248 NA
ATOM     54  C   UNL A   1      43.064  31.089  37.137  1.00  0.00     0.031 C 
ATOM     55  C   UNL A   1      43.986  27.867  33.362  1.00  0.00     0.029 A 
ATOM     56  N   UNL A   1      42.289  29.310  33.152  1.00  0.00    -0.354 N 
ATOM     57  C   UNL A   1      41.278  32.130  36.150  1.00  0.00     0.074 A 
ATOM     58  C   UNL A   1      42.121  32.004  37.320  1.00  0.00     0.031 C 
ATOM     59  C   UNL A   1      43.432  27.676  32.152  1.00  0.00     0.029 A 
ATOM     60  C   UNL A   1      42.302  28.590  31.979  1.00  0.00     0.049 A 
ATOM     61  H   UNL A   1      41.629  30.015  33.341  1.00  0.00     0.167 HD
ATOM     62  C   UNL A   1      40.320  33.078  36.014  1.00  0.00     0.031 A 
ATOM     63  C   UNL A   1      41.508  28.642  30.885  1.00  0.00     0.031 A 
ATOM     64  C   UNL A   1      39.465  33.242  34.868  1.00  0.00     0.049 A 
ATOM     65  C   UNL A   1      40.368  29.624  30.801  1.00  0.00     0.074 A 
ATOM     66  C   UNL A   1      38.494  34.209  34.661  1.00  0.00     0.029 A 
ATOM     67  N   UNL A   1      39.469  32.436  33.745  1.00  0.00    -0.354 N 
ATOM     68  N   UNL A   1      40.023  30.558  31.651  1.00  0.00    -0.248 NA
ATOM     69  C   UNL A   1      39.505  29.556  29.607  1.00  0.00     0.031 C 
ATOM     70  C   UNL A   1      37.866  33.949  33.441  1.00  0.00     0.029 A 
ATOM     71  C   UNL A   1      38.487  32.856  32.860  1.00  0.00     0.049 A 
ATOM     72  H   UNL A   1      40.078  31.677  33.595  1.00  0.00     0.167 HD
ATOM     73  C   UNL A   1      38.918  31.196  31.093  1.00  0.00     0.074 A 
ATOM     74  C   UNL A   1      38.655  30.553  29.825  1.00  0.00     0.031 C 
ATOM     75  C   UNL A   1      38.197  32.226  31.598  1.00  0.00     0.031 A 
BRANCH  62  76
ATOM     76  C   UNL A   1      40.154  34.074  37.132  1.00  0.00    -0.014 A 
ATOM     77  C   UNL A   1      39.104  33.932  38.056  1.00  0.00     0.010 A 
ATOM     78  C   UNL A   1      40.964  35.222  37.179  1.00  0.00     0.010 A 
ATOM     79  C   UNL A   1      38.852  34.933  38.998  1.00  0.00     0.020 A 
ATOM     80  C   UNL A   1      40.729  36.214  38.132  1.00  0.00     0.020 A 
ATOM     81  C   UNL A   1      39.662  36.073  39.023  1.00  0.00     0.054 A 
BRANCH  81  82
ATOM     82  S   UNL A   1      39.316  37.372  40.241  1.00  0.00     0.124 S 
ATOM     83  O   UNL A   1      40.626  37.990  40.415  1.00  0.00    -0.237 OA
ATOM     84  O   UNL A   1      38.314  38.190  39.562  1.00  0.00    -0.237 OA
ATOM     85  O   UNL A   1      38.816  36.628  41.396  1.00  0.00    -0.744 OA
ENDBRANCH  81  82
ENDBRANCH  62  76
BRANCH  63  86
ATOM     86  C   UNL A   1      41.787  27.723  29.744  1.00  0.00    -0.014 A 
ATOM     87  C   UNL A   1      42.821  28.008  28.834  1.00  0.00     0.010 A 
ATOM     88  C   UNL A   1      40.983  26.589  29.531  1.00  0.00     0.010 A 
ATOM     89  C   UNL A   1      43.007  27.214  27.699  1.00  0.00     0.020 A 
ATOM     90  C   UNL A   1      41.183  25.776  28.411  1.00  0.00     0.020 A 
ATOM     91  C   UNL A   1      42.173  26.115  27.485  1.00  0.00     0.054 A 
BRANCH  91  92
ATOM     92  S   UNL A   1      42.387  25.134  25.973  1.00  0.00     0.124 S 
ATOM     93  O   UNL A   1      43.834  24.940  25.946  1.00  0.00    -0.237 OA
ATOM     94  O   UNL A   1      41.597  23.937  26.249  1.00  0.00    -0.237 OA
ATOM     95  O   UNL A   1      41.852  26.001  24.926  1.00  0.00    -0.744 OA
ENDBRANCH  91  92
ENDBRANCH  63  86
BRANCH  75  96
ATOM     96  C   UNL A   1      37.023  32.754  30.810  1.00  0.00    -0.014 A 
ATOM     97  C   UNL A   1      37.233  33.697  29.784  1.00  0.00     0.010 A 
ATOM     98  C   UNL A   1      35.705  32.431  31.176  1.00  0.00     0.010 A 
ATOM     99  C   UNL A   1      36.151  34.335  29.168  1.00  0.00     0.020 A 
ATOM    100  C   UNL A   1      34.619  33.049  30.545  1.00  0.00     0.020 A 
ATOM    101  C   UNL A   1      34.849  34.016  29.563  1.00  0.00     0.054 A 
BRANCH 101 102
ATOM    102  S   UNL A   1      33.456  34.881  28.783  1.00  0.00     0.124 S 
ATOM    103  O   UNL A   1      32.543  35.072  29.905  1.00  0.00    -0.237 OA
ATOM    104  O   UNL A   1      34.080  36.096  28.264  1.00  0.00    -0.237 OA
ATOM    105  O   UNL A   1      33.000  33.942  27.760  1.00  0.00    -0.744 OA
ENDBRANCH 101 102
ENDBRANCH  75  96
ENDBRANCH  49  50
ENDBRANCH  41  44
ENDBRANCH  39  40
ENDBRANCH   1  39
TORSDOF 16
ENDMDL
