MODEL 1
REMARK VINA RESULT:     -10.3      0.000      0.000
REMARK SMILES CCCn1c(N2CCC[C@@H](C)C2)c(/C=C2/SC(=S)N(CC(=O)NCCCNC(=O)c3ccc(-c4c5nc(c(-c6ccc(S(=O)(=O)[O-])cc6)c6ccc([nH]6)c(-c6ccc(S(=O)(=O)[O-])cc6)c6nc(c(-c7ccc(S(=O)(=O)[O-])cc7)c7ccc4[nH]7)C=C6)C=C5)cc3)C2=O)c(C)c(C#N)c1=O
REMARK SMILES IDX 24 1 23 2 21 3 22 4 20 6 19 7 14 8 15 9 16 10 90 11 17 12
REMARK SMILES IDX 91 13 18 14 13 15 4 16 5 17 97 18 94 19 98 20 92 21 93 22
REMARK SMILES IDX 3 23 2 24 1 25 6 26 7 27 12 28 8 29 10 30 9 31 11 32 95 33
REMARK SMILES IDX 96 34 25 35 26 36 27 37 28 38 29 40 30 41 31 42 89 43 32 44
REMARK SMILES IDX 88 45 33 46 34 47 35 48 82 49 36 50 87 51 81 52 83 53 37 54
REMARK SMILES IDX 86 55 80 56 79 57 38 59 68 60 49 61 67 62 50 63 53 64 66 65
REMARK SMILES IDX 84 66 51 67 52 68 65 70 85 71 54 72 39 73 40 74 48 75 41 76
REMARK SMILES IDX 47 77 42 78 43 79 44 80 45 81 46 82 69 83 70 84 78 85 71 86
REMARK SMILES IDX 77 87 72 88 73 89 74 90 75 91 76 92 55 93 56 94 64 95 57 96
REMARK SMILES IDX 63 97 58 98 59 99 60 100 61 101 62 102
REMARK H PARENT 23 5 27 39 83 58 53 69
REMARK Flexibility Score: inf
ROOT
ATOM      1  C   UNL A   1      47.280  37.216  25.762  1.00  0.00     0.117 C 
ENDROOT
BRANCH   1   2
ATOM      2  N   UNL A   1      46.199  38.109  26.130  1.00  0.00    -0.354 N 
ATOM      3  C   UNL A   1      45.960  39.397  25.750  1.00  0.00     0.240 C 
ATOM      4  O   UNL A   1      44.834  39.847  25.971  1.00  0.00    -0.273 OA
ATOM      5  H   UNL A   1      45.536  37.727  26.749  1.00  0.00     0.163 HD
BRANCH   3   6
ATOM      6  C   UNL A   1      46.999  40.209  24.964  1.00  0.00     0.227 C 
BRANCH   6   7
ATOM      7  N   UNL A   1      46.923  41.647  25.235  1.00  0.00    -0.283 N 
ATOM      8  C   UNL A   1      45.957  44.902  23.911  1.00  0.00     0.033 C 
ATOM      9  C   UNL A   1      46.448  43.879  24.632  1.00  0.00     0.081 C 
ATOM     10  S   UNL A   1      46.963  44.007  26.267  1.00  0.00    -0.054 SA
ATOM     11  C   UNL A   1      46.614  42.472  24.171  1.00  0.00     0.266 C 
ATOM     12  C   UNL A   1      47.306  42.283  26.392  1.00  0.00     0.148 C 
ATOM     13  O   UNL A   1      46.519  42.102  23.008  1.00  0.00    -0.268 OA
ATOM     14  S   UNL A   1      48.027  41.624  27.745  1.00  0.00    -0.052 S 
BRANCH   8  15
ATOM     15  C   UNL A   1      45.503  44.785  22.517  1.00  0.00     0.021 A 
ATOM     16  N   UNL A   1      45.945  44.699  20.167  1.00  0.00    -0.293 N 
ATOM     17  C   UNL A   1      46.382  44.990  21.482  1.00  0.00     0.119 A 
ATOM     18  C   UNL A   1      44.667  44.181  19.877  1.00  0.00     0.270 A 
ATOM     19  C   UNL A   1      43.728  44.040  21.006  1.00  0.00     0.121 A 
ATOM     20  O   UNL A   1      44.285  43.879  18.746  1.00  0.00    -0.268 OA
ATOM     21  C   UNL A   1      44.108  44.388  22.247  1.00  0.00    -0.017 A 
ATOM     22  C   UNL A   1      43.141  44.380  23.416  1.00  0.00     0.047 C 
BRANCH  16  23
ATOM     23  C   UNL A   1      46.809  44.921  18.999  1.00  0.00     0.127 C 
BRANCH  23  24
ATOM     24  C   UNL A   1      46.748  46.278  18.292  1.00  0.00     0.019 C 
ATOM     25  C   UNL A   1      46.559  46.237  16.789  1.00  0.00     0.006 C 
ENDBRANCH  23  24
ENDBRANCH  16  23
BRANCH  17  26
ATOM     26  N   UNL A   1      47.714  45.428  21.707  1.00  0.00    -0.357 N 
ATOM     27  C   UNL A   1      48.854  44.518  21.490  1.00  0.00     0.118 C 
ATOM     28  C   UNL A   1      48.084  46.853  21.612  1.00  0.00     0.121 C 
ATOM     29  C   UNL A   1      50.021  44.843  22.431  1.00  0.00     0.022 C 
ATOM     30  C   UNL A   1      49.150  47.220  22.642  1.00  0.00     0.005 C 
ATOM     31  C   UNL A   1      50.384  46.329  22.466  1.00  0.00     0.007 C 
ATOM     32  C   UNL A   1      49.511  48.701  22.516  1.00  0.00     0.009 C 
ENDBRANCH  17  26
BRANCH  19  33
ATOM     33  C   UNL A   1      42.313  43.534  20.776  1.00  0.00     0.105 C 
ATOM     34  N   UNL A   1      41.140  43.114  20.587  1.00  0.00    -0.192 NA
ENDBRANCH  19  33
ENDBRANCH   8  15
ENDBRANCH   6   7
ENDBRANCH   3   6
ENDBRANCH   1   2
BRANCH   1  35
ATOM     35  C   UNL A   1      48.618  37.656  26.343  1.00  0.00     0.042 C 
BRANCH  35  36
ATOM     36  C   UNL A   1      49.137  36.722  27.435  1.00  0.00     0.118 C 
BRANCH  36  37
ATOM     37  N   UNL A   1      48.753  37.170  28.766  1.00  0.00    -0.352 N 
ATOM     38  C   UNL A   1      47.862  36.613  29.651  1.00  0.00     0.251 C 
ATOM     39  H   UNL A   1      49.197  37.992  29.078  1.00  0.00     0.163 HD
ATOM     40  O   UNL A   1      47.498  37.247  30.637  1.00  0.00    -0.269 OA
BRANCH  38  41
ATOM     41  C   UNL A   1      47.339  35.257  29.402  1.00  0.00     0.039 A 
ATOM     42  C   UNL A   1      46.557  35.024  28.268  1.00  0.00     0.014 A 
ATOM     43  C   UNL A   1      47.613  34.218  30.299  1.00  0.00     0.014 A 
ATOM     44  C   UNL A   1      46.097  33.733  28.002  1.00  0.00     0.010 A 
ATOM     45  C   UNL A   1      47.203  32.922  30.002  1.00  0.00     0.010 A 
ATOM     46  C   UNL A   1      46.436  32.671  28.855  1.00  0.00    -0.014 A 
BRANCH  46  47
ATOM     47  C   UNL A   1      45.962  31.293  28.586  1.00  0.00     0.031 A 
ATOM     48  C   UNL A   1      44.519  30.944  28.827  1.00  0.00     0.074 A 
ATOM     49  C   UNL A   1      46.826  30.356  28.145  1.00  0.00     0.049 A 
ATOM     50  N   UNL A   1      43.920  29.791  28.682  1.00  0.00    -0.248 NA
ATOM     51  C   UNL A   1      43.637  32.025  29.300  1.00  0.00     0.031 C 
ATOM     52  C   UNL A   1      48.247  30.576  27.870  1.00  0.00     0.029 A 
ATOM     53  N   UNL A   1      46.631  29.032  27.842  1.00  0.00    -0.354 N 
ATOM     54  C   UNL A   1      42.595  30.010  29.037  1.00  0.00     0.074 A 
ATOM     55  C   UNL A   1      42.484  31.390  29.453  1.00  0.00     0.031 C 
ATOM     56  C   UNL A   1      48.785  29.437  27.403  1.00  0.00     0.029 A 
ATOM     57  C   UNL A   1      47.759  28.397  27.380  1.00  0.00     0.049 A 
ATOM     58  H   UNL A   1      45.763  28.578  27.946  1.00  0.00     0.167 HD
ATOM     59  C   UNL A   1      41.556  29.144  28.994  1.00  0.00     0.031 A 
ATOM     60  C   UNL A   1      47.946  27.124  26.977  1.00  0.00     0.031 A 
ATOM     61  C   UNL A   1      41.662  27.778  28.566  1.00  0.00     0.049 A 
ATOM     62  C   UNL A   1      46.787  26.166  27.002  1.00  0.00     0.074 A 
ATOM     63  C   UNL A   1      40.656  26.833  28.469  1.00  0.00     0.029 A 
ATOM     64  N   UNL A   1      42.834  27.163  28.157  1.00  0.00    -0.354 N 
ATOM     65  N   UNL A   1      45.539  26.396  27.333  1.00  0.00    -0.248 NA
ATOM     66  C   UNL A   1      47.057  24.779  26.598  1.00  0.00     0.031 C 
ATOM     67  C   UNL A   1      41.227  25.632  28.040  1.00  0.00     0.029 A 
ATOM     68  C   UNL A   1      42.578  25.846  27.821  1.00  0.00     0.049 A 
ATOM     69  H   UNL A   1      43.715  27.598  28.110  1.00  0.00     0.167 HD
ATOM     70  C   UNL A   1      44.871  25.191  27.149  1.00  0.00     0.074 A 
ATOM     71  C   UNL A   1      45.850  24.234  26.678  1.00  0.00     0.031 C 
ATOM     72  C   UNL A   1      43.561  24.908  27.348  1.00  0.00     0.031 A 
BRANCH  59  73
ATOM     73  C   UNL A   1      40.199  29.646  29.393  1.00  0.00    -0.014 A 
ATOM     74  C   UNL A   1      39.892  29.860  30.748  1.00  0.00     0.010 A 
ATOM     75  C   UNL A   1      39.272  30.024  28.406  1.00  0.00     0.010 A 
ATOM     76  C   UNL A   1      38.681  30.453  31.109  1.00  0.00     0.020 A 
ATOM     77  C   UNL A   1      38.067  30.635  28.763  1.00  0.00     0.020 A 
ATOM     78  C   UNL A   1      37.784  30.851  30.113  1.00  0.00     0.054 A 
BRANCH  78  79
ATOM     79  S   UNL A   1      36.255  31.687  30.617  1.00  0.00     0.124 S 
ATOM     80  O   UNL A   1      35.854  30.912  31.789  1.00  0.00    -0.237 OA
ATOM     81  O   UNL A   1      36.718  33.045  30.889  1.00  0.00    -0.237 OA
ATOM     82  O   UNL A   1      35.381  31.547  29.454  1.00  0.00    -0.744 OA
ENDBRANCH  78  79
ENDBRANCH  59  73
BRANCH  60  83
ATOM     83  C   UNL A   1      49.280  26.688  26.486  1.00  0.00    -0.014 A 
ATOM     84  C   UNL A   1      50.174  26.039  27.356  1.00  0.00     0.010 A 
ATOM     85  C   UNL A   1      49.659  26.903  25.149  1.00  0.00     0.010 A 
ATOM     86  C   UNL A   1      51.427  25.619  26.900  1.00  0.00     0.020 A 
ATOM     87  C   UNL A   1      50.902  26.464  24.683  1.00  0.00     0.020 A 
ATOM     88  C   UNL A   1      51.779  25.826  25.563  1.00  0.00     0.054 A 
BRANCH  88  89
ATOM     89  S   UNL A   1      53.395  25.238  24.989  1.00  0.00     0.124 S 
ATOM     90  O   UNL A   1      53.367  25.587  23.572  1.00  0.00    -0.237 OA
ATOM     91  O   UNL A   1      54.315  26.015  25.816  1.00  0.00    -0.237 OA
ATOM     92  O   UNL A   1      53.364  23.805  25.279  1.00  0.00    -0.744 OA
ENDBRANCH  88  89
ENDBRANCH  60  83
BRANCH  72  93
ATOM     93  C   UNL A   1      43.080  23.518  27.035  1.00  0.00    -0.014 A 
ATOM     94  C   UNL A   1      43.044  23.049  25.711  1.00  0.00     0.010 A 
ATOM     95  C   UNL A   1      42.788  22.634  28.090  1.00  0.00     0.010 A 
ATOM     96  C   UNL A   1      42.724  21.715  25.449  1.00  0.00     0.020 A 
ATOM     97  C   UNL A   1      42.490  21.295  27.833  1.00  0.00     0.020 A 
ATOM     98  C   UNL A   1      42.461  20.844  26.512  1.00  0.00     0.054 A 
BRANCH  98  99
ATOM     99  S   UNL A   1      42.114  19.103  26.137  1.00  0.00     0.124 S 
ATOM    100  O   UNL A   1      42.930  18.874  24.948  1.00  0.00    -0.237 OA
ATOM    101  O   UNL A   1      42.567  18.426  27.350  1.00  0.00    -0.237 OA
ATOM    102  O   UNL A   1      40.670  19.076  25.913  1.00  0.00    -0.744 OA
ENDBRANCH  98  99
ENDBRANCH  72  93
ENDBRANCH  46  47
ENDBRANCH  38  41
ENDBRANCH  36  37
ENDBRANCH  35  36
ENDBRANCH   1  35
TORSDOF 19
ENDMDL
MODEL 2
REMARK VINA RESULT:      -9.7      6.169     13.366
REMARK SMILES CCCn1c(N2CCC[C@@H](C)C2)c(/C=C2/SC(=S)N(CC(=O)NCCCNC(=O)c3ccc(-c4c5nc(c(-c6ccc(S(=O)(=O)[O-])cc6)c6ccc([nH]6)c(-c6ccc(S(=O)(=O)[O-])cc6)c6nc(c(-c7ccc(S(=O)(=O)[O-])cc7)c7ccc4[nH]7)C=C6)C=C5)cc3)C2=O)c(C)c(C#N)c1=O
REMARK SMILES IDX 24 1 23 2 21 3 22 4 20 6 19 7 14 8 15 9 16 10 90 11 17 12
REMARK SMILES IDX 91 13 18 14 13 15 4 16 5 17 97 18 94 19 98 20 92 21 93 22
REMARK SMILES IDX 3 23 2 24 1 25 6 26 7 27 12 28 8 29 10 30 9 31 11 32 95 33
REMARK SMILES IDX 96 34 25 35 26 36 27 37 28 38 29 40 30 41 31 42 89 43 32 44
REMARK SMILES IDX 88 45 33 46 34 47 35 48 82 49 36 50 87 51 81 52 83 53 37 54
REMARK SMILES IDX 86 55 80 56 79 57 38 59 68 60 49 61 67 62 50 63 53 64 66 65
REMARK SMILES IDX 84 66 51 67 52 68 65 70 85 71 54 72 39 73 40 74 48 75 41 76
REMARK SMILES IDX 47 77 42 78 43 79 44 80 45 81 46 82 69 83 70 84 78 85 71 86
REMARK SMILES IDX 77 87 72 88 73 89 74 90 75 91 76 92 55 93 56 94 64 95 57 96
REMARK SMILES IDX 63 97 58 98 59 99 60 100 61 101 62 102
REMARK H PARENT 23 5 27 39 83 58 53 69
REMARK Flexibility Score: inf
ROOT
ATOM      1  C   UNL A   1      40.416  34.094  30.582  1.00  0.00     0.117 C 
ENDROOT
BRANCH   1   2
ATOM      2  N   UNL A   1      41.505  33.865  31.510  1.00  0.00    -0.354 N 
ATOM      3  C   UNL A   1      41.553  34.038  32.862  1.00  0.00     0.240 C 
ATOM      4  O   UNL A   1      42.493  33.511  33.462  1.00  0.00    -0.273 OA
ATOM      5  H   UNL A   1      42.338  33.534  31.103  1.00  0.00     0.163 HD
BRANCH   3   6
ATOM      6  C   UNL A   1      40.422  34.744  33.624  1.00  0.00     0.227 C 
BRANCH   6   7
ATOM      7  N   UNL A   1      39.365  33.826  34.054  1.00  0.00    -0.283 N 
ATOM      8  C   UNL A   1      36.158  32.327  33.185  1.00  0.00     0.033 C 
ATOM      9  C   UNL A   1      37.280  32.747  33.793  1.00  0.00     0.081 C 
ATOM     10  S   UNL A   1      37.890  32.092  35.261  1.00  0.00    -0.054 SA
ATOM     11  C   UNL A   1      38.199  33.818  33.312  1.00  0.00     0.266 C 
ATOM     12  C   UNL A   1      39.333  33.103  35.223  1.00  0.00     0.148 C 
ATOM     13  O   UNL A   1      37.945  34.600  32.405  1.00  0.00    -0.268 OA
ATOM     14  S   UNL A   1      40.421  33.134  36.487  1.00  0.00    -0.052 S 
BRANCH   8  15
ATOM     15  C   UNL A   1      35.648  32.880  31.922  1.00  0.00     0.021 A 
ATOM     16  N   UNL A   1      35.309  32.744  29.557  1.00  0.00    -0.293 N 
ATOM     17  C   UNL A   1      35.960  32.280  30.726  1.00  0.00     0.119 A 
ATOM     18  C   UNL A   1      34.339  33.765  29.568  1.00  0.00     0.270 A 
ATOM     19  C   UNL A   1      34.082  34.432  30.859  1.00  0.00     0.121 A 
ATOM     20  O   UNL A   1      33.729  34.150  28.570  1.00  0.00    -0.268 OA
ATOM     21  C   UNL A   1      34.752  34.052  31.960  1.00  0.00    -0.017 A 
ATOM     22  C   UNL A   1      34.615  34.788  33.278  1.00  0.00     0.047 C 
BRANCH  16  23
ATOM     23  C   UNL A   1      35.608  32.180  28.232  1.00  0.00     0.127 C 
BRANCH  23  24
ATOM     24  C   UNL A   1      34.756  31.012  27.727  1.00  0.00     0.019 C 
ATOM     25  C   UNL A   1      35.506  29.737  27.396  1.00  0.00     0.006 C 
ENDBRANCH  23  24
ENDBRANCH  16  23
BRANCH  17  26
ATOM     26  N   UNL A   1      36.864  31.188  30.651  1.00  0.00    -0.357 N 
ATOM     27  C   UNL A   1      36.379  29.799  30.750  1.00  0.00     0.118 C 
ATOM     28  C   UNL A   1      38.154  31.302  29.944  1.00  0.00     0.121 C 
ATOM     29  C   UNL A   1      37.430  28.879  31.382  1.00  0.00     0.022 C 
ATOM     30  C   UNL A   1      39.246  30.497  30.648  1.00  0.00     0.005 C 
ATOM     31  C   UNL A   1      38.824  29.029  30.769  1.00  0.00     0.007 C 
ATOM     32  C   UNL A   1      40.568  30.635  29.891  1.00  0.00     0.009 C 
ENDBRANCH  17  26
BRANCH  19  33
ATOM     33  C   UNL A   1      33.086  35.576  30.953  1.00  0.00     0.105 C 
ATOM     34  N   UNL A   1      32.260  36.526  31.032  1.00  0.00    -0.192 NA
ENDBRANCH  19  33
ENDBRANCH   8  15
ENDBRANCH   6   7
ENDBRANCH   3   6
ENDBRANCH   1   2
BRANCH   1  35
ATOM     35  C   UNL A   1      40.643  35.324  29.713  1.00  0.00     0.042 C 
BRANCH  35  36
ATOM     36  C   UNL A   1      40.848  34.990  28.237  1.00  0.00     0.118 C 
BRANCH  36  37
ATOM     37  N   UNL A   1      41.145  36.174  27.443  1.00  0.00    -0.352 N 
ATOM     38  C   UNL A   1      42.329  36.562  26.866  1.00  0.00     0.251 C 
ATOM     39  H   UNL A   1      40.387  36.786  27.300  1.00  0.00     0.163 HD
ATOM     40  O   UNL A   1      42.451  37.700  26.421  1.00  0.00    -0.269 OA
BRANCH  38  41
ATOM     41  C   UNL A   1      43.454  35.610  26.795  1.00  0.00     0.039 A 
ATOM     42  C   UNL A   1      44.279  35.445  27.910  1.00  0.00     0.014 A 
ATOM     43  C   UNL A   1      43.696  34.889  25.620  1.00  0.00     0.014 A 
ATOM     44  C   UNL A   1      45.316  34.512  27.866  1.00  0.00     0.010 A 
ATOM     45  C   UNL A   1      44.693  33.920  25.599  1.00  0.00     0.010 A 
ATOM     46  C   UNL A   1      45.515  33.727  26.719  1.00  0.00    -0.014 A 
BRANCH  46  47
ATOM     47  C   UNL A   1      46.608  32.727  26.656  1.00  0.00     0.031 A 
ATOM     48  C   UNL A   1      48.022  33.187  26.434  1.00  0.00     0.074 A 
ATOM     49  C   UNL A   1      46.328  31.415  26.779  1.00  0.00     0.049 A 
ATOM     50  N   UNL A   1      49.107  32.468  26.318  1.00  0.00    -0.248 NA
ATOM     51  C   UNL A   1      48.246  34.638  26.318  1.00  0.00     0.031 C 
ATOM     52  C   UNL A   1      44.996  30.848  27.003  1.00  0.00     0.029 A 
ATOM     53  N   UNL A   1      47.152  30.317  26.744  1.00  0.00    -0.354 N 
ATOM     54  C   UNL A   1      50.141  33.376  26.124  1.00  0.00     0.074 A 
ATOM     55  C   UNL A   1      49.550  34.695  26.087  1.00  0.00     0.031 C 
ATOM     56  C   UNL A   1      45.100  29.515  27.122  1.00  0.00     0.029 A 
ATOM     57  C   UNL A   1      46.497  29.126  26.947  1.00  0.00     0.049 A 
ATOM     58  H   UNL A   1      48.122  30.378  26.587  1.00  0.00     0.167 HD
ATOM     59  C   UNL A   1      51.467  33.135  26.015  1.00  0.00     0.031 A 
ATOM     60  C   UNL A   1      46.969  27.864  26.994  1.00  0.00     0.031 A 
ATOM     61  C   UNL A   1      52.055  31.826  26.068  1.00  0.00     0.049 A 
ATOM     62  C   UNL A   1      48.441  27.620  26.804  1.00  0.00     0.074 A 
ATOM     63  C   UNL A   1      53.395  31.489  25.988  1.00  0.00     0.029 A 
ATOM     64  N   UNL A   1      51.351  30.645  26.222  1.00  0.00    -0.354 N 
ATOM     65  N   UNL A   1      49.402  28.495  26.631  1.00  0.00    -0.248 NA
ATOM     66  C   UNL A   1      48.894  26.222  26.816  1.00  0.00     0.031 C 
ATOM     67  C   UNL A   1      53.498  30.098  26.051  1.00  0.00     0.029 A 
ATOM     68  C   UNL A   1      52.226  29.574  26.223  1.00  0.00     0.049 A 
ATOM     69  H   UNL A   1      50.373  30.577  26.318  1.00  0.00     0.167 HD
ATOM     70  C   UNL A   1      50.576  27.755  26.544  1.00  0.00     0.074 A 
ATOM     71  C   UNL A   1      50.207  26.362  26.683  1.00  0.00     0.031 C 
ATOM     72  C   UNL A   1      51.845  28.194  26.370  1.00  0.00     0.031 A 
BRANCH  59  73
ATOM     73  C   UNL A   1      52.390  34.308  25.854  1.00  0.00    -0.014 A 
ATOM     74  C   UNL A   1      52.669  34.820  24.575  1.00  0.00     0.010 A 
ATOM     75  C   UNL A   1      52.877  34.979  26.989  1.00  0.00     0.010 A 
ATOM     76  C   UNL A   1      53.417  35.991  24.434  1.00  0.00     0.020 A 
ATOM     77  C   UNL A   1      53.609  36.161  26.853  1.00  0.00     0.020 A 
ATOM     78  C   UNL A   1      53.868  36.662  25.575  1.00  0.00     0.054 A 
BRANCH  78  79
ATOM     79  S   UNL A   1      54.769  38.220  25.355  1.00  0.00     0.124 S 
ATOM     80  O   UNL A   1      55.681  37.896  24.260  1.00  0.00    -0.237 OA
ATOM     81  O   UNL A   1      53.699  39.156  25.026  1.00  0.00    -0.237 OA
ATOM     82  O   UNL A   1      55.412  38.437  26.650  1.00  0.00    -0.744 OA
ENDBRANCH  78  79
ENDBRANCH  59  73
BRANCH  60  83
ATOM     83  C   UNL A   1      46.041  26.733  27.262  1.00  0.00    -0.014 A 
ATOM     84  C   UNL A   1      45.314  26.152  26.208  1.00  0.00     0.010 A 
ATOM     85  C   UNL A   1      45.890  26.220  28.563  1.00  0.00     0.010 A 
ATOM     86  C   UNL A   1      44.446  25.084  26.451  1.00  0.00     0.020 A 
ATOM     87  C   UNL A   1      45.041  25.138  28.806  1.00  0.00     0.020 A 
ATOM     88  C   UNL A   1      44.322  24.577  27.748  1.00  0.00     0.054 A 
BRANCH  88  89
ATOM     89  S   UNL A   1      43.217  23.166  28.028  1.00  0.00     0.124 S 
ATOM     90  O   UNL A   1      41.900  23.758  27.814  1.00  0.00    -0.237 OA
ATOM     91  O   UNL A   1      43.662  22.222  27.006  1.00  0.00    -0.237 OA
ATOM     92  O   UNL A   1      43.507  22.770  29.405  1.00  0.00    -0.744 OA
ENDBRANCH  88  89
ENDBRANCH  60  83
BRANCH  72  93
ATOM     93  C   UNL A   1      52.952  27.177  26.346  1.00  0.00    -0.014 A 
ATOM     94  C   UNL A   1      53.529  26.770  25.131  1.00  0.00     0.010 A 
ATOM     95  C   UNL A   1      53.505  26.729  27.559  1.00  0.00     0.010 A 
ATOM     96  C   UNL A   1      54.643  25.928  25.133  1.00  0.00     0.020 A 
ATOM     97  C   UNL A   1      54.633  25.906  27.565  1.00  0.00     0.020 A 
ATOM     98  C   UNL A   1      55.196  25.512  26.349  1.00  0.00     0.054 A 
BRANCH  98  99
ATOM     99  S   UNL A   1      56.683  24.473  26.314  1.00  0.00     0.124 S 
ATOM    100  O   UNL A   1      57.739  25.437  26.615  1.00  0.00    -0.237 OA
ATOM    101  O   UNL A   1      56.406  23.496  27.363  1.00  0.00    -0.237 OA
ATOM    102  O   UNL A   1      56.702  23.937  24.955  1.00  0.00    -0.744 OA
ENDBRANCH  98  99
ENDBRANCH  72  93
ENDBRANCH  46  47
ENDBRANCH  38  41
ENDBRANCH  36  37
ENDBRANCH  35  36
ENDBRANCH   1  35
TORSDOF 19
ENDMDL
MODEL 3
REMARK VINA RESULT:      -9.4      0.792      7.723
REMARK SMILES CCCn1c(N2CCC[C@@H](C)C2)c(/C=C2/SC(=S)N(CC(=O)NCCCNC(=O)c3ccc(-c4c5nc(c(-c6ccc(S(=O)(=O)[O-])cc6)c6ccc([nH]6)c(-c6ccc(S(=O)(=O)[O-])cc6)c6nc(c(-c7ccc(S(=O)(=O)[O-])cc7)c7ccc4[nH]7)C=C6)C=C5)cc3)C2=O)c(C)c(C#N)c1=O
REMARK SMILES IDX 24 1 23 2 21 3 22 4 20 6 19 7 14 8 15 9 16 10 90 11 17 12
REMARK SMILES IDX 91 13 18 14 13 15 4 16 5 17 97 18 94 19 98 20 92 21 93 22
REMARK SMILES IDX 3 23 2 24 1 25 6 26 7 27 12 28 8 29 10 30 9 31 11 32 95 33
REMARK SMILES IDX 96 34 25 35 26 36 27 37 28 38 29 40 30 41 31 42 89 43 32 44
REMARK SMILES IDX 88 45 33 46 34 47 35 48 82 49 36 50 87 51 81 52 83 53 37 54
REMARK SMILES IDX 86 55 80 56 79 57 38 59 68 60 49 61 67 62 50 63 53 64 66 65
REMARK SMILES IDX 84 66 51 67 52 68 65 70 85 71 54 72 39 73 40 74 48 75 41 76
REMARK SMILES IDX 47 77 42 78 43 79 44 80 45 81 46 82 69 83 70 84 78 85 71 86
REMARK SMILES IDX 77 87 72 88 73 89 74 90 75 91 76 92 55 93 56 94 64 95 57 96
REMARK SMILES IDX 63 97 58 98 59 99 60 100 61 101 62 102
REMARK H PARENT 23 5 27 39 83 58 53 69
REMARK Flexibility Score: inf
ROOT
ATOM      1  C   UNL A   1      48.001  37.483  25.784  1.00  0.00     0.117 C 
ENDROOT
BRANCH   1   2
ATOM      2  N   UNL A   1      46.832  38.183  26.276  1.00  0.00    -0.354 N 
ATOM      3  C   UNL A   1      46.211  39.297  25.792  1.00  0.00     0.240 C 
ATOM      4  O   UNL A   1      45.077  39.535  26.214  1.00  0.00    -0.273 OA
ATOM      5  H   UNL A   1      46.423  37.796  27.082  1.00  0.00     0.163 HD
BRANCH   3   6
ATOM      6  C   UNL A   1      46.835  40.144  24.675  1.00  0.00     0.227 C 
BRANCH   6   7
ATOM      7  N   UNL A   1      46.833  41.578  24.977  1.00  0.00    -0.283 N 
ATOM      8  C   UNL A   1      45.989  44.902  23.743  1.00  0.00     0.033 C 
ATOM      9  C   UNL A   1      46.449  43.843  24.431  1.00  0.00     0.081 C 
ATOM     10  S   UNL A   1      47.007  43.911  26.056  1.00  0.00    -0.054 SA
ATOM     11  C   UNL A   1      46.538  42.439  23.938  1.00  0.00     0.266 C 
ATOM     12  C   UNL A   1      47.273  42.171  26.137  1.00  0.00     0.148 C 
ATOM     13  O   UNL A   1      46.399  42.099  22.770  1.00  0.00    -0.268 OA
ATOM     14  S   UNL A   1      47.993  41.450  27.458  1.00  0.00    -0.052 S 
BRANCH   8  15
ATOM     15  C   UNL A   1      45.498  44.836  22.359  1.00  0.00     0.021 A 
ATOM     16  N   UNL A   1      45.871  44.885  19.996  1.00  0.00    -0.293 N 
ATOM     17  C   UNL A   1      46.336  45.128  21.311  1.00  0.00     0.119 A 
ATOM     18  C   UNL A   1      44.606  44.330  19.716  1.00  0.00     0.270 A 
ATOM     19  C   UNL A   1      43.709  44.095  20.863  1.00  0.00     0.121 A 
ATOM     20  O   UNL A   1      44.202  44.070  18.583  1.00  0.00    -0.268 OA
ATOM     21  C   UNL A   1      44.112  44.396  22.109  1.00  0.00    -0.017 A 
ATOM     22  C   UNL A   1      43.183  44.290  23.302  1.00  0.00     0.047 C 
BRANCH  16  23
ATOM     23  C   UNL A   1      46.690  45.200  18.817  1.00  0.00     0.127 C 
BRANCH  23  24
ATOM     24  C   UNL A   1      46.464  46.538  18.106  1.00  0.00     0.019 C 
ATOM     25  C   UNL A   1      45.885  47.652  18.956  1.00  0.00     0.006 C 
ENDBRANCH  23  24
ENDBRANCH  16  23
BRANCH  17  26
ATOM     26  N   UNL A   1      47.656  45.609  21.520  1.00  0.00    -0.357 N 
ATOM     27  C   UNL A   1      47.889  46.969  22.044  1.00  0.00     0.118 C 
ATOM     28  C   UNL A   1      48.781  44.690  21.774  1.00  0.00     0.121 C 
ATOM     29  C   UNL A   1      49.204  47.557  21.518  1.00  0.00     0.022 C 
ATOM     30  C   UNL A   1      50.071  45.200  21.133  1.00  0.00     0.005 C 
ATOM     31  C   UNL A   1      50.395  46.606  21.647  1.00  0.00     0.007 C 
ATOM     32  C   UNL A   1      51.216  44.226  21.416  1.00  0.00     0.009 C 
ENDBRANCH  17  26
BRANCH  19  33
ATOM     33  C   UNL A   1      42.308  43.544  20.648  1.00  0.00     0.105 C 
ATOM     34  N   UNL A   1      41.147  43.086  20.470  1.00  0.00    -0.192 NA
ENDBRANCH  19  33
ENDBRANCH   8  15
ENDBRANCH   6   7
ENDBRANCH   3   6
ENDBRANCH   1   2
BRANCH   1  35
ATOM     35  C   UNL A   1      49.289  37.983  26.426  1.00  0.00     0.042 C 
BRANCH  35  36
ATOM     36  C   UNL A   1      49.827  37.046  27.506  1.00  0.00     0.118 C 
BRANCH  36  37
ATOM     37  N   UNL A   1      49.403  37.449  28.840  1.00  0.00    -0.352 N 
ATOM     38  C   UNL A   1      48.509  36.844  29.690  1.00  0.00     0.251 C 
ATOM     39  H   UNL A   1      49.817  38.274  29.183  1.00  0.00     0.163 HD
ATOM     40  O   UNL A   1      48.106  37.442  30.683  1.00  0.00    -0.269 OA
BRANCH  38  41
ATOM     41  C   UNL A   1      48.027  35.482  29.394  1.00  0.00     0.039 A 
ATOM     42  C   UNL A   1      48.391  34.431  30.239  1.00  0.00     0.014 A 
ATOM     43  C   UNL A   1      47.225  35.244  28.272  1.00  0.00     0.014 A 
ATOM     44  C   UNL A   1      47.902  33.147  29.992  1.00  0.00     0.010 A 
ATOM     45  C   UNL A   1      46.692  33.976  28.061  1.00  0.00     0.010 A 
ATOM     46  C   UNL A   1      47.031  32.917  28.915  1.00  0.00    -0.014 A 
BRANCH  46  47
ATOM     47  C   UNL A   1      46.496  31.562  28.640  1.00  0.00     0.031 A 
ATOM     48  C   UNL A   1      47.380  30.533  27.991  1.00  0.00     0.074 A 
ATOM     49  C   UNL A   1      45.220  31.264  28.955  1.00  0.00     0.049 A 
ATOM     50  N   UNL A   1      47.090  29.307  27.643  1.00  0.00    -0.248 NA
ATOM     51  C   UNL A   1      48.765  30.934  27.687  1.00  0.00     0.031 C 
ATOM     52  C   UNL A   1      44.268  32.177  29.591  1.00  0.00     0.029 A 
ATOM     53  N   UNL A   1      44.505  30.104  28.789  1.00  0.00    -0.354 N 
ATOM     54  C   UNL A   1      48.253  28.790  27.087  1.00  0.00     0.074 A 
ATOM     55  C   UNL A   1      49.240  29.846  27.097  1.00  0.00     0.031 C 
ATOM     56  C   UNL A   1      43.109  31.530  29.796  1.00  0.00     0.029 A 
ATOM     57  C   UNL A   1      43.220  30.171  29.274  1.00  0.00     0.049 A 
ATOM     58  H   UNL A   1      44.878  29.298  28.363  1.00  0.00     0.167 HD
ATOM     59  C   UNL A   1      48.487  27.537  26.634  1.00  0.00     0.031 A 
ATOM     60  C   UNL A   1      42.245  29.240  29.301  1.00  0.00     0.031 A 
ATOM     61  C   UNL A   1      47.512  26.483  26.638  1.00  0.00     0.049 A 
ATOM     62  C   UNL A   1      42.513  27.875  28.730  1.00  0.00     0.074 A 
ATOM     63  C   UNL A   1      47.668  25.173  26.218  1.00  0.00     0.029 A 
ATOM     64  N   UNL A   1      46.208  26.609  27.089  1.00  0.00    -0.354 N 
ATOM     65  N   UNL A   1      43.624  27.403  28.218  1.00  0.00    -0.248 NA
ATOM     66  C   UNL A   1      41.400  26.915  28.742  1.00  0.00     0.031 C 
ATOM     67  C   UNL A   1      46.445  24.518  26.376  1.00  0.00     0.029 A 
ATOM     68  C   UNL A   1      45.544  25.405  26.942  1.00  0.00     0.049 A 
ATOM     69  H   UNL A   1      45.815  27.431  27.460  1.00  0.00     0.167 HD
ATOM     70  C   UNL A   1      43.352  26.084  27.874  1.00  0.00     0.074 A 
ATOM     71  C   UNL A   1      41.973  25.830  28.235  1.00  0.00     0.031 C 
ATOM     72  C   UNL A   1      44.174  25.166  27.313  1.00  0.00     0.031 A 
BRANCH  59  73
ATOM     73  C   UNL A   1      49.858  27.215  26.116  1.00  0.00    -0.014 A 
ATOM     74  C   UNL A   1      50.838  26.693  26.979  1.00  0.00     0.010 A 
ATOM     75  C   UNL A   1      50.131  27.313  24.741  1.00  0.00     0.010 A 
ATOM     76  C   UNL A   1      52.067  26.267  26.473  1.00  0.00     0.020 A 
ATOM     77  C   UNL A   1      51.352  26.870  24.228  1.00  0.00     0.020 A 
ATOM     78  C   UNL A   1      52.310  26.344  25.098  1.00  0.00     0.054 A 
BRANCH  78  79
ATOM     79  S   UNL A   1      53.888  25.710  24.467  1.00  0.00     0.124 S 
ATOM     80  O   UNL A   1      53.737  24.269  24.659  1.00  0.00    -0.237 OA
ATOM     81  O   UNL A   1      53.875  26.165  23.080  1.00  0.00    -0.237 OA
ATOM     82  O   UNL A   1      54.886  26.346  25.324  1.00  0.00    -0.744 OA
ENDBRANCH  78  79
ENDBRANCH  59  73
BRANCH  60  83
ATOM     83  C   UNL A   1      40.930  29.559  29.919  1.00  0.00    -0.014 A 
ATOM     84  C   UNL A   1      40.009  30.373  29.236  1.00  0.00     0.010 A 
ATOM     85  C   UNL A   1      40.584  29.043  31.180  1.00  0.00     0.010 A 
ATOM     86  C   UNL A   1      38.769  30.671  29.806  1.00  0.00     0.020 A 
ATOM     87  C   UNL A   1      39.336  29.320  31.744  1.00  0.00     0.020 A 
ATOM     88  C   UNL A   1      38.436  30.135  31.053  1.00  0.00     0.054 A 
BRANCH  88  89
ATOM     89  S   UNL A   1      36.805  30.507  31.753  1.00  0.00     0.124 S 
ATOM     90  O   UNL A   1      35.957  29.507  31.112  1.00  0.00    -0.237 OA
ATOM     91  O   UNL A   1      37.036  30.322  33.183  1.00  0.00    -0.237 OA
ATOM     92  O   UNL A   1      36.560  31.888  31.340  1.00  0.00    -0.744 OA
ENDBRANCH  88  89
ENDBRANCH  60  83
BRANCH  72  93
ATOM     93  C   UNL A   1      43.637  23.783  27.073  1.00  0.00    -0.014 A 
ATOM     94  C   UNL A   1      43.468  22.881  28.138  1.00  0.00     0.010 A 
ATOM     95  C   UNL A   1      43.173  23.433  25.792  1.00  0.00     0.010 A 
ATOM     96  C   UNL A   1      42.844  21.651  27.922  1.00  0.00     0.020 A 
ATOM     97  C   UNL A   1      42.528  22.214  25.577  1.00  0.00     0.020 A 
ATOM     98  C   UNL A   1      42.366  21.331  26.646  1.00  0.00     0.054 A 
BRANCH  98  99
ATOM     99  S   UNL A   1      41.501  19.752  26.416  1.00  0.00     0.124 S 
ATOM    100  O   UNL A   1      42.130  19.230  25.206  1.00  0.00    -0.237 OA
ATOM    101  O   UNL A   1      41.821  19.038  27.649  1.00  0.00    -0.237 OA
ATOM    102  O   UNL A   1      40.100  20.141  26.268  1.00  0.00    -0.744 OA
ENDBRANCH  98  99
ENDBRANCH  72  93
ENDBRANCH  46  47
ENDBRANCH  38  41
ENDBRANCH  36  37
ENDBRANCH  35  36
ENDBRANCH   1  35
TORSDOF 19
ENDMDL
