MODEL 1
REMARK VINA RESULT:     -10.2      0.000      0.000
REMARK SMILES CCC(CC)(CC(=O)Nc1cccc(OC)c1)C(=O)NCCCNC(=O)c1ccc(-c2c3nc(c(-c4ccc(S(=O)(=O)[O-])cc4)c4ccc([nH]4)c(-c4ccc(S(=O)(=O)[O-])cc4)c4nc(c(-c5ccc(S(=O)(=O)[O-])cc5)c5ccc2[nH]5)C=C4)C=C3)cc1
REMARK SMILES IDX 21 1 20 2 18 3 19 4 3 6 2 7 1 8 4 9 5 10 6 11 7 12 8 13 9 14
REMARK SMILES IDX 10 16 11 17 17 18 12 19 14 20 13 21 15 22 16 23 22 24 23 25
REMARK SMILES IDX 24 26 25 27 26 29 27 30 28 31 86 32 29 33 85 34 30 35 31 36
REMARK SMILES IDX 32 37 79 38 33 39 84 40 78 41 80 42 34 43 83 44 77 45 76 46
REMARK SMILES IDX 35 48 65 49 46 50 64 51 47 52 50 53 63 54 81 55 48 56 49 57
REMARK SMILES IDX 62 59 82 60 51 61 36 62 37 63 45 64 38 65 44 66 39 67 40 68
REMARK SMILES IDX 41 69 42 70 43 71 66 72 67 73 75 74 68 75 74 76 69 77 70 78
REMARK SMILES IDX 71 79 72 80 73 81 52 82 53 83 61 84 54 85 60 86 55 87 56 88
REMARK SMILES IDX 57 89 58 90 59 91
REMARK H PARENT 20 5 9 15 24 28 80 47 50 58
REMARK Flexibility Score: inf
ROOT
ATOM      1  C   UNL A   1      36.894  21.132  25.391  1.00  0.00     0.117 C 
ENDROOT
BRANCH   1   2
ATOM      2  N   UNL A   1      35.717  20.404  24.961  1.00  0.00    -0.356 N 
ATOM      3  C   UNL A   1      34.414  20.713  25.164  1.00  0.00     0.226 C 
ATOM      4  O   UNL A   1      33.686  19.771  25.483  1.00  0.00    -0.274 OA
ATOM      5  H   UNL A   1      35.886  19.576  24.456  1.00  0.00     0.163 HD
BRANCH   3   6
ATOM      6  C   UNL A   1      33.873  22.142  24.936  1.00  0.00     0.057 C 
BRANCH   6   7
ATOM      7  C   UNL A   1      34.685  22.665  23.700  1.00  0.00     0.014 C 
ATOM      8  C   UNL A   1      35.310  24.061  23.797  1.00  0.00     0.005 C 
ENDBRANCH   6   7
BRANCH   6   9
ATOM      9  C   UNL A   1      34.190  23.073  26.179  1.00  0.00     0.014 C 
ATOM     10  C   UNL A   1      33.942  22.526  27.587  1.00  0.00     0.005 C 
ENDBRANCH   6   9
BRANCH   6  11
ATOM     11  C   UNL A   1      32.339  22.058  24.662  1.00  0.00     0.117 C 
BRANCH  11  12
ATOM     12  C   UNL A   1      31.827  22.394  23.278  1.00  0.00     0.225 C 
ATOM     13  O   UNL A   1      31.860  21.527  22.397  1.00  0.00    -0.275 OA
ATOM     14  N   UNL A   1      31.255  23.589  22.951  1.00  0.00    -0.326 N 
ATOM     15  H   UNL A   1      30.801  23.551  22.078  1.00  0.00     0.169 HD
BRANCH  14  16
ATOM     16  C   UNL A   1      31.148  24.864  23.546  1.00  0.00     0.044 A 
ATOM     17  C   UNL A   1      29.857  25.410  23.614  1.00  0.00     0.026 A 
ATOM     18  C   UNL A   1      32.205  25.658  23.982  1.00  0.00     0.072 A 
ATOM     19  C   UNL A   1      29.653  26.735  24.012  1.00  0.00     0.006 A 
ATOM     20  C   UNL A   1      32.021  27.011  24.293  1.00  0.00     0.120 A 
ATOM     21  C   UNL A   1      30.741  27.545  24.326  1.00  0.00     0.046 A 
BRANCH  20  22
ATOM     22  O   UNL A   1      33.053  27.852  24.620  1.00  0.00    -0.497 OA
ATOM     23  C   UNL A   1      33.349  28.814  23.605  1.00  0.00     0.278 C 
ENDBRANCH  20  22
ENDBRANCH  14  16
ENDBRANCH  11  12
ENDBRANCH   6  11
ENDBRANCH   3   6
ENDBRANCH   1   2
BRANCH   1  24
ATOM     24  C   UNL A   1      38.151  20.356  25.015  1.00  0.00     0.042 C 
BRANCH  24  25
ATOM     25  C   UNL A   1      39.363  20.716  25.871  1.00  0.00     0.118 C 
BRANCH  25  26
ATOM     26  N   UNL A   1      40.247  19.574  26.095  1.00  0.00    -0.352 N 
ATOM     27  C   UNL A   1      41.611  19.547  26.242  1.00  0.00     0.251 C 
ATOM     28  H   UNL A   1      39.801  18.699  26.149  1.00  0.00     0.163 HD
ATOM     29  O   UNL A   1      42.220  18.482  26.191  1.00  0.00    -0.269 OA
BRANCH  27  30
ATOM     30  C   UNL A   1      42.330  20.818  26.429  1.00  0.00     0.039 A 
ATOM     31  C   UNL A   1      42.732  21.548  25.310  1.00  0.00     0.014 A 
ATOM     32  C   UNL A   1      42.544  21.310  27.718  1.00  0.00     0.014 A 
ATOM     33  C   UNL A   1      43.272  22.822  25.486  1.00  0.00     0.010 A 
ATOM     34  C   UNL A   1      42.987  22.614  27.886  1.00  0.00     0.010 A 
ATOM     35  C   UNL A   1      43.354  23.383  26.772  1.00  0.00    -0.014 A 
BRANCH  35  36
ATOM     36  C   UNL A   1      43.813  24.777  26.981  1.00  0.00     0.031 A 
ATOM     37  C   UNL A   1      45.263  25.126  26.784  1.00  0.00     0.074 A 
ATOM     38  C   UNL A   1      42.942  25.705  27.426  1.00  0.00     0.049 A 
ATOM     39  N   UNL A   1      45.871  26.264  26.994  1.00  0.00    -0.248 NA
ATOM     40  C   UNL A   1      46.151  24.047  26.316  1.00  0.00     0.031 C 
ATOM     41  C   UNL A   1      41.521  25.473  27.700  1.00  0.00     0.029 A 
ATOM     42  N   UNL A   1      43.126  27.028  27.737  1.00  0.00    -0.354 N 
ATOM     43  C   UNL A   1      47.211  26.033  26.702  1.00  0.00     0.074 A 
ATOM     44  C   UNL A   1      47.336  24.636  26.356  1.00  0.00     0.031 C 
ATOM     45  C   UNL A   1      40.958  26.622  28.108  1.00  0.00     0.029 A 
ATOM     46  C   UNL A   1      41.983  27.657  28.174  1.00  0.00     0.049 A 
ATOM     47  H   UNL A   1      43.994  27.485  27.655  1.00  0.00     0.167 HD
ATOM     48  C   UNL A   1      48.241  26.912  26.703  1.00  0.00     0.031 A 
ATOM     49  C   UNL A   1      41.786  28.922  28.594  1.00  0.00     0.031 A 
ATOM     50  C   UNL A   1      48.106  28.303  27.044  1.00  0.00     0.049 A 
ATOM     51  C   UNL A   1      42.951  29.873  28.608  1.00  0.00     0.074 A 
ATOM     52  C   UNL A   1      49.074  29.291  27.020  1.00  0.00     0.029 A 
ATOM     53  N   UNL A   1      46.932  28.902  27.477  1.00  0.00    -0.354 N 
ATOM     54  N   UNL A   1      44.196  29.656  28.256  1.00  0.00    -0.248 NA
ATOM     55  C   UNL A   1      42.683  31.242  29.069  1.00  0.00     0.031 C 
ATOM     56  C   UNL A   1      48.500  30.473  27.498  1.00  0.00     0.029 A 
ATOM     57  C   UNL A   1      47.158  30.239  27.755  1.00  0.00     0.049 A 
ATOM     58  H   UNL A   1      46.065  28.443  27.572  1.00  0.00     0.167 HD
ATOM     59  C   UNL A   1      44.855  30.868  28.432  1.00  0.00     0.074 A 
ATOM     60  C   UNL A   1      43.866  31.816  28.901  1.00  0.00     0.031 C 
ATOM     61  C   UNL A   1      46.162  31.168  28.227  1.00  0.00     0.031 A 
BRANCH  48  62
ATOM     62  C   UNL A   1      49.603  26.389  26.331  1.00  0.00    -0.014 A 
ATOM     63  C   UNL A   1      50.167  26.661  25.071  1.00  0.00     0.010 A 
ATOM     64  C   UNL A   1      50.347  25.646  27.266  1.00  0.00     0.010 A 
ATOM     65  C   UNL A   1      51.431  26.166  24.738  1.00  0.00     0.020 A 
ATOM     66  C   UNL A   1      51.625  25.176  26.948  1.00  0.00     0.020 A 
ATOM     67  C   UNL A   1      52.151  25.426  25.679  1.00  0.00     0.054 A 
BRANCH  67  68
ATOM     68  S   UNL A   1      53.801  24.821  25.229  1.00  0.00     0.124 S 
ATOM     69  O   UNL A   1      54.063  25.554  23.992  1.00  0.00    -0.237 OA
ATOM     70  O   UNL A   1      54.611  25.219  26.378  1.00  0.00    -0.237 OA
ATOM     71  O   UNL A   1      53.613  23.381  25.071  1.00  0.00    -0.744 OA
ENDBRANCH  67  68
ENDBRANCH  48  62
BRANCH  49  72
ATOM     72  C   UNL A   1      40.431  29.360  29.030  1.00  0.00    -0.014 A 
ATOM     73  C   UNL A   1      40.130  29.498  30.397  1.00  0.00     0.010 A 
ATOM     74  C   UNL A   1      39.436  29.654  28.080  1.00  0.00     0.010 A 
ATOM     75  C   UNL A   1      38.855  29.903  30.805  1.00  0.00     0.020 A 
ATOM     76  C   UNL A   1      38.170  30.090  28.483  1.00  0.00     0.020 A 
ATOM     77  C   UNL A   1      37.885  30.200  29.845  1.00  0.00     0.054 A 
BRANCH  77  78
ATOM     78  S   UNL A   1      36.254  30.773  30.398  1.00  0.00     0.124 S 
ATOM     79  O   UNL A   1      36.544  32.130  30.846  1.00  0.00    -0.237 OA
ATOM     80  O   UNL A   1      35.454  30.665  29.180  1.00  0.00    -0.237 OA
ATOM     81  O   UNL A   1      35.898  29.826  31.453  1.00  0.00    -0.744 OA
ENDBRANCH  77  78
ENDBRANCH  49  72
BRANCH  61  82
ATOM     82  C   UNL A   1      46.596  32.586  28.486  1.00  0.00    -0.014 A 
ATOM     83  C   UNL A   1      46.525  33.565  27.480  1.00  0.00     0.010 A 
ATOM     84  C   UNL A   1      47.024  32.956  29.774  1.00  0.00     0.010 A 
ATOM     85  C   UNL A   1      46.904  34.882  27.748  1.00  0.00     0.020 A 
ATOM     86  C   UNL A   1      47.374  34.279  30.055  1.00  0.00     0.020 A 
ATOM     87  C   UNL A   1      47.324  35.231  29.036  1.00  0.00     0.054 A 
BRANCH  87  88
ATOM     88  S   UNL A   1      47.764  36.958  29.370  1.00  0.00     0.124 S 
ATOM     89  O   UNL A   1      46.453  37.583  29.518  1.00  0.00    -0.237 OA
ATOM     90  O   UNL A   1      48.554  36.856  30.594  1.00  0.00    -0.237 OA
ATOM     91  O   UNL A   1      48.516  37.361  28.183  1.00  0.00    -0.744 OA
ENDBRANCH  87  88
ENDBRANCH  61  82
ENDBRANCH  35  36
ENDBRANCH  27  30
ENDBRANCH  25  26
ENDBRANCH  24  25
ENDBRANCH   1  24
TORSDOF 19
ENDMDL
MODEL 2
REMARK VINA RESULT:     -10.2      2.368      8.891
REMARK SMILES CCC(CC)(CC(=O)Nc1cccc(OC)c1)C(=O)NCCCNC(=O)c1ccc(-c2c3nc(c(-c4ccc(S(=O)(=O)[O-])cc4)c4ccc([nH]4)c(-c4ccc(S(=O)(=O)[O-])cc4)c4nc(c(-c5ccc(S(=O)(=O)[O-])cc5)c5ccc2[nH]5)C=C4)C=C3)cc1
REMARK SMILES IDX 21 1 20 2 18 3 19 4 3 6 2 7 1 8 4 9 5 10 6 11 7 12 8 13 9 14
REMARK SMILES IDX 10 16 11 17 17 18 12 19 14 20 13 21 15 22 16 23 22 24 23 25
REMARK SMILES IDX 24 26 25 27 26 29 27 30 28 31 86 32 29 33 85 34 30 35 31 36
REMARK SMILES IDX 32 37 79 38 33 39 84 40 78 41 80 42 34 43 83 44 77 45 76 46
REMARK SMILES IDX 35 48 65 49 46 50 64 51 47 52 50 53 63 54 81 55 48 56 49 57
REMARK SMILES IDX 62 59 82 60 51 61 36 62 37 63 45 64 38 65 44 66 39 67 40 68
REMARK SMILES IDX 41 69 42 70 43 71 66 72 67 73 75 74 68 75 74 76 69 77 70 78
REMARK SMILES IDX 71 79 72 80 73 81 52 82 53 83 61 84 54 85 60 86 55 87 56 88
REMARK SMILES IDX 57 89 58 90 59 91
REMARK H PARENT 20 5 9 15 24 28 80 47 50 58
REMARK Flexibility Score: inf
ROOT
ATOM      1  C   UNL A   1      33.842  30.316  26.842  1.00  0.00     0.117 C 
ENDROOT
BRANCH   1   2
ATOM      2  N   UNL A   1      33.279  29.144  27.484  1.00  0.00    -0.356 N 
ATOM      3  C   UNL A   1      32.239  28.378  27.076  1.00  0.00     0.226 C 
ATOM      4  O   UNL A   1      31.445  28.042  27.957  1.00  0.00    -0.274 OA
ATOM      5  H   UNL A   1      33.707  28.870  28.326  1.00  0.00     0.163 HD
BRANCH   3   6
ATOM      6  C   UNL A   1      32.107  27.900  25.613  1.00  0.00     0.057 C 
BRANCH   6   7
ATOM      7  C   UNL A   1      33.480  27.207  25.311  1.00  0.00     0.014 C 
ATOM      8  C   UNL A   1      33.759  25.855  25.979  1.00  0.00     0.005 C 
ENDBRANCH   6   7
BRANCH   6   9
ATOM      9  C   UNL A   1      31.936  29.131  24.628  1.00  0.00     0.014 C 
ATOM     10  C   UNL A   1      30.916  30.216  24.981  1.00  0.00     0.005 C 
ENDBRANCH   6   9
BRANCH   6  11
ATOM     11  C   UNL A   1      30.897  26.919  25.515  1.00  0.00     0.117 C 
BRANCH  11  12
ATOM     12  C   UNL A   1      30.311  26.622  24.151  1.00  0.00     0.225 C 
ATOM     13  O   UNL A   1      29.420  27.356  23.706  1.00  0.00    -0.275 OA
ATOM     14  N   UNL A   1      30.758  25.625  23.334  1.00  0.00    -0.326 N 
ATOM     15  H   UNL A   1      30.406  25.714  22.419  1.00  0.00     0.169 HD
BRANCH  14  16
ATOM     16  C   UNL A   1      31.599  24.499  23.467  1.00  0.00     0.044 A 
ATOM     17  C   UNL A   1      32.689  24.432  22.586  1.00  0.00     0.026 A 
ATOM     18  C   UNL A   1      31.396  23.419  24.321  1.00  0.00     0.072 A 
ATOM     19  C   UNL A   1      33.479  23.281  22.500  1.00  0.00     0.006 A 
ATOM     20  C   UNL A   1      32.122  22.230  24.179  1.00  0.00     0.120 A 
ATOM     21  C   UNL A   1      33.177  22.168  23.280  1.00  0.00     0.046 A 
BRANCH  20  22
ATOM     22  O   UNL A   1      31.877  21.108  24.927  1.00  0.00    -0.497 OA
ATOM     23  C   UNL A   1      32.420  19.914  24.359  1.00  0.00     0.278 C 
ENDBRANCH  20  22
ENDBRANCH  14  16
ENDBRANCH  11  12
ENDBRANCH   6  11
ENDBRANCH   3   6
ENDBRANCH   1   2
BRANCH   1  24
ATOM     24  C   UNL A   1      34.586  31.163  27.867  1.00  0.00     0.042 C 
BRANCH  24  25
ATOM     25  C   UNL A   1      35.691  30.400  28.594  1.00  0.00     0.118 C 
BRANCH  25  26
ATOM     26  N   UNL A   1      35.603  30.539  30.046  1.00  0.00    -0.352 N 
ATOM     27  C   UNL A   1      36.573  30.351  30.998  1.00  0.00     0.251 C 
ATOM     28  H   UNL A   1      34.721  30.807  30.392  1.00  0.00     0.163 HD
ATOM     29  O   UNL A   1      36.272  30.283  32.187  1.00  0.00    -0.269 OA
BRANCH  27  30
ATOM     30  C   UNL A   1      37.973  30.201  30.564  1.00  0.00     0.039 A 
ATOM     31  C   UNL A   1      38.941  29.831  31.498  1.00  0.00     0.014 A 
ATOM     32  C   UNL A   1      38.303  30.365  29.218  1.00  0.00     0.014 A 
ATOM     33  C   UNL A   1      40.232  29.538  31.059  1.00  0.00     0.010 A 
ATOM     34  C   UNL A   1      39.557  29.977  28.771  1.00  0.00     0.010 A 
ATOM     35  C   UNL A   1      40.534  29.559  29.686  1.00  0.00    -0.014 A 
BRANCH  35  36
ATOM     36  C   UNL A   1      41.862  29.139  29.178  1.00  0.00     0.031 A 
ATOM     37  C   UNL A   1      42.973  30.147  29.065  1.00  0.00     0.074 A 
ATOM     38  C   UNL A   1      42.039  27.875  28.744  1.00  0.00     0.049 A 
ATOM     39  N   UNL A   1      44.175  29.995  28.573  1.00  0.00    -0.248 NA
ATOM     40  C   UNL A   1      42.687  31.511  29.543  1.00  0.00     0.031 C 
ATOM     41  C   UNL A   1      41.021  26.821  28.759  1.00  0.00     0.029 A 
ATOM     42  N   UNL A   1      43.138  27.263  28.196  1.00  0.00    -0.354 N 
ATOM     43  C   UNL A   1      44.779  31.243  28.664  1.00  0.00     0.074 A 
ATOM     44  C   UNL A   1      43.795  32.153  29.206  1.00  0.00     0.031 C 
ATOM     45  C   UNL A   1      41.552  25.688  28.272  1.00  0.00     0.029 A 
ATOM     46  C   UNL A   1      42.929  25.945  27.865  1.00  0.00     0.049 A 
ATOM     47  H   UNL A   1      43.996  27.725  28.053  1.00  0.00     0.167 HD
ATOM     48  C   UNL A   1      46.046  31.596  28.345  1.00  0.00     0.031 A 
ATOM     49  C   UNL A   1      43.749  25.047  27.285  1.00  0.00     0.031 A 
ATOM     50  C   UNL A   1      47.021  30.682  27.811  1.00  0.00     0.049 A 
ATOM     51  C   UNL A   1      45.145  25.469  26.917  1.00  0.00     0.074 A 
ATOM     52  C   UNL A   1      48.349  30.923  27.508  1.00  0.00     0.029 A 
ATOM     53  N   UNL A   1      46.771  29.355  27.493  1.00  0.00    -0.354 N 
ATOM     54  N   UNL A   1      45.724  26.635  27.082  1.00  0.00    -0.248 NA
ATOM     55  C   UNL A   1      46.002  24.453  26.293  1.00  0.00     0.031 C 
ATOM     56  C   UNL A   1      48.886  29.759  26.950  1.00  0.00     0.029 A 
ATOM     57  C   UNL A   1      47.911  28.772  26.967  1.00  0.00     0.049 A 
ATOM     58  H   UNL A   1      45.910  28.895  27.623  1.00  0.00     0.167 HD
ATOM     59  C   UNL A   1      47.020  26.485  26.601  1.00  0.00     0.074 A 
ATOM     60  C   UNL A   1      47.145  25.111  26.161  1.00  0.00     0.031 C 
ATOM     61  C   UNL A   1      48.016  27.403  26.529  1.00  0.00     0.031 A 
BRANCH  48  62
ATOM     62  C   UNL A   1      46.445  33.032  28.558  1.00  0.00    -0.014 A 
ATOM     63  C   UNL A   1      47.023  33.454  29.770  1.00  0.00     0.010 A 
ATOM     64  C   UNL A   1      46.275  33.967  27.521  1.00  0.00     0.010 A 
ATOM     65  C   UNL A   1      47.384  34.791  29.956  1.00  0.00     0.020 A 
ATOM     66  C   UNL A   1      46.665  35.299  27.691  1.00  0.00     0.020 A 
ATOM     67  C   UNL A   1      47.202  35.705  28.915  1.00  0.00     0.054 A 
BRANCH  67  68
ATOM     68  S   UNL A   1      47.708  37.427  29.174  1.00  0.00     0.124 S 
ATOM     69  O   UNL A   1      46.631  38.160  28.512  1.00  0.00    -0.237 OA
ATOM     70  O   UNL A   1      47.737  37.535  30.631  1.00  0.00    -0.237 OA
ATOM     71  O   UNL A   1      49.011  37.510  28.520  1.00  0.00    -0.744 OA
ENDBRANCH  67  68
ENDBRANCH  48  62
BRANCH  49  72
ATOM     72  C   UNL A   1      43.271  23.661  27.022  1.00  0.00    -0.014 A 
ATOM     73  C   UNL A   1      42.696  23.328  25.783  1.00  0.00     0.010 A 
ATOM     74  C   UNL A   1      43.400  22.664  28.005  1.00  0.00     0.010 A 
ATOM     75  C   UNL A   1      42.241  22.027  25.540  1.00  0.00     0.020 A 
ATOM     76  C   UNL A   1      42.976  21.355  27.754  1.00  0.00     0.020 A 
ATOM     77  C   UNL A   1      42.388  21.049  26.526  1.00  0.00     0.054 A 
BRANCH  77  78
ATOM     78  S   UNL A   1      41.837  19.357  26.168  1.00  0.00     0.124 S 
ATOM     79  O   UNL A   1      42.671  19.001  25.026  1.00  0.00    -0.237 OA
ATOM     80  O   UNL A   1      42.137  18.659  27.416  1.00  0.00    -0.237 OA
ATOM     81  O   UNL A   1      40.412  19.514  25.880  1.00  0.00    -0.744 OA
ENDBRANCH  77  78
ENDBRANCH  49  72
BRANCH  61  82
ATOM     82  C   UNL A   1      49.339  26.946  25.973  1.00  0.00    -0.014 A 
ATOM     83  C   UNL A   1      49.668  27.144  24.621  1.00  0.00     0.010 A 
ATOM     84  C   UNL A   1      50.288  26.363  26.833  1.00  0.00     0.010 A 
ATOM     85  C   UNL A   1      50.912  26.740  24.131  1.00  0.00     0.020 A 
ATOM     86  C   UNL A   1      51.545  25.986  26.354  1.00  0.00     0.020 A 
ATOM     87  C   UNL A   1      51.844  26.165  25.002  1.00  0.00     0.054 A 
BRANCH  87  88
ATOM     88  S   UNL A   1      53.469  25.693  24.351  1.00  0.00     0.124 S 
ATOM     89  O   UNL A   1      53.312  25.953  22.922  1.00  0.00    -0.237 OA
ATOM     90  O   UNL A   1      54.373  26.597  25.058  1.00  0.00    -0.237 OA
ATOM     91  O   UNL A   1      53.594  24.284  24.717  1.00  0.00    -0.744 OA
ENDBRANCH  87  88
ENDBRANCH  61  82
ENDBRANCH  35  36
ENDBRANCH  27  30
ENDBRANCH  25  26
ENDBRANCH  24  25
ENDBRANCH   1  24
TORSDOF 19
ENDMDL
MODEL 3
REMARK VINA RESULT:      -9.7      6.045     11.547
REMARK SMILES CCC(CC)(CC(=O)Nc1cccc(OC)c1)C(=O)NCCCNC(=O)c1ccc(-c2c3nc(c(-c4ccc(S(=O)(=O)[O-])cc4)c4ccc([nH]4)c(-c4ccc(S(=O)(=O)[O-])cc4)c4nc(c(-c5ccc(S(=O)(=O)[O-])cc5)c5ccc2[nH]5)C=C4)C=C3)cc1
REMARK SMILES IDX 21 1 20 2 18 3 19 4 3 6 2 7 1 8 4 9 5 10 6 11 7 12 8 13 9 14
REMARK SMILES IDX 10 16 11 17 17 18 12 19 14 20 13 21 15 22 16 23 22 24 23 25
REMARK SMILES IDX 24 26 25 27 26 29 27 30 28 31 86 32 29 33 85 34 30 35 31 36
REMARK SMILES IDX 32 37 79 38 33 39 84 40 78 41 80 42 34 43 83 44 77 45 76 46
REMARK SMILES IDX 35 48 65 49 46 50 64 51 47 52 50 53 63 54 81 55 48 56 49 57
REMARK SMILES IDX 62 59 82 60 51 61 36 62 37 63 45 64 38 65 44 66 39 67 40 68
REMARK SMILES IDX 41 69 42 70 43 71 66 72 67 73 75 74 68 75 74 76 69 77 70 78
REMARK SMILES IDX 71 79 72 80 73 81 52 82 53 83 61 84 54 85 60 86 55 87 56 88
REMARK SMILES IDX 57 89 58 90 59 91
REMARK H PARENT 20 5 9 15 24 28 80 47 50 58
REMARK Flexibility Score: inf
ROOT
ATOM      1  C   UNL A   1      31.701  30.115  26.483  1.00  0.00     0.117 C 
ENDROOT
BRANCH   1   2
ATOM      2  N   UNL A   1      31.863  28.696  26.730  1.00  0.00    -0.356 N 
ATOM      3  C   UNL A   1      31.465  27.656  25.959  1.00  0.00     0.226 C 
ATOM      4  O   UNL A   1      30.951  26.711  26.561  1.00  0.00    -0.274 OA
ATOM      5  H   UNL A   1      32.321  28.456  27.567  1.00  0.00     0.163 HD
BRANCH   3   6
ATOM      6  C   UNL A   1      31.712  27.633  24.434  1.00  0.00     0.057 C 
BRANCH   6   7
ATOM      7  C   UNL A   1      33.274  27.607  24.301  1.00  0.00     0.014 C 
ATOM      8  C   UNL A   1      33.923  28.596  23.324  1.00  0.00     0.005 C 
ENDBRANCH   6   7
BRANCH   6   9
ATOM      9  C   UNL A   1      31.169  28.958  23.753  1.00  0.00     0.014 C 
ATOM     10  C   UNL A   1      29.676  29.057  23.430  1.00  0.00     0.005 C 
ENDBRANCH   6   9
BRANCH   6  11
ATOM     11  C   UNL A   1      31.030  26.363  23.836  1.00  0.00     0.117 C 
BRANCH  11  12
ATOM     12  C   UNL A   1      31.477  25.872  22.475  1.00  0.00     0.225 C 
ATOM     13  O   UNL A   1      31.170  26.523  21.470  1.00  0.00    -0.275 OA
ATOM     14  N   UNL A   1      32.271  24.778  22.288  1.00  0.00    -0.326 N 
ATOM     15  H   UNL A   1      32.624  24.734  21.370  1.00  0.00     0.169 HD
BRANCH  14  16
ATOM     16  C   UNL A   1      32.716  23.695  23.075  1.00  0.00     0.044 A 
ATOM     17  C   UNL A   1      32.247  22.425  22.705  1.00  0.00     0.026 A 
ATOM     18  C   UNL A   1      33.495  23.781  24.226  1.00  0.00     0.072 A 
ATOM     19  C   UNL A   1      32.471  21.307  23.516  1.00  0.00     0.006 A 
ATOM     20  C   UNL A   1      33.646  22.689  25.089  1.00  0.00     0.120 A 
ATOM     21  C   UNL A   1      33.148  21.446  24.724  1.00  0.00     0.046 A 
BRANCH  20  22
ATOM     22  O   UNL A   1      34.312  22.765  26.284  1.00  0.00    -0.497 OA
ATOM     23  C   UNL A   1      33.496  22.446  27.413  1.00  0.00     0.278 C 
ENDBRANCH  20  22
ENDBRANCH  14  16
ENDBRANCH  11  12
ENDBRANCH   6  11
ENDBRANCH   3   6
ENDBRANCH   1   2
BRANCH   1  24
ATOM     24  C   UNL A   1      33.066  30.778  26.352  1.00  0.00     0.042 C 
BRANCH  24  25
ATOM     25  C   UNL A   1      33.558  31.412  27.652  1.00  0.00     0.118 C 
BRANCH  25  26
ATOM     26  N   UNL A   1      33.159  32.812  27.776  1.00  0.00    -0.352 N 
ATOM     27  C   UNL A   1      33.571  33.757  28.682  1.00  0.00     0.251 C 
ATOM     28  H   UNL A   1      32.499  33.123  27.115  1.00  0.00     0.163 HD
ATOM     29  O   UNL A   1      32.965  34.819  28.791  1.00  0.00    -0.269 OA
BRANCH  27  30
ATOM     30  C   UNL A   1      34.732  33.460  29.538  1.00  0.00     0.039 A 
ATOM     31  C   UNL A   1      34.561  32.659  30.667  1.00  0.00     0.014 A 
ATOM     32  C   UNL A   1      35.998  33.925  29.175  1.00  0.00     0.014 A 
ATOM     33  C   UNL A   1      35.683  32.251  31.388  1.00  0.00     0.010 A 
ATOM     34  C   UNL A   1      37.118  33.436  29.833  1.00  0.00     0.010 A 
ATOM     35  C   UNL A   1      36.972  32.594  30.944  1.00  0.00    -0.014 A 
BRANCH  35  36
ATOM     36  C   UNL A   1      38.187  32.079  31.620  1.00  0.00     0.031 A 
ATOM     37  C   UNL A   1      38.603  32.646  32.949  1.00  0.00     0.074 A 
ATOM     38  C   UNL A   1      38.955  31.162  30.997  1.00  0.00     0.049 A 
ATOM     39  N   UNL A   1      39.671  32.386  33.657  1.00  0.00    -0.248 NA
ATOM     40  C   UNL A   1      37.716  33.659  33.548  1.00  0.00     0.031 C 
ATOM     41  C   UNL A   1      38.680  30.573  29.684  1.00  0.00     0.029 A 
ATOM     42  N   UNL A   1      40.133  30.572  31.382  1.00  0.00    -0.354 N 
ATOM     43  C   UNL A   1      39.594  33.213  34.771  1.00  0.00     0.074 A 
ATOM     44  C   UNL A   1      38.406  34.023  34.618  1.00  0.00     0.031 C 
ATOM     45  C   UNL A   1      39.643  29.685  29.389  1.00  0.00     0.029 A 
ATOM     46  C   UNL A   1      40.629  29.678  30.463  1.00  0.00     0.049 A 
ATOM     47  H   UNL A   1      40.580  30.769  32.237  1.00  0.00     0.167 HD
ATOM     48  C   UNL A   1      40.426  33.278  35.836  1.00  0.00     0.031 A 
ATOM     49  C   UNL A   1      41.759  28.944  30.477  1.00  0.00     0.031 A 
ATOM     50  C   UNL A   1      41.604  32.465  35.983  1.00  0.00     0.049 A 
ATOM     51  C   UNL A   1      42.681  29.051  31.661  1.00  0.00     0.074 A 
ATOM     52  C   UNL A   1      42.483  32.411  37.049  1.00  0.00     0.029 A 
ATOM     53  N   UNL A   1      42.070  31.569  35.032  1.00  0.00    -0.354 N 
ATOM     54  N   UNL A   1      42.551  29.783  32.743  1.00  0.00    -0.248 NA
ATOM     55  C   UNL A   1      43.896  28.227  31.631  1.00  0.00     0.031 C 
ATOM     56  C   UNL A   1      43.515  31.528  36.717  1.00  0.00     0.029 A 
ATOM     57  C   UNL A   1      43.243  30.981  35.472  1.00  0.00     0.049 A 
ATOM     58  H   UNL A   1      41.631  31.379  34.171  1.00  0.00     0.167 HD
ATOM     59  C   UNL A   1      43.658  29.491  33.531  1.00  0.00     0.074 A 
ATOM     60  C   UNL A   1      44.433  28.501  32.812  1.00  0.00     0.031 C 
ATOM     61  C   UNL A   1      44.005  29.999  34.740  1.00  0.00     0.031 A 
BRANCH  48  62
ATOM     62  C   UNL A   1      40.095  34.269  36.921  1.00  0.00    -0.014 A 
ATOM     63  C   UNL A   1      40.572  35.592  36.869  1.00  0.00     0.010 A 
ATOM     64  C   UNL A   1      39.264  33.885  37.989  1.00  0.00     0.010 A 
ATOM     65  C   UNL A   1      40.260  36.499  37.885  1.00  0.00     0.020 A 
ATOM     66  C   UNL A   1      38.922  34.798  38.991  1.00  0.00     0.020 A 
ATOM     67  C   UNL A   1      39.437  36.096  38.940  1.00  0.00     0.054 A 
BRANCH  67  68
ATOM     68  S   UNL A   1      39.024  37.304  40.228  1.00  0.00     0.124 S 
ATOM     69  O   UNL A   1      38.337  38.340  39.461  1.00  0.00    -0.237 OA
ATOM     70  O   UNL A   1      38.179  36.528  41.133  1.00  0.00    -0.237 OA
ATOM     71  O   UNL A   1      40.324  37.690  40.772  1.00  0.00    -0.744 OA
ENDBRANCH  67  68
ENDBRANCH  48  62
BRANCH  49  72
ATOM     72  C   UNL A   1      42.076  28.042  29.336  1.00  0.00    -0.014 A 
ATOM     73  C   UNL A   1      42.907  28.480  28.289  1.00  0.00     0.010 A 
ATOM     74  C   UNL A   1      41.560  26.734  29.295  1.00  0.00     0.010 A 
ATOM     75  C   UNL A   1      43.199  27.634  27.214  1.00  0.00     0.020 A 
ATOM     76  C   UNL A   1      41.875  25.875  28.238  1.00  0.00     0.020 A 
ATOM     77  C   UNL A   1      42.684  26.335  27.198  1.00  0.00     0.054 A 
BRANCH  77  78
ATOM     78  S   UNL A   1      43.119  25.239  25.818  1.00  0.00     0.124 S 
ATOM     79  O   UNL A   1      42.383  24.025  26.151  1.00  0.00    -0.237 OA
ATOM     80  O   UNL A   1      42.626  25.983  24.660  1.00  0.00    -0.237 OA
ATOM     81  O   UNL A   1      44.574  25.137  25.907  1.00  0.00    -0.744 OA
ENDBRANCH  77  78
ENDBRANCH  49  72
BRANCH  61  82
ATOM     82  C   UNL A   1      45.265  29.476  35.376  1.00  0.00    -0.014 A 
ATOM     83  C   UNL A   1      45.250  28.329  36.187  1.00  0.00     0.010 A 
ATOM     84  C   UNL A   1      46.492  30.111  35.107  1.00  0.00     0.010 A 
ATOM     85  C   UNL A   1      46.435  27.842  36.744  1.00  0.00     0.020 A 
ATOM     86  C   UNL A   1      47.684  29.609  35.635  1.00  0.00     0.020 A 
ATOM     87  C   UNL A   1      47.645  28.484  36.462  1.00  0.00     0.054 A 
BRANCH  87  88
ATOM     88  S   UNL A   1      49.175  27.803  37.158  1.00  0.00     0.124 S 
ATOM     89  O   UNL A   1      49.835  27.264  35.972  1.00  0.00    -0.237 OA
ATOM     90  O   UNL A   1      49.809  28.979  37.750  1.00  0.00    -0.237 OA
ATOM     91  O   UNL A   1      48.706  26.806  38.117  1.00  0.00    -0.744 OA
ENDBRANCH  87  88
ENDBRANCH  61  82
ENDBRANCH  35  36
ENDBRANCH  27  30
ENDBRANCH  25  26
ENDBRANCH  24  25
ENDBRANCH   1  24
TORSDOF 19
ENDMDL
