MODEL 1
REMARK VINA RESULT:     -11.5      0.000      0.000
REMARK SMILES CC(C)c1cc2c(cc1Cl)C=C(C(=O)NCCCNC(=O)c1ccc(-c3c4nc(c(-c5ccc(S(=O)(=O)[O-])cc5)c5ccc([nH]5)c(-c5ccc(S(=O)(=O)[O-])cc5)c5nc(c(-c6ccc(S(=O)(=O)[O-])cc6)c6ccc3[nH]6)C=C5)C=C4)cc1)[C@@H](C(F)(F)F)O2
REMARK SMILES IDX 18 1 17 2 16 3 15 4 13 5 14 6 12 8 4 9 5 10 9 11 6 12 8 13
REMARK SMILES IDX 10 14 7 15 87 16 11 17 82 18 2 19 1 20 3 21 83 22 84 23
REMARK SMILES IDX 85 24 86 25 19 26 20 27 21 29 22 30 23 31 81 32 24 33 80 34
REMARK SMILES IDX 25 35 26 36 27 37 74 38 28 39 79 40 73 41 75 42 29 43 78 44
REMARK SMILES IDX 72 45 71 46 30 48 60 49 41 50 59 51 42 52 45 53 58 54 76 55
REMARK SMILES IDX 43 56 44 57 57 59 77 60 46 61 31 62 32 63 40 64 33 65 39 66
REMARK SMILES IDX 34 67 35 68 36 69 37 70 38 71 61 72 62 73 70 74 63 75 69 76
REMARK SMILES IDX 64 77 65 78 66 79 67 80 68 81 47 82 48 83 56 84 49 85 55 86
REMARK SMILES IDX 50 87 51 88 52 89 53 90 54 91
REMARK H PARENT 15 7 19 28 75 47 45 58
REMARK Flexibility Score: inf
ROOT
ATOM      1  C   UNL A   1      33.338  28.568  27.286  1.00  0.00     0.118 C 
ENDROOT
BRANCH   1   2
ATOM      2  C   UNL A   1      32.004  27.958  27.694  1.00  0.00     0.042 C 
BRANCH   2   3
ATOM      3  C   UNL A   1      31.151  27.565  26.499  1.00  0.00     0.118 C 
BRANCH   3   4
ATOM      4  N   UNL A   1      31.774  27.935  25.237  1.00  0.00    -0.352 N 
ATOM      5  C   UNL A   1      32.566  27.346  24.311  1.00  0.00     0.251 C 
ATOM      6  O   UNL A   1      32.860  28.056  23.343  1.00  0.00    -0.270 OA
ATOM      7  H   UNL A   1      31.561  28.864  24.989  1.00  0.00     0.163 HD
BRANCH   5   8
ATOM      8  C   UNL A   1      33.077  25.948  24.381  1.00  0.00     0.067 C 
ATOM      9  C   UNL A   1      35.839  21.792  25.273  1.00  0.00    -0.023 A 
ATOM     10  C   UNL A   1      34.510  22.052  24.865  1.00  0.00     0.052 A 
ATOM     11  C   UNL A   1      36.628  22.905  25.618  1.00  0.00     0.045 A 
ATOM     12  C   UNL A   1      34.010  23.348  24.774  1.00  0.00     0.128 A 
ATOM     13  C   UNL A   1      36.097  24.209  25.574  1.00  0.00     0.032 A 
ATOM     14  Cl  UNL A   1      38.289  22.814  26.083  1.00  0.00    -0.084 Cl
ATOM     15  C   UNL A   1      34.792  24.434  25.142  1.00  0.00     0.019 A 
ATOM     16  O   UNL A   1      32.727  23.486  24.326  1.00  0.00    -0.475 OA
ATOM     17  C   UNL A   1      34.221  25.774  25.071  1.00  0.00     0.025 C 
ATOM     18  C   UNL A   1      32.424  24.771  23.712  1.00  0.00     0.314 C 
BRANCH   9  19
ATOM     19  C   UNL A   1      36.245  20.320  25.241  1.00  0.00     0.014 C 
ATOM     20  C   UNL A   1      35.063  19.458  24.771  1.00  0.00     0.012 C 
ATOM     21  C   UNL A   1      37.506  19.910  24.481  1.00  0.00     0.012 C 
ENDBRANCH   9  19
BRANCH  18  22
ATOM     22  C   UNL A   1      32.732  24.708  22.201  1.00  0.00     0.429 C 
ATOM     23  F   UNL A   1      31.739  25.294  21.487  1.00  0.00    -0.167 F 
ATOM     24  F   UNL A   1      33.875  25.357  21.875  1.00  0.00    -0.167 F 
ATOM     25  F   UNL A   1      32.864  23.441  21.743  1.00  0.00    -0.167 F 
ENDBRANCH  18  22
ENDBRANCH   5   8
ENDBRANCH   3   4
ENDBRANCH   2   3
ENDBRANCH   1   2
BRANCH   1  26
ATOM     26  N   UNL A   1      33.376  30.013  27.502  1.00  0.00    -0.352 N 
ATOM     27  C   UNL A   1      34.358  30.807  28.045  1.00  0.00     0.251 C 
ATOM     28  H   UNL A   1      32.569  30.496  27.211  1.00  0.00     0.163 HD
ATOM     29  O   UNL A   1      34.105  31.975  28.330  1.00  0.00    -0.269 OA
BRANCH  27  30
ATOM     30  C   UNL A   1      35.704  30.253  28.301  1.00  0.00     0.039 A 
ATOM     31  C   UNL A   1      35.994  29.652  29.525  1.00  0.00     0.014 A 
ATOM     32  C   UNL A   1      36.687  30.333  27.310  1.00  0.00     0.014 A 
ATOM     33  C   UNL A   1      37.305  29.321  29.832  1.00  0.00     0.010 A 
ATOM     34  C   UNL A   1      37.985  29.888  27.582  1.00  0.00     0.010 A 
ATOM     35  C   UNL A   1      38.317  29.424  28.864  1.00  0.00    -0.014 A 
BRANCH  35  36
ATOM     36  C   UNL A   1      39.699  29.021  29.230  1.00  0.00     0.031 A 
ATOM     37  C   UNL A   1      40.531  29.862  30.161  1.00  0.00     0.074 A 
ATOM     38  C   UNL A   1      40.163  27.833  28.790  1.00  0.00     0.049 A 
ATOM     39  N   UNL A   1      41.721  29.612  30.644  1.00  0.00    -0.248 NA
ATOM     40  C   UNL A   1      39.964  31.145  30.608  1.00  0.00     0.031 C 
ATOM     41  C   UNL A   1      39.434  26.928  27.897  1.00  0.00     0.029 A 
ATOM     42  N   UNL A   1      41.322  27.155  29.073  1.00  0.00    -0.354 N 
ATOM     43  C   UNL A   1      42.053  30.707  31.432  1.00  0.00     0.074 A 
ATOM     44  C   UNL A   1      40.952  31.640  31.343  1.00  0.00     0.031 C 
ATOM     45  C   UNL A   1      40.113  25.779  27.785  1.00  0.00     0.029 A 
ATOM     46  C   UNL A   1      41.365  25.893  28.525  1.00  0.00     0.049 A 
ATOM     47  H   UNL A   1      42.052  27.533  29.614  1.00  0.00     0.167 HD
ATOM     48  C   UNL A   1      43.169  30.908  32.171  1.00  0.00     0.031 A 
ATOM     49  C   UNL A   1      42.302  24.927  28.605  1.00  0.00     0.031 A 
ATOM     50  C   UNL A   1      44.250  29.962  32.268  1.00  0.00     0.049 A 
ATOM     51  C   UNL A   1      43.540  25.184  29.411  1.00  0.00     0.074 A 
ATOM     52  C   UNL A   1      45.424  30.077  32.993  1.00  0.00     0.029 A 
ATOM     53  N   UNL A   1      44.288  28.729  31.636  1.00  0.00    -0.354 N 
ATOM     54  N   UNL A   1      43.840  26.237  30.133  1.00  0.00    -0.248 NA
ATOM     55  C   UNL A   1      44.569  24.138  29.409  1.00  0.00     0.031 C 
ATOM     56  C   UNL A   1      46.195  28.937  32.756  1.00  0.00     0.029 A 
ATOM     57  C   UNL A   1      45.474  28.080  31.939  1.00  0.00     0.049 A 
ATOM     58  H   UNL A   1      43.578  28.367  31.059  1.00  0.00     0.167 HD
ATOM     59  C   UNL A   1      45.093  25.979  30.674  1.00  0.00     0.074 A 
ATOM     60  C   UNL A   1      45.482  24.661  30.217  1.00  0.00     0.031 C 
ATOM     61  C   UNL A   1      45.852  26.769  31.471  1.00  0.00     0.031 A 
BRANCH  48  62
ATOM     62  C   UNL A   1      43.298  32.200  32.939  1.00  0.00    -0.014 A 
ATOM     63  C   UNL A   1      43.949  33.299  32.350  1.00  0.00     0.010 A 
ATOM     64  C   UNL A   1      42.881  32.290  34.279  1.00  0.00     0.010 A 
ATOM     65  C   UNL A   1      44.207  34.455  33.092  1.00  0.00     0.020 A 
ATOM     66  C   UNL A   1      43.115  33.455  35.018  1.00  0.00     0.020 A 
ATOM     67  C   UNL A   1      43.796  34.521  34.425  1.00  0.00     0.054 A 
BRANCH  67  68
ATOM     68  S   UNL A   1      44.156  36.021  35.381  1.00  0.00     0.124 S 
ATOM     69  O   UNL A   1      43.495  37.056  34.594  1.00  0.00    -0.237 OA
ATOM     70  O   UNL A   1      43.550  35.726  36.678  1.00  0.00    -0.237 OA
ATOM     71  O   UNL A   1      45.617  36.076  35.388  1.00  0.00    -0.744 OA
ENDBRANCH  67  68
ENDBRANCH  48  62
BRANCH  49  72
ATOM     72  C   UNL A   1      42.068  23.634  27.907  1.00  0.00    -0.014 A 
ATOM     73  C   UNL A   1      41.400  22.583  28.565  1.00  0.00     0.010 A 
ATOM     74  C   UNL A   1      42.605  23.406  26.628  1.00  0.00     0.010 A 
ATOM     75  C   UNL A   1      41.337  21.311  27.992  1.00  0.00     0.020 A 
ATOM     76  C   UNL A   1      42.514  22.141  26.035  1.00  0.00     0.020 A 
ATOM     77  C   UNL A   1      41.911  21.094  26.737  1.00  0.00     0.054 A 
BRANCH  77  78
ATOM     78  S   UNL A   1      41.877  19.419  26.041  1.00  0.00     0.124 S 
ATOM     79  O   UNL A   1      42.716  19.572  24.855  1.00  0.00    -0.237 OA
ATOM     80  O   UNL A   1      42.448  18.612  27.116  1.00  0.00    -0.237 OA
ATOM     81  O   UNL A   1      40.459  19.189  25.779  1.00  0.00    -0.744 OA
ENDBRANCH  77  78
ENDBRANCH  49  72
BRANCH  61  82
ATOM     82  C   UNL A   1      47.195  26.251  31.908  1.00  0.00    -0.014 A 
ATOM     83  C   UNL A   1      48.298  26.353  31.041  1.00  0.00     0.010 A 
ATOM     84  C   UNL A   1      47.331  25.544  33.116  1.00  0.00     0.010 A 
ATOM     85  C   UNL A   1      49.505  25.727  31.356  1.00  0.00     0.020 A 
ATOM     86  C   UNL A   1      48.547  24.940  33.447  1.00  0.00     0.020 A 
ATOM     87  C   UNL A   1      49.618  25.013  32.552  1.00  0.00     0.054 A 
BRANCH  87  88
ATOM     88  S   UNL A   1      51.181  24.175  32.928  1.00  0.00     0.124 S 
ATOM     89  O   UNL A   1      51.088  23.986  34.371  1.00  0.00    -0.237 OA
ATOM     90  O   UNL A   1      51.095  22.957  32.125  1.00  0.00    -0.237 OA
ATOM     91  O   UNL A   1      52.196  25.130  32.486  1.00  0.00    -0.744 OA
ENDBRANCH  87  88
ENDBRANCH  61  82
ENDBRANCH  35  36
ENDBRANCH  27  30
ENDBRANCH   1  26
TORSDOF 15
ENDMDL
MODEL 2
REMARK VINA RESULT:     -11.4      1.939      2.481
REMARK SMILES CC(C)c1cc2c(cc1Cl)C=C(C(=O)NCCCNC(=O)c1ccc(-c3c4nc(c(-c5ccc(S(=O)(=O)[O-])cc5)c5ccc([nH]5)c(-c5ccc(S(=O)(=O)[O-])cc5)c5nc(c(-c6ccc(S(=O)(=O)[O-])cc6)c6ccc3[nH]6)C=C5)C=C4)cc1)[C@@H](C(F)(F)F)O2
REMARK SMILES IDX 18 1 17 2 16 3 15 4 13 5 14 6 12 8 4 9 5 10 9 11 6 12 8 13
REMARK SMILES IDX 10 14 7 15 87 16 11 17 82 18 2 19 1 20 3 21 83 22 84 23
REMARK SMILES IDX 85 24 86 25 19 26 20 27 21 29 22 30 23 31 81 32 24 33 80 34
REMARK SMILES IDX 25 35 26 36 27 37 74 38 28 39 79 40 73 41 75 42 29 43 78 44
REMARK SMILES IDX 72 45 71 46 30 48 60 49 41 50 59 51 42 52 45 53 58 54 76 55
REMARK SMILES IDX 43 56 44 57 57 59 77 60 46 61 31 62 32 63 40 64 33 65 39 66
REMARK SMILES IDX 34 67 35 68 36 69 37 70 38 71 61 72 62 73 70 74 63 75 69 76
REMARK SMILES IDX 64 77 65 78 66 79 67 80 68 81 47 82 48 83 56 84 49 85 55 86
REMARK SMILES IDX 50 87 51 88 52 89 53 90 54 91
REMARK H PARENT 15 7 19 28 75 47 45 58
REMARK Flexibility Score: inf
ROOT
ATOM      1  C   UNL A   1      34.283  27.930  26.360  1.00  0.00     0.118 C 
ENDROOT
BRANCH   1   2
ATOM      2  C   UNL A   1      33.096  27.071  25.944  1.00  0.00     0.042 C 
BRANCH   2   3
ATOM      3  C   UNL A   1      33.026  26.859  24.441  1.00  0.00     0.118 C 
BRANCH   3   4
ATOM      4  N   UNL A   1      31.712  26.404  24.013  1.00  0.00    -0.352 N 
ATOM      5  C   UNL A   1      31.048  25.229  23.926  1.00  0.00     0.251 C 
ATOM      6  O   UNL A   1      29.891  25.308  23.499  1.00  0.00    -0.270 OA
ATOM      7  H   UNL A   1      31.155  27.155  23.703  1.00  0.00     0.163 HD
BRANCH   5   8
ATOM      8  C   UNL A   1      31.601  23.898  24.308  1.00  0.00     0.067 C 
ATOM      9  C   UNL A   1      33.199  19.088  24.312  1.00  0.00    -0.023 A 
ATOM     10  C   UNL A   1      33.351  20.202  25.171  1.00  0.00     0.052 A 
ATOM     11  C   UNL A   1      32.527  19.308  23.095  1.00  0.00     0.045 A 
ATOM     12  C   UNL A   1      32.830  21.452  24.848  1.00  0.00     0.128 A 
ATOM     13  C   UNL A   1      32.051  20.589  22.755  1.00  0.00     0.032 A 
ATOM     14  Cl  UNL A   1      32.184  18.075  21.936  1.00  0.00    -0.084 Cl
ATOM     15  C   UNL A   1      32.191  21.660  23.634  1.00  0.00     0.019 A 
ATOM     16  O   UNL A   1      32.994  22.446  25.770  1.00  0.00    -0.475 OA
ATOM     17  C   UNL A   1      31.694  22.993  23.315  1.00  0.00     0.025 C 
ATOM     18  C   UNL A   1      32.010  23.518  25.704  1.00  0.00     0.314 C 
BRANCH   9  19
ATOM     19  C   UNL A   1      33.763  17.777  24.856  1.00  0.00     0.014 C 
ATOM     20  C   UNL A   1      32.671  17.009  25.617  1.00  0.00     0.012 C 
ATOM     21  C   UNL A   1      34.486  16.823  23.905  1.00  0.00     0.012 C 
ENDBRANCH   9  19
BRANCH  18  22
ATOM     22  C   UNL A   1      30.801  23.165  26.596  1.00  0.00     0.429 C 
ATOM     23  F   UNL A   1      29.998  24.246  26.759  1.00  0.00    -0.167 F 
ATOM     24  F   UNL A   1      30.029  22.189  26.063  1.00  0.00    -0.167 F 
ATOM     25  F   UNL A   1      31.162  22.741  27.828  1.00  0.00    -0.167 F 
ENDBRANCH  18  22
ENDBRANCH   5   8
ENDBRANCH   3   4
ENDBRANCH   2   3
ENDBRANCH   1   2
BRANCH   1  26
ATOM     26  N   UNL A   1      33.884  29.287  26.727  1.00  0.00    -0.352 N 
ATOM     27  C   UNL A   1      34.485  30.197  27.563  1.00  0.00     0.251 C 
ATOM     28  H   UNL A   1      33.049  29.600  26.308  1.00  0.00     0.163 HD
ATOM     29  O   UNL A   1      33.873  31.208  27.900  1.00  0.00    -0.269 OA
BRANCH  27  30
ATOM     30  C   UNL A   1      35.853  29.951  28.066  1.00  0.00     0.039 A 
ATOM     31  C   UNL A   1      36.956  30.197  27.250  1.00  0.00     0.014 A 
ATOM     32  C   UNL A   1      36.037  29.470  29.366  1.00  0.00     0.014 A 
ATOM     33  C   UNL A   1      38.214  29.774  27.653  1.00  0.00     0.010 A 
ATOM     34  C   UNL A   1      37.324  29.154  29.813  1.00  0.00     0.010 A 
ATOM     35  C   UNL A   1      38.418  29.256  28.942  1.00  0.00    -0.014 A 
BRANCH  35  36
ATOM     36  C   UNL A   1      39.792  28.852  29.339  1.00  0.00     0.031 A 
ATOM     37  C   UNL A   1      40.589  29.675  30.315  1.00  0.00     0.074 A 
ATOM     38  C   UNL A   1      40.277  27.679  28.884  1.00  0.00     0.049 A 
ATOM     39  N   UNL A   1      41.766  29.420  30.827  1.00  0.00    -0.248 NA
ATOM     40  C   UNL A   1      40.001  30.943  30.777  1.00  0.00     0.031 C 
ATOM     41  C   UNL A   1      39.581  26.791  27.947  1.00  0.00     0.029 A 
ATOM     42  N   UNL A   1      41.432  27.001  29.184  1.00  0.00    -0.354 N 
ATOM     43  C   UNL A   1      42.067  30.498  31.652  1.00  0.00     0.074 A 
ATOM     44  C   UNL A   1      40.963  31.425  31.553  1.00  0.00     0.031 C 
ATOM     45  C   UNL A   1      40.271  25.650  27.827  1.00  0.00     0.029 A 
ATOM     46  C   UNL A   1      41.500  25.753  28.607  1.00  0.00     0.049 A 
ATOM     47  H   UNL A   1      42.143  27.370  29.756  1.00  0.00     0.167 HD
ATOM     48  C   UNL A   1      43.160  30.687  32.428  1.00  0.00     0.031 A 
ATOM     49  C   UNL A   1      42.441  24.792  28.690  1.00  0.00     0.031 A 
ATOM     50  C   UNL A   1      44.244  29.746  32.534  1.00  0.00     0.049 A 
ATOM     51  C   UNL A   1      43.653  25.037  29.539  1.00  0.00     0.074 A 
ATOM     52  C   UNL A   1      45.395  29.850  33.296  1.00  0.00     0.029 A 
ATOM     53  N   UNL A   1      44.309  28.529  31.872  1.00  0.00    -0.354 N 
ATOM     54  N   UNL A   1      43.924  26.073  30.296  1.00  0.00    -0.248 NA
ATOM     55  C   UNL A   1      44.689  23.997  29.541  1.00  0.00     0.031 C 
ATOM     56  C   UNL A   1      46.181  28.722  33.053  1.00  0.00     0.029 A 
ATOM     57  C   UNL A   1      45.491  27.881  32.194  1.00  0.00     0.049 A 
ATOM     58  H   UNL A   1      43.619  28.177  31.265  1.00  0.00     0.167 HD
ATOM     59  C   UNL A   1      45.162  25.810  30.867  1.00  0.00     0.074 A 
ATOM     60  C   UNL A   1      45.574  24.506  30.389  1.00  0.00     0.031 C 
ATOM     61  C   UNL A   1      45.892  26.585  31.705  1.00  0.00     0.031 A 
BRANCH  48  62
ATOM     62  C   UNL A   1      43.257  31.960  33.231  1.00  0.00    -0.014 A 
ATOM     63  C   UNL A   1      42.663  32.026  34.505  1.00  0.00     0.010 A 
ATOM     64  C   UNL A   1      43.829  33.121  32.683  1.00  0.00     0.010 A 
ATOM     65  C   UNL A   1      42.615  33.235  35.206  1.00  0.00     0.020 A 
ATOM     66  C   UNL A   1      43.806  34.327  33.392  1.00  0.00     0.020 A 
ATOM     67  C   UNL A   1      43.179  34.380  34.639  1.00  0.00     0.054 A 
BRANCH  67  68
ATOM     68  S   UNL A   1      43.091  35.946  35.552  1.00  0.00     0.124 S 
ATOM     69  O   UNL A   1      43.146  35.499  36.940  1.00  0.00    -0.237 OA
ATOM     70  O   UNL A   1      44.269  36.664  35.071  1.00  0.00    -0.237 OA
ATOM     71  O   UNL A   1      41.813  36.515  35.128  1.00  0.00    -0.744 OA
ENDBRANCH  67  68
ENDBRANCH  48  62
BRANCH  49  72
ATOM     72  C   UNL A   1      42.237  23.515  27.953  1.00  0.00    -0.014 A 
ATOM     73  C   UNL A   1      41.453  22.489  28.516  1.00  0.00     0.010 A 
ATOM     74  C   UNL A   1      42.911  23.273  26.744  1.00  0.00     0.010 A 
ATOM     75  C   UNL A   1      41.404  21.226  27.923  1.00  0.00     0.020 A 
ATOM     76  C   UNL A   1      42.838  22.018  26.129  1.00  0.00     0.020 A 
ATOM     77  C   UNL A   1      42.113  20.993  26.742  1.00  0.00     0.054 A 
BRANCH  77  78
ATOM     78  S   UNL A   1      42.091  19.326  26.027  1.00  0.00     0.124 S 
ATOM     79  O   UNL A   1      42.953  19.492  24.859  1.00  0.00    -0.237 OA
ATOM     80  O   UNL A   1      42.640  18.507  27.103  1.00  0.00    -0.237 OA
ATOM     81  O   UNL A   1      40.678  19.100  25.735  1.00  0.00    -0.744 OA
ENDBRANCH  77  78
ENDBRANCH  49  72
BRANCH  61  82
ATOM     82  C   UNL A   1      47.225  26.064  32.169  1.00  0.00    -0.014 A 
ATOM     83  C   UNL A   1      48.362  26.242  31.362  1.00  0.00     0.010 A 
ATOM     84  C   UNL A   1      47.323  25.283  33.335  1.00  0.00     0.010 A 
ATOM     85  C   UNL A   1      49.568  25.620  31.691  1.00  0.00     0.020 A 
ATOM     86  C   UNL A   1      48.535  24.682  33.681  1.00  0.00     0.020 A 
ATOM     87  C   UNL A   1      49.643  24.832  32.843  1.00  0.00     0.054 A 
BRANCH  87  88
ATOM     88  S   UNL A   1      51.206  24.001  33.235  1.00  0.00     0.124 S 
ATOM     89  O   UNL A   1      50.929  23.432  34.550  1.00  0.00    -0.237 OA
ATOM     90  O   UNL A   1      51.339  23.035  32.146  1.00  0.00    -0.237 OA
ATOM     91  O   UNL A   1      52.184  25.086  33.215  1.00  0.00    -0.744 OA
ENDBRANCH  87  88
ENDBRANCH  61  82
ENDBRANCH  35  36
ENDBRANCH  27  30
ENDBRANCH   1  26
TORSDOF 15
ENDMDL
MODEL 3
REMARK VINA RESULT:     -11.4      3.701      5.001
REMARK SMILES CC(C)c1cc2c(cc1Cl)C=C(C(=O)NCCCNC(=O)c1ccc(-c3c4nc(c(-c5ccc(S(=O)(=O)[O-])cc5)c5ccc([nH]5)c(-c5ccc(S(=O)(=O)[O-])cc5)c5nc(c(-c6ccc(S(=O)(=O)[O-])cc6)c6ccc3[nH]6)C=C5)C=C4)cc1)[C@@H](C(F)(F)F)O2
REMARK SMILES IDX 18 1 17 2 16 3 15 4 13 5 14 6 12 8 4 9 5 10 9 11 6 12 8 13
REMARK SMILES IDX 10 14 7 15 87 16 11 17 82 18 2 19 1 20 3 21 83 22 84 23
REMARK SMILES IDX 85 24 86 25 19 26 20 27 21 29 22 30 23 31 81 32 24 33 80 34
REMARK SMILES IDX 25 35 26 36 27 37 74 38 28 39 79 40 73 41 75 42 29 43 78 44
REMARK SMILES IDX 72 45 71 46 30 48 60 49 41 50 59 51 42 52 45 53 58 54 76 55
REMARK SMILES IDX 43 56 44 57 57 59 77 60 46 61 31 62 32 63 40 64 33 65 39 66
REMARK SMILES IDX 34 67 35 68 36 69 37 70 38 71 61 72 62 73 70 74 63 75 69 76
REMARK SMILES IDX 64 77 65 78 66 79 67 80 68 81 47 82 48 83 56 84 49 85 55 86
REMARK SMILES IDX 50 87 51 88 52 89 53 90 54 91
REMARK H PARENT 15 7 19 28 75 47 45 58
REMARK Flexibility Score: inf
ROOT
ATOM      1  C   UNL A   1      32.665  32.232  27.070  1.00  0.00     0.118 C 
ENDROOT
BRANCH   1   2
ATOM      2  C   UNL A   1      31.360  31.674  26.517  1.00  0.00     0.042 C 
BRANCH   2   3
ATOM      3  C   UNL A   1      31.575  30.479  25.604  1.00  0.00     0.118 C 
BRANCH   3   4
ATOM      4  N   UNL A   1      30.621  30.450  24.506  1.00  0.00    -0.352 N 
ATOM      5  C   UNL A   1      30.185  29.552  23.593  1.00  0.00     0.251 C 
ATOM      6  O   UNL A   1      29.314  29.968  22.821  1.00  0.00    -0.270 OA
ATOM      7  H   UNL A   1      30.169  31.319  24.399  1.00  0.00     0.163 HD
BRANCH   5   8
ATOM      8  C   UNL A   1      30.665  28.146  23.472  1.00  0.00     0.067 C 
ATOM      9  C   UNL A   1      31.559  23.208  24.190  1.00  0.00    -0.023 A 
ATOM     10  C   UNL A   1      31.733  24.121  23.122  1.00  0.00     0.052 A 
ATOM     11  C   UNL A   1      30.904  23.690  25.338  1.00  0.00     0.045 A 
ATOM     12  C   UNL A   1      31.310  25.444  23.213  1.00  0.00     0.128 A 
ATOM     13  C   UNL A   1      30.434  25.015  25.399  1.00  0.00     0.032 A 
ATOM     14  Cl  UNL A   1      30.645  22.761  26.771  1.00  0.00    -0.084 Cl
ATOM     15  C   UNL A   1      30.645  25.898  24.343  1.00  0.00     0.019 A 
ATOM     16  O   UNL A   1      31.570  26.250  22.141  1.00  0.00    -0.475 OA
ATOM     17  C   UNL A   1      30.182  27.280  24.384  1.00  0.00     0.025 C 
ATOM     18  C   UNL A   1      31.654  27.672  22.445  1.00  0.00     0.314 C 
BRANCH   9  19
ATOM     19  C   UNL A   1      32.151  21.821  23.951  1.00  0.00     0.014 C 
ATOM     20  C   UNL A   1      32.118  21.485  22.452  1.00  0.00     0.012 C 
ATOM     21  C   UNL A   1      33.533  21.492  24.515  1.00  0.00     0.012 C 
ENDBRANCH   9  19
BRANCH  18  22
ATOM     22  C   UNL A   1      33.107  28.036  22.816  1.00  0.00     0.429 C 
ATOM     23  F   UNL A   1      33.387  27.650  24.086  1.00  0.00    -0.167 F 
ATOM     24  F   UNL A   1      34.016  27.424  22.019  1.00  0.00    -0.167 F 
ATOM     25  F   UNL A   1      33.355  29.363  22.734  1.00  0.00    -0.167 F 
ENDBRANCH  18  22
ENDBRANCH   5   8
ENDBRANCH   3   4
ENDBRANCH   2   3
ENDBRANCH   1   2
BRANCH   1  26
ATOM     26  N   UNL A   1      32.524  33.607  27.545  1.00  0.00    -0.352 N 
ATOM     27  C   UNL A   1      33.230  34.296  28.502  1.00  0.00     0.251 C 
ATOM     28  H   UNL A   1      31.807  34.124  27.109  1.00  0.00     0.163 HD
ATOM     29  O   UNL A   1      32.811  35.380  28.901  1.00  0.00    -0.269 OA
BRANCH  27  30
ATOM     30  C   UNL A   1      34.473  33.726  29.060  1.00  0.00     0.039 A 
ATOM     31  C   UNL A   1      34.416  32.661  29.958  1.00  0.00     0.014 A 
ATOM     32  C   UNL A   1      35.710  34.259  28.685  1.00  0.00     0.014 A 
ATOM     33  C   UNL A   1      35.564  32.268  30.629  1.00  0.00     0.010 A 
ATOM     34  C   UNL A   1      36.882  33.779  29.279  1.00  0.00     0.010 A 
ATOM     35  C   UNL A   1      36.814  32.814  30.294  1.00  0.00    -0.014 A 
BRANCH  35  36
ATOM     36  C   UNL A   1      38.020  32.332  31.016  1.00  0.00     0.031 A 
ATOM     37  C   UNL A   1      38.363  32.855  32.385  1.00  0.00     0.074 A 
ATOM     38  C   UNL A   1      38.752  31.343  30.463  1.00  0.00     0.049 A 
ATOM     39  N   UNL A   1      39.331  32.481  33.183  1.00  0.00    -0.248 NA
ATOM     40  C   UNL A   1      37.522  33.932  32.933  1.00  0.00     0.031 C 
ATOM     41  C   UNL A   1      38.499  30.749  29.148  1.00  0.00     0.029 A 
ATOM     42  N   UNL A   1      39.814  30.623  30.951  1.00  0.00    -0.354 N 
ATOM     43  C   UNL A   1      39.228  33.285  34.312  1.00  0.00     0.074 A 
ATOM     44  C   UNL A   1      38.122  34.187  34.089  1.00  0.00     0.031 C 
ATOM     45  C   UNL A   1      39.310  29.698  28.976  1.00  0.00     0.029 A 
ATOM     46  C   UNL A   1      40.200  29.592  30.127  1.00  0.00     0.049 A 
ATOM     47  H   UNL A   1      40.255  30.825  31.808  1.00  0.00     0.167 HD
ATOM     48  C   UNL A   1      39.982  33.261  35.436  1.00  0.00     0.031 A 
ATOM     49  C   UNL A   1      41.163  28.660  30.272  1.00  0.00     0.031 A 
ATOM     50  C   UNL A   1      41.070  32.343  35.656  1.00  0.00     0.049 A 
ATOM     51  C   UNL A   1      42.000  28.670  31.516  1.00  0.00     0.074 A 
ATOM     52  C   UNL A   1      41.893  32.242  36.764  1.00  0.00     0.029 A 
ATOM     53  N   UNL A   1      41.478  31.364  34.762  1.00  0.00    -0.354 N 
ATOM     54  N   UNL A   1      41.896  29.452  32.564  1.00  0.00    -0.248 NA
ATOM     55  C   UNL A   1      43.086  27.686  31.600  1.00  0.00     0.031 C 
ATOM     56  C   UNL A   1      42.833  31.239  36.518  1.00  0.00     0.029 A 
ATOM     57  C   UNL A   1      42.554  30.668  35.287  1.00  0.00     0.049 A 
ATOM     58  H   UNL A   1      41.065  31.190  33.886  1.00  0.00     0.167 HD
ATOM     59  C   UNL A   1      42.903  29.054  33.434  1.00  0.00     0.074 A 
ATOM     60  C   UNL A   1      43.587  27.944  32.802  1.00  0.00     0.031 C 
ATOM     61  C   UNL A   1      43.232  29.569  34.643  1.00  0.00     0.031 A 
BRANCH  48  62
ATOM     62  C   UNL A   1      39.674  34.254  36.528  1.00  0.00    -0.014 A 
ATOM     63  C   UNL A   1      40.285  35.522  36.510  1.00  0.00     0.010 A 
ATOM     64  C   UNL A   1      38.875  33.897  37.629  1.00  0.00     0.010 A 
ATOM     65  C   UNL A   1      40.127  36.403  37.583  1.00  0.00     0.020 A 
ATOM     66  C   UNL A   1      38.694  34.786  38.693  1.00  0.00     0.020 A 
ATOM     67  C   UNL A   1      39.340  36.025  38.673  1.00  0.00     0.054 A 
BRANCH  67  68
ATOM     68  S   UNL A   1      39.162  37.172  40.068  1.00  0.00     0.124 S 
ATOM     69  O   UNL A   1      40.550  37.466  40.405  1.00  0.00    -0.237 OA
ATOM     70  O   UNL A   1      38.405  38.275  39.479  1.00  0.00    -0.237 OA
ATOM     71  O   UNL A   1      38.428  36.388  41.060  1.00  0.00    -0.744 OA
ENDBRANCH  67  68
ENDBRANCH  48  62
BRANCH  49  72
ATOM     72  C   UNL A   1      41.349  27.641  29.202  1.00  0.00    -0.014 A 
ATOM     73  C   UNL A   1      40.616  26.439  29.231  1.00  0.00     0.010 A 
ATOM     74  C   UNL A   1      42.335  27.814  28.216  1.00  0.00     0.010 A 
ATOM     75  C   UNL A   1      40.913  25.404  28.343  1.00  0.00     0.020 A 
ATOM     76  C   UNL A   1      42.613  26.791  27.302  1.00  0.00     0.020 A 
ATOM     77  C   UNL A   1      41.923  25.580  27.395  1.00  0.00     0.054 A 
BRANCH  77  78
ATOM     78  S   UNL A   1      42.338  24.199  26.295  1.00  0.00     0.124 S 
ATOM     79  O   UNL A   1      42.752  24.898  25.081  1.00  0.00    -0.237 OA
ATOM     80  O   UNL A   1      43.405  23.517  27.024  1.00  0.00    -0.237 OA
ATOM     81  O   UNL A   1      41.084  23.456  26.194  1.00  0.00    -0.744 OA
ENDBRANCH  77  78
ENDBRANCH  49  72
BRANCH  61  82
ATOM     82  C   UNL A   1      44.390  28.955  35.380  1.00  0.00    -0.014 A 
ATOM     83  C   UNL A   1      44.158  27.930  36.314  1.00  0.00     0.010 A 
ATOM     84  C   UNL A   1      45.686  29.486  35.248  1.00  0.00     0.010 A 
ATOM     85  C   UNL A   1      45.193  27.469  37.130  1.00  0.00     0.020 A 
ATOM     86  C   UNL A   1      46.729  29.007  36.044  1.00  0.00     0.020 A 
ATOM     87  C   UNL A   1      46.470  28.020  36.998  1.00  0.00     0.054 A 
BRANCH  87  88
ATOM     88  S   UNL A   1      47.793  27.436  38.092  1.00  0.00     0.124 S 
ATOM     89  O   UNL A   1      48.825  28.447  37.892  1.00  0.00    -0.237 OA
ATOM     90  O   UNL A   1      47.151  27.440  39.405  1.00  0.00    -0.237 OA
ATOM     91  O   UNL A   1      48.108  26.108  37.568  1.00  0.00    -0.744 OA
ENDBRANCH  87  88
ENDBRANCH  61  82
ENDBRANCH  35  36
ENDBRANCH  27  30
ENDBRANCH   1  26
TORSDOF 15
ENDMDL
