MODEL 1
REMARK VINA RESULT:     -12.2      0.000      0.000
REMARK SMILES O=C(NCCCNC(=O)c1cc2ccccc2cc1NS(=O)(=O)c1ccccc1Br)c1ccc(-c2c3nc(c(-c4ccc(S(=O)(=O)[O-])cc4)c4ccc([nH]4)c(-c4ccc(S(=O)(=O)[O-])cc4)c4nc(c(-c5ccc(S(=O)(=O)[O-])cc5)c5ccc2[nH]5)C=C4)C=C3)cc1
REMARK SMILES IDX 5 1 4 2 3 3 1 4 2 5 31 7 32 8 90 9 33 10 89 11 34 12 35 13
REMARK SMILES IDX 36 14 83 15 37 16 88 17 82 18 84 19 38 20 87 21 81 22 80 23
REMARK SMILES IDX 39 25 69 26 50 27 68 28 51 29 54 30 67 31 85 32 52 33 53 34
REMARK SMILES IDX 66 36 86 37 55 38 40 39 41 40 49 41 42 42 48 43 43 44 44 45
REMARK SMILES IDX 45 46 46 47 47 48 70 49 71 50 79 51 72 52 78 53 73 54 74 55
REMARK SMILES IDX 75 56 76 57 77 58 56 59 57 60 65 61 58 62 64 63 59 64 60 65
REMARK SMILES IDX 61 66 62 67 63 68 6 69 7 70 8 71 9 73 10 74 11 75 19 76
REMARK SMILES IDX 12 77 18 78 13 79 17 80 14 81 16 82 15 83 20 84 21 86 22 87
REMARK SMILES IDX 23 88 24 89 25 90 29 91 26 92 28 93 30 94 27 95
REMARK H PARENT 3 6 84 24 54 35 7 72 20 85
REMARK Flexibility Score: inf
ROOT
ATOM      1  C   UNL A   1      34.152  27.840  26.128  1.00  0.00     0.042 C 
ENDROOT
BRANCH   1   2
ATOM      2  C   UNL A   1      33.368  28.372  27.320  1.00  0.00     0.118 C 
BRANCH   2   3
ATOM      3  N   UNL A   1      33.406  29.824  27.418  1.00  0.00    -0.352 N 
ATOM      4  O   UNL A   1      34.086  31.862  28.059  1.00  0.00    -0.269 OA
ATOM      5  C   UNL A   1      34.370  30.677  27.897  1.00  0.00     0.251 C 
ATOM      6  H   UNL A   1      32.598  30.274  27.081  1.00  0.00     0.163 HD
BRANCH   5   7
ATOM      7  C   UNL A   1      35.733  30.201  28.231  1.00  0.00     0.039 A 
ATOM      8  C   UNL A   1      36.774  30.245  27.304  1.00  0.00     0.014 A 
ATOM      9  C   UNL A   1      35.993  29.778  29.541  1.00  0.00     0.014 A 
ATOM     10  C   UNL A   1      38.032  29.750  27.639  1.00  0.00     0.010 A 
ATOM     11  C   UNL A   1      37.278  29.359  29.903  1.00  0.00     0.010 A 
ATOM     12  C   UNL A   1      38.303  29.318  28.947  1.00  0.00    -0.014 A 
BRANCH  12  13
ATOM     13  C   UNL A   1      39.681  28.903  29.313  1.00  0.00     0.031 A 
ATOM     14  C   UNL A   1      40.598  29.825  30.064  1.00  0.00     0.074 A 
ATOM     15  C   UNL A   1      40.104  27.673  28.959  1.00  0.00     0.049 A 
ATOM     16  N   UNL A   1      41.827  29.615  30.462  1.00  0.00    -0.248 NA
ATOM     17  C   UNL A   1      40.076  31.158  30.402  1.00  0.00     0.031 C 
ATOM     18  C   UNL A   1      39.316  26.695  28.205  1.00  0.00     0.029 A 
ATOM     19  N   UNL A   1      41.295  27.034  29.188  1.00  0.00    -0.354 N 
ATOM     20  C   UNL A   1      42.237  30.793  31.073  1.00  0.00     0.074 A 
ATOM     21  C   UNL A   1      41.129  31.722  30.980  1.00  0.00     0.031 C 
ATOM     22  C   UNL A   1      40.032  25.571  28.060  1.00  0.00     0.029 A 
ATOM     23  C   UNL A   1      41.346  25.764  28.665  1.00  0.00     0.049 A 
ATOM     24  H   UNL A   1      42.043  27.445  29.680  1.00  0.00     0.167 HD
ATOM     25  C   UNL A   1      43.426  31.078  31.658  1.00  0.00     0.031 A 
ATOM     26  C   UNL A   1      42.340  24.857  28.652  1.00  0.00     0.031 A 
ATOM     27  C   UNL A   1      44.523  30.153  31.755  1.00  0.00     0.049 A 
ATOM     28  C   UNL A   1      43.645  25.189  29.311  1.00  0.00     0.074 A 
ATOM     29  C   UNL A   1      45.749  30.332  32.373  1.00  0.00     0.029 A 
ATOM     30  N   UNL A   1      44.533  28.877  31.212  1.00  0.00    -0.354 N 
ATOM     31  N   UNL A   1      43.992  26.291  29.929  1.00  0.00    -0.248 NA
ATOM     32  C   UNL A   1      44.690  24.157  29.273  1.00  0.00     0.031 C 
ATOM     33  C   UNL A   1      46.514  29.177  32.170  1.00  0.00     0.029 A 
ATOM     34  C   UNL A   1      45.751  28.265  31.459  1.00  0.00     0.049 A 
ATOM     35  H   UNL A   1      43.783  28.466  30.722  1.00  0.00     0.167 HD
ATOM     36  C   UNL A   1      45.297  26.088  30.357  1.00  0.00     0.074 A 
ATOM     37  C   UNL A   1      45.671  24.750  29.943  1.00  0.00     0.031 C 
ATOM     38  C   UNL A   1      46.111  26.938  31.029  1.00  0.00     0.031 A 
BRANCH  25  39
ATOM     39  C   UNL A   1      43.604  32.466  32.212  1.00  0.00    -0.014 A 
ATOM     40  C   UNL A   1      44.064  33.519  31.402  1.00  0.00     0.010 A 
ATOM     41  C   UNL A   1      43.303  32.720  33.562  1.00  0.00     0.010 A 
ATOM     42  C   UNL A   1      44.270  34.791  31.945  1.00  0.00     0.020 A 
ATOM     43  C   UNL A   1      43.488  33.995  34.105  1.00  0.00     0.020 A 
ATOM     44  C   UNL A   1      43.995  35.016  33.298  1.00  0.00     0.054 A 
BRANCH  44  45
ATOM     45  S   UNL A   1      44.287  36.668  33.990  1.00  0.00     0.124 S 
ATOM     46  O   UNL A   1      43.053  37.363  33.635  1.00  0.00    -0.237 OA
ATOM     47  O   UNL A   1      44.466  36.398  35.414  1.00  0.00    -0.237 OA
ATOM     48  O   UNL A   1      45.485  37.127  33.292  1.00  0.00    -0.744 OA
ENDBRANCH  44  45
ENDBRANCH  25  39
BRANCH  26  49
ATOM     49  C   UNL A   1      42.117  23.556  27.970  1.00  0.00    -0.014 A 
ATOM     50  C   UNL A   1      42.356  23.419  26.593  1.00  0.00     0.010 A 
ATOM     51  C   UNL A   1      41.757  22.422  28.723  1.00  0.00     0.010 A 
ATOM     52  C   UNL A   1      42.254  22.166  25.981  1.00  0.00     0.020 A 
ATOM     53  C   UNL A   1      41.674  21.166  28.118  1.00  0.00     0.020 A 
ATOM     54  C   UNL A   1      41.923  21.046  26.750  1.00  0.00     0.054 A 
BRANCH  54  55
ATOM     55  S   UNL A   1      41.908  19.410  25.964  1.00  0.00     0.124 S 
ATOM     56  O   UNL A   1      42.815  19.607  24.838  1.00  0.00    -0.237 OA
ATOM     57  O   UNL A   1      42.399  18.539  27.028  1.00  0.00    -0.237 OA
ATOM     58  O   UNL A   1      40.502  19.216  25.614  1.00  0.00    -0.744 OA
ENDBRANCH  54  55
ENDBRANCH  26  49
BRANCH  38  59
ATOM     59  C   UNL A   1      47.491  26.445  31.364  1.00  0.00    -0.014 A 
ATOM     60  C   UNL A   1      47.739  25.772  32.572  1.00  0.00     0.010 A 
ATOM     61  C   UNL A   1      48.533  26.602  30.433  1.00  0.00     0.010 A 
ATOM     62  C   UNL A   1      49.015  25.274  32.850  1.00  0.00     0.020 A 
ATOM     63  C   UNL A   1      49.805  26.091  30.702  1.00  0.00     0.020 A 
ATOM     64  C   UNL A   1      50.040  25.438  31.914  1.00  0.00     0.054 A 
BRANCH  64  65
ATOM     65  S   UNL A   1      51.674  24.730  32.267  1.00  0.00     0.124 S 
ATOM     66  O   UNL A   1      51.894  25.153  33.647  1.00  0.00    -0.237 OA
ATOM     67  O   UNL A   1      51.455  23.299  32.076  1.00  0.00    -0.237 OA
ATOM     68  O   UNL A   1      52.542  25.359  31.275  1.00  0.00    -0.744 OA
ENDBRANCH  64  65
ENDBRANCH  38  59
ENDBRANCH  12  13
ENDBRANCH   5   7
ENDBRANCH   2   3
ENDBRANCH   1   2
BRANCH   1  69
ATOM     69  C   UNL A   1      33.790  28.492  24.800  1.00  0.00     0.118 C 
BRANCH  69  70
ATOM     70  N   UNL A   1      33.996  27.618  23.651  1.00  0.00    -0.352 N 
ATOM     71  C   UNL A   1      33.079  26.939  22.887  1.00  0.00     0.253 C 
ATOM     72  H   UNL A   1      34.936  27.496  23.382  1.00  0.00     0.163 HD
ATOM     73  O   UNL A   1      33.454  26.188  21.990  1.00  0.00    -0.269 OA
BRANCH  71  74
ATOM     74  C   UNL A   1      31.633  27.081  23.151  1.00  0.00     0.064 A 
ATOM     75  C   UNL A   1      31.009  28.235  22.651  1.00  0.00     0.024 A 
ATOM     76  C   UNL A   1      30.910  26.139  23.897  1.00  0.00     0.062 A 
ATOM     77  C   UNL A   1      29.635  28.441  22.843  1.00  0.00    -0.017 A 
ATOM     78  C   UNL A   1      29.524  26.283  23.961  1.00  0.00     0.036 A 
ATOM     79  C   UNL A   1      28.994  29.625  22.446  1.00  0.00     0.009 A 
ATOM     80  C   UNL A   1      28.879  27.428  23.466  1.00  0.00    -0.016 A 
ATOM     81  C   UNL A   1      27.624  29.799  22.658  1.00  0.00     0.001 A 
ATOM     82  C   UNL A   1      27.497  27.601  23.640  1.00  0.00     0.009 A 
ATOM     83  C   UNL A   1      26.874  28.783  23.244  1.00  0.00     0.001 A 
BRANCH  76  84
ATOM     84  N   UNL A   1      31.609  25.221  24.747  1.00  0.00    -0.279 N 
ATOM     85  H   UNL A   1      32.053  25.610  25.535  1.00  0.00     0.180 HD
BRANCH  84  86
ATOM     86  S   UNL A   1      31.758  23.572  24.556  1.00  0.00     0.263 S 
ATOM     87  O   UNL A   1      30.990  22.950  25.613  1.00  0.00    -0.201 OA
ATOM     88  O   UNL A   1      31.466  23.284  23.168  1.00  0.00    -0.201 OA
BRANCH  86  89
ATOM     89  C   UNL A   1      33.464  23.175  24.821  1.00  0.00     0.101 A 
ATOM     90  C   UNL A   1      34.325  24.253  25.102  1.00  0.00     0.023 A 
ATOM     91  C   UNL A   1      33.990  21.895  24.623  1.00  0.00     0.038 A 
ATOM     92  C   UNL A   1      35.706  24.067  25.119  1.00  0.00     0.001 A 
ATOM     93  C   UNL A   1      35.382  21.725  24.623  1.00  0.00     0.017 A 
ATOM     94  Br  UNL A   1      32.952  20.339  24.303  1.00  0.00    -0.049 Br
ATOM     95  C   UNL A   1      36.234  22.808  24.858  1.00  0.00     0.001 A 
ENDBRANCH  86  89
ENDBRANCH  84  86
ENDBRANCH  76  84
ENDBRANCH  71  74
ENDBRANCH  69  70
ENDBRANCH   1  69
TORSDOF 16
ENDMDL
MODEL 2
REMARK VINA RESULT:     -11.8      4.309     10.314
REMARK SMILES O=C(NCCCNC(=O)c1cc2ccccc2cc1NS(=O)(=O)c1ccccc1Br)c1ccc(-c2c3nc(c(-c4ccc(S(=O)(=O)[O-])cc4)c4ccc([nH]4)c(-c4ccc(S(=O)(=O)[O-])cc4)c4nc(c(-c5ccc(S(=O)(=O)[O-])cc5)c5ccc2[nH]5)C=C4)C=C3)cc1
REMARK SMILES IDX 5 1 4 2 3 3 1 4 2 5 31 7 32 8 90 9 33 10 89 11 34 12 35 13
REMARK SMILES IDX 36 14 83 15 37 16 88 17 82 18 84 19 38 20 87 21 81 22 80 23
REMARK SMILES IDX 39 25 69 26 50 27 68 28 51 29 54 30 67 31 85 32 52 33 53 34
REMARK SMILES IDX 66 36 86 37 55 38 40 39 41 40 49 41 42 42 48 43 43 44 44 45
REMARK SMILES IDX 45 46 46 47 47 48 70 49 71 50 79 51 72 52 78 53 73 54 74 55
REMARK SMILES IDX 75 56 76 57 77 58 56 59 57 60 65 61 58 62 64 63 59 64 60 65
REMARK SMILES IDX 61 66 62 67 63 68 6 69 7 70 8 71 9 73 10 74 11 75 19 76
REMARK SMILES IDX 12 77 18 78 13 79 17 80 14 81 16 82 15 83 20 84 21 86 22 87
REMARK SMILES IDX 23 88 24 89 25 90 29 91 26 92 28 93 30 94 27 95
REMARK H PARENT 3 6 84 24 54 35 7 72 20 85
REMARK Flexibility Score: inf
ROOT
ATOM      1  C   UNL A   1      37.497  23.963  25.749  1.00  0.00     0.042 C 
ENDROOT
BRANCH   1   2
ATOM      2  C   UNL A   1      38.647  23.891  26.743  1.00  0.00     0.118 C 
BRANCH   2   3
ATOM      3  N   UNL A   1      39.946  24.102  26.121  1.00  0.00    -0.352 N 
ATOM      4  O   UNL A   1      41.838  25.147  25.528  1.00  0.00    -0.269 OA
ATOM      5  C   UNL A   1      40.904  25.065  26.323  1.00  0.00     0.251 C 
ATOM      6  H   UNL A   1      40.178  23.438  25.433  1.00  0.00     0.163 HD
BRANCH   5   7
ATOM      7  C   UNL A   1      40.831  26.006  27.465  1.00  0.00     0.039 A 
ATOM      8  C   UNL A   1      41.652  27.132  27.541  1.00  0.00     0.014 A 
ATOM      9  C   UNL A   1      39.851  25.799  28.443  1.00  0.00     0.014 A 
ATOM     10  C   UNL A   1      41.586  27.973  28.650  1.00  0.00     0.010 A 
ATOM     11  C   UNL A   1      39.728  26.690  29.515  1.00  0.00     0.010 A 
ATOM     12  C   UNL A   1      40.612  27.772  29.640  1.00  0.00    -0.014 A 
BRANCH  12  13
ATOM     13  C   UNL A   1      40.484  28.745  30.754  1.00  0.00     0.031 A 
ATOM     14  C   UNL A   1      41.377  28.670  31.959  1.00  0.00     0.074 A 
ATOM     15  C   UNL A   1      39.543  29.708  30.671  1.00  0.00     0.049 A 
ATOM     16  N   UNL A   1      41.396  29.443  33.015  1.00  0.00    -0.248 NA
ATOM     17  C   UNL A   1      42.368  27.583  31.991  1.00  0.00     0.031 C 
ATOM     18  C   UNL A   1      38.598  29.868  29.564  1.00  0.00     0.029 A 
ATOM     19  N   UNL A   1      39.231  30.732  31.526  1.00  0.00    -0.354 N 
ATOM     20  C   UNL A   1      42.379  28.925  33.849  1.00  0.00     0.074 A 
ATOM     21  C   UNL A   1      42.924  27.760  33.182  1.00  0.00     0.031 C 
ATOM     22  C   UNL A   1      37.832  30.944  29.793  1.00  0.00     0.029 A 
ATOM     23  C   UNL A   1      38.197  31.521  31.083  1.00  0.00     0.049 A 
ATOM     24  H   UNL A   1      39.702  30.889  32.377  1.00  0.00     0.167 HD
ATOM     25  C   UNL A   1      42.791  29.376  35.059  1.00  0.00     0.031 A 
ATOM     26  C   UNL A   1      37.590  32.579  31.651  1.00  0.00     0.031 A 
ATOM     27  C   UNL A   1      42.253  30.536  35.717  1.00  0.00     0.049 A 
ATOM     28  C   UNL A   1      38.066  33.066  32.987  1.00  0.00     0.074 A 
ATOM     29  C   UNL A   1      42.639  31.100  36.921  1.00  0.00     0.029 A 
ATOM     30  N   UNL A   1      41.206  31.307  35.233  1.00  0.00    -0.354 N 
ATOM     31  N   UNL A   1      39.033  32.592  33.734  1.00  0.00    -0.248 NA
ATOM     32  C   UNL A   1      37.372  34.229  33.556  1.00  0.00     0.031 C 
ATOM     33  C   UNL A   1      41.800  32.190  37.182  1.00  0.00     0.029 A 
ATOM     34  C   UNL A   1      40.916  32.327  36.124  1.00  0.00     0.049 A 
ATOM     35  H   UNL A   1      40.738  31.151  34.381  1.00  0.00     0.167 HD
ATOM     36  C   UNL A   1      39.067  33.399  34.863  1.00  0.00     0.074 A 
ATOM     37  C   UNL A   1      38.036  34.403  34.692  1.00  0.00     0.031 C 
ATOM     38  C   UNL A   1      39.879  33.311  35.945  1.00  0.00     0.031 A 
BRANCH  25  39
ATOM     39  C   UNL A   1      43.861  28.583  35.760  1.00  0.00    -0.014 A 
ATOM     40  C   UNL A   1      45.223  28.875  35.573  1.00  0.00     0.010 A 
ATOM     41  C   UNL A   1      43.497  27.533  36.622  1.00  0.00     0.010 A 
ATOM     42  C   UNL A   1      46.206  28.098  36.194  1.00  0.00     0.020 A 
ATOM     43  C   UNL A   1      44.475  26.766  37.262  1.00  0.00     0.020 A 
ATOM     44  C   UNL A   1      45.824  27.039  37.024  1.00  0.00     0.054 A 
BRANCH  44  45
ATOM     45  S   UNL A   1      47.113  26.029  37.806  1.00  0.00     0.124 S 
ATOM     46  O   UNL A   1      46.448  24.734  37.923  1.00  0.00    -0.237 OA
ATOM     47  O   UNL A   1      48.205  26.087  36.838  1.00  0.00    -0.237 OA
ATOM     48  O   UNL A   1      47.370  26.715  39.069  1.00  0.00    -0.744 OA
ENDBRANCH  44  45
ENDBRANCH  25  39
BRANCH  26  49
ATOM     49  C   UNL A   1      36.456  33.224  30.943  1.00  0.00    -0.014 A 
ATOM     50  C   UNL A   1      35.175  33.254  31.519  1.00  0.00     0.010 A 
ATOM     51  C   UNL A   1      36.680  33.900  29.727  1.00  0.00     0.010 A 
ATOM     52  C   UNL A   1      34.140  33.961  30.900  1.00  0.00     0.020 A 
ATOM     53  C   UNL A   1      35.653  34.624  29.118  1.00  0.00     0.020 A 
ATOM     54  C   UNL A   1      34.389  34.649  29.708  1.00  0.00     0.054 A 
BRANCH  54  55
ATOM     55  S   UNL A   1      33.066  35.656  28.979  1.00  0.00     0.124 S 
ATOM     56  O   UNL A   1      32.337  36.101  30.162  1.00  0.00    -0.237 OA
ATOM     57  O   UNL A   1      33.809  36.693  28.267  1.00  0.00    -0.237 OA
ATOM     58  O   UNL A   1      32.356  34.711  28.120  1.00  0.00    -0.744 OA
ENDBRANCH  54  55
ENDBRANCH  26  49
BRANCH  38  59
ATOM     59  C   UNL A   1      39.688  34.331  37.031  1.00  0.00    -0.014 A 
ATOM     60  C   UNL A   1      38.886  34.048  38.149  1.00  0.00     0.010 A 
ATOM     61  C   UNL A   1      40.370  35.560  36.962  1.00  0.00     0.010 A 
ATOM     62  C   UNL A   1      38.756  34.986  39.178  1.00  0.00     0.020 A 
ATOM     63  C   UNL A   1      40.254  36.492  37.997  1.00  0.00     0.020 A 
ATOM     64  C   UNL A   1      39.440  36.202  39.094  1.00  0.00     0.054 A 
BRANCH  64  65
ATOM     65  S   UNL A   1      39.308  37.381  40.468  1.00  0.00     0.124 S 
ATOM     66  O   UNL A   1      38.942  36.508  41.580  1.00  0.00    -0.237 OA
ATOM     67  O   UNL A   1      40.650  37.953  40.534  1.00  0.00    -0.237 OA
ATOM     68  O   UNL A   1      38.265  38.304  40.030  1.00  0.00    -0.744 OA
ENDBRANCH  64  65
ENDBRANCH  38  59
ENDBRANCH  12  13
ENDBRANCH   5   7
ENDBRANCH   2   3
ENDBRANCH   1   2
BRANCH   1  69
ATOM     69  C   UNL A   1      36.569  22.756  25.777  1.00  0.00     0.118 C 
BRANCH  69  70
ATOM     70  N   UNL A   1      35.585  22.807  26.853  1.00  0.00    -0.352 N 
ATOM     71  C   UNL A   1      34.320  22.277  26.913  1.00  0.00     0.253 C 
ATOM     72  H   UNL A   1      35.872  23.296  27.658  1.00  0.00     0.163 HD
ATOM     73  O   UNL A   1      33.606  22.486  27.890  1.00  0.00    -0.269 OA
BRANCH  71  74
ATOM     74  C   UNL A   1      33.791  21.474  25.792  1.00  0.00     0.064 A 
ATOM     75  C   UNL A   1      34.280  20.164  25.666  1.00  0.00     0.024 A 
ATOM     76  C   UNL A   1      32.875  21.991  24.865  1.00  0.00     0.062 A 
ATOM     77  C   UNL A   1      33.818  19.328  24.640  1.00  0.00    -0.017 A 
ATOM     78  C   UNL A   1      32.319  21.110  23.937  1.00  0.00     0.036 A 
ATOM     79  C   UNL A   1      34.352  18.048  24.421  1.00  0.00     0.009 A 
ATOM     80  C   UNL A   1      32.791  19.795  23.795  1.00  0.00    -0.016 A 
ATOM     81  C   UNL A   1      33.873  17.243  23.384  1.00  0.00     0.001 A 
ATOM     82  C   UNL A   1      32.293  18.962  22.780  1.00  0.00     0.009 A 
ATOM     83  C   UNL A   1      32.836  17.696  22.572  1.00  0.00     0.001 A 
BRANCH  76  84
ATOM     84  N   UNL A   1      32.716  23.410  24.740  1.00  0.00    -0.279 N 
ATOM     85  H   UNL A   1      33.520  23.916  24.480  1.00  0.00     0.180 HD
BRANCH  84  86
ATOM     86  S   UNL A   1      31.331  24.303  24.986  1.00  0.00     0.263 S 
ATOM     87  O   UNL A   1      30.579  24.271  23.750  1.00  0.00    -0.201 OA
ATOM     88  O   UNL A   1      30.740  23.827  26.219  1.00  0.00    -0.201 OA
BRANCH  86  89
ATOM     89  C   UNL A   1      31.841  25.977  25.268  1.00  0.00     0.101 A 
ATOM     90  C   UNL A   1      31.431  26.564  26.480  1.00  0.00     0.023 A 
ATOM     91  C   UNL A   1      32.487  26.751  24.300  1.00  0.00     0.038 A 
ATOM     92  C   UNL A   1      31.606  27.929  26.696  1.00  0.00     0.001 A 
ATOM     93  C   UNL A   1      32.638  28.127  24.521  1.00  0.00     0.017 A 
ATOM     94  Br  UNL A   1      33.153  26.086  22.651  1.00  0.00    -0.049 Br
ATOM     95  C   UNL A   1      32.189  28.714  25.708  1.00  0.00     0.001 A 
ENDBRANCH  86  89
ENDBRANCH  84  86
ENDBRANCH  76  84
ENDBRANCH  71  74
ENDBRANCH  69  70
ENDBRANCH   1  69
TORSDOF 16
ENDMDL
MODEL 3
REMARK VINA RESULT:     -11.6      0.794      8.067
REMARK SMILES O=C(NCCCNC(=O)c1cc2ccccc2cc1NS(=O)(=O)c1ccccc1Br)c1ccc(-c2c3nc(c(-c4ccc(S(=O)(=O)[O-])cc4)c4ccc([nH]4)c(-c4ccc(S(=O)(=O)[O-])cc4)c4nc(c(-c5ccc(S(=O)(=O)[O-])cc5)c5ccc2[nH]5)C=C4)C=C3)cc1
REMARK SMILES IDX 5 1 4 2 3 3 1 4 2 5 31 7 32 8 90 9 33 10 89 11 34 12 35 13
REMARK SMILES IDX 36 14 83 15 37 16 88 17 82 18 84 19 38 20 87 21 81 22 80 23
REMARK SMILES IDX 39 25 69 26 50 27 68 28 51 29 54 30 67 31 85 32 52 33 53 34
REMARK SMILES IDX 66 36 86 37 55 38 40 39 41 40 49 41 42 42 48 43 43 44 44 45
REMARK SMILES IDX 45 46 46 47 47 48 70 49 71 50 79 51 72 52 78 53 73 54 74 55
REMARK SMILES IDX 75 56 76 57 77 58 56 59 57 60 65 61 58 62 64 63 59 64 60 65
REMARK SMILES IDX 61 66 62 67 63 68 6 69 7 70 8 71 9 73 10 74 11 75 19 76
REMARK SMILES IDX 12 77 18 78 13 79 17 80 14 81 16 82 15 83 20 84 21 86 22 87
REMARK SMILES IDX 23 88 24 89 25 90 29 91 26 92 28 93 30 94 27 95
REMARK H PARENT 3 6 84 24 54 35 7 72 20 85
REMARK Flexibility Score: inf
ROOT
ATOM      1  C   UNL A   1      34.210  27.658  25.995  1.00  0.00     0.042 C 
ENDROOT
BRANCH   1   2
ATOM      2  C   UNL A   1      33.382  28.075  27.201  1.00  0.00     0.118 C 
BRANCH   2   3
ATOM      3  N   UNL A   1      33.282  29.519  27.346  1.00  0.00    -0.352 N 
ATOM      4  O   UNL A   1      33.779  31.594  28.035  1.00  0.00    -0.269 OA
ATOM      5  C   UNL A   1      34.172  30.447  27.828  1.00  0.00     0.251 C 
ATOM      6  H   UNL A   1      32.425  29.899  27.045  1.00  0.00     0.163 HD
BRANCH   5   7
ATOM      7  C   UNL A   1      35.583  30.097  28.112  1.00  0.00     0.039 A 
ATOM      8  C   UNL A   1      36.585  30.246  27.151  1.00  0.00     0.014 A 
ATOM      9  C   UNL A   1      35.926  29.688  29.407  1.00  0.00     0.014 A 
ATOM     10  C   UNL A   1      37.894  29.866  27.439  1.00  0.00     0.010 A 
ATOM     11  C   UNL A   1      37.255  29.387  29.721  1.00  0.00     0.010 A 
ATOM     12  C   UNL A   1      38.247  29.450  28.732  1.00  0.00    -0.014 A 
BRANCH  12  13
ATOM     13  C   UNL A   1      39.669  29.160  29.048  1.00  0.00     0.031 A 
ATOM     14  C   UNL A   1      40.289  27.837  28.700  1.00  0.00     0.074 A 
ATOM     15  C   UNL A   1      40.405  30.110  29.660  1.00  0.00     0.049 A 
ATOM     16  N   UNL A   1      41.515  27.427  28.904  1.00  0.00    -0.248 NA
ATOM     17  C   UNL A   1      39.422  26.843  28.050  1.00  0.00     0.031 C 
ATOM     18  C   UNL A   1      39.908  31.424  30.073  1.00  0.00     0.029 A 
ATOM     19  N   UNL A   1      41.723  30.118  30.037  1.00  0.00    -0.354 N 
ATOM     20  C   UNL A   1      41.563  26.121  28.434  1.00  0.00     0.074 A 
ATOM     21  C   UNL A   1      40.238  25.801  27.947  1.00  0.00     0.031 C 
ATOM     22  C   UNL A   1      40.915  32.122  30.618  1.00  0.00     0.029 A 
ATOM     23  C   UNL A   1      42.113  31.290  30.639  1.00  0.00     0.049 A 
ATOM     24  H   UNL A   1      42.332  29.358  29.890  1.00  0.00     0.167 HD
ATOM     25  C   UNL A   1      42.614  25.265  28.410  1.00  0.00     0.031 A 
ATOM     26  C   UNL A   1      43.295  31.656  31.169  1.00  0.00     0.031 A 
ATOM     27  C   UNL A   1      43.932  25.586  28.888  1.00  0.00     0.049 A 
ATOM     28  C   UNL A   1      44.447  30.698  31.125  1.00  0.00     0.074 A 
ATOM     29  C   UNL A   1      45.073  24.804  28.861  1.00  0.00     0.029 A 
ATOM     30  N   UNL A   1      44.285  26.785  29.491  1.00  0.00    -0.354 N 
ATOM     31  N   UNL A   1      44.483  29.485  30.628  1.00  0.00    -0.248 NA
ATOM     32  C   UNL A   1      45.714  31.154  31.711  1.00  0.00     0.031 C 
ATOM     33  C   UNL A   1      46.107  25.515  29.481  1.00  0.00     0.029 A 
ATOM     34  C   UNL A   1      45.619  26.755  29.861  1.00  0.00     0.049 A 
ATOM     35  H   UNL A   1      43.676  27.546  29.635  1.00  0.00     0.167 HD
ATOM     36  C   UNL A   1      45.778  29.031  30.839  1.00  0.00     0.074 A 
ATOM     37  C   UNL A   1      46.499  30.106  31.492  1.00  0.00     0.031 C 
ATOM     38  C   UNL A   1      46.318  27.829  30.522  1.00  0.00     0.031 A 
BRANCH  25  39
ATOM     39  C   UNL A   1      42.363  23.883  27.871  1.00  0.00    -0.014 A 
ATOM     40  C   UNL A   1      41.851  22.863  28.693  1.00  0.00     0.010 A 
ATOM     41  C   UNL A   1      42.638  23.602  26.521  1.00  0.00     0.010 A 
ATOM     42  C   UNL A   1      41.669  21.572  28.188  1.00  0.00     0.020 A 
ATOM     43  C   UNL A   1      42.438  22.318  26.005  1.00  0.00     0.020 A 
ATOM     44  C   UNL A   1      41.978  21.305  26.850  1.00  0.00     0.054 A 
BRANCH  44  45
ATOM     45  S   UNL A   1      41.754  19.619  26.218  1.00  0.00     0.124 S 
ATOM     46  O   UNL A   1      40.310  19.568  26.009  1.00  0.00    -0.237 OA
ATOM     47  O   UNL A   1      42.563  19.616  25.001  1.00  0.00    -0.237 OA
ATOM     48  O   UNL A   1      42.260  18.775  27.297  1.00  0.00    -0.744 OA
ENDBRANCH  44  45
ENDBRANCH  25  39
BRANCH  26  49
ATOM     49  C   UNL A   1      43.418  32.998  31.794  1.00  0.00    -0.014 A 
ATOM     50  C   UNL A   1      43.199  33.168  33.171  1.00  0.00     0.010 A 
ATOM     51  C   UNL A   1      43.853  34.094  31.026  1.00  0.00     0.010 A 
ATOM     52  C   UNL A   1      43.427  34.409  33.773  1.00  0.00     0.020 A 
ATOM     53  C   UNL A   1      44.101  35.329  31.627  1.00  0.00     0.020 A 
ATOM     54  C   UNL A   1      43.886  35.480  32.998  1.00  0.00     0.054 A 
BRANCH  54  55
ATOM     55  S   UNL A   1      44.287  37.050  33.814  1.00  0.00     0.124 S 
ATOM     56  O   UNL A   1      45.120  36.609  34.928  1.00  0.00    -0.237 OA
ATOM     57  O   UNL A   1      44.978  37.790  32.761  1.00  0.00    -0.237 OA
ATOM     58  O   UNL A   1      42.978  37.585  34.180  1.00  0.00    -0.744 OA
ENDBRANCH  54  55
ENDBRANCH  26  49
BRANCH  38  59
ATOM     59  C   UNL A   1      47.763  27.611  30.874  1.00  0.00    -0.014 A 
ATOM     60  C   UNL A   1      48.782  27.961  29.973  1.00  0.00     0.010 A 
ATOM     61  C   UNL A   1      48.103  27.109  32.143  1.00  0.00     0.010 A 
ATOM     62  C   UNL A   1      50.124  27.801  30.331  1.00  0.00     0.020 A 
ATOM     63  C   UNL A   1      49.444  26.963  32.509  1.00  0.00     0.020 A 
ATOM     64  C   UNL A   1      50.445  27.301  31.596  1.00  0.00     0.054 A 
BRANCH  64  65
ATOM     65  S   UNL A   1      52.193  27.158  32.066  1.00  0.00     0.124 S 
ATOM     66  O   UNL A   1      52.704  26.242  31.050  1.00  0.00    -0.237 OA
ATOM     67  O   UNL A   1      52.669  28.535  31.967  1.00  0.00    -0.237 OA
ATOM     68  O   UNL A   1      52.142  26.619  33.422  1.00  0.00    -0.744 OA
ENDBRANCH  64  65
ENDBRANCH  38  59
ENDBRANCH  12  13
ENDBRANCH   5   7
ENDBRANCH   2   3
ENDBRANCH   1   2
BRANCH   1  69
ATOM     69  C   UNL A   1      33.898  28.435  24.723  1.00  0.00     0.118 C 
BRANCH  69  70
ATOM     70  N   UNL A   1      34.101  27.657  23.505  1.00  0.00    -0.352 N 
ATOM     71  C   UNL A   1      33.190  26.987  22.727  1.00  0.00     0.253 C 
ATOM     72  H   UNL A   1      35.034  27.606  23.193  1.00  0.00     0.163 HD
ATOM     73  O   UNL A   1      33.565  26.323  21.764  1.00  0.00    -0.269 OA
BRANCH  71  74
ATOM     74  C   UNL A   1      31.750  27.031  23.055  1.00  0.00     0.064 A 
ATOM     75  C   UNL A   1      31.040  28.166  22.632  1.00  0.00     0.024 A 
ATOM     76  C   UNL A   1      31.115  26.017  23.787  1.00  0.00     0.062 A 
ATOM     77  C   UNL A   1      29.666  28.281  22.888  1.00  0.00    -0.017 A 
ATOM     78  C   UNL A   1      29.727  26.076  23.912  1.00  0.00     0.036 A 
ATOM     79  C   UNL A   1      28.941  29.441  22.569  1.00  0.00     0.009 A 
ATOM     80  C   UNL A   1      28.996  27.200  23.495  1.00  0.00    -0.016 A 
ATOM     81  C   UNL A   1      27.574  29.524  22.843  1.00  0.00     0.001 A 
ATOM     82  C   UNL A   1      27.615  27.283  23.731  1.00  0.00     0.009 A 
ATOM     83  C   UNL A   1      26.909  28.441  23.413  1.00  0.00     0.001 A 
BRANCH  76  84
ATOM     84  N   UNL A   1      31.901  25.108  24.567  1.00  0.00    -0.279 N 
ATOM     85  H   UNL A   1      32.426  25.505  25.300  1.00  0.00     0.180 HD
BRANCH  84  86
ATOM     86  S   UNL A   1      32.032  23.457  24.377  1.00  0.00     0.263 S 
ATOM     87  O   UNL A   1      31.171  22.846  25.367  1.00  0.00    -0.201 OA
ATOM     88  O   UNL A   1      31.843  23.182  22.968  1.00  0.00    -0.201 OA
BRANCH  86  89
ATOM     89  C   UNL A   1      33.704  23.024  24.771  1.00  0.00     0.101 A 
ATOM     90  C   UNL A   1      34.577  24.088  25.068  1.00  0.00     0.023 A 
ATOM     91  C   UNL A   1      34.202  21.723  24.659  1.00  0.00     0.038 A 
ATOM     92  C   UNL A   1      35.947  23.865  25.185  1.00  0.00     0.001 A 
ATOM     93  C   UNL A   1      35.584  21.514  24.760  1.00  0.00     0.017 A 
ATOM     94  Br  UNL A   1      33.140  20.184  24.331  1.00  0.00    -0.049 Br
ATOM     95  C   UNL A   1      36.452  22.582  25.009  1.00  0.00     0.001 A 
ENDBRANCH  86  89
ENDBRANCH  84  86
ENDBRANCH  76  84
ENDBRANCH  71  74
ENDBRANCH  69  70
ENDBRANCH   1  69
TORSDOF 16
ENDMDL
