MODEL 1
REMARK VINA RESULT:     -14.1      0.000      0.000
REMARK SMILES Cc1ccc(-c2nc(NC(=O)[C@H]3[C@@H](C(=O)NCCCNC(=O)c4ccc(-c5c6nc(c(-c7ccc(S(=O)(=O)[O-])cc7)c7ccc([nH]7)c(-c7ccc(S(=O)(=O)[O-])cc7)c7nc(c(-c8ccc(S(=O)(=O)[O-])cc8)c8ccc5[nH]8)C=C7)C=C6)cc4)[C@@H]4CC[C@H]3O4)sc2C)cc1
REMARK SMILES IDX 18 1 17 2 16 3 14 4 15 5 13 7 12 8 86 9 83 10 85 11 87 12
REMARK SMILES IDX 84 13 10 14 9 15 11 17 8 18 6 19 7 20 89 21 88 22 90 23 5 24
REMARK SMILES IDX 1 25 2 26 3 27 92 28 4 29 91 30 19 31 20 32 21 33 22 35
REMARK SMILES IDX 23 36 24 37 82 38 25 39 81 40 26 41 27 42 28 43 75 44 29 45
REMARK SMILES IDX 80 46 74 47 76 48 30 49 79 50 73 51 72 52 31 54 61 55 42 56
REMARK SMILES IDX 60 57 43 58 46 59 59 60 77 61 44 62 45 63 58 65 78 66 47 67
REMARK SMILES IDX 32 68 33 69 41 70 34 71 40 72 35 73 36 74 37 75 38 76 39 77
REMARK SMILES IDX 62 78 63 79 71 80 64 81 70 82 65 83 66 84 67 85 68 86 69 87
REMARK SMILES IDX 48 88 49 89 57 90 50 91 56 92 51 93 52 94 53 95 54 96 55 97
REMARK H PARENT 16 6 9 16 20 34 76 53 46 64
REMARK Flexibility Score: inf
ROOT
ATOM      1  C   UNL A   1      33.015  30.609  27.231  1.00  0.00     0.042 C 
ENDROOT
BRANCH   1   2
ATOM      2  C   UNL A   1      31.826  29.689  27.037  1.00  0.00     0.117 C 
BRANCH   2   3
ATOM      3  N   UNL A   1      32.124  28.318  26.632  1.00  0.00    -0.356 N 
ATOM      4  C   UNL A   1      32.251  27.890  25.344  1.00  0.00     0.226 C 
ATOM      5  O   UNL A   1      33.348  27.467  24.974  1.00  0.00    -0.275 OA
ATOM      6  H   UNL A   1      32.242  27.650  27.345  1.00  0.00     0.163 HD
BRANCH   4   7
ATOM      7  C   UNL A   1      31.097  28.069  24.387  1.00  0.00     0.122 C 
ATOM      8  C   UNL A   1      30.690  27.131  23.236  1.00  0.00     0.123 C 
ATOM      9  C   UNL A   1      29.973  28.161  22.335  1.00  0.00     0.132 C 
ATOM     10  C   UNL A   1      31.081  29.459  23.674  1.00  0.00     0.132 C 
ATOM     11  C   UNL A   1      28.872  28.964  23.082  1.00  0.00     0.035 C 
ATOM     12  O   UNL A   1      31.033  29.135  22.256  1.00  0.00    -0.373 OA
ATOM     13  C   UNL A   1      29.685  30.053  23.798  1.00  0.00     0.035 C 
BRANCH   8  14
ATOM     14  C   UNL A   1      31.408  26.131  22.278  1.00  0.00     0.232 C 
ATOM     15  N   UNL A   1      32.318  25.141  22.411  1.00  0.00    -0.302 N 
ATOM     16  H   UNL A   1      32.589  24.784  21.536  1.00  0.00     0.172 HD
ATOM     17  O   UNL A   1      31.127  26.329  21.071  1.00  0.00    -0.274 OA
BRANCH  15  18
ATOM     18  C   UNL A   1      32.963  24.501  23.431  1.00  0.00     0.190 A 
ATOM     19  C   UNL A   1      34.573  23.522  24.639  1.00  0.00     0.086 A 
ATOM     20  N   UNL A   1      34.265  24.275  23.487  1.00  0.00    -0.220 NA
ATOM     21  C   UNL A   1      33.481  23.328  25.474  1.00  0.00     0.031 A 
ATOM     22  S   UNL A   1      32.102  23.995  24.760  1.00  0.00    -0.101 S 
ATOM     23  C   UNL A   1      33.289  22.705  26.808  1.00  0.00     0.059 C 
BRANCH  19  24
ATOM     24  C   UNL A   1      35.913  23.001  24.959  1.00  0.00     0.001 A 
ATOM     25  C   UNL A   1      39.648  21.152  26.197  1.00  0.00     0.044 C 
ATOM     26  C   UNL A   1      38.371  21.805  25.752  1.00  0.00    -0.051 A 
ATOM     27  C   UNL A   1      38.081  23.141  26.071  1.00  0.00     0.004 A 
ATOM     28  C   UNL A   1      37.452  21.091  24.986  1.00  0.00     0.004 A 
ATOM     29  C   UNL A   1      36.862  23.734  25.680  1.00  0.00     0.010 A 
ATOM     30  C   UNL A   1      36.257  21.691  24.578  1.00  0.00     0.010 A 
ENDBRANCH  19  24
ENDBRANCH  15  18
ENDBRANCH   8  14
ENDBRANCH   4   7
ENDBRANCH   2   3
ENDBRANCH   1   2
BRANCH   1  31
ATOM     31  C   UNL A   1      34.258  29.884  27.702  1.00  0.00     0.118 C 
BRANCH  31  32
ATOM     32  N   UNL A   1      35.450  30.223  26.953  1.00  0.00    -0.352 N 
ATOM     33  C   UNL A   1      36.541  30.711  27.674  1.00  0.00     0.251 C 
ATOM     34  H   UNL A   1      35.489  30.113  25.976  1.00  0.00     0.163 HD
ATOM     35  O   UNL A   1      36.581  31.755  28.261  1.00  0.00    -0.269 OA
BRANCH  33  36
ATOM     36  C   UNL A   1      37.461  29.602  28.021  1.00  0.00     0.039 A 
ATOM     37  C   UNL A   1      37.407  28.908  29.228  1.00  0.00     0.014 A 
ATOM     38  C   UNL A   1      38.556  29.493  27.158  1.00  0.00     0.014 A 
ATOM     39  C   UNL A   1      38.520  28.160  29.620  1.00  0.00     0.010 A 
ATOM     40  C   UNL A   1      39.677  28.828  27.584  1.00  0.00     0.010 A 
ATOM     41  C   UNL A   1      39.668  28.183  28.824  1.00  0.00    -0.014 A 
BRANCH  41  42
ATOM     42  C   UNL A   1      40.944  27.579  29.169  1.00  0.00     0.031 A 
ATOM     43  C   UNL A   1      41.243  26.206  28.720  1.00  0.00     0.074 A 
ATOM     44  C   UNL A   1      41.904  28.356  29.709  1.00  0.00     0.049 A 
ATOM     45  N   UNL A   1      42.205  25.481  29.178  1.00  0.00    -0.248 NA
ATOM     46  C   UNL A   1      40.422  25.514  27.731  1.00  0.00     0.031 C 
ATOM     47  C   UNL A   1      43.339  28.104  29.762  1.00  0.00     0.029 A 
ATOM     48  N   UNL A   1      41.724  29.473  30.511  1.00  0.00    -0.354 N 
ATOM     49  C   UNL A   1      42.321  24.383  28.356  1.00  0.00     0.074 A 
ATOM     50  C   UNL A   1      41.124  24.393  27.549  1.00  0.00     0.031 C 
ATOM     51  C   UNL A   1      43.880  28.879  30.718  1.00  0.00     0.029 A 
ATOM     52  C   UNL A   1      42.781  29.517  31.428  1.00  0.00     0.049 A 
ATOM     53  H   UNL A   1      40.984  30.119  30.446  1.00  0.00     0.167 HD
ATOM     54  C   UNL A   1      43.490  23.679  28.352  1.00  0.00     0.031 A 
ATOM     55  C   UNL A   1      42.531  29.346  32.763  1.00  0.00     0.031 A 
ATOM     56  C   UNL A   1      44.396  24.161  29.396  1.00  0.00     0.049 A 
ATOM     57  C   UNL A   1      43.154  28.090  33.336  1.00  0.00     0.074 A 
ATOM     58  C   UNL A   1      45.505  24.991  29.370  1.00  0.00     0.029 A 
ATOM     59  N   UNL A   1      44.021  24.044  30.729  1.00  0.00    -0.354 N 
ATOM     60  N   UNL A   1      43.551  27.069  32.626  1.00  0.00    -0.248 NA
ATOM     61  C   UNL A   1      43.381  27.892  34.764  1.00  0.00     0.031 C 
ATOM     62  C   UNL A   1      45.733  25.452  30.695  1.00  0.00     0.029 A 
ATOM     63  C   UNL A   1      44.792  24.869  31.527  1.00  0.00     0.049 A 
ATOM     64  H   UNL A   1      43.303  23.456  31.061  1.00  0.00     0.167 HD
ATOM     65  C   UNL A   1      44.077  26.107  33.448  1.00  0.00     0.074 A 
ATOM     66  C   UNL A   1      43.957  26.677  34.779  1.00  0.00     0.031 C 
ATOM     67  C   UNL A   1      44.565  24.923  32.967  1.00  0.00     0.031 A 
BRANCH  54  68
ATOM     68  C   UNL A   1      43.925  22.749  27.235  1.00  0.00    -0.014 A 
ATOM     69  C   UNL A   1      43.026  21.771  26.757  1.00  0.00     0.010 A 
ATOM     70  C   UNL A   1      45.211  22.723  26.664  1.00  0.00     0.010 A 
ATOM     71  C   UNL A   1      43.412  20.783  25.834  1.00  0.00     0.020 A 
ATOM     72  C   UNL A   1      45.620  21.733  25.758  1.00  0.00     0.020 A 
ATOM     73  C   UNL A   1      44.720  20.756  25.358  1.00  0.00     0.054 A 
BRANCH  73  74
ATOM     74  S   UNL A   1      45.229  19.444  24.218  1.00  0.00     0.124 S 
ATOM     75  O   UNL A   1      44.744  18.240  24.889  1.00  0.00    -0.237 OA
ATOM     76  O   UNL A   1      44.530  19.805  22.988  1.00  0.00    -0.237 OA
ATOM     77  O   UNL A   1      46.684  19.574  24.164  1.00  0.00    -0.744 OA
ENDBRANCH  73  74
ENDBRANCH  54  68
BRANCH  55  78
ATOM     78  C   UNL A   1      41.227  29.942  33.193  1.00  0.00    -0.014 A 
ATOM     79  C   UNL A   1      41.179  31.348  33.331  1.00  0.00     0.010 A 
ATOM     80  C   UNL A   1      40.024  29.241  32.993  1.00  0.00     0.010 A 
ATOM     81  C   UNL A   1      39.999  32.048  33.063  1.00  0.00     0.020 A 
ATOM     82  C   UNL A   1      38.834  29.944  32.740  1.00  0.00     0.020 A 
ATOM     83  C   UNL A   1      38.855  31.341  32.693  1.00  0.00     0.054 A 
BRANCH  83  84
ATOM     84  S   UNL A   1      37.484  32.270  31.942  1.00  0.00     0.124 S 
ATOM     85  O   UNL A   1      36.537  31.217  31.594  1.00  0.00    -0.237 OA
ATOM     86  O   UNL A   1      37.071  33.153  33.038  1.00  0.00    -0.237 OA
ATOM     87  O   UNL A   1      38.104  32.956  30.813  1.00  0.00    -0.744 OA
ENDBRANCH  83  84
ENDBRANCH  55  78
BRANCH  67  88
ATOM     88  C   UNL A   1      44.960  23.715  33.791  1.00  0.00    -0.014 A 
ATOM     89  C   UNL A   1      44.138  22.600  34.014  1.00  0.00     0.010 A 
ATOM     90  C   UNL A   1      46.288  23.629  34.284  1.00  0.00     0.010 A 
ATOM     91  C   UNL A   1      44.590  21.491  34.745  1.00  0.00     0.020 A 
ATOM     92  C   UNL A   1      46.766  22.507  34.968  1.00  0.00     0.020 A 
ATOM     93  C   UNL A   1      45.900  21.452  35.219  1.00  0.00     0.054 A 
BRANCH  93  94
ATOM     94  S   UNL A   1      46.486  19.986  36.105  1.00  0.00     0.124 S 
ATOM     95  O   UNL A   1      45.803  18.911  35.390  1.00  0.00    -0.237 OA
ATOM     96  O   UNL A   1      47.934  20.045  35.910  1.00  0.00    -0.237 OA
ATOM     97  O   UNL A   1      46.040  20.212  37.476  1.00  0.00    -0.744 OA
ENDBRANCH  93  94
ENDBRANCH  67  88
ENDBRANCH  41  42
ENDBRANCH  33  36
ENDBRANCH  31  32
ENDBRANCH   1  31
TORSDOF 16
ENDMDL
MODEL 2
REMARK VINA RESULT:     -13.5      1.825      2.320
REMARK SMILES Cc1ccc(-c2nc(NC(=O)[C@H]3[C@@H](C(=O)NCCCNC(=O)c4ccc(-c5c6nc(c(-c7ccc(S(=O)(=O)[O-])cc7)c7ccc([nH]7)c(-c7ccc(S(=O)(=O)[O-])cc7)c7nc(c(-c8ccc(S(=O)(=O)[O-])cc8)c8ccc5[nH]8)C=C7)C=C6)cc4)[C@@H]4CC[C@H]3O4)sc2C)cc1
REMARK SMILES IDX 18 1 17 2 16 3 14 4 15 5 13 7 12 8 86 9 83 10 85 11 87 12
REMARK SMILES IDX 84 13 10 14 9 15 11 17 8 18 6 19 7 20 89 21 88 22 90 23 5 24
REMARK SMILES IDX 1 25 2 26 3 27 92 28 4 29 91 30 19 31 20 32 21 33 22 35
REMARK SMILES IDX 23 36 24 37 82 38 25 39 81 40 26 41 27 42 28 43 75 44 29 45
REMARK SMILES IDX 80 46 74 47 76 48 30 49 79 50 73 51 72 52 31 54 61 55 42 56
REMARK SMILES IDX 60 57 43 58 46 59 59 60 77 61 44 62 45 63 58 65 78 66 47 67
REMARK SMILES IDX 32 68 33 69 41 70 34 71 40 72 35 73 36 74 37 75 38 76 39 77
REMARK SMILES IDX 62 78 63 79 71 80 64 81 70 82 65 83 66 84 67 85 68 86 69 87
REMARK SMILES IDX 48 88 49 89 57 90 50 91 56 92 51 93 52 94 53 95 54 96 55 97
REMARK H PARENT 16 6 9 16 20 34 76 53 46 64
REMARK Flexibility Score: inf
ROOT
ATOM      1  C   UNL A   1      33.423  29.480  26.534  1.00  0.00     0.042 C 
ENDROOT
BRANCH   1   2
ATOM      2  C   UNL A   1      32.738  28.256  27.108  1.00  0.00     0.117 C 
BRANCH   2   3
ATOM      3  N   UNL A   1      32.972  26.994  26.414  1.00  0.00    -0.356 N 
ATOM      4  C   UNL A   1      33.019  26.839  25.060  1.00  0.00     0.226 C 
ATOM      5  O   UNL A   1      34.082  26.481  24.549  1.00  0.00    -0.275 OA
ATOM      6  H   UNL A   1      33.107  26.190  26.967  1.00  0.00     0.163 HD
BRANCH   4   7
ATOM      7  C   UNL A   1      31.822  27.234  24.229  1.00  0.00     0.122 C 
ATOM      8  C   UNL A   1      31.268  26.504  22.992  1.00  0.00     0.123 C 
ATOM      9  C   UNL A   1      30.577  27.701  22.301  1.00  0.00     0.132 C 
ATOM     10  C   UNL A   1      31.870  28.711  23.721  1.00  0.00     0.132 C 
ATOM     11  C   UNL A   1      29.594  28.461  23.235  1.00  0.00     0.035 C 
ATOM     12  O   UNL A   1      31.703  28.601  22.280  1.00  0.00    -0.373 OA
ATOM     13  C   UNL A   1      30.536  29.375  24.033  1.00  0.00     0.035 C 
BRANCH   8  14
ATOM     14  C   UNL A   1      31.841  25.608  21.851  1.00  0.00     0.232 C 
ATOM     15  N   UNL A   1      32.629  24.512  21.778  1.00  0.00    -0.302 N 
ATOM     16  H   UNL A   1      32.837  24.282  20.845  1.00  0.00     0.172 HD
ATOM     17  O   UNL A   1      31.560  26.040  20.707  1.00  0.00    -0.274 OA
BRANCH  15  18
ATOM     18  C   UNL A   1      33.216  23.639  22.649  1.00  0.00     0.190 A 
ATOM     19  C   UNL A   1      34.714  22.691  24.016  1.00  0.00     0.086 A 
ATOM     20  N   UNL A   1      34.378  23.828  23.253  1.00  0.00    -0.220 NA
ATOM     21  C   UNL A   1      33.705  21.738  24.051  1.00  0.00     0.031 A 
ATOM     22  S   UNL A   1      32.427  22.236  23.064  1.00  0.00    -0.101 S 
ATOM     23  C   UNL A   1      33.519  20.445  24.757  1.00  0.00     0.059 C 
BRANCH  19  24
ATOM     24  C   UNL A   1      35.990  22.516  24.731  1.00  0.00     0.001 A 
ATOM     25  C   UNL A   1      39.930  22.350  26.560  1.00  0.00     0.044 C 
ATOM     26  C   UNL A   1      38.561  22.390  25.945  1.00  0.00    -0.051 A 
ATOM     27  C   UNL A   1      38.055  21.308  25.209  1.00  0.00     0.004 A 
ATOM     28  C   UNL A   1      37.750  23.510  26.120  1.00  0.00     0.004 A 
ATOM     29  C   UNL A   1      36.781  21.370  24.604  1.00  0.00     0.010 A 
ATOM     30  C   UNL A   1      36.479  23.558  25.541  1.00  0.00     0.010 A 
ENDBRANCH  19  24
ENDBRANCH  15  18
ENDBRANCH   8  14
ENDBRANCH   4   7
ENDBRANCH   2   3
ENDBRANCH   1   2
BRANCH   1  31
ATOM     31  C   UNL A   1      33.276  30.710  27.406  1.00  0.00     0.118 C 
BRANCH  31  32
ATOM     32  N   UNL A   1      34.479  31.510  27.491  1.00  0.00    -0.352 N 
ATOM     33  C   UNL A   1      35.071  31.646  28.748  1.00  0.00     0.251 C 
ATOM     34  H   UNL A   1      34.866  31.940  26.694  1.00  0.00     0.163 HD
ATOM     35  O   UNL A   1      34.593  32.218  29.687  1.00  0.00    -0.269 OA
BRANCH  33  36
ATOM     36  C   UNL A   1      36.123  30.619  28.931  1.00  0.00     0.039 A 
ATOM     37  C   UNL A   1      36.229  29.821  30.068  1.00  0.00     0.014 A 
ATOM     38  C   UNL A   1      37.158  30.707  27.995  1.00  0.00     0.014 A 
ATOM     39  C   UNL A   1      37.438  29.168  30.317  1.00  0.00     0.010 A 
ATOM     40  C   UNL A   1      38.371  30.134  28.286  1.00  0.00     0.010 A 
ATOM     41  C   UNL A   1      38.518  29.387  29.457  1.00  0.00    -0.014 A 
BRANCH  41  42
ATOM     42  C   UNL A   1      39.871  28.899  29.663  1.00  0.00     0.031 A 
ATOM     43  C   UNL A   1      40.237  27.550  29.192  1.00  0.00     0.074 A 
ATOM     44  C   UNL A   1      40.813  29.763  30.091  1.00  0.00     0.049 A 
ATOM     45  N   UNL A   1      41.302  26.916  29.546  1.00  0.00    -0.248 NA
ATOM     46  C   UNL A   1      39.376  26.776  28.303  1.00  0.00     0.031 C 
ATOM     47  C   UNL A   1      42.262  29.636  29.987  1.00  0.00     0.029 A 
ATOM     48  N   UNL A   1      40.626  30.872  30.902  1.00  0.00    -0.354 N 
ATOM     49  C   UNL A   1      41.423  25.820  28.722  1.00  0.00     0.074 A 
ATOM     50  C   UNL A   1      40.148  25.716  28.051  1.00  0.00     0.031 C 
ATOM     51  C   UNL A   1      42.835  30.467  30.874  1.00  0.00     0.029 A 
ATOM     52  C   UNL A   1      41.769  31.021  31.697  1.00  0.00     0.049 A 
ATOM     53  H   UNL A   1      39.831  31.452  30.915  1.00  0.00     0.167 HD
ATOM     54  C   UNL A   1      42.640  25.218  28.593  1.00  0.00     0.031 A 
ATOM     55  C   UNL A   1      41.681  30.848  33.052  1.00  0.00     0.031 A 
ATOM     56  C   UNL A   1      43.610  25.791  29.529  1.00  0.00     0.049 A 
ATOM     57  C   UNL A   1      42.469  29.659  33.561  1.00  0.00     0.074 A 
ATOM     58  C   UNL A   1      44.634  26.713  29.377  1.00  0.00     0.029 A 
ATOM     59  N   UNL A   1      43.393  25.663  30.896  1.00  0.00    -0.354 N 
ATOM     60  N   UNL A   1      42.873  28.665  32.816  1.00  0.00    -0.248 NA
ATOM     61  C   UNL A   1      42.866  29.502  34.956  1.00  0.00     0.031 C 
ATOM     62  C   UNL A   1      44.964  27.211  30.667  1.00  0.00     0.029 A 
ATOM     63  C   UNL A   1      44.172  26.562  31.600  1.00  0.00     0.049 A 
ATOM     64  H   UNL A   1      42.770  25.021  31.307  1.00  0.00     0.167 HD
ATOM     65  C   UNL A   1      43.566  27.763  33.581  1.00  0.00     0.074 A 
ATOM     66  C   UNL A   1      43.544  28.341  34.914  1.00  0.00     0.031 C 
ATOM     67  C   UNL A   1      44.100  26.619  33.056  1.00  0.00     0.031 A 
BRANCH  54  68
ATOM     68  C   UNL A   1      43.030  24.312  27.441  1.00  0.00    -0.014 A 
ATOM     69  C   UNL A   1      43.644  23.070  27.713  1.00  0.00     0.010 A 
ATOM     70  C   UNL A   1      42.897  24.640  26.079  1.00  0.00     0.010 A 
ATOM     71  C   UNL A   1      44.165  22.252  26.695  1.00  0.00     0.020 A 
ATOM     72  C   UNL A   1      43.430  23.846  25.052  1.00  0.00     0.020 A 
ATOM     73  C   UNL A   1      44.076  22.659  25.367  1.00  0.00     0.054 A 
BRANCH  73  74
ATOM     74  S   UNL A   1      44.805  21.631  24.066  1.00  0.00     0.124 S 
ATOM     75  O   UNL A   1      44.233  20.316  24.348  1.00  0.00    -0.237 OA
ATOM     76  O   UNL A   1      44.328  22.278  22.847  1.00  0.00    -0.237 OA
ATOM     77  O   UNL A   1      46.244  21.740  24.302  1.00  0.00    -0.744 OA
ENDBRANCH  73  74
ENDBRANCH  54  68
BRANCH  55  78
ATOM     78  C   UNL A   1      40.386  31.337  33.619  1.00  0.00    -0.014 A 
ATOM     79  C   UNL A   1      39.467  30.356  34.057  1.00  0.00     0.010 A 
ATOM     80  C   UNL A   1      40.283  32.639  34.141  1.00  0.00     0.010 A 
ATOM     81  C   UNL A   1      38.615  30.612  35.136  1.00  0.00     0.020 A 
ATOM     82  C   UNL A   1      39.415  32.901  35.215  1.00  0.00     0.020 A 
ATOM     83  C   UNL A   1      38.654  31.861  35.755  1.00  0.00     0.054 A 
BRANCH  83  84
ATOM     84  S   UNL A   1      37.875  32.026  37.390  1.00  0.00     0.124 S 
ATOM     85  O   UNL A   1      36.867  33.055  37.162  1.00  0.00    -0.237 OA
ATOM     86  O   UNL A   1      37.354  30.674  37.623  1.00  0.00    -0.237 OA
ATOM     87  O   UNL A   1      38.978  32.410  38.266  1.00  0.00    -0.744 OA
ENDBRANCH  83  84
ENDBRANCH  55  78
BRANCH  67  88
ATOM     88  C   UNL A   1      44.685  25.461  33.839  1.00  0.00    -0.014 A 
ATOM     89  C   UNL A   1      46.035  25.350  34.206  1.00  0.00     0.010 A 
ATOM     90  C   UNL A   1      43.809  24.468  34.347  1.00  0.00     0.010 A 
ATOM     91  C   UNL A   1      46.498  24.274  34.979  1.00  0.00     0.020 A 
ATOM     92  C   UNL A   1      44.249  23.421  35.162  1.00  0.00     0.020 A 
ATOM     93  C   UNL A   1      45.602  23.314  35.450  1.00  0.00     0.054 A 
BRANCH  93  94
ATOM     94  S   UNL A   1      46.206  21.968  36.499  1.00  0.00     0.124 S 
ATOM     95  O   UNL A   1      45.520  20.812  35.928  1.00  0.00    -0.237 OA
ATOM     96  O   UNL A   1      47.651  22.009  36.281  1.00  0.00    -0.237 OA
ATOM     97  O   UNL A   1      45.774  22.357  37.838  1.00  0.00    -0.744 OA
ENDBRANCH  93  94
ENDBRANCH  67  88
ENDBRANCH  41  42
ENDBRANCH  33  36
ENDBRANCH  31  32
ENDBRANCH   1  31
TORSDOF 16
ENDMDL
MODEL 3
REMARK VINA RESULT:     -13.4      1.767      2.374
REMARK SMILES Cc1ccc(-c2nc(NC(=O)[C@H]3[C@@H](C(=O)NCCCNC(=O)c4ccc(-c5c6nc(c(-c7ccc(S(=O)(=O)[O-])cc7)c7ccc([nH]7)c(-c7ccc(S(=O)(=O)[O-])cc7)c7nc(c(-c8ccc(S(=O)(=O)[O-])cc8)c8ccc5[nH]8)C=C7)C=C6)cc4)[C@@H]4CC[C@H]3O4)sc2C)cc1
REMARK SMILES IDX 18 1 17 2 16 3 14 4 15 5 13 7 12 8 86 9 83 10 85 11 87 12
REMARK SMILES IDX 84 13 10 14 9 15 11 17 8 18 6 19 7 20 89 21 88 22 90 23 5 24
REMARK SMILES IDX 1 25 2 26 3 27 92 28 4 29 91 30 19 31 20 32 21 33 22 35
REMARK SMILES IDX 23 36 24 37 82 38 25 39 81 40 26 41 27 42 28 43 75 44 29 45
REMARK SMILES IDX 80 46 74 47 76 48 30 49 79 50 73 51 72 52 31 54 61 55 42 56
REMARK SMILES IDX 60 57 43 58 46 59 59 60 77 61 44 62 45 63 58 65 78 66 47 67
REMARK SMILES IDX 32 68 33 69 41 70 34 71 40 72 35 73 36 74 37 75 38 76 39 77
REMARK SMILES IDX 62 78 63 79 71 80 64 81 70 82 65 83 66 84 67 85 68 86 69 87
REMARK SMILES IDX 48 88 49 89 57 90 50 91 56 92 51 93 52 94 53 95 54 96 55 97
REMARK H PARENT 16 6 9 16 20 34 76 53 46 64
REMARK Flexibility Score: inf
ROOT
ATOM      1  C   UNL A   1      33.363  29.063  26.476  1.00  0.00     0.042 C 
ENDROOT
BRANCH   1   2
ATOM      2  C   UNL A   1      32.952  27.665  26.894  1.00  0.00     0.117 C 
BRANCH   2   3
ATOM      3  N   UNL A   1      31.518  27.405  26.972  1.00  0.00    -0.356 N 
ATOM      4  C   UNL A   1      30.799  26.685  26.065  1.00  0.00     0.226 C 
ATOM      5  O   UNL A   1      30.273  25.634  26.438  1.00  0.00    -0.275 OA
ATOM      6  H   UNL A   1      31.031  27.781  27.741  1.00  0.00     0.163 HD
BRANCH   4   7
ATOM      7  C   UNL A   1      30.782  27.121  24.620  1.00  0.00     0.122 C 
ATOM      8  C   UNL A   1      31.826  26.791  23.537  1.00  0.00     0.123 C 
ATOM      9  C   UNL A   1      31.596  28.005  22.610  1.00  0.00     0.132 C 
ATOM     10  C   UNL A   1      30.618  28.664  24.431  1.00  0.00     0.132 C 
ATOM     11  C   UNL A   1      30.109  28.186  22.198  1.00  0.00     0.035 C 
ATOM     12  O   UNL A   1      31.748  29.045  23.596  1.00  0.00    -0.373 OA
ATOM     13  C   UNL A   1      29.515  28.914  23.413  1.00  0.00     0.035 C 
BRANCH   8  14
ATOM     14  C   UNL A   1      33.354  26.481  23.489  1.00  0.00     0.232 C 
ATOM     15  N   UNL A   1      34.160  25.493  23.934  1.00  0.00    -0.302 N 
ATOM     16  H   UNL A   1      35.108  25.703  23.773  1.00  0.00     0.172 HD
ATOM     17  O   UNL A   1      34.020  27.407  22.965  1.00  0.00    -0.274 OA
BRANCH  15  18
ATOM     18  C   UNL A   1      34.017  24.280  24.548  1.00  0.00     0.190 A 
ATOM     19  C   UNL A   1      33.875  22.070  24.870  1.00  0.00     0.086 A 
ATOM     20  N   UNL A   1      34.181  23.105  23.963  1.00  0.00    -0.220 NA
ATOM     21  C   UNL A   1      33.616  22.528  26.155  1.00  0.00     0.031 A 
ATOM     22  S   UNL A   1      33.663  24.217  26.170  1.00  0.00    -0.101 S 
ATOM     23  C   UNL A   1      33.341  21.871  27.458  1.00  0.00     0.059 C 
BRANCH  19  24
ATOM     24  C   UNL A   1      33.848  20.639  24.522  1.00  0.00     0.001 A 
ATOM     25  C   UNL A   1      33.421  16.369  23.826  1.00  0.00     0.044 C 
ATOM     26  C   UNL A   1      33.585  17.846  24.047  1.00  0.00    -0.051 A 
ATOM     27  C   UNL A   1      34.769  18.380  24.576  1.00  0.00     0.004 A 
ATOM     28  C   UNL A   1      32.557  18.722  23.702  1.00  0.00     0.004 A 
ATOM     29  C   UNL A   1      34.900  19.765  24.815  1.00  0.00     0.010 A 
ATOM     30  C   UNL A   1      32.701  20.095  23.915  1.00  0.00     0.010 A 
ENDBRANCH  19  24
ENDBRANCH  15  18
ENDBRANCH   8  14
ENDBRANCH   4   7
ENDBRANCH   2   3
ENDBRANCH   1   2
BRANCH   1  31
ATOM     31  C   UNL A   1      34.224  29.764  27.507  1.00  0.00     0.118 C 
BRANCH  31  32
ATOM     32  N   UNL A   1      35.460  30.293  26.971  1.00  0.00    -0.352 N 
ATOM     33  C   UNL A   1      36.423  30.723  27.885  1.00  0.00     0.251 C 
ATOM     34  H   UNL A   1      35.617  30.345  26.000  1.00  0.00     0.163 HD
ATOM     35  O   UNL A   1      36.313  31.659  28.627  1.00  0.00    -0.269 OA
BRANCH  33  36
ATOM     36  C   UNL A   1      37.384  29.630  28.168  1.00  0.00     0.039 A 
ATOM     37  C   UNL A   1      37.415  28.925  29.368  1.00  0.00     0.014 A 
ATOM     38  C   UNL A   1      38.428  29.553  27.242  1.00  0.00     0.014 A 
ATOM     39  C   UNL A   1      38.563  28.197  29.688  1.00  0.00     0.010 A 
ATOM     40  C   UNL A   1      39.587  28.908  27.595  1.00  0.00     0.010 A 
ATOM     41  C   UNL A   1      39.663  28.252  28.827  1.00  0.00    -0.014 A 
BRANCH  41  42
ATOM     42  C   UNL A   1      40.969  27.672  29.091  1.00  0.00     0.031 A 
ATOM     43  C   UNL A   1      41.244  26.283  28.677  1.00  0.00     0.074 A 
ATOM     44  C   UNL A   1      41.961  28.478  29.517  1.00  0.00     0.049 A 
ATOM     45  N   UNL A   1      42.248  25.585  29.085  1.00  0.00    -0.248 NA
ATOM     46  C   UNL A   1      40.353  25.544  27.789  1.00  0.00     0.031 C 
ATOM     47  C   UNL A   1      43.398  28.239  29.463  1.00  0.00     0.029 A 
ATOM     48  N   UNL A   1      41.836  29.627  30.284  1.00  0.00    -0.354 N 
ATOM     49  C   UNL A   1      42.308  24.454  28.304  1.00  0.00     0.074 A 
ATOM     50  C   UNL A   1      41.049  24.421  27.597  1.00  0.00     0.031 C 
ATOM     51  C   UNL A   1      44.008  29.057  30.338  1.00  0.00     0.029 A 
ATOM     52  C   UNL A   1      42.964  29.718  31.108  1.00  0.00     0.049 A 
ATOM     53  H   UNL A   1      41.087  30.265  30.253  1.00  0.00     0.167 HD
ATOM     54  C   UNL A   1      43.480  23.759  28.233  1.00  0.00     0.031 A 
ATOM     55  C   UNL A   1      42.825  29.602  32.465  1.00  0.00     0.031 A 
ATOM     56  C   UNL A   1      44.464  24.291  29.178  1.00  0.00     0.049 A 
ATOM     57  C   UNL A   1      43.506  28.377  33.038  1.00  0.00     0.074 A 
ATOM     58  C   UNL A   1      45.558  25.127  29.026  1.00  0.00     0.029 A 
ATOM     59  N   UNL A   1      44.199  24.229  30.541  1.00  0.00    -0.354 N 
ATOM     60  N   UNL A   1      43.855  27.329  32.341  1.00  0.00    -0.248 NA
ATOM     61  C   UNL A   1      43.851  28.242  34.450  1.00  0.00     0.031 C 
ATOM     62  C   UNL A   1      45.889  25.646  30.308  1.00  0.00     0.029 A 
ATOM     63  C   UNL A   1      45.025  25.092  31.237  1.00  0.00     0.049 A 
ATOM     64  H   UNL A   1      43.518  23.651  30.955  1.00  0.00     0.167 HD
ATOM     65  C   UNL A   1      44.456  26.406  33.157  1.00  0.00     0.074 A 
ATOM     66  C   UNL A   1      44.440  27.032  34.468  1.00  0.00     0.031 C 
ATOM     67  C   UNL A   1      44.916  25.207  32.688  1.00  0.00     0.031 A 
BRANCH  54  68
ATOM     68  C   UNL A   1      43.833  22.785  27.124  1.00  0.00    -0.014 A 
ATOM     69  C   UNL A   1      42.944  21.731  26.818  1.00  0.00     0.010 A 
ATOM     70  C   UNL A   1      45.039  22.793  26.399  1.00  0.00     0.010 A 
ATOM     71  C   UNL A   1      43.275  20.709  25.911  1.00  0.00     0.020 A 
ATOM     72  C   UNL A   1      45.394  21.771  25.506  1.00  0.00     0.020 A 
ATOM     73  C   UNL A   1      44.514  20.723  25.276  1.00  0.00     0.054 A 
BRANCH  73  74
ATOM     74  S   UNL A   1      44.960  19.371  24.157  1.00  0.00     0.124 S 
ATOM     75  O   UNL A   1      44.303  18.222  24.776  1.00  0.00    -0.237 OA
ATOM     76  O   UNL A   1      44.393  19.812  22.886  1.00  0.00    -0.237 OA
ATOM     77  O   UNL A   1      46.421  19.345  24.207  1.00  0.00    -0.744 OA
ENDBRANCH  73  74
ENDBRANCH  54  68
BRANCH  55  78
ATOM     78  C   UNL A   1      41.555  30.207  32.976  1.00  0.00    -0.014 A 
ATOM     79  C   UNL A   1      40.753  29.400  33.814  1.00  0.00     0.010 A 
ATOM     80  C   UNL A   1      41.407  31.604  33.040  1.00  0.00     0.010 A 
ATOM     81  C   UNL A   1      39.986  29.975  34.832  1.00  0.00     0.020 A 
ATOM     82  C   UNL A   1      40.624  32.183  34.053  1.00  0.00     0.020 A 
ATOM     83  C   UNL A   1      39.992  31.361  34.991  1.00  0.00     0.054 A 
BRANCH  83  84
ATOM     84  S   UNL A   1      39.355  32.042  36.552  1.00  0.00     0.124 S 
ATOM     85  O   UNL A   1      40.519  31.973  37.429  1.00  0.00    -0.237 OA
ATOM     86  O   UNL A   1      38.944  33.394  36.155  1.00  0.00    -0.237 OA
ATOM     87  O   UNL A   1      38.253  31.151  36.899  1.00  0.00    -0.744 OA
ENDBRANCH  83  84
ENDBRANCH  55  78
BRANCH  67  88
ATOM     88  C   UNL A   1      45.389  24.038  33.527  1.00  0.00    -0.014 A 
ATOM     89  C   UNL A   1      46.697  23.885  34.015  1.00  0.00     0.010 A 
ATOM     90  C   UNL A   1      44.438  23.080  33.961  1.00  0.00     0.010 A 
ATOM     91  C   UNL A   1      47.052  22.802  34.833  1.00  0.00     0.020 A 
ATOM     92  C   UNL A   1      44.768  22.026  34.819  1.00  0.00     0.020 A 
ATOM     93  C   UNL A   1      46.086  21.877  35.228  1.00  0.00     0.054 A 
BRANCH  93  94
ATOM     94  S   UNL A   1      46.547  20.522  36.335  1.00  0.00     0.124 S 
ATOM     95  O   UNL A   1      47.967  20.784  36.554  1.00  0.00    -0.237 OA
ATOM     96  O   UNL A   1      45.684  20.740  37.494  1.00  0.00    -0.237 OA
ATOM     97  O   UNL A   1      46.242  19.324  35.557  1.00  0.00    -0.744 OA
ENDBRANCH  93  94
ENDBRANCH  67  88
ENDBRANCH  41  42
ENDBRANCH  33  36
ENDBRANCH  31  32
ENDBRANCH   1  31
TORSDOF 16
ENDMDL
