MODEL 1
REMARK VINA RESULT:     -12.0      0.000      0.000
REMARK SMILES C[C@@H]1CC[C@@H](C(=O)NCCCNC(=O)c2ccc(-c3c4nc(c(-c5ccc(S(=O)(=O)[O-])cc5)c5ccc([nH]5)c(-c5ccc(S(=O)(=O)[O-])cc5)c5nc(c(-c6ccc(S(=O)(=O)[O-])cc6)c6ccc3[nH]6)C=C5)C=C4)cc2)[C@H]2C(=O)N(c3ccccc3)C(=O)[C@@H]21
REMARK SMILES IDX 11 1 10 2 9 3 8 4 6 5 7 6 5 8 1 9 2 10 3 11 87 12 4 13 75 14
REMARK SMILES IDX 85 15 76 16 78 17 86 18 77 19 79 20 80 21 84 22 81 23 83 24
REMARK SMILES IDX 82 25 12 26 13 27 14 29 15 30 16 31 74 32 17 33 73 34 18 35
REMARK SMILES IDX 19 36 20 37 67 38 21 39 72 40 66 41 68 42 22 43 71 44 65 45
REMARK SMILES IDX 64 46 23 48 53 49 34 50 52 51 35 52 38 53 51 54 69 55 36 56
REMARK SMILES IDX 37 57 50 59 70 60 39 61 24 62 25 63 33 64 26 65 32 66 27 67
REMARK SMILES IDX 28 68 29 69 30 70 31 71 54 72 55 73 63 74 56 75 62 76 57 77
REMARK SMILES IDX 58 78 59 79 60 80 61 81 40 82 41 83 49 84 42 85 48 86 43 87
REMARK SMILES IDX 44 88 45 89 46 90 47 91
REMARK H PARENT 8 7 12 28 68 47 38 58
REMARK Flexibility Score: inf
ROOT
ATOM      1  C   UNL A   1      33.674  28.115  26.828  1.00  0.00     0.118 C 
ENDROOT
BRANCH   1   2
ATOM      2  C   UNL A   1      33.935  27.894  25.344  1.00  0.00     0.042 C 
BRANCH   2   3
ATOM      3  C   UNL A   1      32.685  27.529  24.547  1.00  0.00     0.117 C 
BRANCH   3   4
ATOM      4  N   UNL A   1      33.016  27.213  23.172  1.00  0.00    -0.356 N 
ATOM      5  C   UNL A   1      32.956  26.110  22.402  1.00  0.00     0.223 C 
ATOM      6  O   UNL A   1      33.586  26.213  21.341  1.00  0.00    -0.275 OA
ATOM      7  H   UNL A   1      33.369  27.991  22.684  1.00  0.00     0.163 HD
BRANCH   5   8
ATOM      8  C   UNL A   1      32.174  24.816  22.682  1.00  0.00     0.092 C 
ATOM      9  C   UNL A   1      30.886  23.094  25.990  1.00  0.00     0.008 C 
ATOM     10  C   UNL A   1      31.390  24.490  25.622  1.00  0.00    -0.001 C 
ATOM     11  C   UNL A   1      30.436  25.155  24.601  1.00  0.00     0.005 C 
ATOM     12  C   UNL A   1      32.818  24.526  25.079  1.00  0.00     0.095 C 
ATOM     13  C   UNL A   1      30.699  24.815  23.120  1.00  0.00     0.014 C 
ATOM     14  C   UNL A   1      32.910  23.931  23.689  1.00  0.00     0.104 C 
ATOM     15  C   UNL A   1      33.908  23.779  25.806  1.00  0.00     0.237 C 
ATOM     16  C   UNL A   1      34.378  23.607  23.556  1.00  0.00     0.238 C 
ATOM     17  N   UNL A   1      34.860  23.450  24.851  1.00  0.00    -0.250 N 
ATOM     18  O   UNL A   1      33.934  23.626  27.013  1.00  0.00    -0.274 OA
ATOM     19  O   UNL A   1      34.909  23.296  22.499  1.00  0.00    -0.274 OA
BRANCH  17  20
ATOM     20  C   UNL A   1      36.138  22.919  25.151  1.00  0.00     0.052 A 
ATOM     21  C   UNL A   1      36.453  21.583  24.863  1.00  0.00     0.027 A 
ATOM     22  C   UNL A   1      37.119  23.720  25.754  1.00  0.00     0.027 A 
ATOM     23  C   UNL A   1      37.719  21.067  25.153  1.00  0.00     0.002 A 
ATOM     24  C   UNL A   1      38.373  23.193  26.079  1.00  0.00     0.002 A 
ATOM     25  C   UNL A   1      38.675  21.869  25.770  1.00  0.00     0.000 A 
ENDBRANCH  17  20
ENDBRANCH   5   8
ENDBRANCH   3   4
ENDBRANCH   2   3
ENDBRANCH   1   2
BRANCH   1  26
ATOM     26  N   UNL A   1      33.533  29.525  27.150  1.00  0.00    -0.352 N 
ATOM     27  C   UNL A   1      34.371  30.368  27.836  1.00  0.00     0.251 C 
ATOM     28  H   UNL A   1      32.702  29.943  26.825  1.00  0.00     0.163 HD
ATOM     29  O   UNL A   1      33.936  31.454  28.216  1.00  0.00    -0.269 OA
BRANCH  27  30
ATOM     30  C   UNL A   1      35.773  29.990  28.123  1.00  0.00     0.039 A 
ATOM     31  C   UNL A   1      36.096  29.536  29.406  1.00  0.00     0.014 A 
ATOM     32  C   UNL A   1      36.784  30.141  27.170  1.00  0.00     0.014 A 
ATOM     33  C   UNL A   1      37.418  29.204  29.716  1.00  0.00     0.010 A 
ATOM     34  C   UNL A   1      38.082  29.723  27.451  1.00  0.00     0.010 A 
ATOM     35  C   UNL A   1      38.420  29.274  28.734  1.00  0.00    -0.014 A 
BRANCH  35  36
ATOM     36  C   UNL A   1      39.826  28.912  29.050  1.00  0.00     0.031 A 
ATOM     37  C   UNL A   1      40.730  29.904  29.736  1.00  0.00     0.074 A 
ATOM     38  C   UNL A   1      40.298  27.702  28.690  1.00  0.00     0.049 A 
ATOM     39  N   UNL A   1      41.983  29.770  30.091  1.00  0.00    -0.248 NA
ATOM     40  C   UNL A   1      40.164  31.230  30.037  1.00  0.00     0.031 C 
ATOM     41  C   UNL A   1      39.538  26.674  27.975  1.00  0.00     0.029 A 
ATOM     42  N   UNL A   1      41.530  27.130  28.881  1.00  0.00    -0.354 N 
ATOM     43  C   UNL A   1      42.356  30.993  30.638  1.00  0.00     0.074 A 
ATOM     44  C   UNL A   1      41.218  31.875  30.518  1.00  0.00     0.031 C 
ATOM     45  C   UNL A   1      40.307  25.585  27.823  1.00  0.00     0.029 A 
ATOM     46  C   UNL A   1      41.621  25.846  28.398  1.00  0.00     0.049 A 
ATOM     47  H   UNL A   1      42.278  27.595  29.321  1.00  0.00     0.167 HD
ATOM     48  C   UNL A   1      43.532  31.344  31.213  1.00  0.00     0.031 A 
ATOM     49  C   UNL A   1      42.647  24.972  28.422  1.00  0.00     0.031 A 
ATOM     50  C   UNL A   1      44.658  30.458  31.347  1.00  0.00     0.049 A 
ATOM     51  C   UNL A   1      43.933  25.375  29.090  1.00  0.00     0.074 A 
ATOM     52  C   UNL A   1      45.876  30.698  31.959  1.00  0.00     0.029 A 
ATOM     53  N   UNL A   1      44.701  29.158  30.866  1.00  0.00    -0.354 N 
ATOM     54  N   UNL A   1      44.244  26.516  29.659  1.00  0.00    -0.248 NA
ATOM     55  C   UNL A   1      44.996  24.364  29.141  1.00  0.00     0.031 C 
ATOM     56  C   UNL A   1      46.671  29.557  31.810  1.00  0.00     0.029 A 
ATOM     57  C   UNL A   1      45.928  28.586  31.157  1.00  0.00     0.049 A 
ATOM     58  H   UNL A   1      43.967  28.708  30.388  1.00  0.00     0.167 HD
ATOM     59  C   UNL A   1      45.529  26.348  30.162  1.00  0.00     0.074 A 
ATOM     60  C   UNL A   1      45.928  24.992  29.845  1.00  0.00     0.031 C 
ATOM     61  C   UNL A   1      46.308  27.235  30.830  1.00  0.00     0.031 A 
BRANCH  48  62
ATOM     62  C   UNL A   1      43.657  32.751  31.740  1.00  0.00    -0.014 A 
ATOM     63  C   UNL A   1      44.183  33.783  30.940  1.00  0.00     0.010 A 
ATOM     64  C   UNL A   1      43.215  33.056  33.040  1.00  0.00     0.010 A 
ATOM     65  C   UNL A   1      44.306  35.081  31.445  1.00  0.00     0.020 A 
ATOM     66  C   UNL A   1      43.309  34.360  33.539  1.00  0.00     0.020 A 
ATOM     67  C   UNL A   1      43.872  35.359  32.744  1.00  0.00     0.054 A 
BRANCH  67  68
ATOM     68  S   UNL A   1      44.026  37.056  33.367  1.00  0.00     0.124 S 
ATOM     69  O   UNL A   1      42.998  37.090  34.405  1.00  0.00    -0.237 OA
ATOM     70  O   UNL A   1      45.405  37.097  33.848  1.00  0.00    -0.237 OA
ATOM     71  O   UNL A   1      43.754  37.883  32.194  1.00  0.00    -0.744 OA
ENDBRANCH  67  68
ENDBRANCH  48  62
BRANCH  49  72
ATOM     72  C   UNL A   1      42.481  23.616  27.832  1.00  0.00    -0.014 A 
ATOM     73  C   UNL A   1      42.944  23.341  26.533  1.00  0.00     0.010 A 
ATOM     74  C   UNL A   1      41.878  22.585  28.574  1.00  0.00     0.010 A 
ATOM     75  C   UNL A   1      42.786  22.067  25.977  1.00  0.00     0.020 A 
ATOM     76  C   UNL A   1      41.744  21.303  28.034  1.00  0.00     0.020 A 
ATOM     77  C   UNL A   1      42.189  21.055  26.734  1.00  0.00     0.054 A 
BRANCH  77  78
ATOM     78  S   UNL A   1      42.042  19.396  26.014  1.00  0.00     0.124 S 
ATOM     79  O   UNL A   1      42.592  18.556  27.073  1.00  0.00    -0.237 OA
ATOM     80  O   UNL A   1      40.603  19.274  25.791  1.00  0.00    -0.237 OA
ATOM     81  O   UNL A   1      42.848  19.480  24.797  1.00  0.00    -0.744 OA
ENDBRANCH  77  78
ENDBRANCH  49  72
BRANCH  61  82
ATOM     82  C   UNL A   1      47.653  26.749  31.301  1.00  0.00    -0.014 A 
ATOM     83  C   UNL A   1      47.820  26.170  32.572  1.00  0.00     0.010 A 
ATOM     84  C   UNL A   1      48.763  26.852  30.443  1.00  0.00     0.010 A 
ATOM     85  C   UNL A   1      49.084  25.752  32.995  1.00  0.00     0.020 A 
ATOM     86  C   UNL A   1      50.022  26.407  30.851  1.00  0.00     0.020 A 
ATOM     87  C   UNL A   1      50.178  25.880  32.134  1.00  0.00     0.054 A 
BRANCH  87  88
ATOM     88  S   UNL A   1      51.808  25.320  32.700  1.00  0.00     0.124 S 
ATOM     89  O   UNL A   1      52.707  26.163  31.916  1.00  0.00    -0.237 OA
ATOM     90  O   UNL A   1      51.767  25.607  34.133  1.00  0.00    -0.237 OA
ATOM     91  O   UNL A   1      51.825  23.900  32.357  1.00  0.00    -0.744 OA
ENDBRANCH  87  88
ENDBRANCH  61  82
ENDBRANCH  35  36
ENDBRANCH  27  30
ENDBRANCH   1  26
TORSDOF 14
ENDMDL
MODEL 2
REMARK VINA RESULT:     -11.8      2.441      9.158
REMARK SMILES C[C@@H]1CC[C@@H](C(=O)NCCCNC(=O)c2ccc(-c3c4nc(c(-c5ccc(S(=O)(=O)[O-])cc5)c5ccc([nH]5)c(-c5ccc(S(=O)(=O)[O-])cc5)c5nc(c(-c6ccc(S(=O)(=O)[O-])cc6)c6ccc3[nH]6)C=C5)C=C4)cc2)[C@H]2C(=O)N(c3ccccc3)C(=O)[C@@H]21
REMARK SMILES IDX 11 1 10 2 9 3 8 4 6 5 7 6 5 8 1 9 2 10 3 11 87 12 4 13 75 14
REMARK SMILES IDX 85 15 76 16 78 17 86 18 77 19 79 20 80 21 84 22 81 23 83 24
REMARK SMILES IDX 82 25 12 26 13 27 14 29 15 30 16 31 74 32 17 33 73 34 18 35
REMARK SMILES IDX 19 36 20 37 67 38 21 39 72 40 66 41 68 42 22 43 71 44 65 45
REMARK SMILES IDX 64 46 23 48 53 49 34 50 52 51 35 52 38 53 51 54 69 55 36 56
REMARK SMILES IDX 37 57 50 59 70 60 39 61 24 62 25 63 33 64 26 65 32 66 27 67
REMARK SMILES IDX 28 68 29 69 30 70 31 71 54 72 55 73 63 74 56 75 62 76 57 77
REMARK SMILES IDX 58 78 59 79 60 80 61 81 40 82 41 83 49 84 42 85 48 86 43 87
REMARK SMILES IDX 44 88 45 89 46 90 47 91
REMARK H PARENT 8 7 12 28 68 47 38 58
REMARK Flexibility Score: inf
ROOT
ATOM      1  C   UNL A   1      36.292  23.571  26.141  1.00  0.00     0.118 C 
ENDROOT
BRANCH   1   2
ATOM      2  C   UNL A   1      35.522  23.603  24.827  1.00  0.00     0.042 C 
BRANCH   2   3
ATOM      3  C   UNL A   1      34.375  22.597  24.760  1.00  0.00     0.117 C 
BRANCH   3   4
ATOM      4  N   UNL A   1      33.501  22.726  25.908  1.00  0.00    -0.356 N 
ATOM      5  C   UNL A   1      32.345  23.368  26.165  1.00  0.00     0.223 C 
ATOM      6  O   UNL A   1      32.066  23.420  27.370  1.00  0.00    -0.275 OA
ATOM      7  H   UNL A   1      33.829  22.221  26.686  1.00  0.00     0.163 HD
BRANCH   5   8
ATOM      8  C   UNL A   1      31.365  23.971  25.146  1.00  0.00     0.092 C 
ATOM      9  C   UNL A   1      31.848  25.939  21.760  1.00  0.00     0.008 C 
ATOM     10  C   UNL A   1      32.744  25.071  22.646  1.00  0.00    -0.001 C 
ATOM     11  C   UNL A   1      32.206  23.622  22.699  1.00  0.00     0.005 C 
ATOM     12  C   UNL A   1      32.928  25.596  24.069  1.00  0.00     0.095 C 
ATOM     13  C   UNL A   1      31.120  23.349  23.760  1.00  0.00     0.014 C 
ATOM     14  C   UNL A   1      31.666  25.449  24.895  1.00  0.00     0.104 C 
ATOM     15  C   UNL A   1      33.271  27.049  24.288  1.00  0.00     0.237 C 
ATOM     16  C   UNL A   1      31.881  26.431  26.020  1.00  0.00     0.238 C 
ATOM     17  N   UNL A   1      32.773  27.383  25.539  1.00  0.00    -0.250 N 
ATOM     18  O   UNL A   1      33.947  27.707  23.519  1.00  0.00    -0.274 OA
ATOM     19  O   UNL A   1      31.181  26.476  27.022  1.00  0.00    -0.274 OA
BRANCH  17  20
ATOM     20  C   UNL A   1      33.056  28.599  26.209  1.00  0.00     0.052 A 
ATOM     21  C   UNL A   1      32.135  29.656  26.211  1.00  0.00     0.027 A 
ATOM     22  C   UNL A   1      34.274  28.775  26.881  1.00  0.00     0.027 A 
ATOM     23  C   UNL A   1      32.416  30.850  26.882  1.00  0.00     0.002 A 
ATOM     24  C   UNL A   1      34.571  29.984  27.520  1.00  0.00     0.002 A 
ATOM     25  C   UNL A   1      33.638  31.017  27.527  1.00  0.00     0.000 A 
ENDBRANCH  17  20
ENDBRANCH   5   8
ENDBRANCH   3   4
ENDBRANCH   2   3
ENDBRANCH   1   2
BRANCH   1  26
ATOM     26  N   UNL A   1      37.438  22.679  26.075  1.00  0.00    -0.352 N 
ATOM     27  C   UNL A   1      38.771  22.929  26.287  1.00  0.00     0.251 C 
ATOM     28  H   UNL A   1      37.224  21.746  25.842  1.00  0.00     0.163 HD
ATOM     29  O   UNL A   1      39.594  22.091  25.925  1.00  0.00    -0.269 OA
BRANCH  27  30
ATOM     30  C   UNL A   1      39.224  24.182  26.933  1.00  0.00     0.039 A 
ATOM     31  C   UNL A   1      39.956  25.101  26.175  1.00  0.00     0.014 A 
ATOM     32  C   UNL A   1      38.998  24.431  28.290  1.00  0.00     0.014 A 
ATOM     33  C   UNL A   1      40.426  26.276  26.767  1.00  0.00     0.010 A 
ATOM     34  C   UNL A   1      39.386  25.643  28.855  1.00  0.00     0.010 A 
ATOM     35  C   UNL A   1      40.127  26.568  28.107  1.00  0.00    -0.014 A 
BRANCH  35  36
ATOM     36  C   UNL A   1      40.612  27.821  28.744  1.00  0.00     0.031 A 
ATOM     37  C   UNL A   1      42.035  27.925  29.230  1.00  0.00     0.074 A 
ATOM     38  C   UNL A   1      39.762  28.853  28.914  1.00  0.00     0.049 A 
ATOM     39  N   UNL A   1      42.637  28.932  29.809  1.00  0.00    -0.248 NA
ATOM     40  C   UNL A   1      42.885  26.733  29.071  1.00  0.00     0.031 C 
ATOM     41  C   UNL A   1      38.347  28.856  28.534  1.00  0.00     0.029 A 
ATOM     42  N   UNL A   1      39.964  30.101  29.446  1.00  0.00    -0.354 N 
ATOM     43  C   UNL A   1      43.924  28.491  30.097  1.00  0.00     0.074 A 
ATOM     44  C   UNL A   1      44.000  27.109  29.682  1.00  0.00     0.031 C 
ATOM     45  C   UNL A   1      37.821  30.060  28.809  1.00  0.00     0.029 A 
ATOM     46  C   UNL A   1      38.848  30.902  29.412  1.00  0.00     0.049 A 
ATOM     47  H   UNL A   1      40.828  30.394  29.816  1.00  0.00     0.167 HD
ATOM     48  C   UNL A   1      44.959  29.181  30.635  1.00  0.00     0.031 A 
ATOM     49  C   UNL A   1      38.671  32.175  29.815  1.00  0.00     0.031 A 
ATOM     50  C   UNL A   1      44.885  30.563  31.031  1.00  0.00     0.049 A 
ATOM     51  C   UNL A   1      39.842  32.929  30.384  1.00  0.00     0.074 A 
ATOM     52  C   UNL A   1      45.890  31.369  31.537  1.00  0.00     0.029 A 
ATOM     53  N   UNL A   1      43.742  31.345  30.958  1.00  0.00    -0.354 N 
ATOM     54  N   UNL A   1      41.069  32.513  30.590  1.00  0.00    -0.248 NA
ATOM     55  C   UNL A   1      39.609  34.331  30.752  1.00  0.00     0.031 C 
ATOM     56  C   UNL A   1      45.342  32.627  31.811  1.00  0.00     0.029 A 
ATOM     57  C   UNL A   1      44.013  32.622  31.421  1.00  0.00     0.049 A 
ATOM     58  H   UNL A   1      42.868  31.037  30.626  1.00  0.00     0.167 HD
ATOM     59  C   UNL A   1      41.763  33.612  31.083  1.00  0.00     0.074 A 
ATOM     60  C   UNL A   1      40.822  34.713  31.128  1.00  0.00     0.031 C 
ATOM     61  C   UNL A   1      43.062  33.704  31.461  1.00  0.00     0.031 A 
BRANCH  48  62
ATOM     62  C   UNL A   1      46.261  28.446  30.827  1.00  0.00    -0.014 A 
ATOM     63  C   UNL A   1      47.241  28.427  29.817  1.00  0.00     0.010 A 
ATOM     64  C   UNL A   1      46.525  27.789  32.043  1.00  0.00     0.010 A 
ATOM     65  C   UNL A   1      48.439  27.731  30.000  1.00  0.00     0.020 A 
ATOM     66  C   UNL A   1      47.735  27.116  32.242  1.00  0.00     0.020 A 
ATOM     67  C   UNL A   1      48.676  27.075  31.212  1.00  0.00     0.054 A 
BRANCH  67  68
ATOM     68  S   UNL A   1      50.246  26.194  31.431  1.00  0.00     0.124 S 
ATOM     69  O   UNL A   1      49.799  24.914  31.976  1.00  0.00    -0.237 OA
ATOM     70  O   UNL A   1      50.779  26.145  30.072  1.00  0.00    -0.237 OA
ATOM     71  O   UNL A   1      50.992  27.039  32.360  1.00  0.00    -0.744 OA
ENDBRANCH  67  68
ENDBRANCH  48  62
BRANCH  49  72
ATOM     72  C   UNL A   1      37.343  32.828  29.654  1.00  0.00    -0.014 A 
ATOM     73  C   UNL A   1      36.448  32.901  30.736  1.00  0.00     0.010 A 
ATOM     74  C   UNL A   1      36.975  33.399  28.423  1.00  0.00     0.010 A 
ATOM     75  C   UNL A   1      35.199  33.513  30.583  1.00  0.00     0.020 A 
ATOM     76  C   UNL A   1      35.740  34.037  28.274  1.00  0.00     0.020 A 
ATOM     77  C   UNL A   1      34.855  34.079  29.353  1.00  0.00     0.054 A 
BRANCH  77  78
ATOM     78  S   UNL A   1      33.252  34.915  29.192  1.00  0.00     0.124 S 
ATOM     79  O   UNL A   1      33.647  36.244  28.738  1.00  0.00    -0.237 OA
ATOM     80  O   UNL A   1      32.562  34.088  28.205  1.00  0.00    -0.237 OA
ATOM     81  O   UNL A   1      32.698  34.850  30.542  1.00  0.00    -0.744 OA
ENDBRANCH  77  78
ENDBRANCH  49  72
BRANCH  61  82
ATOM     82  C   UNL A   1      43.551  35.054  31.913  1.00  0.00    -0.014 A 
ATOM     83  C   UNL A   1      43.492  35.441  33.264  1.00  0.00     0.010 A 
ATOM     84  C   UNL A   1      44.104  35.939  30.969  1.00  0.00     0.010 A 
ATOM     85  C   UNL A   1      43.928  36.710  33.653  1.00  0.00     0.020 A 
ATOM     86  C   UNL A   1      44.569  37.197  31.360  1.00  0.00     0.020 A 
ATOM     87  C   UNL A   1      44.457  37.582  32.697  1.00  0.00     0.054 A 
BRANCH  87  88
ATOM     88  S   UNL A   1      45.027  39.220  33.227  1.00  0.00     0.124 S 
ATOM     89  O   UNL A   1      46.431  38.966  33.540  1.00  0.00    -0.237 OA
ATOM     90  O   UNL A   1      44.787  40.043  32.044  1.00  0.00    -0.237 OA
ATOM     91  O   UNL A   1      44.178  39.528  34.375  1.00  0.00    -0.744 OA
ENDBRANCH  87  88
ENDBRANCH  61  82
ENDBRANCH  35  36
ENDBRANCH  27  30
ENDBRANCH   1  26
TORSDOF 14
ENDMDL
MODEL 3
REMARK VINA RESULT:     -11.8      2.327      2.964
REMARK SMILES C[C@@H]1CC[C@@H](C(=O)NCCCNC(=O)c2ccc(-c3c4nc(c(-c5ccc(S(=O)(=O)[O-])cc5)c5ccc([nH]5)c(-c5ccc(S(=O)(=O)[O-])cc5)c5nc(c(-c6ccc(S(=O)(=O)[O-])cc6)c6ccc3[nH]6)C=C5)C=C4)cc2)[C@H]2C(=O)N(c3ccccc3)C(=O)[C@@H]21
REMARK SMILES IDX 11 1 10 2 9 3 8 4 6 5 7 6 5 8 1 9 2 10 3 11 87 12 4 13 75 14
REMARK SMILES IDX 85 15 76 16 78 17 86 18 77 19 79 20 80 21 84 22 81 23 83 24
REMARK SMILES IDX 82 25 12 26 13 27 14 29 15 30 16 31 74 32 17 33 73 34 18 35
REMARK SMILES IDX 19 36 20 37 67 38 21 39 72 40 66 41 68 42 22 43 71 44 65 45
REMARK SMILES IDX 64 46 23 48 53 49 34 50 52 51 35 52 38 53 51 54 69 55 36 56
REMARK SMILES IDX 37 57 50 59 70 60 39 61 24 62 25 63 33 64 26 65 32 66 27 67
REMARK SMILES IDX 28 68 29 69 30 70 31 71 54 72 55 73 63 74 56 75 62 76 57 77
REMARK SMILES IDX 58 78 59 79 60 80 61 81 40 82 41 83 49 84 42 85 48 86 43 87
REMARK SMILES IDX 44 88 45 89 46 90 47 91
REMARK H PARENT 8 7 12 28 68 47 38 58
REMARK Flexibility Score: inf
ROOT
ATOM      1  C   UNL A   1      34.099  28.365  25.776  1.00  0.00     0.118 C 
ENDROOT
BRANCH   1   2
ATOM      2  C   UNL A   1      32.979  27.362  26.021  1.00  0.00     0.042 C 
BRANCH   2   3
ATOM      3  C   UNL A   1      32.076  27.139  24.810  1.00  0.00     0.117 C 
BRANCH   3   4
ATOM      4  N   UNL A   1      32.856  26.950  23.605  1.00  0.00    -0.356 N 
ATOM      5  C   UNL A   1      33.254  25.888  22.877  1.00  0.00     0.223 C 
ATOM      6  O   UNL A   1      34.134  26.158  22.050  1.00  0.00    -0.275 OA
ATOM      7  H   UNL A   1      33.171  27.801  23.226  1.00  0.00     0.163 HD
BRANCH   5   8
ATOM      8  C   UNL A   1      32.707  24.452  22.943  1.00  0.00     0.092 C 
ATOM      9  C   UNL A   1      31.523  22.140  25.913  1.00  0.00     0.008 C 
ATOM     10  C   UNL A   1      31.785  23.638  25.745  1.00  0.00    -0.001 C 
ATOM     11  C   UNL A   1      30.802  24.244  24.717  1.00  0.00     0.005 C 
ATOM     12  C   UNL A   1      33.217  23.989  25.345  1.00  0.00     0.095 C 
ATOM     13  C   UNL A   1      31.230  24.139  23.238  1.00  0.00     0.014 C 
ATOM     14  C   UNL A   1      33.519  23.594  23.914  1.00  0.00     0.104 C 
ATOM     15  C   UNL A   1      34.372  23.363  26.087  1.00  0.00     0.237 C 
ATOM     16  C   UNL A   1      35.028  23.552  23.885  1.00  0.00     0.238 C 
ATOM     17  N   UNL A   1      35.434  23.325  25.195  1.00  0.00    -0.250 N 
ATOM     18  O   UNL A   1      34.337  23.070  27.268  1.00  0.00    -0.274 OA
ATOM     19  O   UNL A   1      35.682  23.469  22.855  1.00  0.00    -0.274 OA
BRANCH  17  20
ATOM     20  C   UNL A   1      36.763  22.994  25.555  1.00  0.00     0.052 A 
ATOM     21  C   UNL A   1      37.602  23.933  26.173  1.00  0.00     0.027 A 
ATOM     22  C   UNL A   1      37.275  21.715  25.293  1.00  0.00     0.027 A 
ATOM     23  C   UNL A   1      38.910  23.598  26.535  1.00  0.00     0.002 A 
ATOM     24  C   UNL A   1      38.596  21.392  25.621  1.00  0.00     0.002 A 
ATOM     25  C   UNL A   1      39.410  22.331  26.249  1.00  0.00     0.000 A 
ENDBRANCH  17  20
ENDBRANCH   5   8
ENDBRANCH   3   4
ENDBRANCH   2   3
ENDBRANCH   1   2
BRANCH   1  26
ATOM     26  N   UNL A   1      33.737  29.701  26.222  1.00  0.00    -0.352 N 
ATOM     27  C   UNL A   1      34.249  30.467  27.238  1.00  0.00     0.251 C 
ATOM     28  H   UNL A   1      33.007  30.123  25.713  1.00  0.00     0.163 HD
ATOM     29  O   UNL A   1      33.623  31.459  27.605  1.00  0.00    -0.269 OA
BRANCH  27  30
ATOM     30  C   UNL A   1      35.530  30.116  27.894  1.00  0.00     0.039 A 
ATOM     31  C   UNL A   1      35.501  29.618  29.200  1.00  0.00     0.014 A 
ATOM     32  C   UNL A   1      36.760  30.335  27.266  1.00  0.00     0.014 A 
ATOM     33  C   UNL A   1      36.696  29.310  29.856  1.00  0.00     0.010 A 
ATOM     34  C   UNL A   1      37.944  29.941  27.885  1.00  0.00     0.010 A 
ATOM     35  C   UNL A   1      37.928  29.449  29.196  1.00  0.00    -0.014 A 
BRANCH  35  36
ATOM     36  C   UNL A   1      39.203  29.113  29.881  1.00  0.00     0.031 A 
ATOM     37  C   UNL A   1      39.619  29.861  31.122  1.00  0.00     0.074 A 
ATOM     38  C   UNL A   1      40.003  28.158  29.366  1.00  0.00     0.049 A 
ATOM     39  N   UNL A   1      40.694  29.710  31.854  1.00  0.00    -0.248 NA
ATOM     40  C   UNL A   1      38.727  30.937  31.586  1.00  0.00     0.031 C 
ATOM     41  C   UNL A   1      39.737  27.400  28.141  1.00  0.00     0.029 A 
ATOM     42  N   UNL A   1      41.200  27.658  29.811  1.00  0.00    -0.354 N 
ATOM     43  C   UNL A   1      40.615  30.678  32.850  1.00  0.00     0.074 A 
ATOM     44  C   UNL A   1      39.418  31.448  32.596  1.00  0.00     0.031 C 
ATOM     45  C   UNL A   1      40.721  26.506  27.955  1.00  0.00     0.029 A 
ATOM     46  C   UNL A   1      41.702  26.648  29.025  1.00  0.00     0.049 A 
ATOM     47  H   UNL A   1      41.657  27.992  30.617  1.00  0.00     0.167 HD
ATOM     48  C   UNL A   1      41.449  30.893  33.896  1.00  0.00     0.031 A 
ATOM     49  C   UNL A   1      42.822  25.912  29.155  1.00  0.00     0.031 A 
ATOM     50  C   UNL A   1      42.630  30.113  34.155  1.00  0.00     0.049 A 
ATOM     51  C   UNL A   1      43.718  26.149  30.340  1.00  0.00     0.074 A 
ATOM     52  C   UNL A   1      43.514  30.214  35.216  1.00  0.00     0.029 A 
ATOM     53  N   UNL A   1      43.090  29.083  33.348  1.00  0.00    -0.354 N 
ATOM     54  N   UNL A   1      43.592  27.029  31.306  1.00  0.00    -0.248 NA
ATOM     55  C   UNL A   1      44.894  25.279  30.464  1.00  0.00     0.031 C 
ATOM     56  C   UNL A   1      44.532  29.273  35.026  1.00  0.00     0.029 A 
ATOM     57  C   UNL A   1      44.251  28.547  33.880  1.00  0.00     0.049 A 
ATOM     58  H   UNL A   1      42.654  28.778  32.519  1.00  0.00     0.167 HD
ATOM     59  C   UNL A   1      44.656  26.796  32.169  1.00  0.00     0.074 A 
ATOM     60  C   UNL A   1      45.404  25.684  31.619  1.00  0.00     0.031 C 
ATOM     61  C   UNL A   1      44.983  27.441  33.316  1.00  0.00     0.031 A 
BRANCH  48  62
ATOM     62  C   UNL A   1      41.108  32.019  34.838  1.00  0.00    -0.014 A 
ATOM     63  C   UNL A   1      40.361  31.788  36.008  1.00  0.00     0.010 A 
ATOM     64  C   UNL A   1      41.566  33.322  34.569  1.00  0.00     0.010 A 
ATOM     65  C   UNL A   1      40.040  32.843  36.866  1.00  0.00     0.020 A 
ATOM     66  C   UNL A   1      41.272  34.376  35.441  1.00  0.00     0.020 A 
ATOM     67  C   UNL A   1      40.494  34.132  36.575  1.00  0.00     0.054 A 
BRANCH  67  68
ATOM     68  S   UNL A   1      40.078  35.480  37.716  1.00  0.00     0.124 S 
ATOM     69  O   UNL A   1      39.921  36.609  36.803  1.00  0.00    -0.237 OA
ATOM     70  O   UNL A   1      38.848  35.002  38.341  1.00  0.00    -0.237 OA
ATOM     71  O   UNL A   1      41.237  35.554  38.603  1.00  0.00    -0.744 OA
ENDBRANCH  67  68
ENDBRANCH  48  62
BRANCH  49  72
ATOM     72  C   UNL A   1      43.135  24.852  28.158  1.00  0.00    -0.014 A 
ATOM     73  C   UNL A   1      43.949  25.135  27.047  1.00  0.00     0.010 A 
ATOM     74  C   UNL A   1      42.636  23.548  28.324  1.00  0.00     0.010 A 
ATOM     75  C   UNL A   1      44.241  24.139  26.108  1.00  0.00     0.020 A 
ATOM     76  C   UNL A   1      42.948  22.543  27.404  1.00  0.00     0.020 A 
ATOM     77  C   UNL A   1      43.740  22.848  26.296  1.00  0.00     0.054 A 
BRANCH  77  78
ATOM     78  S   UNL A   1      44.174  21.559  25.095  1.00  0.00     0.124 S 
ATOM     79  O   UNL A   1      44.064  22.275  23.828  1.00  0.00    -0.237 OA
ATOM     80  O   UNL A   1      45.529  21.193  25.500  1.00  0.00    -0.237 OA
ATOM     81  O   UNL A   1      43.165  20.527  25.323  1.00  0.00    -0.744 OA
ENDBRANCH  77  78
ENDBRANCH  49  72
BRANCH  61  82
ATOM     82  C   UNL A   1      46.178  26.930  34.075  1.00  0.00    -0.014 A 
ATOM     83  C   UNL A   1      47.470  27.432  33.836  1.00  0.00     0.010 A 
ATOM     84  C   UNL A   1      45.997  25.945  35.063  1.00  0.00     0.010 A 
ATOM     85  C   UNL A   1      48.565  26.921  34.535  1.00  0.00     0.020 A 
ATOM     86  C   UNL A   1      47.086  25.452  35.786  1.00  0.00     0.020 A 
ATOM     87  C   UNL A   1      48.367  25.929  35.501  1.00  0.00     0.054 A 
BRANCH  87  88
ATOM     88  S   UNL A   1      49.803  25.287  36.404  1.00  0.00     0.124 S 
ATOM     89  O   UNL A   1      50.906  26.000  35.767  1.00  0.00    -0.237 OA
ATOM     90  O   UNL A   1      49.516  25.677  37.783  1.00  0.00    -0.237 OA
ATOM     91  O   UNL A   1      49.759  23.849  36.148  1.00  0.00    -0.744 OA
ENDBRANCH  87  88
ENDBRANCH  61  82
ENDBRANCH  35  36
ENDBRANCH  27  30
ENDBRANCH   1  26
TORSDOF 14
ENDMDL
