MODEL 1
REMARK VINA RESULT:     -10.1      0.000      0.000
REMARK SMILES CC(C)[C@@H](CO)NC(=O)CC(C)(C)CC(=O)NCCCNC(=O)c1ccc(-c2c3nc(c(-c4ccc(S(=O)(=O)[O-])cc4)c4ccc([nH]4)c(-c4ccc(S(=O)(=O)[O-])cc4)c4nc(c(-c5ccc(S(=O)(=O)[O-])cc5)c5ccc2[nH]5)C=C4)C=C3)cc1
REMARK SMILES IDX 15 1 16 2 17 3 14 5 11 6 12 7 13 8 10 9 8 10 7 11 9 13 4 14
REMARK SMILES IDX 2 15 1 16 3 17 5 18 6 19 18 21 19 22 20 23 21 24 22 25 23 27
REMARK SMILES IDX 24 28 25 29 83 30 26 31 82 32 27 33 28 34 29 35 76 36 30 37
REMARK SMILES IDX 81 38 75 39 77 40 31 41 80 42 74 43 73 44 32 46 62 47 43 48
REMARK SMILES IDX 61 49 44 50 47 51 60 52 78 53 45 54 46 55 59 57 79 58 48 59
REMARK SMILES IDX 33 60 34 61 42 62 35 63 41 64 36 65 37 66 38 67 39 68 40 69
REMARK SMILES IDX 63 70 64 71 72 72 65 73 71 74 66 75 67 76 68 77 69 78 70 79
REMARK SMILES IDX 49 80 50 81 58 82 51 83 57 84 52 85 53 86 54 87 55 88 56 89
REMARK H PARENT 17 4 7 12 6 20 21 26 77 45 47 56
REMARK Flexibility Score: inf
ROOT
ATOM      1  C   UNL A   1      33.424  25.149  25.722  1.00  0.00     0.220 C 
ATOM      2  O   UNL A   1      32.726  24.490  26.491  1.00  0.00    -0.275 OA
ATOM      3  N   UNL A   1      32.909  26.309  25.230  1.00  0.00    -0.356 N 
ATOM      4  H   UNL A   1      32.031  26.554  25.604  1.00  0.00     0.163 HD
ENDROOT
BRANCH   1   5
ATOM      5  C   UNL A   1      34.824  24.717  25.345  1.00  0.00     0.107 C 
BRANCH   5   6
ATOM      6  C   UNL A   1      34.967  23.353  24.623  1.00  0.00    -0.018 C 
ATOM      7  C   UNL A   1      36.196  23.467  23.706  1.00  0.00     0.012 C 
ATOM      8  C   UNL A   1      33.805  23.046  23.663  1.00  0.00     0.012 C 
BRANCH   6   9
ATOM      9  C   UNL A   1      35.033  22.147  25.601  1.00  0.00     0.107 C 
BRANCH   9  10
ATOM     10  C   UNL A   1      35.757  20.872  25.194  1.00  0.00     0.220 C 
ATOM     11  N   UNL A   1      35.060  19.757  24.852  1.00  0.00    -0.351 N 
ATOM     12  H   UNL A   1      35.604  18.942  24.758  1.00  0.00     0.163 HD
ATOM     13  O   UNL A   1      36.986  20.795  25.216  1.00  0.00    -0.275 OA
BRANCH  11  14
ATOM     14  C   UNL A   1      33.636  19.576  24.602  1.00  0.00     0.110 C 
BRANCH  14  15
ATOM     15  C   UNL A   1      33.334  18.111  24.166  1.00  0.00     0.007 C 
ATOM     16  C   UNL A   1      32.530  18.101  22.860  1.00  0.00     0.009 C 
ATOM     17  C   UNL A   1      34.572  17.211  23.994  1.00  0.00     0.009 C 
ENDBRANCH  14  15
BRANCH  14  18
ATOM     18  C   UNL A   1      32.811  20.033  25.824  1.00  0.00     0.181 C 
BRANCH  18  19
ATOM     19  O   UNL A   1      31.583  20.644  25.442  1.00  0.00    -0.394 OA
ATOM     20  H   UNL A   1      30.910  19.958  25.305  1.00  0.00     0.210 HD
ENDBRANCH  18  19
ENDBRANCH  14  18
ENDBRANCH  11  14
ENDBRANCH   9  10
ENDBRANCH   6   9
ENDBRANCH   5   6
ENDBRANCH   1   5
BRANCH   3  21
ATOM     21  C   UNL A   1      33.425  27.251  24.248  1.00  0.00     0.117 C 
BRANCH  21  22
ATOM     22  C   UNL A   1      33.780  28.599  24.869  1.00  0.00     0.042 C 
BRANCH  22  23
ATOM     23  C   UNL A   1      33.816  28.587  26.389  1.00  0.00     0.118 C 
BRANCH  23  24
ATOM     24  N   UNL A   1      33.681  29.925  26.932  1.00  0.00    -0.352 N 
ATOM     25  C   UNL A   1      34.486  30.576  27.831  1.00  0.00     0.251 C 
ATOM     26  H   UNL A   1      32.903  30.435  26.612  1.00  0.00     0.163 HD
ATOM     27  O   UNL A   1      34.053  31.582  28.401  1.00  0.00    -0.269 OA
BRANCH  25  28
ATOM     28  C   UNL A   1      35.851  30.085  28.134  1.00  0.00     0.039 A 
ATOM     29  C   UNL A   1      36.112  29.548  29.399  1.00  0.00     0.014 A 
ATOM     30  C   UNL A   1      36.895  30.208  27.212  1.00  0.00     0.014 A 
ATOM     31  C   UNL A   1      37.403  29.118  29.725  1.00  0.00     0.010 A 
ATOM     32  C   UNL A   1      38.155  29.688  27.501  1.00  0.00     0.010 A 
ATOM     33  C   UNL A   1      38.434  29.172  28.774  1.00  0.00    -0.014 A 
BRANCH  33  34
ATOM     34  C   UNL A   1      39.824  28.768  29.114  1.00  0.00     0.031 A 
ATOM     35  C   UNL A   1      40.727  29.727  29.849  1.00  0.00     0.074 A 
ATOM     36  C   UNL A   1      40.293  27.563  28.736  1.00  0.00     0.049 A 
ATOM     37  N   UNL A   1      41.980  29.580  30.201  1.00  0.00    -0.248 NA
ATOM     38  C   UNL A   1      40.155  31.034  30.212  1.00  0.00     0.031 C 
ATOM     39  C   UNL A   1      39.537  26.553  27.992  1.00  0.00     0.029 A 
ATOM     40  N   UNL A   1      41.522  26.982  28.928  1.00  0.00    -0.354 N 
ATOM     41  C   UNL A   1      42.349  30.780  30.800  1.00  0.00     0.074 A 
ATOM     42  C   UNL A   1      41.206  31.663  30.713  1.00  0.00     0.031 C 
ATOM     43  C   UNL A   1      40.305  25.464  27.827  1.00  0.00     0.029 A 
ATOM     44  C   UNL A   1      41.618  25.711  28.417  1.00  0.00     0.049 A 
ATOM     45  H   UNL A   1      42.265  27.434  29.390  1.00  0.00     0.167 HD
ATOM     46  C   UNL A   1      43.521  31.115  31.391  1.00  0.00     0.031 A 
ATOM     47  C   UNL A   1      42.644  24.837  28.423  1.00  0.00     0.031 A 
ATOM     48  C   UNL A   1      44.649  30.231  31.498  1.00  0.00     0.049 A 
ATOM     49  C   UNL A   1      43.937  25.225  29.085  1.00  0.00     0.074 A 
ATOM     50  C   UNL A   1      45.863  30.454  32.125  1.00  0.00     0.029 A 
ATOM     51  N   UNL A   1      44.702  28.951  30.966  1.00  0.00    -0.354 N 
ATOM     52  N   UNL A   1      44.248  26.347  29.690  1.00  0.00    -0.248 NA
ATOM     53  C   UNL A   1      45.013  24.224  29.074  1.00  0.00     0.031 C 
ATOM     54  C   UNL A   1      46.666  29.322  31.937  1.00  0.00     0.029 A 
ATOM     55  C   UNL A   1      45.934  28.378  31.235  1.00  0.00     0.049 A 
ATOM     56  H   UNL A   1      43.973  28.515  30.471  1.00  0.00     0.167 HD
ATOM     57  C   UNL A   1      45.549  26.178  30.152  1.00  0.00     0.074 A 
ATOM     58  C   UNL A   1      45.961  24.843  29.766  1.00  0.00     0.031 C 
ATOM     59  C   UNL A   1      46.330  27.050  30.838  1.00  0.00     0.031 A 
BRANCH  46  60
ATOM     60  C   UNL A   1      43.631  32.507  31.958  1.00  0.00    -0.014 A 
ATOM     61  C   UNL A   1      44.157  33.564  31.191  1.00  0.00     0.010 A 
ATOM     62  C   UNL A   1      43.215  32.761  33.276  1.00  0.00     0.010 A 
ATOM     63  C   UNL A   1      44.325  34.832  31.753  1.00  0.00     0.020 A 
ATOM     64  C   UNL A   1      43.354  34.036  33.834  1.00  0.00     0.020 A 
ATOM     65  C   UNL A   1      43.933  35.057  33.076  1.00  0.00     0.054 A 
BRANCH  65  66
ATOM     66  S   UNL A   1      44.180  36.705  33.791  1.00  0.00     0.124 S 
ATOM     67  O   UNL A   1      42.805  37.148  34.005  1.00  0.00    -0.237 OA
ATOM     68  O   UNL A   1      44.942  36.420  35.004  1.00  0.00    -0.237 OA
ATOM     69  O   UNL A   1      44.914  37.426  32.754  1.00  0.00    -0.744 OA
ENDBRANCH  65  66
ENDBRANCH  46  60
BRANCH  47  70
ATOM     70  C   UNL A   1      42.468  23.491  27.813  1.00  0.00    -0.014 A 
ATOM     71  C   UNL A   1      42.832  23.271  26.474  1.00  0.00     0.010 A 
ATOM     72  C   UNL A   1      41.984  22.416  28.579  1.00  0.00     0.010 A 
ATOM     73  C   UNL A   1      42.712  21.997  25.908  1.00  0.00     0.020 A 
ATOM     74  C   UNL A   1      41.884  21.136  28.024  1.00  0.00     0.020 A 
ATOM     75  C   UNL A   1      42.246  20.936  26.690  1.00  0.00     0.054 A 
BRANCH  75  76
ATOM     76  S   UNL A   1      42.183  19.275  25.962  1.00  0.00     0.124 S 
ATOM     77  O   UNL A   1      40.761  19.123  25.672  1.00  0.00    -0.237 OA
ATOM     78  O   UNL A   1      43.057  19.406  24.799  1.00  0.00    -0.237 OA
ATOM     79  O   UNL A   1      42.702  18.417  27.026  1.00  0.00    -0.744 OA
ENDBRANCH  75  76
ENDBRANCH  47  70
BRANCH  59  80
ATOM     80  C   UNL A   1      47.702  26.580  31.239  1.00  0.00    -0.014 A 
ATOM     81  C   UNL A   1      47.909  25.894  32.448  1.00  0.00     0.010 A 
ATOM     82  C   UNL A   1      48.787  26.778  30.366  1.00  0.00     0.010 A 
ATOM     83  C   UNL A   1      49.186  25.439  32.790  1.00  0.00     0.020 A 
ATOM     84  C   UNL A   1      50.059  26.304  30.694  1.00  0.00     0.020 A 
ATOM     85  C   UNL A   1      50.253  25.649  31.912  1.00  0.00     0.054 A 
BRANCH  85  86
ATOM     86  S   UNL A   1      51.891  25.011  32.356  1.00  0.00     0.124 S 
ATOM     87  O   UNL A   1      51.673  23.568  32.328  1.00  0.00    -0.237 OA
ATOM     88  O   UNL A   1      52.742  25.538  31.290  1.00  0.00    -0.237 OA
ATOM     89  O   UNL A   1      52.138  25.580  33.679  1.00  0.00    -0.744 OA
ENDBRANCH  85  86
ENDBRANCH  59  80
ENDBRANCH  33  34
ENDBRANCH  25  28
ENDBRANCH  23  24
ENDBRANCH  22  23
ENDBRANCH  21  22
ENDBRANCH   3  21
TORSDOF 20
ENDMDL
MODEL 2
REMARK VINA RESULT:     -10.0      1.163      2.143
REMARK SMILES CC(C)[C@@H](CO)NC(=O)CC(C)(C)CC(=O)NCCCNC(=O)c1ccc(-c2c3nc(c(-c4ccc(S(=O)(=O)[O-])cc4)c4ccc([nH]4)c(-c4ccc(S(=O)(=O)[O-])cc4)c4nc(c(-c5ccc(S(=O)(=O)[O-])cc5)c5ccc2[nH]5)C=C4)C=C3)cc1
REMARK SMILES IDX 15 1 16 2 17 3 14 5 11 6 12 7 13 8 10 9 8 10 7 11 9 13 4 14
REMARK SMILES IDX 2 15 1 16 3 17 5 18 6 19 18 21 19 22 20 23 21 24 22 25 23 27
REMARK SMILES IDX 24 28 25 29 83 30 26 31 82 32 27 33 28 34 29 35 76 36 30 37
REMARK SMILES IDX 81 38 75 39 77 40 31 41 80 42 74 43 73 44 32 46 62 47 43 48
REMARK SMILES IDX 61 49 44 50 47 51 60 52 78 53 45 54 46 55 59 57 79 58 48 59
REMARK SMILES IDX 33 60 34 61 42 62 35 63 41 64 36 65 37 66 38 67 39 68 40 69
REMARK SMILES IDX 63 70 64 71 72 72 65 73 71 74 66 75 67 76 68 77 69 78 70 79
REMARK SMILES IDX 49 80 50 81 58 82 51 83 57 84 52 85 53 86 54 87 55 88 56 89
REMARK H PARENT 17 4 7 12 6 20 21 26 77 45 47 56
REMARK Flexibility Score: inf
ROOT
ATOM      1  C   UNL A   1      33.051  25.976  23.459  1.00  0.00     0.220 C 
ATOM      2  O   UNL A   1      33.400  25.498  22.382  1.00  0.00    -0.275 OA
ATOM      3  N   UNL A   1      33.053  27.332  23.586  1.00  0.00    -0.356 N 
ATOM      4  H   UNL A   1      33.271  27.816  22.756  1.00  0.00     0.163 HD
ENDROOT
BRANCH   1   5
ATOM      5  C   UNL A   1      32.598  25.106  24.611  1.00  0.00     0.107 C 
BRANCH   5   6
ATOM      6  C   UNL A   1      31.099  24.711  24.645  1.00  0.00    -0.018 C 
ATOM      7  C   UNL A   1      30.564  24.896  23.216  1.00  0.00     0.012 C 
ATOM      8  C   UNL A   1      30.238  25.658  25.499  1.00  0.00     0.012 C 
BRANCH   6   9
ATOM      9  C   UNL A   1      30.854  23.288  25.220  1.00  0.00     0.107 C 
BRANCH   9  10
ATOM     10  C   UNL A   1      31.513  22.868  26.526  1.00  0.00     0.220 C 
ATOM     11  N   UNL A   1      32.463  21.897  26.542  1.00  0.00    -0.351 N 
ATOM     12  H   UNL A   1      32.717  21.582  27.441  1.00  0.00     0.163 HD
ATOM     13  O   UNL A   1      31.168  23.351  27.605  1.00  0.00    -0.275 OA
BRANCH  11  14
ATOM     14  C   UNL A   1      33.167  21.248  25.445  1.00  0.00     0.110 C 
BRANCH  14  15
ATOM     15  C   UNL A   1      34.567  21.896  25.226  1.00  0.00     0.007 C 
ATOM     16  C   UNL A   1      34.954  22.744  26.443  1.00  0.00     0.009 C 
ATOM     17  C   UNL A   1      35.707  20.905  24.928  1.00  0.00     0.009 C 
ENDBRANCH  14  15
BRANCH  14  18
ATOM     18  C   UNL A   1      33.228  19.722  25.670  1.00  0.00     0.181 C 
BRANCH  18  19
ATOM     19  O   UNL A   1      32.000  19.082  25.336  1.00  0.00    -0.394 OA
ATOM     20  H   UNL A   1      31.407  19.102  26.103  1.00  0.00     0.210 HD
ENDBRANCH  18  19
ENDBRANCH  14  18
ENDBRANCH  11  14
ENDBRANCH   9  10
ENDBRANCH   6   9
ENDBRANCH   5   6
ENDBRANCH   1   5
BRANCH   3  21
ATOM     21  C   UNL A   1      32.792  28.193  24.730  1.00  0.00     0.117 C 
BRANCH  21  22
ATOM     22  C   UNL A   1      33.990  28.285  25.671  1.00  0.00     0.042 C 
BRANCH  22  23
ATOM     23  C   UNL A   1      33.616  28.540  27.122  1.00  0.00     0.118 C 
BRANCH  23  24
ATOM     24  N   UNL A   1      33.591  29.958  27.421  1.00  0.00    -0.352 N 
ATOM     25  C   UNL A   1      34.499  30.708  28.123  1.00  0.00     0.251 C 
ATOM     26  H   UNL A   1      32.813  30.451  27.072  1.00  0.00     0.163 HD
ATOM     27  O   UNL A   1      34.163  31.824  28.531  1.00  0.00    -0.269 OA
BRANCH  25  28
ATOM     28  C   UNL A   1      35.861  30.196  28.407  1.00  0.00     0.039 A 
ATOM     29  C   UNL A   1      36.138  29.681  29.677  1.00  0.00     0.014 A 
ATOM     30  C   UNL A   1      36.886  30.278  27.460  1.00  0.00     0.014 A 
ATOM     31  C   UNL A   1      37.427  29.231  29.984  1.00  0.00     0.010 A 
ATOM     32  C   UNL A   1      38.141  29.739  27.732  1.00  0.00     0.010 A 
ATOM     33  C   UNL A   1      38.438  29.244  29.010  1.00  0.00    -0.014 A 
BRANCH  33  34
ATOM     34  C   UNL A   1      39.827  28.819  29.328  1.00  0.00     0.031 A 
ATOM     35  C   UNL A   1      40.746  29.753  30.077  1.00  0.00     0.074 A 
ATOM     36  C   UNL A   1      40.281  27.619  28.919  1.00  0.00     0.049 A 
ATOM     37  N   UNL A   1      42.000  29.585  30.415  1.00  0.00    -0.248 NA
ATOM     38  C   UNL A   1      40.190  31.056  30.476  1.00  0.00     0.031 C 
ATOM     39  C   UNL A   1      39.509  26.634  28.158  1.00  0.00     0.029 A 
ATOM     40  N   UNL A   1      41.506  27.022  29.087  1.00  0.00    -0.354 N 
ATOM     41  C   UNL A   1      42.386  30.767  31.039  1.00  0.00     0.074 A 
ATOM     42  C   UNL A   1      41.251  31.663  30.982  1.00  0.00     0.031 C 
ATOM     43  C   UNL A   1      40.265  25.541  27.962  1.00  0.00     0.029 A 
ATOM     44  C   UNL A   1      41.585  25.762  28.545  1.00  0.00     0.049 A 
ATOM     45  H   UNL A   1      42.257  27.457  29.552  1.00  0.00     0.167 HD
ATOM     46  C   UNL A   1      43.566  31.077  31.627  1.00  0.00     0.031 A 
ATOM     47  C   UNL A   1      42.603  24.879  28.522  1.00  0.00     0.031 A 
ATOM     48  C   UNL A   1      44.686  30.181  31.704  1.00  0.00     0.049 A 
ATOM     49  C   UNL A   1      43.905  25.239  29.182  1.00  0.00     0.074 A 
ATOM     50  C   UNL A   1      45.907  30.377  32.326  1.00  0.00     0.029 A 
ATOM     51  N   UNL A   1      44.722  28.913  31.142  1.00  0.00    -0.354 N 
ATOM     52  N   UNL A   1      44.232  26.344  29.810  1.00  0.00    -0.248 NA
ATOM     53  C   UNL A   1      44.972  24.229  29.138  1.00  0.00     0.031 C 
ATOM     54  C   UNL A   1      46.697  29.243  32.104  1.00  0.00     0.029 A 
ATOM     55  C   UNL A   1      45.950  28.322  31.387  1.00  0.00     0.049 A 
ATOM     56  H   UNL A   1      43.984  28.496  30.643  1.00  0.00     0.167 HD
ATOM     57  C   UNL A   1      45.535  26.152  30.256  1.00  0.00     0.074 A 
ATOM     58  C   UNL A   1      45.931  24.822  29.836  1.00  0.00     0.031 C 
ATOM     59  C   UNL A   1      46.330  27.000  30.955  1.00  0.00     0.031 A 
BRANCH  46  60
ATOM     60  C   UNL A   1      43.694  32.455  32.225  1.00  0.00    -0.014 A 
ATOM     61  C   UNL A   1      43.397  32.689  33.581  1.00  0.00     0.010 A 
ATOM     62  C   UNL A   1      44.107  33.531  31.420  1.00  0.00     0.010 A 
ATOM     63  C   UNL A   1      43.446  33.984  34.104  1.00  0.00     0.020 A 
ATOM     64  C   UNL A   1      44.186  34.825  31.947  1.00  0.00     0.020 A 
ATOM     65  C   UNL A   1      43.829  35.046  33.280  1.00  0.00     0.054 A 
BRANCH  65  66
ATOM     66  S   UNL A   1      43.865  36.721  33.975  1.00  0.00     0.124 S 
ATOM     67  O   UNL A   1      45.274  36.867  34.332  1.00  0.00    -0.237 OA
ATOM     68  O   UNL A   1      43.414  37.545  32.855  1.00  0.00    -0.237 OA
ATOM     69  O   UNL A   1      42.940  36.648  35.102  1.00  0.00    -0.744 OA
ENDBRANCH  65  66
ENDBRANCH  46  60
BRANCH  47  70
ATOM     70  C   UNL A   1      42.409  23.550  27.883  1.00  0.00    -0.014 A 
ATOM     71  C   UNL A   1      42.922  23.303  26.598  1.00  0.00     0.010 A 
ATOM     72  C   UNL A   1      41.755  22.513  28.572  1.00  0.00     0.010 A 
ATOM     73  C   UNL A   1      42.783  22.041  26.011  1.00  0.00     0.020 A 
ATOM     74  C   UNL A   1      41.634  21.243  27.997  1.00  0.00     0.020 A 
ATOM     75  C   UNL A   1      42.146  21.018  26.718  1.00  0.00     0.054 A 
BRANCH  75  76
ATOM     76  S   UNL A   1      42.056  19.365  25.972  1.00  0.00     0.124 S 
ATOM     77  O   UNL A   1      42.938  19.502  24.819  1.00  0.00    -0.237 OA
ATOM     78  O   UNL A   1      42.545  18.506  27.048  1.00  0.00    -0.237 OA
ATOM     79  O   UNL A   1      40.636  19.209  25.661  1.00  0.00    -0.744 OA
ENDBRANCH  75  76
ENDBRANCH  47  70
BRANCH  59  80
ATOM     80  C   UNL A   1      47.701  26.508  31.334  1.00  0.00    -0.014 A 
ATOM     81  C   UNL A   1      47.912  25.791  32.524  1.00  0.00     0.010 A 
ATOM     82  C   UNL A   1      48.780  26.717  30.456  1.00  0.00     0.010 A 
ATOM     83  C   UNL A   1      49.187  25.316  32.845  1.00  0.00     0.020 A 
ATOM     84  C   UNL A   1      50.051  26.223  30.763  1.00  0.00     0.020 A 
ATOM     85  C   UNL A   1      50.249  25.537  31.962  1.00  0.00     0.054 A 
BRANCH  85  86
ATOM     86  S   UNL A   1      51.885  24.874  32.377  1.00  0.00     0.124 S 
ATOM     87  O   UNL A   1      52.728  25.483  31.352  1.00  0.00    -0.237 OA
ATOM     88  O   UNL A   1      52.096  25.365  33.738  1.00  0.00    -0.237 OA
ATOM     89  O   UNL A   1      51.711  23.427  32.264  1.00  0.00    -0.744 OA
ENDBRANCH  85  86
ENDBRANCH  59  80
ENDBRANCH  33  34
ENDBRANCH  25  28
ENDBRANCH  23  24
ENDBRANCH  22  23
ENDBRANCH  21  22
ENDBRANCH   3  21
TORSDOF 20
ENDMDL
MODEL 3
REMARK VINA RESULT:     -10.0      2.403      4.603
REMARK SMILES CC(C)[C@@H](CO)NC(=O)CC(C)(C)CC(=O)NCCCNC(=O)c1ccc(-c2c3nc(c(-c4ccc(S(=O)(=O)[O-])cc4)c4ccc([nH]4)c(-c4ccc(S(=O)(=O)[O-])cc4)c4nc(c(-c5ccc(S(=O)(=O)[O-])cc5)c5ccc2[nH]5)C=C4)C=C3)cc1
REMARK SMILES IDX 15 1 16 2 17 3 14 5 11 6 12 7 13 8 10 9 8 10 7 11 9 13 4 14
REMARK SMILES IDX 2 15 1 16 3 17 5 18 6 19 18 21 19 22 20 23 21 24 22 25 23 27
REMARK SMILES IDX 24 28 25 29 83 30 26 31 82 32 27 33 28 34 29 35 76 36 30 37
REMARK SMILES IDX 81 38 75 39 77 40 31 41 80 42 74 43 73 44 32 46 62 47 43 48
REMARK SMILES IDX 61 49 44 50 47 51 60 52 78 53 45 54 46 55 59 57 79 58 48 59
REMARK SMILES IDX 33 60 34 61 42 62 35 63 41 64 36 65 37 66 38 67 39 68 40 69
REMARK SMILES IDX 63 70 64 71 72 72 65 73 71 74 66 75 67 76 68 77 69 78 70 79
REMARK SMILES IDX 49 80 50 81 58 82 51 83 57 84 52 85 53 86 54 87 55 88 56 89
REMARK H PARENT 17 4 7 12 6 20 21 26 77 45 47 56
REMARK Flexibility Score: inf
ROOT
ATOM      1  C   UNL A   1      31.425  25.263  25.407  1.00  0.00     0.220 C 
ATOM      2  O   UNL A   1      30.582  24.535  25.930  1.00  0.00    -0.275 OA
ATOM      3  N   UNL A   1      32.546  25.554  26.122  1.00  0.00    -0.356 N 
ATOM      4  H   UNL A   1      32.611  25.083  26.984  1.00  0.00     0.163 HD
ENDROOT
BRANCH   1   5
ATOM      5  C   UNL A   1      31.256  25.803  24.004  1.00  0.00     0.107 C 
BRANCH   5   6
ATOM      6  C   UNL A   1      30.270  26.986  23.823  1.00  0.00    -0.018 C 
ATOM      7  C   UNL A   1      30.464  27.909  25.037  1.00  0.00     0.012 C 
ATOM      8  C   UNL A   1      28.792  26.566  23.897  1.00  0.00     0.012 C 
BRANCH   6   9
ATOM      9  C   UNL A   1      30.432  27.713  22.459  1.00  0.00     0.107 C 
BRANCH   9  10
ATOM     10  C   UNL A   1      31.212  29.017  22.377  1.00  0.00     0.220 C 
ATOM     11  N   UNL A   1      30.574  30.194  22.145  1.00  0.00    -0.351 N 
ATOM     12  H   UNL A   1      31.168  30.956  21.951  1.00  0.00     0.163 HD
ATOM     13  O   UNL A   1      32.440  29.039  22.461  1.00  0.00    -0.275 OA
BRANCH  11  14
ATOM     14  C   UNL A   1      29.151  30.509  22.138  1.00  0.00     0.110 C 
BRANCH  14  15
ATOM     15  C   UNL A   1      28.775  31.394  23.365  1.00  0.00     0.007 C 
ATOM     16  C   UNL A   1      28.907  32.879  23.007  1.00  0.00     0.009 C 
ATOM     17  C   UNL A   1      27.370  31.145  23.944  1.00  0.00     0.009 C 
ENDBRANCH  14  15
BRANCH  14  18
ATOM     18  C   UNL A   1      28.744  31.134  20.786  1.00  0.00     0.181 C 
BRANCH  18  19
ATOM     19  O   UNL A   1      27.389  30.847  20.452  1.00  0.00    -0.394 OA
ATOM     20  H   UNL A   1      26.854  31.650  20.555  1.00  0.00     0.210 HD
ENDBRANCH  18  19
ENDBRANCH  14  18
ENDBRANCH  11  14
ENDBRANCH   9  10
ENDBRANCH   6   9
ENDBRANCH   5   6
ENDBRANCH   1   5
BRANCH   3  21
ATOM     21  C   UNL A   1      33.666  26.440  25.838  1.00  0.00     0.117 C 
BRANCH  21  22
ATOM     22  C   UNL A   1      33.592  27.740  26.634  1.00  0.00     0.042 C 
BRANCH  22  23
ATOM     23  C   UNL A   1      34.060  28.964  25.862  1.00  0.00     0.118 C 
BRANCH  23  24
ATOM     24  N   UNL A   1      33.821  30.184  26.608  1.00  0.00    -0.352 N 
ATOM     25  C   UNL A   1      34.521  30.695  27.671  1.00  0.00     0.251 C 
ATOM     26  H   UNL A   1      33.049  30.717  26.312  1.00  0.00     0.163 HD
ATOM     27  O   UNL A   1      33.997  31.574  28.362  1.00  0.00    -0.269 OA
BRANCH  25  28
ATOM     28  C   UNL A   1      35.878  30.202  28.005  1.00  0.00     0.039 A 
ATOM     29  C   UNL A   1      36.086  29.580  29.240  1.00  0.00     0.014 A 
ATOM     30  C   UNL A   1      36.962  30.404  27.146  1.00  0.00     0.014 A 
ATOM     31  C   UNL A   1      37.367  29.144  29.598  1.00  0.00     0.010 A 
ATOM     32  C   UNL A   1      38.215  29.881  27.458  1.00  0.00     0.010 A 
ATOM     33  C   UNL A   1      38.442  29.280  28.704  1.00  0.00    -0.014 A 
BRANCH  33  34
ATOM     34  C   UNL A   1      39.820  28.871  29.082  1.00  0.00     0.031 A 
ATOM     35  C   UNL A   1      40.706  29.826  29.844  1.00  0.00     0.074 A 
ATOM     36  C   UNL A   1      40.296  27.665  28.715  1.00  0.00     0.049 A 
ATOM     37  N   UNL A   1      41.948  29.673  30.231  1.00  0.00    -0.248 NA
ATOM     38  C   UNL A   1      40.127  31.134  30.194  1.00  0.00     0.031 C 
ATOM     39  C   UNL A   1      39.559  26.659  27.949  1.00  0.00     0.029 A 
ATOM     40  N   UNL A   1      41.518  27.080  28.941  1.00  0.00    -0.354 N 
ATOM     41  C   UNL A   1      42.303  30.871  30.843  1.00  0.00     0.074 A 
ATOM     42  C   UNL A   1      41.166  31.758  30.726  1.00  0.00     0.031 C 
ATOM     43  C   UNL A   1      40.328  25.567  27.803  1.00  0.00     0.029 A 
ATOM     44  C   UNL A   1      41.624  25.809  28.430  1.00  0.00     0.049 A 
ATOM     45  H   UNL A   1      42.249  27.529  29.424  1.00  0.00     0.167 HD
ATOM     46  C   UNL A   1      43.459  31.201  31.468  1.00  0.00     0.031 A 
ATOM     47  C   UNL A   1      42.647  24.932  28.463  1.00  0.00     0.031 A 
ATOM     48  C   UNL A   1      44.581  30.314  31.605  1.00  0.00     0.049 A 
ATOM     49  C   UNL A   1      43.921  25.315  29.163  1.00  0.00     0.074 A 
ATOM     50  C   UNL A   1      45.777  30.532  32.267  1.00  0.00     0.029 A 
ATOM     51  N   UNL A   1      44.645  29.035  31.072  1.00  0.00    -0.354 N 
ATOM     52  N   UNL A   1      44.219  26.435  29.778  1.00  0.00    -0.248 NA
ATOM     53  C   UNL A   1      44.995  24.311  29.179  1.00  0.00     0.031 C 
ATOM     54  C   UNL A   1      46.581  29.398  32.098  1.00  0.00     0.029 A 
ATOM     55  C   UNL A   1      45.867  28.457  31.374  1.00  0.00     0.049 A 
ATOM     56  H   UNL A   1      43.928  28.603  30.555  1.00  0.00     0.167 HD
ATOM     57  C   UNL A   1      45.506  26.261  30.276  1.00  0.00     0.074 A 
ATOM     58  C   UNL A   1      45.924  24.926  29.899  1.00  0.00     0.031 C 
ATOM     59  C   UNL A   1      46.270  27.129  30.985  1.00  0.00     0.031 A 
BRANCH  46  60
ATOM     60  C   UNL A   1      43.557  32.592  32.040  1.00  0.00    -0.014 A 
ATOM     61  C   UNL A   1      44.064  33.659  31.275  1.00  0.00     0.010 A 
ATOM     62  C   UNL A   1      43.148  32.835  33.363  1.00  0.00     0.010 A 
ATOM     63  C   UNL A   1      44.222  34.926  31.841  1.00  0.00     0.020 A 
ATOM     64  C   UNL A   1      43.276  34.109  33.926  1.00  0.00     0.020 A 
ATOM     65  C   UNL A   1      43.838  35.140  33.168  1.00  0.00     0.054 A 
BRANCH  65  66
ATOM     66  S   UNL A   1      44.071  36.788  33.890  1.00  0.00     0.124 S 
ATOM     67  O   UNL A   1      45.519  36.831  34.076  1.00  0.00    -0.237 OA
ATOM     68  O   UNL A   1      43.546  37.672  32.851  1.00  0.00    -0.237 OA
ATOM     69  O   UNL A   1      43.284  36.742  35.119  1.00  0.00    -0.744 OA
ENDBRANCH  65  66
ENDBRANCH  46  60
BRANCH  47  70
ATOM     70  C   UNL A   1      42.484  23.589  27.846  1.00  0.00    -0.014 A 
ATOM     71  C   UNL A   1      42.790  23.394  26.488  1.00  0.00     0.010 A 
ATOM     72  C   UNL A   1      42.071  22.490  28.620  1.00  0.00     0.010 A 
ATOM     73  C   UNL A   1      42.684  22.124  25.913  1.00  0.00     0.020 A 
ATOM     74  C   UNL A   1      41.985  21.214  28.055  1.00  0.00     0.020 A 
ATOM     75  C   UNL A   1      42.289  21.040  26.703  1.00  0.00     0.054 A 
BRANCH  75  76
ATOM     76  S   UNL A   1      42.243  19.386  25.958  1.00  0.00     0.124 S 
ATOM     77  O   UNL A   1      40.830  19.241  25.623  1.00  0.00    -0.237 OA
ATOM     78  O   UNL A   1      43.153  19.524  24.824  1.00  0.00    -0.237 OA
ATOM     79  O   UNL A   1      42.726  18.517  27.030  1.00  0.00    -0.744 OA
ENDBRANCH  75  76
ENDBRANCH  47  70
BRANCH  59  80
ATOM     80  C   UNL A   1      47.628  26.654  31.425  1.00  0.00    -0.014 A 
ATOM     81  C   UNL A   1      48.773  26.916  30.654  1.00  0.00     0.010 A 
ATOM     82  C   UNL A   1      47.765  25.985  32.655  1.00  0.00     0.010 A 
ATOM     83  C   UNL A   1      50.031  26.491  31.092  1.00  0.00     0.020 A 
ATOM     84  C   UNL A   1      49.023  25.580  33.107  1.00  0.00     0.020 A 
ATOM     85  C   UNL A   1      50.147  25.824  32.316  1.00  0.00     0.054 A 
BRANCH  85  86
ATOM     86  S   UNL A   1      51.794  25.322  32.887  1.00  0.00     0.124 S 
ATOM     87  O   UNL A   1      52.189  26.460  33.711  1.00  0.00    -0.237 OA
ATOM     88  O   UNL A   1      51.518  24.084  33.615  1.00  0.00    -0.237 OA
ATOM     89  O   UNL A   1      52.553  25.153  31.650  1.00  0.00    -0.744 OA
ENDBRANCH  85  86
ENDBRANCH  59  80
ENDBRANCH  33  34
ENDBRANCH  25  28
ENDBRANCH  23  24
ENDBRANCH  22  23
ENDBRANCH  21  22
ENDBRANCH   3  21
TORSDOF 20
ENDMDL
