MODEL 1
REMARK VINA RESULT:     -10.0      0.000      0.000
REMARK SMILES Cc1cc(Br)cnc1SCC1(CC(=O)NCCCNC(=O)c2ccc(-c3c4nc(c(-c5ccc(S(=O)(=O)[O-])cc5)c5ccc([nH]5)c(-c5ccc(S(=O)(=O)[O-])cc5)c5nc(c(-c6ccc(S(=O)(=O)[O-])cc6)c6ccc3[nH]6)C=C5)C=C4)cc2)CC1
REMARK SMILES IDX 16 1 15 2 13 3 14 4 12 6 11 7 82 8 83 9 10 10 9 11 8 12 1 13
REMARK SMILES IDX 2 14 3 15 4 16 7 17 5 18 6 19 17 20 18 21 19 22 20 23 21 25
REMARK SMILES IDX 22 26 23 27 81 28 24 29 80 30 25 31 26 32 27 33 74 34 28 35
REMARK SMILES IDX 79 36 73 37 75 38 29 39 78 40 72 41 71 42 30 44 60 45 41 46
REMARK SMILES IDX 59 47 42 48 45 49 58 50 76 51 43 52 44 53 57 55 77 56 46 57
REMARK SMILES IDX 31 58 32 59 40 60 33 61 39 62 34 63 35 64 36 65 37 66 38 67
REMARK SMILES IDX 61 68 62 69 70 70 63 71 69 72 64 73 65 74 66 75 67 76 68 77
REMARK SMILES IDX 47 78 48 79 56 80 49 81 55 82 50 83 51 84 52 85 53 86 54 87
REMARK H PARENT 15 5 19 24 75 43 45 54
REMARK Flexibility Score: inf
ROOT
ATOM      1  C   UNL A   1      32.049  28.262  24.961  1.00  0.00     0.117 C 
ENDROOT
BRANCH   1   2
ATOM      2  N   UNL A   1      31.632  28.172  23.575  1.00  0.00    -0.356 N 
ATOM      3  C   UNL A   1      30.935  27.189  22.937  1.00  0.00     0.220 C 
ATOM      4  O   UNL A   1      30.728  27.324  21.731  1.00  0.00    -0.275 OA
ATOM      5  H   UNL A   1      31.890  28.936  23.010  1.00  0.00     0.163 HD
BRANCH   3   6
ATOM      6  C   UNL A   1      30.420  25.983  23.704  1.00  0.00     0.107 C 
BRANCH   6   7
ATOM      7  C   UNL A   1      31.427  24.862  23.946  1.00  0.00    -0.011 C 
ATOM      8  C   UNL A   1      30.867  23.601  24.591  1.00  0.00     0.009 C 
ATOM      9  C   UNL A   1      31.765  24.485  25.386  1.00  0.00     0.009 C 
BRANCH   7  10
ATOM     10  C   UNL A   1      32.578  24.780  22.966  1.00  0.00     0.084 C 
BRANCH  10  11
ATOM     11  S   UNL A   1      33.101  23.171  22.343  1.00  0.00    -0.106 SA
BRANCH  11  12
ATOM     12  C   UNL A   1      34.474  22.619  23.326  1.00  0.00     0.099 A 
ATOM     13  C   UNL A   1      33.286  20.921  24.879  1.00  0.00     0.047 C 
ATOM     14  C   UNL A   1      34.473  21.683  24.370  1.00  0.00    -0.018 A 
ATOM     15  C   UNL A   1      35.677  21.485  25.083  1.00  0.00     0.023 A 
ATOM     16  C   UNL A   1      36.801  22.242  24.793  1.00  0.00     0.036 A 
ATOM     17  N   UNL A   1      35.588  23.352  23.043  1.00  0.00    -0.248 NA
ATOM     18  Br  UNL A   1      38.390  22.033  25.782  1.00  0.00    -0.049 Br
ATOM     19  C   UNL A   1      36.707  23.168  23.780  1.00  0.00     0.128 A 
ENDBRANCH  11  12
ENDBRANCH  10  11
ENDBRANCH   7  10
ENDBRANCH   6   7
ENDBRANCH   3   6
ENDBRANCH   1   2
BRANCH   1  20
ATOM     20  C   UNL A   1      33.455  27.704  25.167  1.00  0.00     0.042 C 
BRANCH  20  21
ATOM     21  C   UNL A   1      34.055  28.036  26.529  1.00  0.00     0.118 C 
BRANCH  21  22
ATOM     22  N   UNL A   1      33.783  29.410  26.931  1.00  0.00    -0.352 N 
ATOM     23  C   UNL A   1      34.499  30.263  27.729  1.00  0.00     0.251 C 
ATOM     24  H   UNL A   1      32.949  29.788  26.569  1.00  0.00     0.163 HD
ATOM     25  O   UNL A   1      33.953  31.292  28.143  1.00  0.00    -0.269 OA
BRANCH  23  26
ATOM     26  C   UNL A   1      35.897  29.971  28.111  1.00  0.00     0.039 A 
ATOM     27  C   UNL A   1      36.174  29.585  29.426  1.00  0.00     0.014 A 
ATOM     28  C   UNL A   1      36.944  30.122  27.198  1.00  0.00     0.014 A 
ATOM     29  C   UNL A   1      37.486  29.290  29.805  1.00  0.00     0.010 A 
ATOM     30  C   UNL A   1      38.239  29.752  27.554  1.00  0.00     0.010 A 
ATOM     31  C   UNL A   1      38.525  29.335  28.863  1.00  0.00    -0.014 A 
BRANCH  31  32
ATOM     32  C   UNL A   1      39.913  28.940  29.218  1.00  0.00     0.031 A 
ATOM     33  C   UNL A   1      40.844  29.929  29.867  1.00  0.00     0.074 A 
ATOM     34  C   UNL A   1      40.359  27.711  28.889  1.00  0.00     0.049 A 
ATOM     35  N   UNL A   1      42.109  29.793  30.172  1.00  0.00    -0.248 NA
ATOM     36  C   UNL A   1      40.287  31.252  30.196  1.00  0.00     0.031 C 
ATOM     37  C   UNL A   1      39.566  26.673  28.225  1.00  0.00     0.029 A 
ATOM     38  N   UNL A   1      41.591  27.130  29.055  1.00  0.00    -0.354 N 
ATOM     39  C   UNL A   1      42.503  31.014  30.710  1.00  0.00     0.074 A 
ATOM     40  C   UNL A   1      41.355  31.892  30.648  1.00  0.00     0.031 C 
ATOM     41  C   UNL A   1      40.325  25.577  28.061  1.00  0.00     0.029 A 
ATOM     42  C   UNL A   1      41.668  25.849  28.562  1.00  0.00     0.049 A 
ATOM     43  H   UNL A   1      42.348  27.587  29.488  1.00  0.00     0.167 HD
ATOM     44  C   UNL A   1      43.707  31.367  31.222  1.00  0.00     0.031 A 
ATOM     45  C   UNL A   1      42.705  24.990  28.505  1.00  0.00     0.031 A 
ATOM     46  C   UNL A   1      44.845  30.487  31.289  1.00  0.00     0.049 A 
ATOM     47  C   UNL A   1      44.037  25.412  29.062  1.00  0.00     0.074 A 
ATOM     48  C   UNL A   1      46.090  30.733  31.840  1.00  0.00     0.029 A 
ATOM     49  N   UNL A   1      44.879  29.196  30.783  1.00  0.00    -0.354 N 
ATOM     50  N   UNL A   1      44.371  26.549  29.623  1.00  0.00    -0.248 NA
ATOM     51  C   UNL A   1      45.129  24.432  28.985  1.00  0.00     0.031 C 
ATOM     52  C   UNL A   1      46.895  29.609  31.620  1.00  0.00     0.029 A 
ATOM     53  C   UNL A   1      46.132  28.642  30.985  1.00  0.00     0.049 A 
ATOM     54  H   UNL A   1      44.124  28.739  30.346  1.00  0.00     0.167 HD
ATOM     55  C   UNL A   1      45.707  26.413  29.985  1.00  0.00     0.074 A 
ATOM     56  C   UNL A   1      46.111  25.078  29.597  1.00  0.00     0.031 C 
ATOM     57  C   UNL A   1      46.523  27.314  30.586  1.00  0.00     0.031 A 
BRANCH  44  58
ATOM     58  C   UNL A   1      43.860  32.772  31.743  1.00  0.00    -0.014 A 
ATOM     59  C   UNL A   1      44.179  33.837  30.881  1.00  0.00     0.010 A 
ATOM     60  C   UNL A   1      43.636  33.041  33.107  1.00  0.00     0.010 A 
ATOM     61  C   UNL A   1      44.315  35.136  31.379  1.00  0.00     0.020 A 
ATOM     62  C   UNL A   1      43.743  34.343  33.603  1.00  0.00     0.020 A 
ATOM     63  C   UNL A   1      44.098  35.380  32.739  1.00  0.00     0.054 A 
BRANCH  63  64
ATOM     64  S   UNL A   1      44.260  37.080  33.352  1.00  0.00     0.124 S 
ATOM     65  O   UNL A   1      45.617  37.076  33.893  1.00  0.00    -0.237 OA
ATOM     66  O   UNL A   1      44.068  37.876  32.143  1.00  0.00    -0.237 OA
ATOM     67  O   UNL A   1      43.194  37.194  34.345  1.00  0.00    -0.744 OA
ENDBRANCH  63  64
ENDBRANCH  44  58
BRANCH  45  68
ATOM     68  C   UNL A   1      42.522  23.644  27.896  1.00  0.00    -0.014 A 
ATOM     69  C   UNL A   1      42.876  23.411  26.556  1.00  0.00     0.010 A 
ATOM     70  C   UNL A   1      42.008  22.582  28.662  1.00  0.00     0.010 A 
ATOM     71  C   UNL A   1      42.704  22.146  25.988  1.00  0.00     0.020 A 
ATOM     72  C   UNL A   1      41.860  21.309  28.106  1.00  0.00     0.020 A 
ATOM     73  C   UNL A   1      42.200  21.101  26.768  1.00  0.00     0.054 A 
BRANCH  73  74
ATOM     74  S   UNL A   1      42.037  19.453  26.027  1.00  0.00     0.124 S 
ATOM     75  O   UNL A   1      42.562  18.592  27.081  1.00  0.00    -0.237 OA
ATOM     76  O   UNL A   1      40.599  19.356  25.787  1.00  0.00    -0.237 OA
ATOM     77  O   UNL A   1      42.856  19.539  24.820  1.00  0.00    -0.744 OA
ENDBRANCH  73  74
ENDBRANCH  45  68
BRANCH  57  78
ATOM     78  C   UNL A   1      47.934  26.878  30.882  1.00  0.00    -0.014 A 
ATOM     79  C   UNL A   1      48.971  27.092  29.958  1.00  0.00     0.010 A 
ATOM     80  C   UNL A   1      48.233  26.293  32.126  1.00  0.00     0.010 A 
ATOM     81  C   UNL A   1      50.279  26.702  30.260  1.00  0.00     0.020 A 
ATOM     82  C   UNL A   1      49.544  25.927  32.443  1.00  0.00     0.020 A 
ATOM     83  C   UNL A   1      50.556  26.123  31.502  1.00  0.00     0.054 A 
BRANCH  83  84
ATOM     84  S   UNL A   1      52.269  25.666  31.888  1.00  0.00     0.124 S 
ATOM     85  O   UNL A   1      52.146  24.240  32.171  1.00  0.00    -0.237 OA
ATOM     86  O   UNL A   1      52.976  26.003  30.655  1.00  0.00    -0.237 OA
ATOM     87  O   UNL A   1      52.601  26.504  33.038  1.00  0.00    -0.744 OA
ENDBRANCH  83  84
ENDBRANCH  57  78
ENDBRANCH  31  32
ENDBRANCH  23  26
ENDBRANCH  21  22
ENDBRANCH  20  21
ENDBRANCH   1  20
TORSDOF 17
ENDMDL
MODEL 2
REMARK VINA RESULT:      -9.7      3.008      3.825
REMARK SMILES Cc1cc(Br)cnc1SCC1(CC(=O)NCCCNC(=O)c2ccc(-c3c4nc(c(-c5ccc(S(=O)(=O)[O-])cc5)c5ccc([nH]5)c(-c5ccc(S(=O)(=O)[O-])cc5)c5nc(c(-c6ccc(S(=O)(=O)[O-])cc6)c6ccc3[nH]6)C=C5)C=C4)cc2)CC1
REMARK SMILES IDX 16 1 15 2 13 3 14 4 12 6 11 7 82 8 83 9 10 10 9 11 8 12 1 13
REMARK SMILES IDX 2 14 3 15 4 16 7 17 5 18 6 19 17 20 18 21 19 22 20 23 21 25
REMARK SMILES IDX 22 26 23 27 81 28 24 29 80 30 25 31 26 32 27 33 74 34 28 35
REMARK SMILES IDX 79 36 73 37 75 38 29 39 78 40 72 41 71 42 30 44 60 45 41 46
REMARK SMILES IDX 59 47 42 48 45 49 58 50 76 51 43 52 44 53 57 55 77 56 46 57
REMARK SMILES IDX 31 58 32 59 40 60 33 61 39 62 34 63 35 64 36 65 37 66 38 67
REMARK SMILES IDX 61 68 62 69 70 70 63 71 69 72 64 73 65 74 66 75 67 76 68 77
REMARK SMILES IDX 47 78 48 79 56 80 49 81 55 82 50 83 51 84 52 85 53 86 54 87
REMARK H PARENT 15 5 19 24 75 43 45 54
REMARK Flexibility Score: inf
ROOT
ATOM      1  C   UNL A   1      33.361  30.235  26.715  1.00  0.00     0.117 C 
ENDROOT
BRANCH   1   2
ATOM      2  N   UNL A   1      32.564  29.329  27.520  1.00  0.00    -0.356 N 
ATOM      3  C   UNL A   1      31.713  28.338  27.131  1.00  0.00     0.220 C 
ATOM      4  O   UNL A   1      31.115  27.718  28.011  1.00  0.00    -0.275 OA
ATOM      5  H   UNL A   1      32.651  29.449  28.493  1.00  0.00     0.163 HD
BRANCH   3   6
ATOM      6  C   UNL A   1      31.533  28.005  25.660  1.00  0.00     0.107 C 
BRANCH   6   7
ATOM      7  C   UNL A   1      32.319  26.803  25.142  1.00  0.00    -0.011 C 
ATOM      8  C   UNL A   1      33.658  26.549  25.820  1.00  0.00     0.009 C 
ATOM      9  C   UNL A   1      33.640  27.053  24.419  1.00  0.00     0.009 C 
BRANCH   7  10
ATOM     10  C   UNL A   1      31.494  25.652  24.608  1.00  0.00     0.084 C 
BRANCH  10  11
ATOM     11  S   UNL A   1      31.307  24.158  25.601  1.00  0.00    -0.106 SA
BRANCH  11  12
ATOM     12  C   UNL A   1      32.828  23.245  25.516  1.00  0.00     0.099 A 
ATOM     13  C   UNL A   1      33.115  22.579  28.002  1.00  0.00     0.047 C 
ATOM     14  C   UNL A   1      33.525  22.621  26.560  1.00  0.00    -0.018 A 
ATOM     15  C   UNL A   1      34.780  22.043  26.265  1.00  0.00     0.023 A 
ATOM     16  C   UNL A   1      35.325  22.149  24.995  1.00  0.00     0.036 A 
ATOM     17  N   UNL A   1      33.370  23.336  24.268  1.00  0.00    -0.248 NA
ATOM     18  Br  UNL A   1      37.027  21.440  24.610  1.00  0.00    -0.049 Br
ATOM     19  C   UNL A   1      34.595  22.813  24.038  1.00  0.00     0.128 A 
ENDBRANCH  11  12
ENDBRANCH  10  11
ENDBRANCH   7  10
ENDBRANCH   6   7
ENDBRANCH   3   6
ENDBRANCH   1   2
BRANCH   1  20
ATOM     20  C   UNL A   1      34.158  31.210  27.578  1.00  0.00     0.042 C 
BRANCH  20  21
ATOM     21  C   UNL A   1      35.347  30.573  28.290  1.00  0.00     0.118 C 
BRANCH  21  22
ATOM     22  N   UNL A   1      35.467  31.021  29.671  1.00  0.00    -0.352 N 
ATOM     23  C   UNL A   1      36.468  30.829  30.586  1.00  0.00     0.251 C 
ATOM     24  H   UNL A   1      34.704  31.549  30.001  1.00  0.00     0.163 HD
ATOM     25  O   UNL A   1      36.245  31.078  31.776  1.00  0.00    -0.269 OA
BRANCH  23  26
ATOM     26  C   UNL A   1      37.796  30.322  30.179  1.00  0.00     0.039 A 
ATOM     27  C   UNL A   1      38.186  30.440  28.841  1.00  0.00     0.014 A 
ATOM     28  C   UNL A   1      38.640  29.687  31.093  1.00  0.00     0.014 A 
ATOM     29  C   UNL A   1      39.443  29.980  28.438  1.00  0.00     0.010 A 
ATOM     30  C   UNL A   1      39.923  29.300  30.709  1.00  0.00     0.010 A 
ATOM     31  C   UNL A   1      40.337  29.441  29.376  1.00  0.00    -0.014 A 
BRANCH  31  32
ATOM     32  C   UNL A   1      41.711  29.028  28.990  1.00  0.00     0.031 A 
ATOM     33  C   UNL A   1      42.829  30.036  28.956  1.00  0.00     0.074 A 
ATOM     34  C   UNL A   1      41.937  27.757  28.598  1.00  0.00     0.049 A 
ATOM     35  N   UNL A   1      44.068  29.879  28.566  1.00  0.00    -0.248 NA
ATOM     36  C   UNL A   1      42.507  31.403  29.397  1.00  0.00     0.031 C 
ATOM     37  C   UNL A   1      40.930  26.694  28.552  1.00  0.00     0.029 A 
ATOM     38  N   UNL A   1      43.082  27.147  28.151  1.00  0.00    -0.354 N 
ATOM     39  C   UNL A   1      44.667  31.129  28.695  1.00  0.00     0.074 A 
ATOM     40  C   UNL A   1      43.643  32.040  29.158  1.00  0.00     0.031 C 
ATOM     41  C   UNL A   1      41.507  25.560  28.123  1.00  0.00     0.029 A 
ATOM     42  C   UNL A   1      42.910  25.824  27.818  1.00  0.00     0.049 A 
ATOM     43  H   UNL A   1      43.947  27.613  28.076  1.00  0.00     0.167 HD
ATOM     44  C   UNL A   1      45.955  31.480  28.465  1.00  0.00     0.031 A 
ATOM     45  C   UNL A   1      43.776  24.925  27.311  1.00  0.00     0.031 A 
ATOM     46  C   UNL A   1      46.972  30.567  28.013  1.00  0.00     0.049 A 
ATOM     47  C   UNL A   1      45.195  25.345  27.045  1.00  0.00     0.074 A 
ATOM     48  C   UNL A   1      48.318  30.815  27.805  1.00  0.00     0.029 A 
ATOM     49  N   UNL A   1      46.757  29.235  27.693  1.00  0.00    -0.354 N 
ATOM     50  N   UNL A   1      45.756  26.515  27.235  1.00  0.00    -0.248 NA
ATOM     51  C   UNL A   1      46.100  24.321  26.504  1.00  0.00     0.031 C 
ATOM     52  C   UNL A   1      48.905  29.646  27.306  1.00  0.00     0.029 A 
ATOM     53  C   UNL A   1      47.938  28.655  27.262  1.00  0.00     0.049 A 
ATOM     54  H   UNL A   1      45.891  28.770  27.762  1.00  0.00     0.167 HD
ATOM     55  C   UNL A   1      47.086  26.362  26.855  1.00  0.00     0.074 A 
ATOM     56  C   UNL A   1      47.247  24.982  26.446  1.00  0.00     0.031 C 
ATOM     57  C   UNL A   1      48.082  27.282  26.849  1.00  0.00     0.031 A 
BRANCH  44  58
ATOM     58  C   UNL A   1      46.336  32.921  28.690  1.00  0.00    -0.014 A 
ATOM     59  C   UNL A   1      46.785  33.367  29.946  1.00  0.00     0.010 A 
ATOM     60  C   UNL A   1      46.288  33.833  27.619  1.00  0.00     0.010 A 
ATOM     61  C   UNL A   1      47.136  34.706  30.139  1.00  0.00     0.020 A 
ATOM     62  C   UNL A   1      46.666  35.166  27.800  1.00  0.00     0.020 A 
ATOM     63  C   UNL A   1      47.072  35.597  29.063  1.00  0.00     0.054 A 
BRANCH  63  64
ATOM     64  S   UNL A   1      47.556  37.325  29.338  1.00  0.00     0.124 S 
ATOM     65  O   UNL A   1      48.898  37.356  28.760  1.00  0.00    -0.237 OA
ATOM     66  O   UNL A   1      46.537  38.064  28.598  1.00  0.00    -0.237 OA
ATOM     67  O   UNL A   1      47.500  37.475  30.790  1.00  0.00    -0.744 OA
ENDBRANCH  63  64
ENDBRANCH  44  58
BRANCH  45  68
ATOM     68  C   UNL A   1      43.322  23.538  27.022  1.00  0.00    -0.014 A 
ATOM     69  C   UNL A   1      43.151  23.102  25.697  1.00  0.00     0.010 A 
ATOM     70  C   UNL A   1      43.074  22.638  28.076  1.00  0.00     0.010 A 
ATOM     71  C   UNL A   1      42.726  21.797  25.430  1.00  0.00     0.020 A 
ATOM     72  C   UNL A   1      42.675  21.325  27.812  1.00  0.00     0.020 A 
ATOM     73  C   UNL A   1      42.493  20.915  26.490  1.00  0.00     0.054 A 
BRANCH  73  74
ATOM     74  S   UNL A   1      41.996  19.210  26.119  1.00  0.00     0.124 S 
ATOM     75  O   UNL A   1      42.870  18.875  25.001  1.00  0.00    -0.237 OA
ATOM     76  O   UNL A   1      42.279  18.519  27.375  1.00  0.00    -0.237 OA
ATOM     77  O   UNL A   1      40.577  19.333  25.793  1.00  0.00    -0.744 OA
ENDBRANCH  73  74
ENDBRANCH  45  68
BRANCH  57  78
ATOM     78  C   UNL A   1      49.445  26.822  26.405  1.00  0.00    -0.014 A 
ATOM     79  C   UNL A   1      50.344  26.229  27.308  1.00  0.00     0.010 A 
ATOM     80  C   UNL A   1      49.809  26.937  25.050  1.00  0.00     0.010 A 
ATOM     81  C   UNL A   1      51.596  25.787  26.872  1.00  0.00     0.020 A 
ATOM     82  C   UNL A   1      51.048  26.471  24.605  1.00  0.00     0.020 A 
ATOM     83  C   UNL A   1      51.939  25.910  25.522  1.00  0.00     0.054 A 
BRANCH  83  84
ATOM     84  S   UNL A   1      53.552  25.287  24.972  1.00  0.00     0.124 S 
ATOM     85  O   UNL A   1      53.470  23.875  25.332  1.00  0.00    -0.237 OA
ATOM     86  O   UNL A   1      53.535  25.573  23.540  1.00  0.00    -0.237 OA
ATOM     87  O   UNL A   1      54.510  26.073  25.747  1.00  0.00    -0.744 OA
ENDBRANCH  83  84
ENDBRANCH  57  78
ENDBRANCH  31  32
ENDBRANCH  23  26
ENDBRANCH  21  22
ENDBRANCH  20  21
ENDBRANCH   1  20
TORSDOF 17
ENDMDL
MODEL 3
REMARK VINA RESULT:      -9.7      2.955      8.643
REMARK SMILES Cc1cc(Br)cnc1SCC1(CC(=O)NCCCNC(=O)c2ccc(-c3c4nc(c(-c5ccc(S(=O)(=O)[O-])cc5)c5ccc([nH]5)c(-c5ccc(S(=O)(=O)[O-])cc5)c5nc(c(-c6ccc(S(=O)(=O)[O-])cc6)c6ccc3[nH]6)C=C5)C=C4)cc2)CC1
REMARK SMILES IDX 16 1 15 2 13 3 14 4 12 6 11 7 82 8 83 9 10 10 9 11 8 12 1 13
REMARK SMILES IDX 2 14 3 15 4 16 7 17 5 18 6 19 17 20 18 21 19 22 20 23 21 25
REMARK SMILES IDX 22 26 23 27 81 28 24 29 80 30 25 31 26 32 27 33 74 34 28 35
REMARK SMILES IDX 79 36 73 37 75 38 29 39 78 40 72 41 71 42 30 44 60 45 41 46
REMARK SMILES IDX 59 47 42 48 45 49 58 50 76 51 43 52 44 53 57 55 77 56 46 57
REMARK SMILES IDX 31 58 32 59 40 60 33 61 39 62 34 63 35 64 36 65 37 66 38 67
REMARK SMILES IDX 61 68 62 69 70 70 63 71 69 72 64 73 65 74 66 75 67 76 68 77
REMARK SMILES IDX 47 78 48 79 56 80 49 81 55 82 50 83 51 84 52 85 53 86 54 87
REMARK H PARENT 15 5 19 24 75 43 45 54
REMARK Flexibility Score: inf
ROOT
ATOM      1  C   UNL A   1      32.227  27.187  25.106  1.00  0.00     0.117 C 
ENDROOT
BRANCH   1   2
ATOM      2  N   UNL A   1      32.983  27.312  23.875  1.00  0.00    -0.356 N 
ATOM      3  C   UNL A   1      32.980  26.520  22.766  1.00  0.00     0.220 C 
ATOM      4  O   UNL A   1      33.746  26.815  21.848  1.00  0.00    -0.275 OA
ATOM      5  H   UNL A   1      33.590  28.086  23.835  1.00  0.00     0.163 HD
BRANCH   3   6
ATOM      6  C   UNL A   1      32.044  25.327  22.670  1.00  0.00     0.107 C 
BRANCH   6   7
ATOM      7  C   UNL A   1      32.604  23.993  23.157  1.00  0.00    -0.011 C 
ATOM      8  C   UNL A   1      34.122  23.870  23.141  1.00  0.00     0.009 C 
ATOM      9  C   UNL A   1      33.322  23.095  22.152  1.00  0.00     0.009 C 
BRANCH   7  10
ATOM     10  C   UNL A   1      31.783  23.271  24.204  1.00  0.00     0.084 C 
BRANCH  10  11
ATOM     11  S   UNL A   1      32.605  22.565  25.645  1.00  0.00    -0.106 SA
BRANCH  11  12
ATOM     12  C   UNL A   1      33.201  20.951  25.204  1.00  0.00     0.099 A 
ATOM     13  C   UNL A   1      35.756  21.322  25.413  1.00  0.00     0.047 C 
ATOM     14  C   UNL A   1      34.529  20.509  25.123  1.00  0.00    -0.018 A 
ATOM     15  C   UNL A   1      34.763  19.202  24.641  1.00  0.00     0.023 A 
ATOM     16  C   UNL A   1      33.711  18.410  24.206  1.00  0.00     0.036 A 
ATOM     17  N   UNL A   1      32.173  20.161  24.782  1.00  0.00    -0.248 NA
ATOM     18  Br  UNL A   1      34.020  16.692  23.500  1.00  0.00    -0.049 Br
ATOM     19  C   UNL A   1      32.442  18.935  24.281  1.00  0.00     0.128 A 
ENDBRANCH  11  12
ENDBRANCH  10  11
ENDBRANCH   7  10
ENDBRANCH   6   7
ENDBRANCH   3   6
ENDBRANCH   1   2
BRANCH   1  20
ATOM     20  C   UNL A   1      33.018  27.686  26.312  1.00  0.00     0.042 C 
BRANCH  20  21
ATOM     21  C   UNL A   1      34.060  28.746  25.970  1.00  0.00     0.118 C 
BRANCH  21  22
ATOM     22  N   UNL A   1      33.682  30.067  26.456  1.00  0.00    -0.352 N 
ATOM     23  C   UNL A   1      34.189  30.815  27.485  1.00  0.00     0.251 C 
ATOM     24  H   UNL A   1      32.942  30.490  25.964  1.00  0.00     0.163 HD
ATOM     25  O   UNL A   1      33.547  31.795  27.882  1.00  0.00    -0.269 OA
BRANCH  23  26
ATOM     26  C   UNL A   1      35.473  30.469  28.131  1.00  0.00     0.039 A 
ATOM     27  C   UNL A   1      36.656  31.011  27.620  1.00  0.00     0.014 A 
ATOM     28  C   UNL A   1      35.527  29.575  29.203  1.00  0.00     0.014 A 
ATOM     29  C   UNL A   1      37.880  30.708  28.224  1.00  0.00     0.010 A 
ATOM     30  C   UNL A   1      36.736  29.336  29.853  1.00  0.00     0.010 A 
ATOM     31  C   UNL A   1      37.926  29.898  29.369  1.00  0.00    -0.014 A 
BRANCH  31  32
ATOM     32  C   UNL A   1      39.203  29.634  30.081  1.00  0.00     0.031 A 
ATOM     33  C   UNL A   1      40.125  28.539  29.613  1.00  0.00     0.074 A 
ATOM     34  C   UNL A   1      39.498  30.333  31.196  1.00  0.00     0.049 A 
ATOM     35  N   UNL A   1      41.236  28.109  30.155  1.00  0.00    -0.248 NA
ATOM     36  C   UNL A   1      39.736  27.818  28.390  1.00  0.00     0.031 C 
ATOM     37  C   UNL A   1      38.670  31.395  31.773  1.00  0.00     0.029 A 
ATOM     38  N   UNL A   1      40.568  30.247  32.051  1.00  0.00    -0.354 N 
ATOM     39  C   UNL A   1      41.667  27.058  29.352  1.00  0.00     0.074 A 
ATOM     40  C   UNL A   1      40.676  26.888  28.312  1.00  0.00     0.031 C 
ATOM     41  C   UNL A   1      39.274  31.875  32.873  1.00  0.00     0.029 A 
ATOM     42  C   UNL A   1      40.504  31.125  33.107  1.00  0.00     0.049 A 
ATOM     43  H   UNL A   1      41.313  29.615  31.921  1.00  0.00     0.167 HD
ATOM     44  C   UNL A   1      42.794  26.314  29.462  1.00  0.00     0.031 A 
ATOM     45  C   UNL A   1      41.331  31.302  34.155  1.00  0.00     0.031 A 
ATOM     46  C   UNL A   1      43.782  26.493  30.493  1.00  0.00     0.049 A 
ATOM     47  C   UNL A   1      42.566  30.449  34.265  1.00  0.00     0.074 A 
ATOM     48  C   UNL A   1      44.984  25.827  30.656  1.00  0.00     0.029 A 
ATOM     49  N   UNL A   1      43.681  27.398  31.539  1.00  0.00    -0.354 N 
ATOM     50  N   UNL A   1      42.988  29.505  33.460  1.00  0.00    -0.248 NA
ATOM     51  C   UNL A   1      43.439  30.693  35.421  1.00  0.00     0.031 C 
ATOM     52  C   UNL A   1      45.585  26.291  31.832  1.00  0.00     0.029 A 
ATOM     53  C   UNL A   1      44.785  27.288  32.367  1.00  0.00     0.049 A 
ATOM     54  H   UNL A   1      42.935  28.026  31.673  1.00  0.00     0.167 HD
ATOM     55  C   UNL A   1      44.187  29.055  34.001  1.00  0.00     0.074 A 
ATOM     56  C   UNL A   1      44.432  29.845  35.190  1.00  0.00     0.031 C 
ATOM     57  C   UNL A   1      45.011  28.076  33.552  1.00  0.00     0.031 A 
BRANCH  44  58
ATOM     58  C   UNL A   1      43.015  25.227  28.441  1.00  0.00    -0.014 A 
ATOM     59  C   UNL A   1      43.575  25.513  27.183  1.00  0.00     0.010 A 
ATOM     60  C   UNL A   1      42.698  23.893  28.760  1.00  0.00     0.010 A 
ATOM     61  C   UNL A   1      43.775  24.494  26.248  1.00  0.00     0.020 A 
ATOM     62  C   UNL A   1      42.924  22.867  27.839  1.00  0.00     0.020 A 
ATOM     63  C   UNL A   1      43.445  23.177  26.582  1.00  0.00     0.054 A 
BRANCH  63  64
ATOM     64  S   UNL A   1      43.737  21.871  25.356  1.00  0.00     0.124 S 
ATOM     65  O   UNL A   1      45.057  21.381  25.747  1.00  0.00    -0.237 OA
ATOM     66  O   UNL A   1      42.629  20.952  25.598  1.00  0.00    -0.237 OA
ATOM     67  O   UNL A   1      43.689  22.578  24.078  1.00  0.00    -0.744 OA
ENDBRANCH  63  64
ENDBRANCH  44  58
BRANCH  45  68
ATOM     68  C   UNL A   1      41.018  32.330  35.184  1.00  0.00    -0.014 A 
ATOM     69  C   UNL A   1      41.584  33.614  35.108  1.00  0.00     0.010 A 
ATOM     70  C   UNL A   1      40.135  32.034  36.239  1.00  0.00     0.010 A 
ATOM     71  C   UNL A   1      41.287  34.578  36.075  1.00  0.00     0.020 A 
ATOM     72  C   UNL A   1      39.813  33.004  37.192  1.00  0.00     0.020 A 
ATOM     73  C   UNL A   1      40.400  34.268  37.110  1.00  0.00     0.054 A 
BRANCH  73  74
ATOM     74  S   UNL A   1      39.984  35.551  38.323  1.00  0.00     0.124 S 
ATOM     75  O   UNL A   1      38.862  34.947  39.033  1.00  0.00    -0.237 OA
ATOM     76  O   UNL A   1      41.224  35.677  39.086  1.00  0.00    -0.237 OA
ATOM     77  O   UNL A   1      39.653  36.708  37.495  1.00  0.00    -0.744 OA
ENDBRANCH  73  74
ENDBRANCH  45  68
BRANCH  57  78
ATOM     78  C   UNL A   1      46.270  27.818  34.338  1.00  0.00    -0.014 A 
ATOM     79  C   UNL A   1      46.302  26.862  35.368  1.00  0.00     0.010 A 
ATOM     80  C   UNL A   1      47.451  28.507  34.005  1.00  0.00     0.010 A 
ATOM     81  C   UNL A   1      47.485  26.619  36.070  1.00  0.00     0.020 A 
ATOM     82  C   UNL A   1      48.642  28.247  34.686  1.00  0.00     0.020 A 
ATOM     83  C   UNL A   1      48.648  27.314  35.724  1.00  0.00     0.054 A 
BRANCH  83  84
ATOM     84  S   UNL A   1      50.182  26.948  36.621  1.00  0.00     0.124 S 
ATOM     85  O   UNL A   1      50.734  28.283  36.834  1.00  0.00    -0.237 OA
ATOM     86  O   UNL A   1      49.698  26.270  37.821  1.00  0.00    -0.237 OA
ATOM     87  O   UNL A   1      50.933  26.103  35.695  1.00  0.00    -0.744 OA
ENDBRANCH  83  84
ENDBRANCH  57  78
ENDBRANCH  31  32
ENDBRANCH  23  26
ENDBRANCH  21  22
ENDBRANCH  20  21
ENDBRANCH   1  20
TORSDOF 17
ENDMDL
