MODEL 1
REMARK VINA RESULT:     -11.3      0.000      0.000
REMARK SMILES CC1=C[C@H](C)[C@@H](C(=O)NCCCNC(=O)c2ccc(-c3c4nc(c(-c5ccc(S(=O)(=O)[O-])cc5)c5ccc([nH]5)c(-c5ccc(S(=O)(=O)[O-])cc5)c5nc(c(-c6ccc(S(=O)(=O)[O-])cc6)c6ccc3[nH]6)C=C5)C=C4)cc2)[C@H](C(=O)Nc2cccnc2)C1
REMARK SMILES IDX 11 1 10 2 9 3 7 4 8 5 6 7 1 8 2 9 3 10 86 11 4 12 76 13 5 14
REMARK SMILES IDX 77 15 78 16 79 17 80 19 81 20 85 21 82 22 84 23 83 24 12 25
REMARK SMILES IDX 13 26 14 27 15 29 16 30 17 31 75 32 18 33 74 34 19 35 20 36
REMARK SMILES IDX 21 37 68 38 22 39 73 40 67 41 69 42 23 43 72 44 66 45 65 46
REMARK SMILES IDX 24 48 54 49 35 50 53 51 36 52 39 53 52 54 70 55 37 56 38 57
REMARK SMILES IDX 51 59 71 60 40 61 25 62 26 63 34 64 27 65 33 66 28 67 29 68
REMARK SMILES IDX 30 69 31 70 32 71 55 72 56 73 64 74 57 75 63 76 58 77 59 78
REMARK SMILES IDX 60 79 61 80 62 81 41 82 42 83 50 84 43 85 49 86 44 87 45 88
REMARK SMILES IDX 46 89 47 90 48 91
REMARK H PARENT 9 6 79 18 13 28 69 47 39 58
REMARK Flexibility Score: inf
ROOT
ATOM      1  C   UNL A   1      32.427  27.909  26.541  1.00  0.00     0.042 C 
ENDROOT
BRANCH   1   2
ATOM      2  C   UNL A   1      32.584  27.940  25.038  1.00  0.00     0.117 C 
BRANCH   2   3
ATOM      3  N   UNL A   1      31.454  27.376  24.331  1.00  0.00    -0.356 N 
ATOM      4  C   UNL A   1      31.067  26.078  24.178  1.00  0.00     0.224 C 
ATOM      5  O   UNL A   1      29.974  25.876  23.642  1.00  0.00    -0.275 OA
ATOM      6  H   UNL A   1      30.872  28.036  23.889  1.00  0.00     0.163 HD
BRANCH   4   7
ATOM      7  C   UNL A   1      31.932  24.897  24.646  1.00  0.00     0.098 C 
ATOM      8  C   UNL A   1      32.154  21.134  22.258  1.00  0.00     0.039 C 
ATOM      9  C   UNL A   1      32.165  22.365  23.120  1.00  0.00    -0.076 C 
ATOM     10  C   UNL A   1      33.139  23.290  23.014  1.00  0.00    -0.024 C 
ATOM     11  C   UNL A   1      30.965  22.537  24.011  1.00  0.00     0.044 C 
ATOM     12  C   UNL A   1      33.096  24.664  23.647  1.00  0.00     0.022 C 
ATOM     13  C   UNL A   1      31.044  23.687  25.019  1.00  0.00     0.096 C 
ATOM     14  C   UNL A   1      34.447  25.147  24.202  1.00  0.00     0.013 C 
BRANCH  13  15
ATOM     15  C   UNL A   1      31.187  23.222  26.489  1.00  0.00     0.228 C 
ATOM     16  O   UNL A   1      30.437  23.695  27.351  1.00  0.00    -0.274 OA
ATOM     17  N   UNL A   1      32.016  22.204  26.877  1.00  0.00    -0.324 N 
ATOM     18  H   UNL A   1      31.732  21.718  27.683  1.00  0.00     0.169 HD
BRANCH  17  19
ATOM     19  C   UNL A   1      33.206  21.751  26.298  1.00  0.00     0.059 A 
ATOM     20  C   UNL A   1      34.374  22.490  26.387  1.00  0.00     0.029 A 
ATOM     21  C   UNL A   1      33.276  20.522  25.658  1.00  0.00     0.137 A 
ATOM     22  C   UNL A   1      35.519  22.069  25.717  1.00  0.00     0.022 A 
ATOM     23  N   UNL A   1      34.374  20.076  24.999  1.00  0.00    -0.263 NA
ATOM     24  C   UNL A   1      35.459  20.880  25.013  1.00  0.00     0.111 A 
ENDBRANCH  17  19
ENDBRANCH  13  15
ENDBRANCH   4   7
ENDBRANCH   2   3
ENDBRANCH   1   2
BRANCH   1  25
ATOM     25  C   UNL A   1      33.672  28.404  27.238  1.00  0.00     0.118 C 
BRANCH  25  26
ATOM     26  N   UNL A   1      33.592  29.828  27.557  1.00  0.00    -0.352 N 
ATOM     27  C   UNL A   1      34.517  30.642  28.159  1.00  0.00     0.251 C 
ATOM     28  H   UNL A   1      32.749  30.268  27.302  1.00  0.00     0.163 HD
ATOM     29  O   UNL A   1      34.191  31.767  28.532  1.00  0.00    -0.269 OA
BRANCH  27  30
ATOM     30  C   UNL A   1      35.889  30.146  28.370  1.00  0.00     0.039 A 
ATOM     31  C   UNL A   1      36.805  30.193  27.320  1.00  0.00     0.014 A 
ATOM     32  C   UNL A   1      36.274  29.661  29.622  1.00  0.00     0.014 A 
ATOM     33  C   UNL A   1      38.124  29.802  27.548  1.00  0.00     0.010 A 
ATOM     34  C   UNL A   1      37.610  29.412  29.882  1.00  0.00     0.010 A 
ATOM     35  C   UNL A   1      38.543  29.441  28.840  1.00  0.00    -0.014 A 
BRANCH  35  36
ATOM     36  C   UNL A   1      39.937  29.030  29.119  1.00  0.00     0.031 A 
ATOM     37  C   UNL A   1      40.884  30.008  29.763  1.00  0.00     0.074 A 
ATOM     38  C   UNL A   1      40.360  27.806  28.747  1.00  0.00     0.049 A 
ATOM     39  N   UNL A   1      42.150  29.859  30.054  1.00  0.00    -0.248 NA
ATOM     40  C   UNL A   1      40.349  31.343  30.088  1.00  0.00     0.031 C 
ATOM     41  C   UNL A   1      39.546  26.794  28.067  1.00  0.00     0.029 A 
ATOM     42  N   UNL A   1      41.583  27.205  28.892  1.00  0.00    -0.354 N 
ATOM     43  C   UNL A   1      42.561  31.081  30.573  1.00  0.00     0.074 A 
ATOM     44  C   UNL A   1      41.437  31.984  30.487  1.00  0.00     0.031 C 
ATOM     45  C   UNL A   1      40.278  25.682  27.900  1.00  0.00     0.029 A 
ATOM     46  C   UNL A   1      41.623  25.916  28.416  1.00  0.00     0.049 A 
ATOM     47  H   UNL A   1      42.360  27.653  29.298  1.00  0.00     0.167 HD
ATOM     48  C   UNL A   1      43.758  31.416  31.108  1.00  0.00     0.031 A 
ATOM     49  C   UNL A   1      42.630  25.023  28.399  1.00  0.00     0.031 A 
ATOM     50  C   UNL A   1      44.866  30.505  31.207  1.00  0.00     0.049 A 
ATOM     51  C   UNL A   1      43.954  25.416  28.996  1.00  0.00     0.074 A 
ATOM     52  C   UNL A   1      46.106  30.718  31.780  1.00  0.00     0.029 A 
ATOM     53  N   UNL A   1      44.864  29.207  30.719  1.00  0.00    -0.354 N 
ATOM     54  N   UNL A   1      44.305  26.554  29.548  1.00  0.00    -0.248 NA
ATOM     55  C   UNL A   1      45.013  24.398  28.983  1.00  0.00     0.031 C 
ATOM     56  C   UNL A   1      46.876  29.566  31.586  1.00  0.00     0.029 A 
ATOM     57  C   UNL A   1      46.090  28.612  30.956  1.00  0.00     0.049 A 
ATOM     58  H   UNL A   1      44.103  28.772  30.271  1.00  0.00     0.167 HD
ATOM     59  C   UNL A   1      45.616  26.378  29.976  1.00  0.00     0.074 A 
ATOM     60  C   UNL A   1      45.988  25.020  29.632  1.00  0.00     0.031 C 
ATOM     61  C   UNL A   1      46.438  27.259  30.601  1.00  0.00     0.031 A 
BRANCH  48  62
ATOM     62  C   UNL A   1      43.922  32.824  31.619  1.00  0.00    -0.014 A 
ATOM     63  C   UNL A   1      43.616  33.159  32.952  1.00  0.00     0.010 A 
ATOM     64  C   UNL A   1      44.399  33.828  30.757  1.00  0.00     0.010 A 
ATOM     65  C   UNL A   1      43.731  34.477  33.398  1.00  0.00     0.020 A 
ATOM     66  C   UNL A   1      44.551  35.143  31.209  1.00  0.00     0.020 A 
ATOM     67  C   UNL A   1      44.196  35.463  32.522  1.00  0.00     0.054 A 
BRANCH  67  68
ATOM     68  S   UNL A   1      44.349  37.163  33.133  1.00  0.00     0.124 S 
ATOM     69  O   UNL A   1      44.739  37.883  31.923  1.00  0.00    -0.237 OA
ATOM     70  O   UNL A   1      43.003  37.446  33.626  1.00  0.00    -0.237 OA
ATOM     71  O   UNL A   1      45.380  37.071  34.163  1.00  0.00    -0.744 OA
ENDBRANCH  67  68
ENDBRANCH  48  62
BRANCH  49  72
ATOM     72  C   UNL A   1      42.411  23.665  27.831  1.00  0.00    -0.014 A 
ATOM     73  C   UNL A   1      42.739  23.389  26.493  1.00  0.00     0.010 A 
ATOM     74  C   UNL A   1      41.898  22.630  28.635  1.00  0.00     0.010 A 
ATOM     75  C   UNL A   1      42.542  22.111  25.962  1.00  0.00     0.020 A 
ATOM     76  C   UNL A   1      41.728  21.343  28.118  1.00  0.00     0.020 A 
ATOM     77  C   UNL A   1      42.043  21.095  26.781  1.00  0.00     0.054 A 
BRANCH  77  78
ATOM     78  S   UNL A   1      41.852  19.429  26.086  1.00  0.00     0.124 S 
ATOM     79  O   UNL A   1      42.748  19.474  24.936  1.00  0.00    -0.237 OA
ATOM     80  O   UNL A   1      42.282  18.577  27.192  1.00  0.00    -0.237 OA
ATOM     81  O   UNL A   1      40.427  19.352  25.768  1.00  0.00    -0.744 OA
ENDBRANCH  77  78
ENDBRANCH  49  72
BRANCH  61  82
ATOM     82  C   UNL A   1      47.808  26.768  30.989  1.00  0.00    -0.014 A 
ATOM     83  C   UNL A   1      48.914  26.929  30.136  1.00  0.00     0.010 A 
ATOM     84  C   UNL A   1      47.996  26.184  32.255  1.00  0.00     0.010 A 
ATOM     85  C   UNL A   1      50.177  26.477  30.527  1.00  0.00     0.020 A 
ATOM     86  C   UNL A   1      49.263  25.762  32.663  1.00  0.00     0.020 A 
ATOM     87  C   UNL A   1      50.343  25.896  31.789  1.00  0.00     0.054 A 
BRANCH  87  88
ATOM     88  S   UNL A   1      51.999  25.351  32.286  1.00  0.00     0.124 S 
ATOM     89  O   UNL A   1      52.820  25.822  31.175  1.00  0.00    -0.237 OA
ATOM     90  O   UNL A   1      52.197  26.048  33.555  1.00  0.00    -0.237 OA
ATOM     91  O   UNL A   1      51.868  23.899  32.393  1.00  0.00    -0.744 OA
ENDBRANCH  87  88
ENDBRANCH  61  82
ENDBRANCH  35  36
ENDBRANCH  27  30
ENDBRANCH  25  26
ENDBRANCH   1  25
TORSDOF 15
ENDMDL
MODEL 2
REMARK VINA RESULT:     -11.2      3.031      3.895
REMARK SMILES CC1=C[C@H](C)[C@@H](C(=O)NCCCNC(=O)c2ccc(-c3c4nc(c(-c5ccc(S(=O)(=O)[O-])cc5)c5ccc([nH]5)c(-c5ccc(S(=O)(=O)[O-])cc5)c5nc(c(-c6ccc(S(=O)(=O)[O-])cc6)c6ccc3[nH]6)C=C5)C=C4)cc2)[C@H](C(=O)Nc2cccnc2)C1
REMARK SMILES IDX 11 1 10 2 9 3 7 4 8 5 6 7 1 8 2 9 3 10 86 11 4 12 76 13 5 14
REMARK SMILES IDX 77 15 78 16 79 17 80 19 81 20 85 21 82 22 84 23 83 24 12 25
REMARK SMILES IDX 13 26 14 27 15 29 16 30 17 31 75 32 18 33 74 34 19 35 20 36
REMARK SMILES IDX 21 37 68 38 22 39 73 40 67 41 69 42 23 43 72 44 66 45 65 46
REMARK SMILES IDX 24 48 54 49 35 50 53 51 36 52 39 53 52 54 70 55 37 56 38 57
REMARK SMILES IDX 51 59 71 60 40 61 25 62 26 63 34 64 27 65 33 66 28 67 29 68
REMARK SMILES IDX 30 69 31 70 32 71 55 72 56 73 64 74 57 75 63 76 58 77 59 78
REMARK SMILES IDX 60 79 61 80 62 81 41 82 42 83 50 84 43 85 49 86 44 87 45 88
REMARK SMILES IDX 46 89 47 90 48 91
REMARK H PARENT 9 6 79 18 13 28 69 47 39 58
REMARK Flexibility Score: inf
ROOT
ATOM      1  C   UNL A   1      33.840  28.729  27.156  1.00  0.00     0.042 C 
ENDROOT
BRANCH   1   2
ATOM      2  C   UNL A   1      33.154  29.481  26.039  1.00  0.00     0.117 C 
BRANCH   2   3
ATOM      3  N   UNL A   1      33.785  29.296  24.750  1.00  0.00    -0.356 N 
ATOM      4  C   UNL A   1      33.676  28.276  23.852  1.00  0.00     0.224 C 
ATOM      5  O   UNL A   1      34.216  28.432  22.754  1.00  0.00    -0.275 OA
ATOM      6  H   UNL A   1      34.391  30.023  24.478  1.00  0.00     0.163 HD
BRANCH   4   7
ATOM      7  C   UNL A   1      32.916  26.977  24.165  1.00  0.00     0.098 C 
ATOM      8  C   UNL A   1      33.216  23.440  21.460  1.00  0.00     0.039 C 
ATOM      9  C   UNL A   1      33.068  24.567  22.445  1.00  0.00    -0.076 C 
ATOM     10  C   UNL A   1      33.819  24.627  23.562  1.00  0.00    -0.024 C 
ATOM     11  C   UNL A   1      32.117  25.658  22.037  1.00  0.00     0.044 C 
ATOM     12  C   UNL A   1      33.922  25.835  24.468  1.00  0.00     0.022 C 
ATOM     13  C   UNL A   1      31.823  26.717  23.103  1.00  0.00     0.096 C 
ATOM     14  C   UNL A   1      33.987  25.498  25.967  1.00  0.00     0.013 C 
BRANCH  13  15
ATOM     15  C   UNL A   1      30.385  26.648  23.673  1.00  0.00     0.228 C 
ATOM     16  O   UNL A   1      29.593  27.568  23.437  1.00  0.00    -0.274 OA
ATOM     17  N   UNL A   1      29.887  25.550  24.322  1.00  0.00    -0.324 N 
ATOM     18  H   UNL A   1      28.912  25.431  24.255  1.00  0.00     0.169 HD
BRANCH  17  19
ATOM     19  C   UNL A   1      30.556  24.571  25.062  1.00  0.00     0.059 A 
ATOM     20  C   UNL A   1      30.929  23.367  24.488  1.00  0.00     0.029 A 
ATOM     21  C   UNL A   1      30.919  24.786  26.385  1.00  0.00     0.137 A 
ATOM     22  C   UNL A   1      31.502  22.368  25.270  1.00  0.00     0.022 A 
ATOM     23  N   UNL A   1      31.482  23.839  27.176  1.00  0.00    -0.263 NA
ATOM     24  C   UNL A   1      31.725  22.639  26.608  1.00  0.00     0.111 A 
ENDBRANCH  17  19
ENDBRANCH  13  15
ENDBRANCH   4   7
ENDBRANCH   2   3
ENDBRANCH   1   2
BRANCH   1  25
ATOM     25  C   UNL A   1      35.201  29.309  27.461  1.00  0.00     0.118 C 
BRANCH  25  26
ATOM     26  N   UNL A   1      35.256  29.903  28.796  1.00  0.00    -0.352 N 
ATOM     27  C   UNL A   1      36.284  29.919  29.703  1.00  0.00     0.251 C 
ATOM     28  H   UNL A   1      34.433  30.358  29.086  1.00  0.00     0.163 HD
ATOM     29  O   UNL A   1      36.076  30.287  30.857  1.00  0.00    -0.269 OA
BRANCH  27  30
ATOM     30  C   UNL A   1      37.626  29.473  29.285  1.00  0.00     0.039 A 
ATOM     31  C   UNL A   1      38.049  29.703  27.976  1.00  0.00     0.014 A 
ATOM     32  C   UNL A   1      38.474  28.850  30.202  1.00  0.00     0.014 A 
ATOM     33  C   UNL A   1      39.349  29.356  27.609  1.00  0.00     0.010 A 
ATOM     34  C   UNL A   1      39.803  28.640  29.878  1.00  0.00     0.010 A 
ATOM     35  C   UNL A   1      40.245  28.852  28.567  1.00  0.00    -0.014 A 
BRANCH  35  36
ATOM     36  C   UNL A   1      41.633  28.482  28.214  1.00  0.00     0.031 A 
ATOM     37  C   UNL A   1      42.703  29.543  28.198  1.00  0.00     0.074 A 
ATOM     38  C   UNL A   1      41.917  27.214  27.859  1.00  0.00     0.049 A 
ATOM     39  N   UNL A   1      43.966  29.434  27.879  1.00  0.00    -0.248 NA
ATOM     40  C   UNL A   1      42.292  30.914  28.549  1.00  0.00     0.031 C 
ATOM     41  C   UNL A   1      40.951  26.114  27.786  1.00  0.00     0.029 A 
ATOM     42  N   UNL A   1      43.105  26.636  27.495  1.00  0.00    -0.354 N 
ATOM     43  C   UNL A   1      44.488  30.719  27.972  1.00  0.00     0.074 A 
ATOM     44  C   UNL A   1      43.394  31.603  28.299  1.00  0.00     0.031 C 
ATOM     45  C   UNL A   1      41.595  24.986  27.450  1.00  0.00     0.029 A 
ATOM     46  C   UNL A   1      43.007  25.289  27.238  1.00  0.00     0.049 A 
ATOM     47  H   UNL A   1      43.950  27.137  27.424  1.00  0.00     0.167 HD
ATOM     48  C   UNL A   1      45.771  31.126  27.832  1.00  0.00     0.031 A 
ATOM     49  C   UNL A   1      43.949  24.400  26.874  1.00  0.00     0.031 A 
ATOM     50  C   UNL A   1      46.857  30.235  27.524  1.00  0.00     0.049 A 
ATOM     51  C   UNL A   1      45.369  24.872  26.721  1.00  0.00     0.074 A 
ATOM     52  C   UNL A   1      48.203  30.527  27.414  1.00  0.00     0.029 A 
ATOM     53  N   UNL A   1      46.716  28.878  27.277  1.00  0.00    -0.354 N 
ATOM     54  N   UNL A   1      45.858  26.080  26.882  1.00  0.00    -0.248 NA
ATOM     55  C   UNL A   1      46.367  23.859  26.353  1.00  0.00     0.031 C 
ATOM     56  C   UNL A   1      48.871  29.355  27.043  1.00  0.00     0.029 A 
ATOM     57  C   UNL A   1      47.950  28.321  26.991  1.00  0.00     0.049 A 
ATOM     58  H   UNL A   1      45.866  28.384  27.303  1.00  0.00     0.167 HD
ATOM     59  C   UNL A   1      47.227  25.965  26.665  1.00  0.00     0.074 A 
ATOM     60  C   UNL A   1      47.487  24.569  26.377  1.00  0.00     0.031 C 
ATOM     61  C   UNL A   1      48.184  26.927  26.704  1.00  0.00     0.031 A 
BRANCH  48  62
ATOM     62  C   UNL A   1      46.058  32.595  28.008  1.00  0.00    -0.014 A 
ATOM     63  C   UNL A   1      46.363  33.134  29.272  1.00  0.00     0.010 A 
ATOM     64  C   UNL A   1      46.032  33.450  26.891  1.00  0.00     0.010 A 
ATOM     65  C   UNL A   1      46.583  34.504  29.426  1.00  0.00     0.020 A 
ATOM     66  C   UNL A   1      46.287  34.818  27.034  1.00  0.00     0.020 A 
ATOM     67  C   UNL A   1      46.541  35.339  28.304  1.00  0.00     0.054 A 
BRANCH  67  68
ATOM     68  S   UNL A   1      46.844  37.112  28.532  1.00  0.00     0.124 S 
ATOM     69  O   UNL A   1      48.260  37.222  28.187  1.00  0.00    -0.237 OA
ATOM     70  O   UNL A   1      45.917  37.718  27.579  1.00  0.00    -0.237 OA
ATOM     71  O   UNL A   1      46.525  37.341  29.939  1.00  0.00    -0.744 OA
ENDBRANCH  67  68
ENDBRANCH  48  62
BRANCH  49  72
ATOM     72  C   UNL A   1      43.583  22.972  26.667  1.00  0.00    -0.014 A 
ATOM     73  C   UNL A   1      44.026  22.279  25.528  1.00  0.00     0.010 A 
ATOM     74  C   UNL A   1      42.812  22.287  27.625  1.00  0.00     0.010 A 
ATOM     75  C   UNL A   1      43.691  20.935  25.339  1.00  0.00     0.020 A 
ATOM     76  C   UNL A   1      42.500  20.935  27.456  1.00  0.00     0.020 A 
ATOM     77  C   UNL A   1      42.934  20.271  26.308  1.00  0.00     0.054 A 
BRANCH  77  78
ATOM     78  S   UNL A   1      42.561  18.511  26.070  1.00  0.00     0.124 S 
ATOM     79  O   UNL A   1      42.889  17.950  27.377  1.00  0.00    -0.237 OA
ATOM     80  O   UNL A   1      41.142  18.534  25.728  1.00  0.00    -0.237 OA
ATOM     81  O   UNL A   1      43.450  18.117  24.979  1.00  0.00    -0.744 OA
ENDBRANCH  77  78
ENDBRANCH  49  72
BRANCH  61  82
ATOM     82  C   UNL A   1      49.606  26.495  26.468  1.00  0.00    -0.014 A 
ATOM     83  C   UNL A   1      50.381  25.928  27.494  1.00  0.00     0.010 A 
ATOM     84  C   UNL A   1      50.155  26.611  25.177  1.00  0.00     0.010 A 
ATOM     85  C   UNL A   1      51.694  25.522  27.244  1.00  0.00     0.020 A 
ATOM     86  C   UNL A   1      51.456  26.175  24.915  1.00  0.00     0.020 A 
ATOM     87  C   UNL A   1      52.223  25.649  25.955  1.00  0.00     0.054 A 
BRANCH  87  88
ATOM     88  S   UNL A   1      53.917  25.081  25.648  1.00  0.00     0.124 S 
ATOM     89  O   UNL A   1      53.738  23.638  25.531  1.00  0.00    -0.237 OA
ATOM     90  O   UNL A   1      54.266  25.775  24.410  1.00  0.00    -0.237 OA
ATOM     91  O   UNL A   1      54.651  25.525  26.831  1.00  0.00    -0.744 OA
ENDBRANCH  87  88
ENDBRANCH  61  82
ENDBRANCH  35  36
ENDBRANCH  27  30
ENDBRANCH  25  26
ENDBRANCH   1  25
TORSDOF 15
ENDMDL
MODEL 3
REMARK VINA RESULT:     -11.1      4.307      5.461
REMARK SMILES CC1=C[C@H](C)[C@@H](C(=O)NCCCNC(=O)c2ccc(-c3c4nc(c(-c5ccc(S(=O)(=O)[O-])cc5)c5ccc([nH]5)c(-c5ccc(S(=O)(=O)[O-])cc5)c5nc(c(-c6ccc(S(=O)(=O)[O-])cc6)c6ccc3[nH]6)C=C5)C=C4)cc2)[C@H](C(=O)Nc2cccnc2)C1
REMARK SMILES IDX 11 1 10 2 9 3 7 4 8 5 6 7 1 8 2 9 3 10 86 11 4 12 76 13 5 14
REMARK SMILES IDX 77 15 78 16 79 17 80 19 81 20 85 21 82 22 84 23 83 24 12 25
REMARK SMILES IDX 13 26 14 27 15 29 16 30 17 31 75 32 18 33 74 34 19 35 20 36
REMARK SMILES IDX 21 37 68 38 22 39 73 40 67 41 69 42 23 43 72 44 66 45 65 46
REMARK SMILES IDX 24 48 54 49 35 50 53 51 36 52 39 53 52 54 70 55 37 56 38 57
REMARK SMILES IDX 51 59 71 60 40 61 25 62 26 63 34 64 27 65 33 66 28 67 29 68
REMARK SMILES IDX 30 69 31 70 32 71 55 72 56 73 64 74 57 75 63 76 58 77 59 78
REMARK SMILES IDX 60 79 61 80 62 81 41 82 42 83 50 84 43 85 49 86 44 87 45 88
REMARK SMILES IDX 46 89 47 90 48 91
REMARK H PARENT 9 6 79 18 13 28 69 47 39 58
REMARK Flexibility Score: inf
ROOT
ATOM      1  C   UNL A   1      31.790  31.898  26.885  1.00  0.00     0.042 C 
ENDROOT
BRANCH   1   2
ATOM      2  C   UNL A   1      32.061  30.564  26.230  1.00  0.00     0.117 C 
BRANCH   2   3
ATOM      3  N   UNL A   1      31.232  30.314  25.072  1.00  0.00    -0.356 N 
ATOM      4  C   UNL A   1      31.026  29.167  24.364  1.00  0.00     0.224 C 
ATOM      5  O   UNL A   1      30.150  29.190  23.495  1.00  0.00    -0.275 OA
ATOM      6  H   UNL A   1      30.736  31.097  24.740  1.00  0.00     0.163 HD
BRANCH   4   7
ATOM      7  C   UNL A   1      31.832  27.883  24.618  1.00  0.00     0.098 C 
ATOM      8  C   UNL A   1      32.843  25.115  21.267  1.00  0.00     0.039 C 
ATOM      9  C   UNL A   1      32.575  25.992  22.458  1.00  0.00    -0.076 C 
ATOM     10  C   UNL A   1      33.486  26.885  22.893  1.00  0.00    -0.024 C 
ATOM     11  C   UNL A   1      31.192  25.881  23.040  1.00  0.00     0.044 C 
ATOM     12  C   UNL A   1      33.209  27.974  23.907  1.00  0.00     0.022 C 
ATOM     13  C   UNL A   1      30.962  26.633  24.354  1.00  0.00     0.096 C 
ATOM     14  C   UNL A   1      34.360  28.224  24.896  1.00  0.00     0.013 C 
BRANCH  13  15
ATOM     15  C   UNL A   1      30.789  25.706  25.583  1.00  0.00     0.228 C 
ATOM     16  O   UNL A   1      29.903  25.954  26.410  1.00  0.00    -0.274 OA
ATOM     17  N   UNL A   1      31.482  24.537  25.744  1.00  0.00    -0.324 N 
ATOM     18  H   UNL A   1      31.022  23.849  26.278  1.00  0.00     0.169 HD
BRANCH  17  19
ATOM     19  C   UNL A   1      32.742  24.171  25.262  1.00  0.00     0.059 A 
ATOM     20  C   UNL A   1      33.893  24.790  25.723  1.00  0.00     0.029 A 
ATOM     21  C   UNL A   1      32.895  23.140  24.346  1.00  0.00     0.137 A 
ATOM     22  C   UNL A   1      35.126  24.480  25.156  1.00  0.00     0.022 A 
ATOM     23  N   UNL A   1      34.080  22.807  23.775  1.00  0.00    -0.263 NA
ATOM     24  C   UNL A   1      35.162  23.513  24.168  1.00  0.00     0.111 A 
ENDBRANCH  17  19
ENDBRANCH  13  15
ENDBRANCH   4   7
ENDBRANCH   2   3
ENDBRANCH   1   2
BRANCH   1  25
ATOM     25  C   UNL A   1      33.040  32.476  27.505  1.00  0.00     0.118 C 
BRANCH  25  26
ATOM     26  N   UNL A   1      32.909  33.907  27.770  1.00  0.00    -0.352 N 
ATOM     27  C   UNL A   1      33.519  34.678  28.726  1.00  0.00     0.251 C 
ATOM     28  H   UNL A   1      32.292  34.389  27.174  1.00  0.00     0.163 HD
ATOM     29  O   UNL A   1      33.127  35.826  28.928  1.00  0.00    -0.269 OA
BRANCH  27  30
ATOM     30  C   UNL A   1      34.627  34.111  29.516  1.00  0.00     0.039 A 
ATOM     31  C   UNL A   1      34.343  33.324  30.631  1.00  0.00     0.014 A 
ATOM     32  C   UNL A   1      35.950  34.337  29.130  1.00  0.00     0.014 A 
ATOM     33  C   UNL A   1      35.391  32.720  31.324  1.00  0.00     0.010 A 
ATOM     34  C   UNL A   1      36.973  33.625  29.730  1.00  0.00     0.010 A 
ATOM     35  C   UNL A   1      36.711  32.840  30.858  1.00  0.00    -0.014 A 
BRANCH  35  36
ATOM     36  C   UNL A   1      37.846  32.205  31.564  1.00  0.00     0.031 A 
ATOM     37  C   UNL A   1      38.273  32.734  32.908  1.00  0.00     0.074 A 
ATOM     38  C   UNL A   1      38.519  31.197  30.977  1.00  0.00     0.049 A 
ATOM     39  N   UNL A   1      39.263  32.347  33.670  1.00  0.00    -0.248 NA
ATOM     40  C   UNL A   1      37.512  33.873  33.452  1.00  0.00     0.031 C 
ATOM     41  C   UNL A   1      38.230  30.638  29.653  1.00  0.00     0.029 A 
ATOM     42  N   UNL A   1      39.587  30.462  31.420  1.00  0.00    -0.354 N 
ATOM     43  C   UNL A   1      39.252  33.205  34.763  1.00  0.00     0.074 A 
ATOM     44  C   UNL A   1      38.213  34.180  34.533  1.00  0.00     0.031 C 
ATOM     45  C   UNL A   1      39.066  29.616  29.415  1.00  0.00     0.029 A 
ATOM     46  C   UNL A   1      39.981  29.478  30.545  1.00  0.00     0.049 A 
ATOM     47  H   UNL A   1      40.032  30.622  32.284  1.00  0.00     0.167 HD
ATOM     48  C   UNL A   1      40.017  33.166  35.879  1.00  0.00     0.031 A 
ATOM     49  C   UNL A   1      40.965  28.565  30.643  1.00  0.00     0.031 A 
ATOM     50  C   UNL A   1      41.038  32.180  36.108  1.00  0.00     0.049 A 
ATOM     51  C   UNL A   1      41.806  28.540  31.891  1.00  0.00     0.074 A 
ATOM     52  C   UNL A   1      41.835  32.010  37.224  1.00  0.00     0.029 A 
ATOM     53  N   UNL A   1      41.401  31.196  35.199  1.00  0.00    -0.354 N 
ATOM     54  N   UNL A   1      41.736  29.315  32.948  1.00  0.00    -0.248 NA
ATOM     55  C   UNL A   1      42.847  27.508  31.965  1.00  0.00     0.031 C 
ATOM     56  C   UNL A   1      42.722  30.959  36.968  1.00  0.00     0.029 A 
ATOM     57  C   UNL A   1      42.428  30.430  35.720  1.00  0.00     0.049 A 
ATOM     58  H   UNL A   1      40.988  31.063  34.316  1.00  0.00     0.167 HD
ATOM     59  C   UNL A   1      42.705  28.844  33.827  1.00  0.00     0.074 A 
ATOM     60  C   UNL A   1      43.334  27.708  33.183  1.00  0.00     0.031 C 
ATOM     61  C   UNL A   1      43.041  29.305  35.058  1.00  0.00     0.031 A 
BRANCH  48  62
ATOM     62  C   UNL A   1      39.774  34.223  36.925  1.00  0.00    -0.014 A 
ATOM     63  C   UNL A   1      40.348  35.505  36.817  1.00  0.00     0.010 A 
ATOM     64  C   UNL A   1      38.952  33.936  38.029  1.00  0.00     0.010 A 
ATOM     65  C   UNL A   1      40.148  36.459  37.816  1.00  0.00     0.020 A 
ATOM     66  C   UNL A   1      38.720  34.901  39.016  1.00  0.00     0.020 A 
ATOM     67  C   UNL A   1      39.337  36.150  38.912  1.00  0.00     0.054 A 
BRANCH  67  68
ATOM     68  S   UNL A   1      39.085  37.413  40.188  1.00  0.00     0.124 S 
ATOM     69  O   UNL A   1      38.154  38.325  39.528  1.00  0.00    -0.237 OA
ATOM     70  O   UNL A   1      38.528  36.640  41.296  1.00  0.00    -0.237 OA
ATOM     71  O   UNL A   1      40.425  37.947  40.417  1.00  0.00    -0.744 OA
ENDBRANCH  67  68
ENDBRANCH  48  62
BRANCH  49  72
ATOM     72  C   UNL A   1      41.181  27.583  29.546  1.00  0.00    -0.014 A 
ATOM     73  C   UNL A   1      42.288  27.702  28.688  1.00  0.00     0.010 A 
ATOM     74  C   UNL A   1      40.295  26.503  29.371  1.00  0.00     0.010 A 
ATOM     75  C   UNL A   1      42.496  26.773  27.664  1.00  0.00     0.020 A 
ATOM     76  C   UNL A   1      40.516  25.555  28.368  1.00  0.00     0.020 A 
ATOM     77  C   UNL A   1      41.610  25.702  27.515  1.00  0.00     0.054 A 
BRANCH  77  78
ATOM     78  S   UNL A   1      41.934  24.477  26.216  1.00  0.00     0.124 S 
ATOM     79  O   UNL A   1      40.830  23.540  26.400  1.00  0.00    -0.237 OA
ATOM     80  O   UNL A   1      41.883  25.286  25.001  1.00  0.00    -0.237 OA
ATOM     81  O   UNL A   1      43.257  23.959  26.555  1.00  0.00    -0.744 OA
ENDBRANCH  77  78
ENDBRANCH  49  72
BRANCH  61  82
ATOM     82  C   UNL A   1      44.112  28.557  35.806  1.00  0.00    -0.014 A 
ATOM     83  C   UNL A   1      45.465  28.928  35.718  1.00  0.00     0.010 A 
ATOM     84  C   UNL A   1      43.745  27.496  36.655  1.00  0.00     0.010 A 
ATOM     85  C   UNL A   1      46.437  28.226  36.434  1.00  0.00     0.020 A 
ATOM     86  C   UNL A   1      44.710  26.813  37.398  1.00  0.00     0.020 A 
ATOM     87  C   UNL A   1      46.053  27.172  37.270  1.00  0.00     0.054 A 
BRANCH  87  88
ATOM     88  S   UNL A   1      47.329  26.300  38.216  1.00  0.00     0.124 S 
ATOM     89  O   UNL A   1      48.552  26.933  37.732  1.00  0.00    -0.237 OA
ATOM     90  O   UNL A   1      46.967  26.605  39.598  1.00  0.00    -0.237 OA
ATOM     91  O   UNL A   1      47.155  24.901  37.827  1.00  0.00    -0.744 OA
ENDBRANCH  87  88
ENDBRANCH  61  82
ENDBRANCH  35  36
ENDBRANCH  27  30
ENDBRANCH  25  26
ENDBRANCH   1  25
TORSDOF 15
ENDMDL
