MODEL 1
REMARK VINA RESULT:     -10.7      0.000      0.000
REMARK SMILES C[C@@H]1CC[C@@]1(SC1CCCCC1)C(=O)NCCCNC(=O)c1ccc(-c2c3nc(c(-c4ccc(S(=O)(=O)[O-])cc4)c4ccc([nH]4)c(-c4ccc(S(=O)(=O)[O-])cc4)c4nc(c(-c5ccc(S(=O)(=O)[O-])cc5)c5ccc2[nH]5)C=C4)C=C3)cc1
REMARK SMILES IDX 17 1 16 2 15 3 13 4 14 5 5 7 1 8 2 9 3 10 4 11 6 12 7 13
REMARK SMILES IDX 8 14 12 15 9 16 11 17 10 18 18 19 19 20 20 21 21 23 22 24
REMARK SMILES IDX 23 25 81 26 24 27 80 28 25 29 26 30 27 31 74 32 28 33 79 34
REMARK SMILES IDX 73 35 75 36 29 37 78 38 72 39 71 40 30 42 60 43 41 44 59 45
REMARK SMILES IDX 42 46 45 47 58 48 76 49 43 50 44 51 57 53 77 54 46 55 31 56
REMARK SMILES IDX 32 57 40 58 33 59 39 60 34 61 35 62 36 63 37 64 38 65 61 66
REMARK SMILES IDX 62 67 70 68 63 69 69 70 64 71 65 72 66 73 67 74 68 75 47 76
REMARK SMILES IDX 48 77 56 78 49 79 55 80 50 81 51 82 52 83 53 84 54 85
REMARK H PARENT 15 6 19 22 75 41 45 52
REMARK Flexibility Score: inf
ROOT
ATOM      1  C   UNL A   1      31.566  32.431  26.860  1.00  0.00     0.042 C 
ENDROOT
BRANCH   1   2
ATOM      2  C   UNL A   1      31.565  30.955  26.511  1.00  0.00     0.117 C 
BRANCH   2   3
ATOM      3  N   UNL A   1      32.870  30.356  26.692  1.00  0.00    -0.355 N 
ATOM      4  C   UNL A   1      33.355  29.136  26.280  1.00  0.00     0.236 C 
ATOM      5  O   UNL A   1      34.576  28.981  26.442  1.00  0.00    -0.273 OA
ATOM      6  H   UNL A   1      33.514  30.911  27.190  1.00  0.00     0.163 HD
BRANCH   4   7
ATOM      7  C   UNL A   1      32.411  28.025  25.680  1.00  0.00     0.097 C 
ATOM      8  C   UNL A   1      33.918  25.921  24.707  1.00  0.00     0.009 C 
ATOM      9  C   UNL A   1      33.115  26.585  25.813  1.00  0.00     0.012 C 
ATOM     10  C   UNL A   1      31.733  25.971  26.085  1.00  0.00     0.007 C 
ATOM     11  C   UNL A   1      31.241  27.368  26.478  1.00  0.00     0.028 C 
BRANCH   7  12
ATOM     12  S   UNL A   1      31.977  28.350  23.883  1.00  0.00    -0.141 SA
BRANCH  12  13
ATOM     13  C   UNL A   1      30.206  28.814  23.826  1.00  0.00     0.047 C 
ATOM     14  C   UNL A   1      29.987  30.270  23.407  1.00  0.00     0.014 C 
ATOM     15  C   UNL A   1      29.267  27.826  23.127  1.00  0.00     0.014 C 
ATOM     16  C   UNL A   1      28.514  30.666  23.485  1.00  0.00     0.001 C 
ATOM     17  C   UNL A   1      27.805  28.283  23.126  1.00  0.00     0.001 C 
ATOM     18  C   UNL A   1      27.653  29.725  22.652  1.00  0.00     0.000 C 
ENDBRANCH  12  13
ENDBRANCH   7  12
ENDBRANCH   4   7
ENDBRANCH   2   3
ENDBRANCH   1   2
BRANCH   1  19
ATOM     19  C   UNL A   1      32.901  32.899  27.422  1.00  0.00     0.118 C 
BRANCH  19  20
ATOM     20  N   UNL A   1      32.856  34.282  27.883  1.00  0.00    -0.352 N 
ATOM     21  C   UNL A   1      33.538  34.881  28.909  1.00  0.00     0.251 C 
ATOM     22  H   UNL A   1      32.245  34.871  27.384  1.00  0.00     0.163 HD
ATOM     23  O   UNL A   1      33.210  36.006  29.284  1.00  0.00    -0.269 OA
BRANCH  21  24
ATOM     24  C   UNL A   1      34.651  34.168  29.567  1.00  0.00     0.039 A 
ATOM     25  C   UNL A   1      35.956  34.393  29.126  1.00  0.00     0.014 A 
ATOM     26  C   UNL A   1      34.405  33.277  30.616  1.00  0.00     0.014 A 
ATOM     27  C   UNL A   1      37.019  33.760  29.773  1.00  0.00     0.010 A 
ATOM     28  C   UNL A   1      35.468  32.725  31.319  1.00  0.00     0.010 A 
ATOM     29  C   UNL A   1      36.785  32.945  30.894  1.00  0.00    -0.014 A 
BRANCH  29  30
ATOM     30  C   UNL A   1      37.905  32.295  31.617  1.00  0.00     0.031 A 
ATOM     31  C   UNL A   1      38.329  32.807  32.967  1.00  0.00     0.074 A 
ATOM     32  C   UNL A   1      38.573  31.279  31.035  1.00  0.00     0.049 A 
ATOM     33  N   UNL A   1      39.298  32.390  33.740  1.00  0.00    -0.248 NA
ATOM     34  C   UNL A   1      37.586  33.957  33.510  1.00  0.00     0.031 C 
ATOM     35  C   UNL A   1      38.288  30.728  29.708  1.00  0.00     0.029 A 
ATOM     36  N   UNL A   1      39.631  30.530  31.485  1.00  0.00    -0.354 N 
ATOM     37  C   UNL A   1      39.292  33.234  34.845  1.00  0.00     0.074 A 
ATOM     38  C   UNL A   1      38.264  34.224  34.615  1.00  0.00     0.031 C 
ATOM     39  C   UNL A   1      39.126  29.706  29.468  1.00  0.00     0.029 A 
ATOM     40  C   UNL A   1      40.034  29.559  30.601  1.00  0.00     0.049 A 
ATOM     41  H   UNL A   1      40.060  30.676  32.359  1.00  0.00     0.167 HD
ATOM     42  C   UNL A   1      40.058  33.177  35.961  1.00  0.00     0.031 A 
ATOM     43  C   UNL A   1      41.024  28.650  30.690  1.00  0.00     0.031 A 
ATOM     44  C   UNL A   1      41.074  32.184  36.185  1.00  0.00     0.049 A 
ATOM     45  C   UNL A   1      41.864  28.606  31.937  1.00  0.00     0.074 A 
ATOM     46  C   UNL A   1      41.864  32.001  37.306  1.00  0.00     0.029 A 
ATOM     47  N   UNL A   1      41.445  31.211  35.270  1.00  0.00    -0.354 N 
ATOM     48  N   UNL A   1      41.793  29.365  33.006  1.00  0.00    -0.248 NA
ATOM     49  C   UNL A   1      42.905  27.572  31.999  1.00  0.00     0.031 C 
ATOM     50  C   UNL A   1      42.756  30.957  37.043  1.00  0.00     0.029 A 
ATOM     51  C   UNL A   1      42.473  30.441  35.787  1.00  0.00     0.049 A 
ATOM     52  H   UNL A   1      41.038  31.085  34.382  1.00  0.00     0.167 HD
ATOM     53  C   UNL A   1      42.761  28.882  33.879  1.00  0.00     0.074 A 
ATOM     54  C   UNL A   1      43.391  27.756  33.219  1.00  0.00     0.031 C 
ATOM     55  C   UNL A   1      43.095  29.327  35.116  1.00  0.00     0.031 A 
BRANCH  42  56
ATOM     56  C   UNL A   1      39.830  34.231  37.015  1.00  0.00    -0.014 A 
ATOM     57  C   UNL A   1      40.431  35.501  36.922  1.00  0.00     0.010 A 
ATOM     58  C   UNL A   1      38.985  33.957  38.105  1.00  0.00     0.010 A 
ATOM     59  C   UNL A   1      40.230  36.456  37.923  1.00  0.00     0.020 A 
ATOM     60  C   UNL A   1      38.754  34.921  39.090  1.00  0.00     0.020 A 
ATOM     61  C   UNL A   1      39.395  36.157  39.003  1.00  0.00     0.054 A 
BRANCH  61  62
ATOM     62  S   UNL A   1      39.144  37.420  40.280  1.00  0.00     0.124 S 
ATOM     63  O   UNL A   1      38.531  36.643  41.355  1.00  0.00    -0.237 OA
ATOM     64  O   UNL A   1      40.503  37.887  40.540  1.00  0.00    -0.237 OA
ATOM     65  O   UNL A   1      38.265  38.395  39.638  1.00  0.00    -0.744 OA
ENDBRANCH  61  62
ENDBRANCH  42  56
BRANCH  43  66
ATOM     66  C   UNL A   1      41.257  27.697  29.569  1.00  0.00    -0.014 A 
ATOM     67  C   UNL A   1      42.337  27.878  28.687  1.00  0.00     0.010 A 
ATOM     68  C   UNL A   1      40.413  26.585  29.397  1.00  0.00     0.010 A 
ATOM     69  C   UNL A   1      42.561  26.971  27.646  1.00  0.00     0.020 A 
ATOM     70  C   UNL A   1      40.652  25.659  28.377  1.00  0.00     0.020 A 
ATOM     71  C   UNL A   1      41.720  25.864  27.502  1.00  0.00     0.054 A 
BRANCH  71  72
ATOM     72  S   UNL A   1      42.070  24.667  26.185  1.00  0.00     0.124 S 
ATOM     73  O   UNL A   1      43.438  24.266  26.494  1.00  0.00    -0.237 OA
ATOM     74  O   UNL A   1      41.044  23.650  26.404  1.00  0.00    -0.237 OA
ATOM     75  O   UNL A   1      41.907  25.449  24.961  1.00  0.00    -0.744 OA
ENDBRANCH  71  72
ENDBRANCH  43  66
BRANCH  55  76
ATOM     76  C   UNL A   1      44.168  28.572  35.856  1.00  0.00    -0.014 A 
ATOM     77  C   UNL A   1      45.529  28.887  35.701  1.00  0.00     0.010 A 
ATOM     78  C   UNL A   1      43.798  27.560  36.762  1.00  0.00     0.010 A 
ATOM     79  C   UNL A   1      46.503  28.175  36.405  1.00  0.00     0.020 A 
ATOM     80  C   UNL A   1      44.767  26.870  37.494  1.00  0.00     0.020 A 
ATOM     81  C   UNL A   1      46.116  27.171  37.298  1.00  0.00     0.054 A 
BRANCH  81  82
ATOM     82  S   UNL A   1      47.397  26.285  38.225  1.00  0.00     0.124 S 
ATOM     83  O   UNL A   1      46.690  25.922  39.450  1.00  0.00    -0.237 OA
ATOM     84  O   UNL A   1      47.724  25.173  37.336  1.00  0.00    -0.237 OA
ATOM     85  O   UNL A   1      48.458  27.277  38.389  1.00  0.00    -0.744 OA
ENDBRANCH  81  82
ENDBRANCH  55  76
ENDBRANCH  29  30
ENDBRANCH  21  24
ENDBRANCH  19  20
ENDBRANCH   1  19
TORSDOF 15
ENDMDL
MODEL 2
REMARK VINA RESULT:     -10.3      4.216      6.960
REMARK SMILES C[C@@H]1CC[C@@]1(SC1CCCCC1)C(=O)NCCCNC(=O)c1ccc(-c2c3nc(c(-c4ccc(S(=O)(=O)[O-])cc4)c4ccc([nH]4)c(-c4ccc(S(=O)(=O)[O-])cc4)c4nc(c(-c5ccc(S(=O)(=O)[O-])cc5)c5ccc2[nH]5)C=C4)C=C3)cc1
REMARK SMILES IDX 17 1 16 2 15 3 13 4 14 5 5 7 1 8 2 9 3 10 4 11 6 12 7 13
REMARK SMILES IDX 8 14 12 15 9 16 11 17 10 18 18 19 19 20 20 21 21 23 22 24
REMARK SMILES IDX 23 25 81 26 24 27 80 28 25 29 26 30 27 31 74 32 28 33 79 34
REMARK SMILES IDX 73 35 75 36 29 37 78 38 72 39 71 40 30 42 60 43 41 44 59 45
REMARK SMILES IDX 42 46 45 47 58 48 76 49 43 50 44 51 57 53 77 54 46 55 31 56
REMARK SMILES IDX 32 57 40 58 33 59 39 60 34 61 35 62 36 63 37 64 38 65 61 66
REMARK SMILES IDX 62 67 70 68 63 69 69 70 64 71 65 72 66 73 67 74 68 75 47 76
REMARK SMILES IDX 48 77 56 78 49 79 55 80 50 81 51 82 52 83 53 84 54 85
REMARK H PARENT 15 6 19 22 75 41 45 52
REMARK Flexibility Score: inf
ROOT
ATOM      1  C   UNL A   1      34.451  32.808  29.544  1.00  0.00     0.042 C 
ENDROOT
BRANCH   1   2
ATOM      2  C   UNL A   1      35.846  33.011  30.107  1.00  0.00     0.117 C 
BRANCH   2   3
ATOM      3  N   UNL A   1      36.201  31.976  31.054  1.00  0.00    -0.355 N 
ATOM      4  C   UNL A   1      36.663  32.072  32.347  1.00  0.00     0.236 C 
ATOM      5  O   UNL A   1      36.716  30.995  32.961  1.00  0.00    -0.273 OA
ATOM      6  H   UNL A   1      36.095  31.056  30.720  1.00  0.00     0.163 HD
BRANCH   4   7
ATOM      7  C   UNL A   1      37.113  33.450  32.969  1.00  0.00     0.097 C 
ATOM      8  C   UNL A   1      38.490  33.023  35.328  1.00  0.00     0.009 C 
ATOM      9  C   UNL A   1      38.459  33.244  33.825  1.00  0.00     0.012 C 
ATOM     10  C   UNL A   1      38.931  34.628  33.352  1.00  0.00     0.007 C 
ATOM     11  C   UNL A   1      37.943  34.516  32.187  1.00  0.00     0.028 C 
BRANCH   7  12
ATOM     12  S   UNL A   1      35.785  34.211  34.056  1.00  0.00    -0.141 SA
BRANCH  12  13
ATOM     13  C   UNL A   1      34.785  35.321  32.998  1.00  0.00     0.047 C 
ATOM     14  C   UNL A   1      33.624  34.599  32.310  1.00  0.00     0.014 C 
ATOM     15  C   UNL A   1      34.394  36.671  33.608  1.00  0.00     0.014 C 
ATOM     16  C   UNL A   1      32.881  35.516  31.341  1.00  0.00     0.001 C 
ATOM     17  C   UNL A   1      33.564  37.542  32.660  1.00  0.00     0.001 C 
ATOM     18  C   UNL A   1      32.396  36.775  32.048  1.00  0.00     0.000 C 
ENDBRANCH  12  13
ENDBRANCH   7  12
ENDBRANCH   4   7
ENDBRANCH   2   3
ENDBRANCH   1   2
BRANCH   1  19
ATOM     19  C   UNL A   1      34.448  32.648  28.030  1.00  0.00     0.118 C 
BRANCH  19  20
ATOM     20  N   UNL A   1      33.807  31.409  27.605  1.00  0.00    -0.352 N 
ATOM     21  C   UNL A   1      34.347  30.161  27.439  1.00  0.00     0.251 C 
ATOM     22  H   UNL A   1      32.846  31.480  27.407  1.00  0.00     0.163 HD
ATOM     23  O   UNL A   1      33.696  29.286  26.869  1.00  0.00    -0.269 OA
BRANCH  21  24
ATOM     24  C   UNL A   1      35.709  29.877  27.932  1.00  0.00     0.039 A 
ATOM     25  C   UNL A   1      35.871  29.341  29.211  1.00  0.00     0.014 A 
ATOM     26  C   UNL A   1      36.826  30.144  27.134  1.00  0.00     0.014 A 
ATOM     27  C   UNL A   1      37.151  29.026  29.668  1.00  0.00     0.010 A 
ATOM     28  C   UNL A   1      38.088  29.740  27.551  1.00  0.00     0.010 A 
ATOM     29  C   UNL A   1      38.267  29.195  28.830  1.00  0.00    -0.014 A 
BRANCH  29  30
ATOM     30  C   UNL A   1      39.631  28.829  29.284  1.00  0.00     0.031 A 
ATOM     31  C   UNL A   1      40.436  29.797  30.109  1.00  0.00     0.074 A 
ATOM     32  C   UNL A   1      40.163  27.649  28.909  1.00  0.00     0.049 A 
ATOM     33  N   UNL A   1      41.651  29.670  30.575  1.00  0.00    -0.248 NA
ATOM     34  C   UNL A   1      39.805  31.089  30.428  1.00  0.00     0.031 C 
ATOM     35  C   UNL A   1      39.500  26.649  28.068  1.00  0.00     0.029 A 
ATOM     36  N   UNL A   1      41.385  27.091  29.185  1.00  0.00    -0.354 N 
ATOM     37  C   UNL A   1      41.935  30.867  31.223  1.00  0.00     0.074 A 
ATOM     38  C   UNL A   1      40.790  31.730  31.039  1.00  0.00     0.031 C 
ATOM     39  C   UNL A   1      40.308  25.587  27.929  1.00  0.00     0.029 A 
ATOM     40  C   UNL A   1      41.562  25.847  28.630  1.00  0.00     0.049 A 
ATOM     41  H   UNL A   1      42.072  27.541  29.730  1.00  0.00     0.167 HD
ATOM     42  C   UNL A   1      43.040  31.209  31.928  1.00  0.00     0.031 A 
ATOM     43  C   UNL A   1      42.614  25.008  28.677  1.00  0.00     0.031 A 
ATOM     44  C   UNL A   1      44.172  30.342  32.113  1.00  0.00     0.049 A 
ATOM     45  C   UNL A   1      43.832  25.409  29.464  1.00  0.00     0.074 A 
ATOM     46  C   UNL A   1      45.315  30.568  32.860  1.00  0.00     0.029 A 
ATOM     47  N   UNL A   1      44.308  29.086  31.543  1.00  0.00    -0.354 N 
ATOM     48  N   UNL A   1      44.052  26.516  30.136  1.00  0.00    -0.248 NA
ATOM     49  C   UNL A   1      44.936  24.442  29.516  1.00  0.00     0.031 C 
ATOM     50  C   UNL A   1      46.169  29.475  32.690  1.00  0.00     0.029 A 
ATOM     51  C   UNL A   1      45.528  28.534  31.897  1.00  0.00     0.049 A 
ATOM     52  H   UNL A   1      43.637  28.648  30.972  1.00  0.00     0.167 HD
ATOM     53  C   UNL A   1      45.308  26.365  30.713  1.00  0.00     0.074 A 
ATOM     54  C   UNL A   1      45.790  25.055  30.325  1.00  0.00     0.031 C 
ATOM     55  C   UNL A   1      45.997  27.231  31.497  1.00  0.00     0.031 A 
BRANCH  42  56
ATOM     56  C   UNL A   1      43.077  32.588  32.538  1.00  0.00    -0.014 A 
ATOM     57  C   UNL A   1      42.501  32.848  33.795  1.00  0.00     0.010 A 
ATOM     58  C   UNL A   1      43.718  33.636  31.854  1.00  0.00     0.010 A 
ATOM     59  C   UNL A   1      42.521  34.138  34.332  1.00  0.00     0.020 A 
ATOM     60  C   UNL A   1      43.771  34.921  32.403  1.00  0.00     0.020 A 
ATOM     61  C   UNL A   1      43.153  35.168  33.630  1.00  0.00     0.054 A 
BRANCH  61  62
ATOM     62  S   UNL A   1      43.174  36.829  34.356  1.00  0.00     0.124 S 
ATOM     63  O   UNL A   1      44.340  36.759  35.234  1.00  0.00    -0.237 OA
ATOM     64  O   UNL A   1      43.322  37.688  33.185  1.00  0.00    -0.237 OA
ATOM     65  O   UNL A   1      41.886  36.927  35.039  1.00  0.00    -0.744 OA
ENDBRANCH  61  62
ENDBRANCH  42  56
BRANCH  43  66
ATOM     66  C   UNL A   1      42.548  23.697  27.973  1.00  0.00    -0.014 A 
ATOM     67  C   UNL A   1      43.001  23.572  26.648  1.00  0.00     0.010 A 
ATOM     68  C   UNL A   1      42.057  22.558  28.638  1.00  0.00     0.010 A 
ATOM     69  C   UNL A   1      42.952  22.336  25.996  1.00  0.00     0.020 A 
ATOM     70  C   UNL A   1      42.035  21.315  28.001  1.00  0.00     0.020 A 
ATOM     71  C   UNL A   1      42.475  21.213  26.679  1.00  0.00     0.054 A 
BRANCH  71  72
ATOM     72  S   UNL A   1      42.482  19.608  25.835  1.00  0.00     0.124 S 
ATOM     73  O   UNL A   1      42.869  18.700  26.910  1.00  0.00    -0.237 OA
ATOM     74  O   UNL A   1      41.101  19.491  25.371  1.00  0.00    -0.237 OA
ATOM     75  O   UNL A   1      43.473  19.784  24.775  1.00  0.00    -0.744 OA
ENDBRANCH  71  72
ENDBRANCH  43  66
BRANCH  55  76
ATOM     76  C   UNL A   1      47.335  26.776  32.020  1.00  0.00    -0.014 A 
ATOM     77  C   UNL A   1      47.447  26.047  33.217  1.00  0.00     0.010 A 
ATOM     78  C   UNL A   1      48.496  27.044  31.270  1.00  0.00     0.010 A 
ATOM     79  C   UNL A   1      48.699  25.631  33.676  1.00  0.00     0.020 A 
ATOM     80  C   UNL A   1      49.745  26.600  31.708  1.00  0.00     0.020 A 
ATOM     81  C   UNL A   1      49.840  25.910  32.918  1.00  0.00     0.054 A 
BRANCH  81  82
ATOM     82  S   UNL A   1      51.450  25.330  33.518  1.00  0.00     0.124 S 
ATOM     83  O   UNL A   1      51.067  24.243  34.415  1.00  0.00    -0.237 OA
ATOM     84  O   UNL A   1      52.122  24.921  32.287  1.00  0.00    -0.237 OA
ATOM     85  O   UNL A   1      52.022  26.505  34.173  1.00  0.00    -0.744 OA
ENDBRANCH  81  82
ENDBRANCH  55  76
ENDBRANCH  29  30
ENDBRANCH  21  24
ENDBRANCH  19  20
ENDBRANCH   1  19
TORSDOF 15
ENDMDL
MODEL 3
REMARK VINA RESULT:     -10.2      4.683      7.946
REMARK SMILES C[C@@H]1CC[C@@]1(SC1CCCCC1)C(=O)NCCCNC(=O)c1ccc(-c2c3nc(c(-c4ccc(S(=O)(=O)[O-])cc4)c4ccc([nH]4)c(-c4ccc(S(=O)(=O)[O-])cc4)c4nc(c(-c5ccc(S(=O)(=O)[O-])cc5)c5ccc2[nH]5)C=C4)C=C3)cc1
REMARK SMILES IDX 17 1 16 2 15 3 13 4 14 5 5 7 1 8 2 9 3 10 4 11 6 12 7 13
REMARK SMILES IDX 8 14 12 15 9 16 11 17 10 18 18 19 19 20 20 21 21 23 22 24
REMARK SMILES IDX 23 25 81 26 24 27 80 28 25 29 26 30 27 31 74 32 28 33 79 34
REMARK SMILES IDX 73 35 75 36 29 37 78 38 72 39 71 40 30 42 60 43 41 44 59 45
REMARK SMILES IDX 42 46 45 47 58 48 76 49 43 50 44 51 57 53 77 54 46 55 31 56
REMARK SMILES IDX 32 57 40 58 33 59 39 60 34 61 35 62 36 63 37 64 38 65 61 66
REMARK SMILES IDX 62 67 70 68 63 69 69 70 64 71 65 72 66 73 67 74 68 75 47 76
REMARK SMILES IDX 48 77 56 78 49 79 55 80 50 81 51 82 52 83 53 84 54 85
REMARK H PARENT 15 6 19 22 75 41 45 52
REMARK Flexibility Score: inf
ROOT
ATOM      1  C   UNL A   1      34.735  32.910  29.827  1.00  0.00     0.042 C 
ENDROOT
BRANCH   1   2
ATOM      2  C   UNL A   1      35.440  34.227  30.090  1.00  0.00     0.117 C 
BRANCH   2   3
ATOM      3  N   UNL A   1      35.310  34.643  31.470  1.00  0.00    -0.355 N 
ATOM      4  C   UNL A   1      36.239  34.663  32.486  1.00  0.00     0.236 C 
ATOM      5  O   UNL A   1      35.865  35.237  33.520  1.00  0.00    -0.273 OA
ATOM      6  H   UNL A   1      34.414  34.962  31.723  1.00  0.00     0.163 HD
BRANCH   4   7
ATOM      7  C   UNL A   1      37.652  33.978  32.335  1.00  0.00     0.097 C 
ATOM      8  C   UNL A   1      38.531  34.177  29.722  1.00  0.00     0.009 C 
ATOM      9  C   UNL A   1      38.476  34.689  31.151  1.00  0.00     0.012 C 
ATOM     10  C   UNL A   1      39.760  34.494  31.972  1.00  0.00     0.007 C 
ATOM     11  C   UNL A   1      38.884  34.346  33.220  1.00  0.00     0.028 C 
BRANCH   7  12
ATOM     12  S   UNL A   1      37.521  32.137  31.994  1.00  0.00    -0.141 SA
BRANCH  12  13
ATOM     13  C   UNL A   1      38.132  31.263  33.483  1.00  0.00     0.047 C 
ATOM     14  C   UNL A   1      39.632  30.968  33.425  1.00  0.00     0.014 C 
ATOM     15  C   UNL A   1      37.667  31.816  34.834  1.00  0.00     0.014 C 
ATOM     16  C   UNL A   1      40.092  30.134  34.619  1.00  0.00     0.001 C 
ATOM     17  C   UNL A   1      38.216  31.029  36.028  1.00  0.00     0.001 C 
ATOM     18  C   UNL A   1      39.723  30.813  35.931  1.00  0.00     0.000 C 
ENDBRANCH  12  13
ENDBRANCH   7  12
ENDBRANCH   4   7
ENDBRANCH   2   3
ENDBRANCH   1   2
BRANCH   1  19
ATOM     19  C   UNL A   1      34.737  32.530  28.353  1.00  0.00     0.118 C 
BRANCH  19  20
ATOM     20  N   UNL A   1      34.059  31.263  28.106  1.00  0.00    -0.352 N 
ATOM     21  C   UNL A   1      34.588  30.009  27.941  1.00  0.00     0.251 C 
ATOM     22  H   UNL A   1      33.078  31.315  28.048  1.00  0.00     0.163 HD
ATOM     23  O   UNL A   1      33.873  29.096  27.529  1.00  0.00    -0.269 OA
BRANCH  21  24
ATOM     24  C   UNL A   1      36.012  29.765  28.245  1.00  0.00     0.039 A 
ATOM     25  C   UNL A   1      36.369  29.331  29.523  1.00  0.00     0.014 A 
ATOM     26  C   UNL A   1      36.993  29.970  27.270  1.00  0.00     0.014 A 
ATOM     27  C   UNL A   1      37.707  29.053  29.805  1.00  0.00     0.010 A 
ATOM     28  C   UNL A   1      38.308  29.600  27.523  1.00  0.00     0.010 A 
ATOM     29  C   UNL A   1      38.683  29.157  28.799  1.00  0.00    -0.014 A 
BRANCH  29  30
ATOM     30  C   UNL A   1      40.104  28.828  29.070  1.00  0.00     0.031 A 
ATOM     31  C   UNL A   1      41.015  29.863  29.673  1.00  0.00     0.074 A 
ATOM     32  C   UNL A   1      40.585  27.617  28.725  1.00  0.00     0.049 A 
ATOM     33  N   UNL A   1      42.288  29.775  29.957  1.00  0.00    -0.248 NA
ATOM     34  C   UNL A   1      40.427  31.181  29.969  1.00  0.00     0.031 C 
ATOM     35  C   UNL A   1      39.811  26.549  28.087  1.00  0.00     0.029 A 
ATOM     36  N   UNL A   1      41.840  27.082  28.859  1.00  0.00    -0.354 N 
ATOM     37  C   UNL A   1      42.656  31.023  30.446  1.00  0.00     0.074 A 
ATOM     38  C   UNL A   1      41.487  31.870  30.362  1.00  0.00     0.031 C 
ATOM     39  C   UNL A   1      40.600  25.475  27.921  1.00  0.00     0.029 A 
ATOM     40  C   UNL A   1      41.943  25.793  28.397  1.00  0.00     0.049 A 
ATOM     41  H   UNL A   1      42.597  27.577  29.251  1.00  0.00     0.167 HD
ATOM     42  C   UNL A   1      43.851  31.424  30.940  1.00  0.00     0.031 A 
ATOM     43  C   UNL A   1      42.999  24.958  28.357  1.00  0.00     0.031 A 
ATOM     44  C   UNL A   1      45.007  30.572  31.027  1.00  0.00     0.049 A 
ATOM     45  C   UNL A   1      44.317  25.423  28.911  1.00  0.00     0.074 A 
ATOM     46  C   UNL A   1      46.248  30.860  31.567  1.00  0.00     0.029 A 
ATOM     47  N   UNL A   1      45.067  29.269  30.557  1.00  0.00    -0.354 N 
ATOM     48  N   UNL A   1      44.626  26.585  29.439  1.00  0.00    -0.248 NA
ATOM     49  C   UNL A   1      45.426  24.460  28.879  1.00  0.00     0.031 C 
ATOM     50  C   UNL A   1      47.078  29.753  31.366  1.00  0.00     0.029 A 
ATOM     51  C   UNL A   1      46.333  28.747  30.768  1.00  0.00     0.049 A 
ATOM     52  H   UNL A   1      44.321  28.785  30.136  1.00  0.00     0.167 HD
ATOM     53  C   UNL A   1      45.957  26.482  29.829  1.00  0.00     0.074 A 
ATOM     54  C   UNL A   1      46.387  25.141  29.490  1.00  0.00     0.031 C 
ATOM     55  C   UNL A   1      46.749  27.412  30.418  1.00  0.00     0.031 A 
BRANCH  42  56
ATOM     56  C   UNL A   1      43.967  32.851  31.412  1.00  0.00    -0.014 A 
ATOM     57  C   UNL A   1      44.476  33.860  30.572  1.00  0.00     0.010 A 
ATOM     58  C   UNL A   1      43.538  33.196  32.706  1.00  0.00     0.010 A 
ATOM     59  C   UNL A   1      44.601  35.173  31.035  1.00  0.00     0.020 A 
ATOM     60  C   UNL A   1      43.630  34.514  33.162  1.00  0.00     0.020 A 
ATOM     61  C   UNL A   1      44.180  35.490  32.330  1.00  0.00     0.054 A 
BRANCH  61  62
ATOM     62  S   UNL A   1      44.343  37.204  32.899  1.00  0.00     0.124 S 
ATOM     63  O   UNL A   1      45.766  37.457  32.689  1.00  0.00    -0.237 OA
ATOM     64  O   UNL A   1      43.439  37.925  32.007  1.00  0.00    -0.237 OA
ATOM     65  O   UNL A   1      43.920  37.148  34.297  1.00  0.00    -0.744 OA
ENDBRANCH  61  62
ENDBRANCH  42  56
BRANCH  43  66
ATOM     66  C   UNL A   1      42.839  23.589  27.791  1.00  0.00    -0.014 A 
ATOM     67  C   UNL A   1      42.405  22.525  28.600  1.00  0.00     0.010 A 
ATOM     68  C   UNL A   1      43.096  23.351  26.428  1.00  0.00     0.010 A 
ATOM     69  C   UNL A   1      42.240  21.245  28.060  1.00  0.00     0.020 A 
ATOM     70  C   UNL A   1      42.904  22.081  25.877  1.00  0.00     0.020 A 
ATOM     71  C   UNL A   1      42.486  21.033  26.700  1.00  0.00     0.054 A 
BRANCH  71  72
ATOM     72  S   UNL A   1      42.204  19.380  26.009  1.00  0.00     0.124 S 
ATOM     73  O   UNL A   1      42.661  18.516  27.092  1.00  0.00    -0.237 OA
ATOM     74  O   UNL A   1      40.763  19.384  25.764  1.00  0.00    -0.237 OA
ATOM     75  O   UNL A   1      43.031  19.368  24.804  1.00  0.00    -0.744 OA
ENDBRANCH  71  72
ENDBRANCH  43  66
BRANCH  55  76
ATOM     76  C   UNL A   1      48.155  27.001  30.769  1.00  0.00    -0.014 A 
ATOM     77  C   UNL A   1      48.454  26.375  31.992  1.00  0.00     0.010 A 
ATOM     78  C   UNL A   1      49.187  27.204  29.834  1.00  0.00     0.010 A 
ATOM     79  C   UNL A   1      49.766  25.997  32.290  1.00  0.00     0.020 A 
ATOM     80  C   UNL A   1      50.493  26.796  30.113  1.00  0.00     0.020 A 
ATOM     81  C   UNL A   1      50.777  26.210  31.348  1.00  0.00     0.054 A 
BRANCH  81  82
ATOM     82  S   UNL A   1      52.465  25.681  31.744  1.00  0.00     0.124 S 
ATOM     83  O   UNL A   1      52.824  26.594  32.826  1.00  0.00    -0.237 OA
ATOM     84  O   UNL A   1      52.279  24.286  32.135  1.00  0.00    -0.237 OA
ATOM     85  O   UNL A   1      53.195  25.880  30.494  1.00  0.00    -0.744 OA
ENDBRANCH  81  82
ENDBRANCH  55  76
ENDBRANCH  29  30
ENDBRANCH  21  24
ENDBRANCH  19  20
ENDBRANCH   1  19
TORSDOF 15
ENDMDL
