MODEL 1
REMARK VINA RESULT:     -14.8      0.000      0.000
REMARK SMILES Cc1cccc(-c2ncc(C[NH+]3CCC4(CC3)NC(=O)C[C@H]4C(=O)NCCCNC(=O)c3ccc(-c4c5nc(c(-c6ccc(S(=O)(=O)[O-])cc6)c6ccc([nH]6)c(-c6ccc(S(=O)(=O)[O-])cc6)c6nc(c(-c7ccc(S(=O)(=O)[O-])cc7)c7ccc4[nH]7)C=C6)C=C5)cc3)cn2)c1
REMARK SMILES IDX 27 1 26 2 25 3 23 4 24 5 22 7 12 8 13 9 17 10 14 12 16 13
REMARK SMILES IDX 15 14 18 15 19 16 21 18 20 19 11 20 10 21 7 22 8 23 93 24
REMARK SMILES IDX 9 25 92 26 6 27 1 28 2 29 3 30 94 31 4 32 5 33 28 34 29 35
REMARK SMILES IDX 30 36 31 38 32 39 33 40 91 41 34 42 90 43 35 44 36 45 37 46
REMARK SMILES IDX 84 47 38 48 89 49 83 50 85 51 39 52 88 53 82 54 81 55 40 57
REMARK SMILES IDX 70 58 51 59 69 60 52 61 55 62 68 63 86 64 53 65 54 66 67 68
REMARK SMILES IDX 87 69 56 70 41 71 42 72 50 73 43 74 49 75 44 76 45 77 46 78
REMARK SMILES IDX 47 79 48 80 71 81 72 82 80 83 73 84 79 85 74 86 75 87 76 88
REMARK SMILES IDX 77 89 78 90 57 91 58 92 66 93 59 94 65 95 60 96 61 97 62 98
REMARK SMILES IDX 63 99 64 100
REMARK H PARENT 25 6 12 11 18 17 29 37 85 56 55 67
REMARK Flexibility Score: inf
ROOT
ATOM      1  C   UNL A   1      32.666  29.708  25.574  1.00  0.00     0.042 C 
ENDROOT
BRANCH   1   2
ATOM      2  C   UNL A   1      31.259  30.134  25.164  1.00  0.00     0.117 C 
BRANCH   2   3
ATOM      3  N   UNL A   1      30.763  29.591  23.892  1.00  0.00    -0.356 N 
ATOM      4  C   UNL A   1      31.123  28.558  23.077  1.00  0.00     0.226 C 
ATOM      5  O   UNL A   1      30.373  28.323  22.119  1.00  0.00    -0.275 OA
ATOM      6  H   UNL A   1      29.990  30.092  23.545  1.00  0.00     0.163 HD
BRANCH   4   7
ATOM      7  C   UNL A   1      32.409  27.720  23.197  1.00  0.00     0.114 C 
ATOM      8  N   UNL A   1      31.968  25.355  26.602  1.00  0.00    -0.331 N 
ATOM      9  C   UNL A   1      33.302  25.611  26.077  1.00  0.00     0.264 C 
ATOM     10  C   UNL A   1      31.010  26.274  26.016  1.00  0.00     0.264 C 
ATOM     11  H   UNL A   1      32.062  25.562  27.596  1.00  0.00     0.348 HD
ATOM     12  C   UNL A   1      33.444  25.704  24.553  1.00  0.00     0.091 C 
ATOM     13  C   UNL A   1      30.925  26.114  24.512  1.00  0.00     0.091 C 
ATOM     14  C   UNL A   1      32.240  26.285  23.744  1.00  0.00     0.063 C 
ATOM     15  N   UNL A   1      32.267  25.526  22.502  1.00  0.00    -0.349 N 
ATOM     16  C   UNL A   1      32.908  26.165  21.461  1.00  0.00     0.221 C 
ATOM     17  H   UNL A   1      31.862  24.633  22.412  1.00  0.00     0.164 HD
ATOM     18  C   UNL A   1      33.131  27.599  21.853  1.00  0.00     0.116 C 
ATOM     19  O   UNL A   1      33.248  25.648  20.421  1.00  0.00    -0.275 OA
BRANCH   8  20
ATOM     20  C   UNL A   1      31.502  23.968  26.803  1.00  0.00     0.302 C 
BRANCH  20  21
ATOM     21  C   UNL A   1      32.175  22.873  26.019  1.00  0.00     0.043 A 
ATOM     22  C   UNL A   1      32.974  20.550  24.832  1.00  0.00     0.159 A 
ATOM     23  N   UNL A   1      32.054  21.305  24.196  1.00  0.00    -0.236 NA
ATOM     24  N   UNL A   1      33.607  20.925  25.961  1.00  0.00    -0.236 NA
ATOM     25  C   UNL A   1      31.715  22.470  24.785  1.00  0.00     0.124 A 
ATOM     26  C   UNL A   1      33.193  22.083  26.530  1.00  0.00     0.124 A 
BRANCH  22  27
ATOM     27  C   UNL A   1      33.198  19.192  24.315  1.00  0.00     0.019 A 
ATOM     28  C   UNL A   1      35.168  16.034  25.261  1.00  0.00     0.044 C 
ATOM     29  C   UNL A   1      34.245  16.969  24.532  1.00  0.00    -0.050 A 
ATOM     30  C   UNL A   1      33.640  16.575  23.341  1.00  0.00     0.003 A 
ATOM     31  C   UNL A   1      33.994  18.262  25.017  1.00  0.00     0.015 A 
ATOM     32  C   UNL A   1      32.840  17.470  22.630  1.00  0.00     0.001 A 
ATOM     33  C   UNL A   1      32.636  18.772  23.104  1.00  0.00     0.012 A 
ENDBRANCH  22  27
ENDBRANCH  20  21
ENDBRANCH   8  20
ENDBRANCH   4   7
ENDBRANCH   2   3
ENDBRANCH   1   2
BRANCH   1  34
ATOM     34  C   UNL A   1      33.021  29.904  27.041  1.00  0.00     0.118 C 
BRANCH  34  35
ATOM     35  N   UNL A   1      33.836  31.110  27.198  1.00  0.00    -0.352 N 
ATOM     36  C   UNL A   1      34.961  31.335  27.965  1.00  0.00     0.251 C 
ATOM     37  H   UNL A   1      33.534  31.885  26.671  1.00  0.00     0.163 HD
ATOM     38  O   UNL A   1      35.324  32.435  28.358  1.00  0.00    -0.269 OA
BRANCH  36  39
ATOM     39  C   UNL A   1      35.845  30.176  28.135  1.00  0.00     0.039 A 
ATOM     40  C   UNL A   1      35.890  29.656  29.439  1.00  0.00     0.014 A 
ATOM     41  C   UNL A   1      36.890  30.035  27.234  1.00  0.00     0.014 A 
ATOM     42  C   UNL A   1      37.100  29.220  29.938  1.00  0.00     0.010 A 
ATOM     43  C   UNL A   1      38.113  29.731  27.767  1.00  0.00     0.010 A 
ATOM     44  C   UNL A   1      38.212  29.380  29.124  1.00  0.00    -0.014 A 
BRANCH  44  45
ATOM     45  C   UNL A   1      39.561  29.114  29.551  1.00  0.00     0.031 A 
ATOM     46  C   UNL A   1      40.121  27.835  29.095  1.00  0.00     0.074 A 
ATOM     47  C   UNL A   1      40.252  30.106  30.148  1.00  0.00     0.049 A 
ATOM     48  N   UNL A   1      41.159  27.278  29.595  1.00  0.00    -0.248 NA
ATOM     49  C   UNL A   1      39.494  27.033  28.040  1.00  0.00     0.031 C 
ATOM     50  C   UNL A   1      41.690  30.236  30.338  1.00  0.00     0.029 A 
ATOM     51  N   UNL A   1      39.718  31.144  30.908  1.00  0.00    -0.354 N 
ATOM     52  C   UNL A   1      41.535  26.285  28.716  1.00  0.00     0.074 A 
ATOM     53  C   UNL A   1      40.409  26.083  27.845  1.00  0.00     0.031 C 
ATOM     54  C   UNL A   1      41.921  31.104  31.344  1.00  0.00     0.029 A 
ATOM     55  C   UNL A   1      40.630  31.434  31.933  1.00  0.00     0.049 A 
ATOM     56  H   UNL A   1      38.855  31.593  30.753  1.00  0.00     0.167 HD
ATOM     57  C   UNL A   1      42.836  25.895  28.718  1.00  0.00     0.031 A 
ATOM     58  C   UNL A   1      40.284  31.148  33.227  1.00  0.00     0.031 A 
ATOM     59  C   UNL A   1      43.549  26.557  29.808  1.00  0.00     0.049 A 
ATOM     60  C   UNL A   1      41.108  30.005  33.792  1.00  0.00     0.074 A 
ATOM     61  C   UNL A   1      44.338  27.694  29.850  1.00  0.00     0.029 A 
ATOM     62  N   UNL A   1      43.141  26.308  31.112  1.00  0.00    -0.354 N 
ATOM     63  N   UNL A   1      41.677  29.078  33.067  1.00  0.00    -0.248 NA
ATOM     64  C   UNL A   1      41.418  29.870  35.211  1.00  0.00     0.031 C 
ATOM     65  C   UNL A   1      44.325  28.179  31.187  1.00  0.00     0.029 A 
ATOM     66  C   UNL A   1      43.551  27.323  31.955  1.00  0.00     0.049 A 
ATOM     67  H   UNL A   1      42.630  25.516  31.398  1.00  0.00     0.167 HD
ATOM     68  C   UNL A   1      42.455  28.278  33.867  1.00  0.00     0.074 A 
ATOM     69  C   UNL A   1      42.247  28.810  35.203  1.00  0.00     0.031 C 
ATOM     70  C   UNL A   1      43.232  27.264  33.375  1.00  0.00     0.031 A 
BRANCH  57  71
ATOM     71  C   UNL A   1      43.515  25.188  27.573  1.00  0.00    -0.014 A 
ATOM     72  C   UNL A   1      43.461  23.780  27.537  1.00  0.00     0.010 A 
ATOM     73  C   UNL A   1      44.248  25.812  26.545  1.00  0.00     0.010 A 
ATOM     74  C   UNL A   1      44.132  23.033  26.563  1.00  0.00     0.020 A 
ATOM     75  C   UNL A   1      44.941  25.074  25.570  1.00  0.00     0.020 A 
ATOM     76  C   UNL A   1      44.876  23.685  25.586  1.00  0.00     0.054 A 
BRANCH  76  77
ATOM     77  S   UNL A   1      45.724  22.691  24.335  1.00  0.00     0.124 S 
ATOM     78  O   UNL A   1      44.633  22.320  23.437  1.00  0.00    -0.237 OA
ATOM     79  O   UNL A   1      46.694  23.637  23.790  1.00  0.00    -0.237 OA
ATOM     80  O   UNL A   1      46.298  21.585  25.099  1.00  0.00    -0.744 OA
ENDBRANCH  76  77
ENDBRANCH  57  71
BRANCH  58  81
ATOM     81  C   UNL A   1      38.839  31.435  33.511  1.00  0.00    -0.014 A 
ATOM     82  C   UNL A   1      38.520  32.749  33.931  1.00  0.00     0.010 A 
ATOM     83  C   UNL A   1      37.817  30.647  32.955  1.00  0.00     0.010 A 
ATOM     84  C   UNL A   1      37.276  33.317  33.637  1.00  0.00     0.020 A 
ATOM     85  C   UNL A   1      36.560  31.212  32.672  1.00  0.00     0.020 A 
ATOM     86  C   UNL A   1      36.321  32.559  32.963  1.00  0.00     0.054 A 
BRANCH  86  87
ATOM     87  S   UNL A   1      34.852  33.417  32.311  1.00  0.00     0.124 S 
ATOM     88  O   UNL A   1      35.445  34.447  31.464  1.00  0.00    -0.237 OA
ATOM     89  O   UNL A   1      34.150  32.348  31.598  1.00  0.00    -0.237 OA
ATOM     90  O   UNL A   1      34.181  33.900  33.513  1.00  0.00    -0.744 OA
ENDBRANCH  86  87
ENDBRANCH  58  81
BRANCH  70  91
ATOM     91  C   UNL A   1      43.854  26.141  34.182  1.00  0.00    -0.014 A 
ATOM     92  C   UNL A   1      43.133  25.104  34.784  1.00  0.00     0.010 A 
ATOM     93  C   UNL A   1      45.270  26.040  34.239  1.00  0.00     0.010 A 
ATOM     94  C   UNL A   1      43.779  24.067  35.469  1.00  0.00     0.020 A 
ATOM     95  C   UNL A   1      45.927  24.975  34.856  1.00  0.00     0.020 A 
ATOM     96  C   UNL A   1      45.172  24.010  35.501  1.00  0.00     0.054 A 
BRANCH  96  97
ATOM     97  S   UNL A   1      45.979  22.642  36.361  1.00  0.00     0.124 S 
ATOM     98  O   UNL A   1      45.284  21.487  35.799  1.00  0.00    -0.237 OA
ATOM     99  O   UNL A   1      47.376  22.791  35.959  1.00  0.00    -0.237 OA
ATOM    100  O   UNL A   1      45.709  22.910  37.771  1.00  0.00    -0.744 OA
ENDBRANCH  96  97
ENDBRANCH  70  91
ENDBRANCH  44  45
ENDBRANCH  36  39
ENDBRANCH  34  35
ENDBRANCH   1  34
TORSDOF 16
ENDMDL
MODEL 2
REMARK VINA RESULT:     -14.7      1.993      2.666
REMARK SMILES Cc1cccc(-c2ncc(C[NH+]3CCC4(CC3)NC(=O)C[C@H]4C(=O)NCCCNC(=O)c3ccc(-c4c5nc(c(-c6ccc(S(=O)(=O)[O-])cc6)c6ccc([nH]6)c(-c6ccc(S(=O)(=O)[O-])cc6)c6nc(c(-c7ccc(S(=O)(=O)[O-])cc7)c7ccc4[nH]7)C=C6)C=C5)cc3)cn2)c1
REMARK SMILES IDX 27 1 26 2 25 3 23 4 24 5 22 7 12 8 13 9 17 10 14 12 16 13
REMARK SMILES IDX 15 14 18 15 19 16 21 18 20 19 11 20 10 21 7 22 8 23 93 24
REMARK SMILES IDX 9 25 92 26 6 27 1 28 2 29 3 30 94 31 4 32 5 33 28 34 29 35
REMARK SMILES IDX 30 36 31 38 32 39 33 40 91 41 34 42 90 43 35 44 36 45 37 46
REMARK SMILES IDX 84 47 38 48 89 49 83 50 85 51 39 52 88 53 82 54 81 55 40 57
REMARK SMILES IDX 70 58 51 59 69 60 52 61 55 62 68 63 86 64 53 65 54 66 67 68
REMARK SMILES IDX 87 69 56 70 41 71 42 72 50 73 43 74 49 75 44 76 45 77 46 78
REMARK SMILES IDX 47 79 48 80 71 81 72 82 80 83 73 84 79 85 74 86 75 87 76 88
REMARK SMILES IDX 77 89 78 90 57 91 58 92 66 93 59 94 65 95 60 96 61 97 62 98
REMARK SMILES IDX 63 99 64 100
REMARK H PARENT 25 6 12 11 18 17 29 37 85 56 55 67
REMARK Flexibility Score: inf
ROOT
ATOM      1  C   UNL A   1      33.563  30.529  26.616  1.00  0.00     0.042 C 
ENDROOT
BRANCH   1   2
ATOM      2  C   UNL A   1      32.392  29.600  26.304  1.00  0.00     0.117 C 
BRANCH   2   3
ATOM      3  N   UNL A   1      31.898  29.624  24.921  1.00  0.00    -0.356 N 
ATOM      4  C   UNL A   1      32.097  28.856  23.812  1.00  0.00     0.226 C 
ATOM      5  O   UNL A   1      31.395  29.118  22.825  1.00  0.00    -0.275 OA
ATOM      6  H   UNL A   1      31.279  30.372  24.755  1.00  0.00     0.163 HD
BRANCH   4   7
ATOM      7  C   UNL A   1      33.163  27.756  23.654  1.00  0.00     0.114 C 
ATOM      8  N   UNL A   1      32.450  24.976  26.678  1.00  0.00    -0.331 N 
ATOM      9  C   UNL A   1      33.764  25.031  26.053  1.00  0.00     0.264 C 
ATOM     10  C   UNL A   1      31.686  26.165  26.354  1.00  0.00     0.264 C 
ATOM     11  H   UNL A   1      32.663  24.979  27.676  1.00  0.00     0.348 HD
ATOM     12  C   UNL A   1      33.808  25.359  24.556  1.00  0.00     0.091 C 
ATOM     13  C   UNL A   1      31.454  26.295  24.862  1.00  0.00     0.091 C 
ATOM     14  C   UNL A   1      32.712  26.316  23.988  1.00  0.00     0.063 C 
ATOM     15  N   UNL A   1      32.471  25.800  22.648  1.00  0.00    -0.349 N 
ATOM     16  C   UNL A   1      33.162  26.461  21.653  1.00  0.00     0.221 C 
ATOM     17  H   UNL A   1      31.868  25.044  22.466  1.00  0.00     0.164 HD
ATOM     18  C   UNL A   1      33.735  27.723  22.235  1.00  0.00     0.116 C 
ATOM     19  O   UNL A   1      33.296  26.075  20.514  1.00  0.00    -0.275 OA
BRANCH   8  20
ATOM     20  C   UNL A   1      31.696  23.706  26.713  1.00  0.00     0.302 C 
BRANCH  20  21
ATOM     21  C   UNL A   1      32.339  22.483  26.116  1.00  0.00     0.043 A 
ATOM     22  C   UNL A   1      33.023  19.994  25.233  1.00  0.00     0.159 A 
ATOM     23  N   UNL A   1      32.283  20.776  24.419  1.00  0.00    -0.236 NA
ATOM     24  N   UNL A   1      33.542  20.405  26.406  1.00  0.00    -0.236 NA
ATOM     25  C   UNL A   1      32.002  22.017  24.864  1.00  0.00     0.124 A 
ATOM     26  C   UNL A   1      33.188  21.645  26.822  1.00  0.00     0.124 A 
BRANCH  22  27
ATOM     27  C   UNL A   1      33.160  18.579  24.857  1.00  0.00     0.019 A 
ATOM     28  C   UNL A   1      32.206  15.124  26.236  1.00  0.00     0.044 C 
ATOM     29  C   UNL A   1      32.740  16.194  25.326  1.00  0.00    -0.050 A 
ATOM     30  C   UNL A   1      33.409  15.852  24.154  1.00  0.00     0.003 A 
ATOM     31  C   UNL A   1      32.600  17.552  25.647  1.00  0.00     0.015 A 
ATOM     32  C   UNL A   1      33.964  16.846  23.347  1.00  0.00     0.001 A 
ATOM     33  C   UNL A   1      33.856  18.196  23.705  1.00  0.00     0.012 A 
ENDBRANCH  22  27
ENDBRANCH  20  21
ENDBRANCH   8  20
ENDBRANCH   4   7
ENDBRANCH   2   3
ENDBRANCH   1   2
BRANCH   1  34
ATOM     34  C   UNL A   1      34.838  29.853  27.103  1.00  0.00     0.118 C 
BRANCH  34  35
ATOM     35  N   UNL A   1      35.838  30.867  27.442  1.00  0.00    -0.352 N 
ATOM     36  C   UNL A   1      37.006  30.762  28.171  1.00  0.00     0.251 C 
ATOM     37  H   UNL A   1      35.649  31.768  27.094  1.00  0.00     0.163 HD
ATOM     38  O   UNL A   1      37.550  31.693  28.748  1.00  0.00    -0.269 OA
BRANCH  36  39
ATOM     39  C   UNL A   1      37.699  29.472  28.061  1.00  0.00     0.039 A 
ATOM     40  C   UNL A   1      37.658  28.681  29.221  1.00  0.00     0.014 A 
ATOM     41  C   UNL A   1      38.713  29.373  27.120  1.00  0.00     0.014 A 
ATOM     42  C   UNL A   1      38.784  27.968  29.577  1.00  0.00     0.010 A 
ATOM     43  C   UNL A   1      39.872  28.778  27.538  1.00  0.00     0.010 A 
ATOM     44  C   UNL A   1      39.910  28.131  28.784  1.00  0.00    -0.014 A 
BRANCH  44  45
ATOM     45  C   UNL A   1      41.200  27.577  29.103  1.00  0.00     0.031 A 
ATOM     46  C   UNL A   1      41.377  26.161  28.753  1.00  0.00     0.074 A 
ATOM     47  C   UNL A   1      42.178  28.415  29.503  1.00  0.00     0.049 A 
ATOM     48  N   UNL A   1      42.308  25.411  29.209  1.00  0.00    -0.248 NA
ATOM     49  C   UNL A   1      40.449  25.447  27.871  1.00  0.00     0.031 C 
ATOM     50  C   UNL A   1      43.617  28.198  29.531  1.00  0.00     0.029 A 
ATOM     51  N   UNL A   1      42.007  29.619  30.181  1.00  0.00    -0.354 N 
ATOM     52  C   UNL A   1      42.322  24.278  28.425  1.00  0.00     0.074 A 
ATOM     53  C   UNL A   1      41.079  24.284  27.702  1.00  0.00     0.031 C 
ATOM     54  C   UNL A   1      44.173  29.070  30.396  1.00  0.00     0.029 A 
ATOM     55  C   UNL A   1      43.084  29.766  31.067  1.00  0.00     0.049 A 
ATOM     56  H   UNL A   1      41.263  30.254  30.060  1.00  0.00     0.167 HD
ATOM     57  C   UNL A   1      43.483  23.577  28.344  1.00  0.00     0.031 A 
ATOM     58  C   UNL A   1      42.847  29.697  32.414  1.00  0.00     0.031 A 
ATOM     59  C   UNL A   1      44.464  24.137  29.269  1.00  0.00     0.049 A 
ATOM     60  C   UNL A   1      43.439  28.443  33.028  1.00  0.00     0.074 A 
ATOM     61  C   UNL A   1      45.500  25.040  29.093  1.00  0.00     0.029 A 
ATOM     62  N   UNL A   1      44.178  24.121  30.628  1.00  0.00    -0.354 N 
ATOM     63  N   UNL A   1      43.675  27.339  32.368  1.00  0.00    -0.248 NA
ATOM     64  C   UNL A   1      43.886  28.366  34.415  1.00  0.00     0.031 C 
ATOM     65  C   UNL A   1      45.772  25.634  30.356  1.00  0.00     0.029 A 
ATOM     66  C   UNL A   1      44.921  25.075  31.295  1.00  0.00     0.049 A 
ATOM     67  H   UNL A   1      43.533  23.513  31.057  1.00  0.00     0.167 HD
ATOM     68  C   UNL A   1      44.335  26.448  33.177  1.00  0.00     0.074 A 
ATOM     69  C   UNL A   1      44.431  27.137  34.453  1.00  0.00     0.031 C 
ATOM     70  C   UNL A   1      44.779  25.231  32.738  1.00  0.00     0.031 A 
BRANCH  57  71
ATOM     71  C   UNL A   1      43.823  22.619  27.231  1.00  0.00    -0.014 A 
ATOM     72  C   UNL A   1      42.937  21.552  26.980  1.00  0.00     0.010 A 
ATOM     73  C   UNL A   1      44.985  22.666  26.437  1.00  0.00     0.010 A 
ATOM     74  C   UNL A   1      43.209  20.565  26.027  1.00  0.00     0.020 A 
ATOM     75  C   UNL A   1      45.281  21.672  25.489  1.00  0.00     0.020 A 
ATOM     76  C   UNL A   1      44.386  20.626  25.289  1.00  0.00     0.054 A 
BRANCH  76  77
ATOM     77  S   UNL A   1      44.705  19.340  24.057  1.00  0.00     0.124 S 
ATOM     78  O   UNL A   1      44.482  20.048  22.800  1.00  0.00    -0.237 OA
ATOM     79  O   UNL A   1      46.091  18.976  24.339  1.00  0.00    -0.237 OA
ATOM     80  O   UNL A   1      43.717  18.308  24.368  1.00  0.00    -0.744 OA
ENDBRANCH  76  77
ENDBRANCH  57  71
BRANCH  58  81
ATOM     81  C   UNL A   1      41.560  30.362  32.804  1.00  0.00    -0.014 A 
ATOM     82  C   UNL A   1      40.473  29.513  33.121  1.00  0.00     0.010 A 
ATOM     83  C   UNL A   1      41.540  31.680  33.293  1.00  0.00     0.010 A 
ATOM     84  C   UNL A   1      39.496  29.906  34.043  1.00  0.00     0.020 A 
ATOM     85  C   UNL A   1      40.550  32.082  34.208  1.00  0.00     0.020 A 
ATOM     86  C   UNL A   1      39.570  31.172  34.620  1.00  0.00     0.054 A 
BRANCH  86  87
ATOM     87  S   UNL A   1      38.489  31.529  36.041  1.00  0.00     0.124 S 
ATOM     88  O   UNL A   1      37.326  32.134  35.401  1.00  0.00    -0.237 OA
ATOM     89  O   UNL A   1      38.267  30.199  36.614  1.00  0.00    -0.237 OA
ATOM     90  O   UNL A   1      39.295  32.426  36.863  1.00  0.00    -0.744 OA
ENDBRANCH  86  87
ENDBRANCH  58  81
BRANCH  70  91
ATOM     91  C   UNL A   1      45.214  24.068  33.608  1.00  0.00    -0.014 A 
ATOM     92  C   UNL A   1      46.540  23.798  33.965  1.00  0.00     0.010 A 
ATOM     93  C   UNL A   1      44.220  23.258  34.219  1.00  0.00     0.010 A 
ATOM     94  C   UNL A   1      46.865  22.736  34.819  1.00  0.00     0.020 A 
ATOM     95  C   UNL A   1      44.525  22.244  35.128  1.00  0.00     0.020 A 
ATOM     96  C   UNL A   1      45.855  21.966  35.395  1.00  0.00     0.054 A 
BRANCH  96  97
ATOM     97  S   UNL A   1      46.300  20.626  36.520  1.00  0.00     0.124 S 
ATOM     98  O   UNL A   1      45.670  19.476  35.876  1.00  0.00    -0.237 OA
ATOM     99  O   UNL A   1      47.760  20.646  36.479  1.00  0.00    -0.237 OA
ATOM    100  O   UNL A   1      45.712  21.031  37.794  1.00  0.00    -0.744 OA
ENDBRANCH  96  97
ENDBRANCH  70  91
ENDBRANCH  44  45
ENDBRANCH  36  39
ENDBRANCH  34  35
ENDBRANCH   1  34
TORSDOF 16
ENDMDL
MODEL 3
REMARK VINA RESULT:     -12.6      5.905     14.065
REMARK SMILES Cc1cccc(-c2ncc(C[NH+]3CCC4(CC3)NC(=O)C[C@H]4C(=O)NCCCNC(=O)c3ccc(-c4c5nc(c(-c6ccc(S(=O)(=O)[O-])cc6)c6ccc([nH]6)c(-c6ccc(S(=O)(=O)[O-])cc6)c6nc(c(-c7ccc(S(=O)(=O)[O-])cc7)c7ccc4[nH]7)C=C6)C=C5)cc3)cn2)c1
REMARK SMILES IDX 27 1 26 2 25 3 23 4 24 5 22 7 12 8 13 9 17 10 14 12 16 13
REMARK SMILES IDX 15 14 18 15 19 16 21 18 20 19 11 20 10 21 7 22 8 23 93 24
REMARK SMILES IDX 9 25 92 26 6 27 1 28 2 29 3 30 94 31 4 32 5 33 28 34 29 35
REMARK SMILES IDX 30 36 31 38 32 39 33 40 91 41 34 42 90 43 35 44 36 45 37 46
REMARK SMILES IDX 84 47 38 48 89 49 83 50 85 51 39 52 88 53 82 54 81 55 40 57
REMARK SMILES IDX 70 58 51 59 69 60 52 61 55 62 68 63 86 64 53 65 54 66 67 68
REMARK SMILES IDX 87 69 56 70 41 71 42 72 50 73 43 74 49 75 44 76 45 77 46 78
REMARK SMILES IDX 47 79 48 80 71 81 72 82 80 83 73 84 79 85 74 86 75 87 76 88
REMARK SMILES IDX 77 89 78 90 57 91 58 92 66 93 59 94 65 95 60 96 61 97 62 98
REMARK SMILES IDX 63 99 64 100
REMARK H PARENT 25 6 12 11 18 17 29 37 85 56 55 67
REMARK Flexibility Score: inf
ROOT
ATOM      1  C   UNL A   1      43.836  24.745  28.860  1.00  0.00     0.042 C 
ENDROOT
BRANCH   1   2
ATOM      2  C   UNL A   1      44.086  24.771  30.366  1.00  0.00     0.117 C 
BRANCH   2   3
ATOM      3  N   UNL A   1      44.762  25.964  30.891  1.00  0.00    -0.356 N 
ATOM      4  C   UNL A   1      44.738  26.647  32.071  1.00  0.00     0.226 C 
ATOM      5  O   UNL A   1      45.559  27.566  32.195  1.00  0.00    -0.275 OA
ATOM      6  H   UNL A   1      45.377  26.367  30.236  1.00  0.00     0.163 HD
BRANCH   4   7
ATOM      7  C   UNL A   1      43.733  26.431  33.219  1.00  0.00     0.114 C 
ATOM      8  N   UNL A   1      44.449  22.604  34.711  1.00  0.00    -0.331 N 
ATOM      9  C   UNL A   1      43.163  23.239  34.959  1.00  0.00     0.264 C 
ATOM     10  C   UNL A   1      45.168  23.310  33.667  1.00  0.00     0.264 C 
ATOM     11  H   UNL A   1      44.193  21.678  34.371  1.00  0.00     0.348 HD
ATOM     12  C   UNL A   1      43.167  24.757  35.181  1.00  0.00     0.091 C 
ATOM     13  C   UNL A   1      45.458  24.746  34.055  1.00  0.00     0.091 C 
ATOM     14  C   UNL A   1      44.239  25.600  34.419  1.00  0.00     0.063 C 
ATOM     15  N   UNL A   1      44.562  26.666  35.358  1.00  0.00    -0.349 N 
ATOM     16  C   UNL A   1      43.884  27.846  35.131  1.00  0.00     0.221 C 
ATOM     17  H   UNL A   1      45.208  26.555  36.092  1.00  0.00     0.164 HD
ATOM     18  C   UNL A   1      43.225  27.760  33.782  1.00  0.00     0.116 C 
ATOM     19  O   UNL A   1      43.818  28.778  35.899  1.00  0.00    -0.275 OA
BRANCH   8  20
ATOM     20  C   UNL A   1      45.262  22.106  35.840  1.00  0.00     0.302 C 
BRANCH  20  21
ATOM     21  C   UNL A   1      46.671  21.659  35.556  1.00  0.00     0.043 A 
ATOM     22  C   UNL A   1      49.213  21.279  34.641  1.00  0.00     0.159 A 
ATOM     23  N   UNL A   1      49.023  22.163  35.643  1.00  0.00    -0.236 NA
ATOM     24  N   UNL A   1      48.244  20.488  34.141  1.00  0.00    -0.236 NA
ATOM     25  C   UNL A   1      47.763  22.293  36.105  1.00  0.00     0.124 A 
ATOM     26  C   UNL A   1      46.991  20.696  34.612  1.00  0.00     0.124 A 
BRANCH  22  27
ATOM     27  C   UNL A   1      50.531  21.278  33.991  1.00  0.00     0.019 A 
ATOM     28  C   UNL A   1      53.550  18.937  33.594  1.00  0.00     0.044 C 
ATOM     29  C   UNL A   1      52.646  20.128  33.449  1.00  0.00    -0.050 A 
ATOM     30  C   UNL A   1      53.070  21.253  32.746  1.00  0.00     0.003 A 
ATOM     31  C   UNL A   1      51.372  20.146  34.038  1.00  0.00     0.015 A 
ATOM     32  C   UNL A   1      52.255  22.384  32.673  1.00  0.00     0.001 A 
ATOM     33  C   UNL A   1      51.006  22.402  33.305  1.00  0.00     0.012 A 
ENDBRANCH  22  27
ENDBRANCH  20  21
ENDBRANCH   8  20
ENDBRANCH   4   7
ENDBRANCH   2   3
ENDBRANCH   1   2
BRANCH   1  34
ATOM     34  C   UNL A   1      42.615  25.514  28.374  1.00  0.00     0.118 C 
BRANCH  34  35
ATOM     35  N   UNL A   1      41.662  24.591  27.754  1.00  0.00    -0.352 N 
ATOM     36  C   UNL A   1      40.291  24.502  27.882  1.00  0.00     0.251 C 
ATOM     37  H   UNL A   1      42.064  23.927  27.148  1.00  0.00     0.163 HD
ATOM     38  O   UNL A   1      39.639  23.488  27.678  1.00  0.00    -0.269 OA
BRANCH  36  39
ATOM     39  C   UNL A   1      39.599  25.779  28.096  1.00  0.00     0.039 A 
ATOM     40  C   UNL A   1      39.851  26.757  27.119  1.00  0.00     0.014 A 
ATOM     41  C   UNL A   1      39.232  26.094  29.396  1.00  0.00     0.014 A 
ATOM     42  C   UNL A   1      39.997  28.070  27.518  1.00  0.00     0.010 A 
ATOM     43  C   UNL A   1      39.508  27.368  29.812  1.00  0.00     0.010 A 
ATOM     44  C   UNL A   1      39.939  28.325  28.880  1.00  0.00    -0.014 A 
BRANCH  44  45
ATOM     45  C   UNL A   1      40.218  29.611  29.465  1.00  0.00     0.031 A 
ATOM     46  C   UNL A   1      39.158  30.615  29.304  1.00  0.00     0.074 A 
ATOM     47  C   UNL A   1      41.304  29.734  30.255  1.00  0.00     0.049 A 
ATOM     48  N   UNL A   1      39.318  31.873  29.475  1.00  0.00    -0.248 NA
ATOM     49  C   UNL A   1      37.803  30.265  28.868  1.00  0.00     0.031 C 
ATOM     50  C   UNL A   1      41.613  30.767  31.234  1.00  0.00     0.029 A 
ATOM     51  N   UNL A   1      42.483  28.999  30.159  1.00  0.00    -0.354 N 
ATOM     52  C   UNL A   1      38.057  32.426  29.539  1.00  0.00     0.074 A 
ATOM     53  C   UNL A   1      37.161  31.423  29.029  1.00  0.00     0.031 C 
ATOM     54  C   UNL A   1      42.942  30.773  31.457  1.00  0.00     0.029 A 
ATOM     55  C   UNL A   1      43.544  29.849  30.505  1.00  0.00     0.049 A 
ATOM     56  H   UNL A   1      42.558  28.053  29.896  1.00  0.00     0.167 HD
ATOM     57  C   UNL A   1      37.912  33.600  30.205  1.00  0.00     0.031 A 
ATOM     58  C   UNL A   1      44.437  30.222  29.537  1.00  0.00     0.031 A 
ATOM     59  C   UNL A   1      39.223  34.108  30.602  1.00  0.00     0.049 A 
ATOM     60  C   UNL A   1      44.312  31.694  29.191  1.00  0.00     0.074 A 
ATOM     61  C   UNL A   1      39.935  34.021  31.787  1.00  0.00     0.029 A 
ATOM     62  N   UNL A   1      40.142  34.418  29.608  1.00  0.00    -0.354 N 
ATOM     63  N   UNL A   1      43.225  32.401  29.359  1.00  0.00    -0.248 NA
ATOM     64  C   UNL A   1      45.429  32.498  28.705  1.00  0.00     0.031 C 
ATOM     65  C   UNL A   1      41.312  34.194  31.475  1.00  0.00     0.029 A 
ATOM     66  C   UNL A   1      41.428  34.410  30.112  1.00  0.00     0.049 A 
ATOM     67  H   UNL A   1      39.909  34.616  28.672  1.00  0.00     0.167 HD
ATOM     68  C   UNL A   1      43.484  33.720  29.078  1.00  0.00     0.074 A 
ATOM     69  C   UNL A   1      44.876  33.723  28.661  1.00  0.00     0.031 C 
ATOM     70  C   UNL A   1      42.555  34.711  29.237  1.00  0.00     0.031 A 
BRANCH  57  71
ATOM     71  C   UNL A   1      36.607  34.109  30.760  1.00  0.00    -0.014 A 
ATOM     72  C   UNL A   1      35.568  34.400  29.853  1.00  0.00     0.010 A 
ATOM     73  C   UNL A   1      36.340  34.369  32.118  1.00  0.00     0.010 A 
ATOM     74  C   UNL A   1      34.352  34.955  30.264  1.00  0.00     0.020 A 
ATOM     75  C   UNL A   1      35.131  34.945  32.545  1.00  0.00     0.020 A 
ATOM     76  C   UNL A   1      34.142  35.233  31.611  1.00  0.00     0.054 A 
BRANCH  76  77
ATOM     77  S   UNL A   1      32.555  35.943  32.112  1.00  0.00     0.124 S 
ATOM     78  O   UNL A   1      32.034  36.466  30.852  1.00  0.00    -0.237 OA
ATOM     79  O   UNL A   1      31.852  34.782  32.651  1.00  0.00    -0.237 OA
ATOM     80  O   UNL A   1      32.924  36.958  33.097  1.00  0.00    -0.744 OA
ENDBRANCH  76  77
ENDBRANCH  57  71
BRANCH  58  81
ATOM     81  C   UNL A   1      44.753  29.104  28.588  1.00  0.00    -0.014 A 
ATOM     82  C   UNL A   1      44.137  29.153  27.314  1.00  0.00     0.010 A 
ATOM     83  C   UNL A   1      45.920  28.333  28.734  1.00  0.00     0.010 A 
ATOM     84  C   UNL A   1      44.763  28.606  26.189  1.00  0.00     0.020 A 
ATOM     85  C   UNL A   1      46.542  27.768  27.605  1.00  0.00     0.020 A 
ATOM     86  C   UNL A   1      45.989  27.960  26.335  1.00  0.00     0.054 A 
BRANCH  86  87
ATOM     87  S   UNL A   1      46.925  27.552  24.827  1.00  0.00     0.124 S 
ATOM     88  O   UNL A   1      48.298  27.504  25.319  1.00  0.00    -0.237 OA
ATOM     89  O   UNL A   1      46.355  26.259  24.439  1.00  0.00    -0.237 OA
ATOM     90  O   UNL A   1      46.616  28.657  23.927  1.00  0.00    -0.744 OA
ENDBRANCH  86  87
ENDBRANCH  58  81
BRANCH  70  91
ATOM     91  C   UNL A   1      42.630  36.112  28.659  1.00  0.00    -0.014 A 
ATOM     92  C   UNL A   1      42.031  36.505  27.457  1.00  0.00     0.010 A 
ATOM     93  C   UNL A   1      43.234  37.141  29.429  1.00  0.00     0.010 A 
ATOM     94  C   UNL A   1      42.095  37.831  27.010  1.00  0.00     0.020 A 
ATOM     95  C   UNL A   1      43.241  38.478  29.030  1.00  0.00     0.020 A 
ATOM     96  C   UNL A   1      42.700  38.809  27.799  1.00  0.00     0.054 A 
BRANCH  96  97
ATOM     97  S   UNL A   1      42.737  40.516  27.215  1.00  0.00     0.124 S 
ATOM     98  O   UNL A   1      43.504  40.390  25.978  1.00  0.00    -0.237 OA
ATOM     99  O   UNL A   1      41.319  40.827  27.044  1.00  0.00    -0.237 OA
ATOM    100  O   UNL A   1      43.402  41.240  28.294  1.00  0.00    -0.744 OA
ENDBRANCH  96  97
ENDBRANCH  70  91
ENDBRANCH  44  45
ENDBRANCH  36  39
ENDBRANCH  34  35
ENDBRANCH   1  34
TORSDOF 16
ENDMDL
