MODEL 1
REMARK VINA RESULT:     -10.1      0.000      0.000
REMARK SMILES [NH3+][C@@H](C(=O)NCCCNC(=O)c1ccc(-c2c3nc(c(-c4ccc(S(=O)(=O)[O-])cc4)c4ccc([nH]4)c(-c4ccc(S(=O)(=O)[O-])cc4)c4nc(c(-c5ccc(S(=O)(=O)[O-])cc5)c5ccc2[nH]5)C=C4)C=C3)cc1)[C@@H](O)c1cccs1
REMARK SMILES IDX 7 1 6 2 5 3 3 4 4 5 2 7 1 8 72 12 73 13 74 15 75 16 78 17
REMARK SMILES IDX 76 18 77 19 8 20 9 21 10 22 11 24 12 25 13 26 71 27 14 28
REMARK SMILES IDX 70 29 15 30 16 31 17 32 64 33 18 34 69 35 63 36 65 37 19 38
REMARK SMILES IDX 68 39 62 40 61 41 20 43 50 44 31 45 49 46 32 47 35 48 48 49
REMARK SMILES IDX 66 50 33 51 34 52 47 54 67 55 36 56 21 57 22 58 30 59 23 60
REMARK SMILES IDX 29 61 24 62 25 63 26 64 27 65 28 66 51 67 52 68 60 69 53 70
REMARK SMILES IDX 59 71 54 72 55 73 56 74 57 75 58 76 37 77 38 78 46 79 39 80
REMARK SMILES IDX 45 81 40 82 41 83 42 84 43 85 44 86
REMARK H PARENT 5 6 1 9 1 10 1 11 73 14 9 23 65 42 35 53
REMARK Flexibility Score: inf
ROOT
ATOM      1  C   UNL A   1      34.423  34.575  28.191  1.00  0.00     0.042 C 
ENDROOT
BRANCH   1   2
ATOM      2  C   UNL A   1      33.073  34.882  28.834  1.00  0.00     0.118 C 
BRANCH   2   3
ATOM      3  N   UNL A   1      33.094  36.164  29.515  1.00  0.00    -0.351 N 
ATOM      4  C   UNL A   1      33.029  36.448  30.850  1.00  0.00     0.281 C 
ATOM      5  O   UNL A   1      32.857  37.622  31.183  1.00  0.00    -0.268 OA
ATOM      6  H   UNL A   1      33.165  36.950  28.926  1.00  0.00     0.163 HD
BRANCH   4   7
ATOM      7  C   UNL A   1      33.113  35.303  31.871  1.00  0.00     0.305 C 
BRANCH   7   8
ATOM      8  N   UNL A   1      31.947  35.373  32.808  1.00  0.00    -0.345 N 
ATOM      9  H   UNL A   1      31.517  36.296  32.747  1.00  0.00     0.345 HD
ATOM     10  H   UNL A   1      32.268  35.211  33.762  1.00  0.00     0.345 HD
ATOM     11  H   UNL A   1      31.263  34.662  32.553  1.00  0.00     0.345 HD
ENDBRANCH   7   8
BRANCH   7  12
ATOM     12  C   UNL A   1      34.426  35.393  32.686  1.00  0.00     0.222 C 
BRANCH  12  13
ATOM     13  O   UNL A   1      34.124  35.846  34.014  1.00  0.00    -0.381 OA
ATOM     14  H   UNL A   1      33.761  35.111  34.532  1.00  0.00     0.211 HD
ENDBRANCH  12  13
BRANCH  12  15
ATOM     15  C   UNL A   1      35.202  34.110  32.835  1.00  0.00     0.040 A 
ATOM     16  C   UNL A   1      34.959  32.918  32.174  1.00  0.00     0.018 A 
ATOM     17  S   UNL A   1      36.540  33.955  33.899  1.00  0.00    -0.146 S 
ATOM     18  C   UNL A   1      35.829  31.871  32.585  1.00  0.00     0.012 A 
ATOM     19  C   UNL A   1      36.727  32.296  33.537  1.00  0.00     0.065 A 
ENDBRANCH  12  15
ENDBRANCH   7  12
ENDBRANCH   4   7
ENDBRANCH   2   3
ENDBRANCH   1   2
BRANCH   1  20
ATOM     20  C   UNL A   1      34.983  33.196  28.534  1.00  0.00     0.118 C 
BRANCH  20  21
ATOM     21  N   UNL A   1      34.102  32.113  28.124  1.00  0.00    -0.352 N 
ATOM     22  C   UNL A   1      34.380  30.790  27.887  1.00  0.00     0.251 C 
ATOM     23  H   UNL A   1      33.160  32.368  27.997  1.00  0.00     0.163 HD
ATOM     24  O   UNL A   1      33.517  30.078  27.372  1.00  0.00    -0.269 OA
BRANCH  22  25
ATOM     25  C   UNL A   1      35.705  30.221  28.217  1.00  0.00     0.039 A 
ATOM     26  C   UNL A   1      36.690  30.199  27.226  1.00  0.00     0.014 A 
ATOM     27  C   UNL A   1      35.979  29.696  29.483  1.00  0.00     0.014 A 
ATOM     28  C   UNL A   1      37.971  29.728  27.529  1.00  0.00     0.010 A 
ATOM     29  C   UNL A   1      37.274  29.287  29.802  1.00  0.00     0.010 A 
ATOM     30  C   UNL A   1      38.287  29.312  28.832  1.00  0.00    -0.014 A 
BRANCH  30  31
ATOM     31  C   UNL A   1      39.682  28.956  29.205  1.00  0.00     0.031 A 
ATOM     32  C   UNL A   1      40.584  29.959  29.871  1.00  0.00     0.074 A 
ATOM     33  C   UNL A   1      40.158  27.735  28.880  1.00  0.00     0.049 A 
ATOM     34  N   UNL A   1      41.841  29.833  30.217  1.00  0.00    -0.248 NA
ATOM     35  C   UNL A   1      40.011  31.280  30.174  1.00  0.00     0.031 C 
ATOM     36  C   UNL A   1      39.397  26.685  28.197  1.00  0.00     0.029 A 
ATOM     37  N   UNL A   1      41.395  27.171  29.073  1.00  0.00    -0.354 N 
ATOM     38  C   UNL A   1      42.212  31.057  30.763  1.00  0.00     0.074 A 
ATOM     39  C   UNL A   1      41.059  31.925  30.670  1.00  0.00     0.031 C 
ATOM     40  C   UNL A   1      40.175  25.601  28.050  1.00  0.00     0.029 A 
ATOM     41  C   UNL A   1      41.502  25.891  28.582  1.00  0.00     0.049 A 
ATOM     42  H   UNL A   1      42.136  27.640  29.521  1.00  0.00     0.167 HD
ATOM     43  C   UNL A   1      43.400  31.418  31.304  1.00  0.00     0.031 A 
ATOM     44  C   UNL A   1      42.552  25.046  28.547  1.00  0.00     0.031 A 
ATOM     45  C   UNL A   1      44.543  30.547  31.404  1.00  0.00     0.049 A 
ATOM     46  C   UNL A   1      43.866  25.485  29.135  1.00  0.00     0.074 A 
ATOM     47  C   UNL A   1      45.768  30.806  31.997  1.00  0.00     0.029 A 
ATOM     48  N   UNL A   1      44.610  29.259  30.897  1.00  0.00    -0.354 N 
ATOM     49  N   UNL A   1      44.169  26.619  29.719  1.00  0.00    -0.248 NA
ATOM     50  C   UNL A   1      44.978  24.526  29.064  1.00  0.00     0.031 C 
ATOM     51  C   UNL A   1      46.596  29.698  31.793  1.00  0.00     0.029 A 
ATOM     52  C   UNL A   1      45.866  28.724  31.131  1.00  0.00     0.049 A 
ATOM     53  H   UNL A   1      43.874  28.793  30.438  1.00  0.00     0.167 HD
ATOM     54  C   UNL A   1      45.498  26.499  30.108  1.00  0.00     0.074 A 
ATOM     55  C   UNL A   1      45.933  25.175  29.714  1.00  0.00     0.031 C 
ATOM     56  C   UNL A   1      46.289  27.405  30.734  1.00  0.00     0.031 A 
BRANCH  43  57
ATOM     57  C   UNL A   1      43.541  32.822  31.831  1.00  0.00    -0.014 A 
ATOM     58  C   UNL A   1      43.254  33.125  33.174  1.00  0.00     0.010 A 
ATOM     59  C   UNL A   1      44.060  33.831  30.998  1.00  0.00     0.010 A 
ATOM     60  C   UNL A   1      43.467  34.415  33.669  1.00  0.00     0.020 A 
ATOM     61  C   UNL A   1      44.297  35.115  31.495  1.00  0.00     0.020 A 
ATOM     62  C   UNL A   1      43.991  35.401  32.827  1.00  0.00     0.054 A 
BRANCH  62  63
ATOM     63  S   UNL A   1      44.313  37.049  33.514  1.00  0.00     0.124 S 
ATOM     64  O   UNL A   1      45.337  36.763  34.515  1.00  0.00    -0.237 OA
ATOM     65  O   UNL A   1      44.769  37.799  32.346  1.00  0.00    -0.237 OA
ATOM     66  O   UNL A   1      43.018  37.462  34.050  1.00  0.00    -0.744 OA
ENDBRANCH  62  63
ENDBRANCH  43  57
BRANCH  44  67
ATOM     67  C   UNL A   1      42.414  23.702  27.920  1.00  0.00    -0.014 A 
ATOM     68  C   UNL A   1      41.859  22.628  28.638  1.00  0.00     0.010 A 
ATOM     69  C   UNL A   1      42.863  23.484  26.604  1.00  0.00     0.010 A 
ATOM     70  C   UNL A   1      41.788  21.354  28.066  1.00  0.00     0.020 A 
ATOM     71  C   UNL A   1      42.763  22.220  26.017  1.00  0.00     0.020 A 
ATOM     72  C   UNL A   1      42.244  21.157  26.759  1.00  0.00     0.054 A 
BRANCH  72  73
ATOM     73  S   UNL A   1      42.126  19.502  26.029  1.00  0.00     0.124 S 
ATOM     74  O   UNL A   1      42.989  19.625  24.858  1.00  0.00    -0.237 OA
ATOM     75  O   UNL A   1      42.630  18.647  27.101  1.00  0.00    -0.237 OA
ATOM     76  O   UNL A   1      40.700  19.356  25.745  1.00  0.00    -0.744 OA
ENDBRANCH  72  73
ENDBRANCH  44  67
BRANCH  56  77
ATOM     77  C   UNL A   1      47.699  26.989  31.057  1.00  0.00    -0.014 A 
ATOM     78  C   UNL A   1      48.012  26.349  32.268  1.00  0.00     0.010 A 
ATOM     79  C   UNL A   1      48.720  27.201  30.111  1.00  0.00     0.010 A 
ATOM     80  C   UNL A   1      49.326  25.958  32.544  1.00  0.00     0.020 A 
ATOM     81  C   UNL A   1      50.028  26.784  30.369  1.00  0.00     0.020 A 
ATOM     82  C   UNL A   1      50.325  26.178  31.592  1.00  0.00     0.054 A 
BRANCH  82  83
ATOM     83  S   UNL A   1      52.013  25.625  31.956  1.00  0.00     0.124 S 
ATOM     84  O   UNL A   1      51.837  24.182  32.095  1.00  0.00    -0.237 OA
ATOM     85  O   UNL A   1      52.754  26.058  30.775  1.00  0.00    -0.237 OA
ATOM     86  O   UNL A   1      52.351  26.332  33.190  1.00  0.00    -0.744 OA
ENDBRANCH  82  83
ENDBRANCH  56  77
ENDBRANCH  30  31
ENDBRANCH  22  25
ENDBRANCH  20  21
ENDBRANCH   1  20
TORSDOF 17
ENDMDL
MODEL 2
REMARK VINA RESULT:      -9.9      1.919      2.457
REMARK SMILES [NH3+][C@@H](C(=O)NCCCNC(=O)c1ccc(-c2c3nc(c(-c4ccc(S(=O)(=O)[O-])cc4)c4ccc([nH]4)c(-c4ccc(S(=O)(=O)[O-])cc4)c4nc(c(-c5ccc(S(=O)(=O)[O-])cc5)c5ccc2[nH]5)C=C4)C=C3)cc1)[C@@H](O)c1cccs1
REMARK SMILES IDX 7 1 6 2 5 3 3 4 4 5 2 7 1 8 72 12 73 13 74 15 75 16 78 17
REMARK SMILES IDX 76 18 77 19 8 20 9 21 10 22 11 24 12 25 13 26 71 27 14 28
REMARK SMILES IDX 70 29 15 30 16 31 17 32 64 33 18 34 69 35 63 36 65 37 19 38
REMARK SMILES IDX 68 39 62 40 61 41 20 43 50 44 31 45 49 46 32 47 35 48 48 49
REMARK SMILES IDX 66 50 33 51 34 52 47 54 67 55 36 56 21 57 22 58 30 59 23 60
REMARK SMILES IDX 29 61 24 62 25 63 26 64 27 65 28 66 51 67 52 68 60 69 53 70
REMARK SMILES IDX 59 71 54 72 55 73 56 74 57 75 58 76 37 77 38 78 46 79 39 80
REMARK SMILES IDX 45 81 40 82 41 83 42 84 43 85 44 86
REMARK H PARENT 5 6 1 9 1 10 1 11 73 14 9 23 65 42 35 53
REMARK Flexibility Score: inf
ROOT
ATOM      1  C   UNL A   1      34.301  34.529  28.138  1.00  0.00     0.042 C 
ENDROOT
BRANCH   1   2
ATOM      2  C   UNL A   1      32.972  34.928  28.776  1.00  0.00     0.118 C 
BRANCH   2   3
ATOM      3  N   UNL A   1      33.073  36.216  29.440  1.00  0.00    -0.351 N 
ATOM      4  C   UNL A   1      33.069  36.518  30.772  1.00  0.00     0.281 C 
ATOM      5  O   UNL A   1      32.959  37.702  31.095  1.00  0.00    -0.268 OA
ATOM      6  H   UNL A   1      33.157  36.991  28.838  1.00  0.00     0.163 HD
BRANCH   4   7
ATOM      7  C   UNL A   1      33.141  35.383  31.804  1.00  0.00     0.305 C 
BRANCH   7   8
ATOM      8  N   UNL A   1      31.925  35.414  32.678  1.00  0.00    -0.345 N 
ATOM      9  H   UNL A   1      31.092  35.277  32.105  1.00  0.00     0.345 HD
ATOM     10  H   UNL A   1      31.868  36.316  33.149  1.00  0.00     0.345 HD
ATOM     11  H   UNL A   1      31.987  34.671  33.372  1.00  0.00     0.345 HD
ENDBRANCH   7   8
BRANCH   7  12
ATOM     12  C   UNL A   1      34.404  35.526  32.687  1.00  0.00     0.222 C 
BRANCH  12  13
ATOM     13  O   UNL A   1      34.022  36.029  33.976  1.00  0.00    -0.381 OA
ATOM     14  H   UNL A   1      33.401  36.765  33.864  1.00  0.00     0.211 HD
ENDBRANCH  12  13
BRANCH  12  15
ATOM     15  C   UNL A   1      35.187  34.262  32.933  1.00  0.00     0.040 A 
ATOM     16  C   UNL A   1      35.013  33.047  32.294  1.00  0.00     0.018 A 
ATOM     17  S   UNL A   1      36.444  34.163  34.099  1.00  0.00    -0.146 S 
ATOM     18  C   UNL A   1      35.866  32.028  32.800  1.00  0.00     0.012 A 
ATOM     19  C   UNL A   1      36.684  32.498  33.803  1.00  0.00     0.065 A 
ENDBRANCH  12  15
ENDBRANCH   7  12
ENDBRANCH   4   7
ENDBRANCH   2   3
ENDBRANCH   1   2
BRANCH   1  20
ATOM     20  C   UNL A   1      34.807  33.149  28.553  1.00  0.00     0.118 C 
BRANCH  20  21
ATOM     21  N   UNL A   1      34.119  32.067  27.863  1.00  0.00    -0.352 N 
ATOM     22  C   UNL A   1      34.539  30.791  27.582  1.00  0.00     0.251 C 
ATOM     23  H   UNL A   1      33.212  32.284  27.549  1.00  0.00     0.163 HD
ATOM     24  O   UNL A   1      33.865  30.090  26.827  1.00  0.00    -0.269 OA
BRANCH  22  25
ATOM     25  C   UNL A   1      35.798  30.263  28.152  1.00  0.00     0.039 A 
ATOM     26  C   UNL A   1      36.967  30.352  27.392  1.00  0.00     0.014 A 
ATOM     27  C   UNL A   1      35.832  29.666  29.416  1.00  0.00     0.014 A 
ATOM     28  C   UNL A   1      38.182  29.920  27.931  1.00  0.00     0.010 A 
ATOM     29  C   UNL A   1      37.055  29.297  29.978  1.00  0.00     0.010 A 
ATOM     30  C   UNL A   1      38.244  29.433  29.247  1.00  0.00    -0.014 A 
BRANCH  30  31
ATOM     31  C   UNL A   1      39.550  29.116  29.885  1.00  0.00     0.031 A 
ATOM     32  C   UNL A   1      40.079  29.953  31.019  1.00  0.00     0.074 A 
ATOM     33  C   UNL A   1      40.293  28.103  29.394  1.00  0.00     0.049 A 
ATOM     34  N   UNL A   1      41.219  29.850  31.655  1.00  0.00    -0.248 NA
ATOM     35  C   UNL A   1      39.229  31.059  31.490  1.00  0.00     0.031 C 
ATOM     36  C   UNL A   1      39.911  27.240  28.271  1.00  0.00     0.029 A 
ATOM     37  N   UNL A   1      41.527  27.629  29.766  1.00  0.00    -0.354 N 
ATOM     38  C   UNL A   1      41.231  30.881  32.588  1.00  0.00     0.074 A 
ATOM     39  C   UNL A   1      40.000  31.621  32.411  1.00  0.00     0.031 C 
ATOM     40  C   UNL A   1      40.877  26.332  28.064  1.00  0.00     0.029 A 
ATOM     41  C   UNL A   1      41.968  26.573  29.003  1.00  0.00     0.049 A 
ATOM     42  H   UNL A   1      42.047  28.009  30.511  1.00  0.00     0.167 HD
ATOM     43  C   UNL A   1      42.174  31.174  33.514  1.00  0.00     0.031 A 
ATOM     44  C   UNL A   1      43.126  25.883  29.038  1.00  0.00     0.031 A 
ATOM     45  C   UNL A   1      43.393  30.427  33.695  1.00  0.00     0.049 A 
ATOM     46  C   UNL A   1      44.165  26.248  30.064  1.00  0.00     0.074 A 
ATOM     47  C   UNL A   1      44.376  30.611  34.652  1.00  0.00     0.029 A 
ATOM     48  N   UNL A   1      43.801  29.366  32.902  1.00  0.00    -0.354 N 
ATOM     49  N   UNL A   1      44.118  27.176  30.990  1.00  0.00    -0.248 NA
ATOM     50  C   UNL A   1      45.410  25.468  30.054  1.00  0.00     0.031 C 
ATOM     51  C   UNL A   1      45.408  29.702  34.400  1.00  0.00     0.029 A 
ATOM     52  C   UNL A   1      45.038  28.908  33.326  1.00  0.00     0.049 A 
ATOM     53  H   UNL A   1      43.288  28.992  32.149  1.00  0.00     0.167 HD
ATOM     54  C   UNL A   1      45.315  27.072  31.688  1.00  0.00     0.074 A 
ATOM     55  C   UNL A   1      46.055  25.979  31.093  1.00  0.00     0.031 C 
ATOM     56  C   UNL A   1      45.765  27.819  32.727  1.00  0.00     0.031 A 
BRANCH  43  57
ATOM     57  C   UNL A   1      41.939  32.360  34.414  1.00  0.00    -0.014 A 
ATOM     58  C   UNL A   1      42.435  33.633  34.081  1.00  0.00     0.010 A 
ATOM     59  C   UNL A   1      41.131  32.217  35.558  1.00  0.00     0.010 A 
ATOM     60  C   UNL A   1      42.141  34.738  34.885  1.00  0.00     0.020 A 
ATOM     61  C   UNL A   1      40.814  33.324  36.349  1.00  0.00     0.020 A 
ATOM     62  C   UNL A   1      41.329  34.577  36.012  1.00  0.00     0.054 A 
BRANCH  62  63
ATOM     63  S   UNL A   1      40.915  36.042  37.000  1.00  0.00     0.124 S 
ATOM     64  O   UNL A   1      42.172  36.784  36.979  1.00  0.00    -0.237 OA
ATOM     65  O   UNL A   1      39.820  36.640  36.240  1.00  0.00    -0.237 OA
ATOM     66  O   UNL A   1      40.540  35.490  38.299  1.00  0.00    -0.744 OA
ENDBRANCH  62  63
ENDBRANCH  43  57
BRANCH  44  67
ATOM     67  C   UNL A   1      43.376  24.785  28.064  1.00  0.00    -0.014 A 
ATOM     68  C   UNL A   1      42.993  23.465  28.356  1.00  0.00     0.010 A 
ATOM     69  C   UNL A   1      44.026  25.054  26.845  1.00  0.00     0.010 A 
ATOM     70  C   UNL A   1      43.286  22.428  27.464  1.00  0.00     0.020 A 
ATOM     71  C   UNL A   1      44.290  24.026  25.936  1.00  0.00     0.020 A 
ATOM     72  C   UNL A   1      43.936  22.715  26.261  1.00  0.00     0.054 A 
BRANCH  72  73
ATOM     73  S   UNL A   1      44.290  21.360  25.110  1.00  0.00     0.124 S 
ATOM     74  O   UNL A   1      43.169  20.457  25.351  1.00  0.00    -0.237 OA
ATOM     75  O   UNL A   1      44.293  22.037  23.815  1.00  0.00    -0.237 OA
ATOM     76  O   UNL A   1      45.595  20.871  25.550  1.00  0.00    -0.744 OA
ENDBRANCH  72  73
ENDBRANCH  44  67
BRANCH  56  77
ATOM     77  C   UNL A   1      47.107  27.462  33.308  1.00  0.00    -0.014 A 
ATOM     78  C   UNL A   1      47.229  26.508  34.333  1.00  0.00     0.010 A 
ATOM     79  C   UNL A   1      48.271  28.059  32.786  1.00  0.00     0.010 A 
ATOM     80  C   UNL A   1      48.486  26.180  34.850  1.00  0.00     0.020 A 
ATOM     81  C   UNL A   1      49.531  27.711  33.278  1.00  0.00     0.020 A 
ATOM     82  C   UNL A   1      49.629  26.784  34.318  1.00  0.00     0.054 A 
BRANCH  82  83
ATOM     83  S   UNL A   1      51.251  26.312  34.978  1.00  0.00     0.124 S 
ATOM     84  O   UNL A   1      51.957  25.884  33.774  1.00  0.00    -0.237 OA
ATOM     85  O   UNL A   1      51.727  27.556  35.579  1.00  0.00    -0.237 OA
ATOM     86  O   UNL A   1      50.942  25.246  35.930  1.00  0.00    -0.744 OA
ENDBRANCH  82  83
ENDBRANCH  56  77
ENDBRANCH  30  31
ENDBRANCH  22  25
ENDBRANCH  20  21
ENDBRANCH   1  20
TORSDOF 17
ENDMDL
MODEL 3
REMARK VINA RESULT:      -9.6      3.525      5.392
REMARK SMILES [NH3+][C@@H](C(=O)NCCCNC(=O)c1ccc(-c2c3nc(c(-c4ccc(S(=O)(=O)[O-])cc4)c4ccc([nH]4)c(-c4ccc(S(=O)(=O)[O-])cc4)c4nc(c(-c5ccc(S(=O)(=O)[O-])cc5)c5ccc2[nH]5)C=C4)C=C3)cc1)[C@@H](O)c1cccs1
REMARK SMILES IDX 7 1 6 2 5 3 3 4 4 5 2 7 1 8 72 12 73 13 74 15 75 16 78 17
REMARK SMILES IDX 76 18 77 19 8 20 9 21 10 22 11 24 12 25 13 26 71 27 14 28
REMARK SMILES IDX 70 29 15 30 16 31 17 32 64 33 18 34 69 35 63 36 65 37 19 38
REMARK SMILES IDX 68 39 62 40 61 41 20 43 50 44 31 45 49 46 32 47 35 48 48 49
REMARK SMILES IDX 66 50 33 51 34 52 47 54 67 55 36 56 21 57 22 58 30 59 23 60
REMARK SMILES IDX 29 61 24 62 25 63 26 64 27 65 28 66 51 67 52 68 60 69 53 70
REMARK SMILES IDX 59 71 54 72 55 73 56 74 57 75 58 76 37 77 38 78 46 79 39 80
REMARK SMILES IDX 45 81 40 82 41 83 42 84 43 85 44 86
REMARK H PARENT 5 6 1 9 1 10 1 11 73 14 9 23 65 42 35 53
REMARK Flexibility Score: inf
ROOT
ATOM      1  C   UNL A   1      32.363  28.090  25.804  1.00  0.00     0.042 C 
ENDROOT
BRANCH   1   2
ATOM      2  C   UNL A   1      31.429  29.017  25.030  1.00  0.00     0.118 C 
BRANCH   2   3
ATOM      3  N   UNL A   1      31.364  28.646  23.627  1.00  0.00    -0.351 N 
ATOM      4  C   UNL A   1      30.319  28.155  22.898  1.00  0.00     0.281 C 
ATOM      5  O   UNL A   1      30.557  27.718  21.771  1.00  0.00    -0.268 OA
ATOM      6  H   UNL A   1      32.202  28.766  23.125  1.00  0.00     0.163 HD
BRANCH   4   7
ATOM      7  C   UNL A   1      28.916  28.110  23.523  1.00  0.00     0.305 C 
BRANCH   7   8
ATOM      8  N   UNL A   1      28.529  26.690  23.799  1.00  0.00    -0.345 N 
ATOM      9  H   UNL A   1      28.568  26.154  22.932  1.00  0.00     0.345 HD
ATOM     10  H   UNL A   1      27.580  26.664  24.172  1.00  0.00     0.345 HD
ATOM     11  H   UNL A   1      29.173  26.288  24.477  1.00  0.00     0.345 HD
ENDBRANCH   7   8
BRANCH   7  12
ATOM     12  C   UNL A   1      27.874  28.746  22.572  1.00  0.00     0.222 C 
BRANCH  12  13
ATOM     13  O   UNL A   1      26.565  28.592  23.140  1.00  0.00    -0.381 OA
ATOM     14  H   UNL A   1      26.209  27.723  22.900  1.00  0.00     0.211 HD
ENDBRANCH  12  13
BRANCH  12  15
ATOM     15  C   UNL A   1      28.048  30.214  22.284  1.00  0.00     0.040 A 
ATOM     16  C   UNL A   1      28.010  30.820  21.039  1.00  0.00     0.018 A 
ATOM     17  S   UNL A   1      28.340  31.372  23.517  1.00  0.00    -0.146 S 
ATOM     18  C   UNL A   1      28.278  32.215  21.096  1.00  0.00     0.012 A 
ATOM     19  C   UNL A   1      28.496  32.643  22.385  1.00  0.00     0.065 A 
ENDBRANCH  12  15
ENDBRANCH   7  12
ENDBRANCH   4   7
ENDBRANCH   2   3
ENDBRANCH   1   2
BRANCH   1  20
ATOM     20  C   UNL A   1      33.688  28.733  26.212  1.00  0.00     0.118 C 
BRANCH  20  21
ATOM     21  N   UNL A   1      33.511  30.030  26.848  1.00  0.00    -0.352 N 
ATOM     22  C   UNL A   1      34.299  30.678  27.766  1.00  0.00     0.251 C 
ATOM     23  H   UNL A   1      32.700  30.518  26.579  1.00  0.00     0.163 HD
ATOM     24  O   UNL A   1      33.872  31.696  28.313  1.00  0.00    -0.269 OA
BRANCH  22  25
ATOM     25  C   UNL A   1      35.637  30.156  28.122  1.00  0.00     0.039 A 
ATOM     26  C   UNL A   1      36.646  30.184  27.156  1.00  0.00     0.014 A 
ATOM     27  C   UNL A   1      35.899  29.625  29.388  1.00  0.00     0.014 A 
ATOM     28  C   UNL A   1      37.936  29.758  27.484  1.00  0.00     0.010 A 
ATOM     29  C   UNL A   1      37.201  29.262  29.734  1.00  0.00     0.010 A 
ATOM     30  C   UNL A   1      38.236  29.337  28.790  1.00  0.00    -0.014 A 
BRANCH  30  31
ATOM     31  C   UNL A   1      39.634  29.029  29.193  1.00  0.00     0.031 A 
ATOM     32  C   UNL A   1      40.490  30.067  29.868  1.00  0.00     0.074 A 
ATOM     33  C   UNL A   1      40.155  27.822  28.889  1.00  0.00     0.049 A 
ATOM     34  N   UNL A   1      41.743  29.984  30.239  1.00  0.00    -0.248 NA
ATOM     35  C   UNL A   1      39.868  31.372  30.148  1.00  0.00     0.031 C 
ATOM     36  C   UNL A   1      39.442  26.742  28.201  1.00  0.00     0.029 A 
ATOM     37  N   UNL A   1      41.406  27.300  29.111  1.00  0.00    -0.354 N 
ATOM     38  C   UNL A   1      42.064  31.224  30.782  1.00  0.00     0.074 A 
ATOM     39  C   UNL A   1      40.885  32.054  30.659  1.00  0.00     0.031 C 
ATOM     40  C   UNL A   1      40.257  25.683  28.078  1.00  0.00     0.029 A 
ATOM     41  C   UNL A   1      41.564  26.020  28.633  1.00  0.00     0.049 A 
ATOM     42  H   UNL A   1      42.122  27.796  29.569  1.00  0.00     0.167 HD
ATOM     43  C   UNL A   1      43.229  31.628  31.342  1.00  0.00     0.031 A 
ATOM     44  C   UNL A   1      42.640  25.209  28.627  1.00  0.00     0.031 A 
ATOM     45  C   UNL A   1      44.397  30.795  31.473  1.00  0.00     0.049 A 
ATOM     46  C   UNL A   1      43.928  25.695  29.236  1.00  0.00     0.074 A 
ATOM     47  C   UNL A   1      45.600  31.098  32.087  1.00  0.00     0.029 A 
ATOM     48  N   UNL A   1      44.515  29.506  30.978  1.00  0.00    -0.354 N 
ATOM     49  N   UNL A   1      44.182  26.843  29.817  1.00  0.00    -0.248 NA
ATOM     50  C   UNL A   1      45.071  24.772  29.196  1.00  0.00     0.031 C 
ATOM     51  C   UNL A   1      46.468  30.016  31.910  1.00  0.00     0.029 A 
ATOM     52  C   UNL A   1      45.783  29.013  31.242  1.00  0.00     0.049 A 
ATOM     53  H   UNL A   1      43.804  29.012  30.510  1.00  0.00     0.167 HD
ATOM     54  C   UNL A   1      45.506  26.769  30.233  1.00  0.00     0.074 A 
ATOM     55  C   UNL A   1      45.992  25.457  29.858  1.00  0.00     0.031 C 
ATOM     56  C   UNL A   1      46.255  27.706  30.865  1.00  0.00     0.031 A 
BRANCH  43  57
ATOM     57  C   UNL A   1      43.314  33.041  31.860  1.00  0.00    -0.014 A 
ATOM     58  C   UNL A   1      43.058  33.335  33.211  1.00  0.00     0.010 A 
ATOM     59  C   UNL A   1      43.750  34.071  31.006  1.00  0.00     0.010 A 
ATOM     60  C   UNL A   1      43.220  34.637  33.693  1.00  0.00     0.020 A 
ATOM     61  C   UNL A   1      43.937  35.368  31.490  1.00  0.00     0.020 A 
ATOM     62  C   UNL A   1      43.662  35.644  32.830  1.00  0.00     0.054 A 
BRANCH  62  63
ATOM     63  S   UNL A   1      43.921  37.310  33.501  1.00  0.00     0.124 S 
ATOM     64  O   UNL A   1      44.952  37.073  34.507  1.00  0.00    -0.237 OA
ATOM     65  O   UNL A   1      44.351  38.064  32.326  1.00  0.00    -0.237 OA
ATOM     66  O   UNL A   1      42.610  37.680  34.029  1.00  0.00    -0.744 OA
ENDBRANCH  62  63
ENDBRANCH  43  57
BRANCH  44  67
ATOM     67  C   UNL A   1      42.558  23.856  28.009  1.00  0.00    -0.014 A 
ATOM     68  C   UNL A   1      42.896  23.662  26.658  1.00  0.00     0.010 A 
ATOM     69  C   UNL A   1      42.115  22.756  28.767  1.00  0.00     0.010 A 
ATOM     70  C   UNL A   1      42.758  22.402  26.067  1.00  0.00     0.020 A 
ATOM     71  C   UNL A   1      42.009  21.488  28.189  1.00  0.00     0.020 A 
ATOM     72  C   UNL A   1      42.312  21.324  26.836  1.00  0.00     0.054 A 
BRANCH  72  73
ATOM     73  S   UNL A   1      42.159  19.694  26.055  1.00  0.00     0.124 S 
ATOM     74  O   UNL A   1      43.054  19.821  24.909  1.00  0.00    -0.237 OA
ATOM     75  O   UNL A   1      42.608  18.793  27.114  1.00  0.00    -0.237 OA
ATOM     76  O   UNL A   1      40.736  19.604  25.733  1.00  0.00    -0.744 OA
ENDBRANCH  72  73
ENDBRANCH  44  67
BRANCH  56  77
ATOM     77  C   UNL A   1      47.672  27.338  31.219  1.00  0.00    -0.014 A 
ATOM     78  C   UNL A   1      48.742  27.650  30.363  1.00  0.00     0.010 A 
ATOM     79  C   UNL A   1      47.940  26.712  32.451  1.00  0.00     0.010 A 
ATOM     80  C   UNL A   1      50.052  27.312  30.716  1.00  0.00     0.020 A 
ATOM     81  C   UNL A   1      49.250  26.401  32.822  1.00  0.00     0.020 A 
ATOM     82  C   UNL A   1      50.297  26.689  31.944  1.00  0.00     0.054 A 
BRANCH  82  83
ATOM     83  S   UNL A   1      52.010  26.298  32.396  1.00  0.00     0.124 S 
ATOM     84  O   UNL A   1      51.831  25.520  33.619  1.00  0.00    -0.237 OA
ATOM     85  O   UNL A   1      52.484  25.549  31.236  1.00  0.00    -0.237 OA
ATOM     86  O   UNL A   1      52.628  27.610  32.579  1.00  0.00    -0.744 OA
ENDBRANCH  82  83
ENDBRANCH  56  77
ENDBRANCH  30  31
ENDBRANCH  22  25
ENDBRANCH  20  21
ENDBRANCH   1  20
TORSDOF 17
ENDMDL
