MODEL 1
REMARK VINA RESULT:     -11.2      0.000      0.000
REMARK SMILES CC1CC[NH+](CC(=O)N[C@H](Cc2cccc(F)c2)C(=O)NCCCNC(=O)c2ccc(-c3c4nc(c(-c5ccc(S(=O)(=O)[O-])cc5)c5ccc([nH]5)c(-c5ccc(S(=O)(=O)[O-])cc5)c5nc(c(-c6ccc(S(=O)(=O)[O-])cc6)c6ccc3[nH]6)C=C5)C=C4)cc2)CC1
REMARK SMILES IDX 23 1 22 2 21 3 19 4 20 5 10 7 9 8 7 9 8 10 6 12 5 13 1 14
REMARK SMILES IDX 2 15 3 16 89 17 4 18 88 19 11 21 12 22 13 23 18 24 14 25
REMARK SMILES IDX 16 26 15 27 17 28 24 29 25 30 26 31 27 33 28 34 29 35 87 36
REMARK SMILES IDX 30 37 86 38 31 39 32 40 33 41 80 42 34 43 85 44 79 45 81 46
REMARK SMILES IDX 35 47 84 48 78 49 77 50 36 52 66 53 47 54 65 55 48 56 51 57
REMARK SMILES IDX 64 58 82 59 49 60 50 61 63 63 83 64 52 65 37 66 38 67 46 68
REMARK SMILES IDX 39 69 45 70 40 71 41 72 42 73 43 74 44 75 67 76 68 77 76 78
REMARK SMILES IDX 69 79 75 80 70 81 71 82 72 83 73 84 74 85 53 86 54 87 62 88
REMARK SMILES IDX 55 89 61 90 56 91 57 92 58 93 59 94 60 95
REMARK H PARENT 21 6 9 11 5 20 25 32 81 51 51 62
REMARK Flexibility Score: inf
ROOT
ATOM      1  C   UNL A   1      32.238  28.171  27.345  1.00  0.00     0.042 C 
ENDROOT
BRANCH   1   2
ATOM      2  C   UNL A   1      31.557  28.083  25.989  1.00  0.00     0.117 C 
BRANCH   2   3
ATOM      3  N   UNL A   1      32.392  28.699  24.964  1.00  0.00    -0.354 N 
ATOM      4  C   UNL A   1      32.645  28.259  23.693  1.00  0.00     0.242 C 
ATOM      5  O   UNL A   1      33.703  28.591  23.158  1.00  0.00    -0.273 OA
ATOM      6  H   UNL A   1      32.830  29.542  25.220  1.00  0.00     0.163 HD
BRANCH   4   7
ATOM      7  C   UNL A   1      31.627  27.347  22.985  1.00  0.00     0.175 C 
BRANCH   7   8
ATOM      8  N   UNL A   1      32.446  26.247  22.429  1.00  0.00    -0.339 N 
ATOM      9  C   UNL A   1      32.889  25.047  22.874  1.00  0.00     0.275 C 
ATOM     10  O   UNL A   1      33.717  24.479  22.155  1.00  0.00    -0.268 OA
ATOM     11  H   UNL A   1      32.739  26.433  21.508  1.00  0.00     0.164 HD
BRANCH   9  12
ATOM     12  C   UNL A   1      32.357  24.402  24.137  1.00  0.00     0.363 C 
BRANCH  12  13
ATOM     13  N   UNL A   1      32.887  24.837  25.436  1.00  0.00    -0.327 N 
ATOM     14  C   UNL A   1      35.827  21.872  25.891  1.00  0.00     0.008 C 
ATOM     15  C   UNL A   1      35.055  23.096  26.395  1.00  0.00    -0.003 C 
ATOM     16  C   UNL A   1      33.569  22.731  26.555  1.00  0.00     0.065 C 
ATOM     17  C   UNL A   1      35.327  24.287  25.467  1.00  0.00     0.065 C 
ATOM     18  C   UNL A   1      32.634  23.929  26.542  1.00  0.00     0.262 C 
ATOM     19  C   UNL A   1      34.240  25.358  25.495  1.00  0.00     0.262 C 
ATOM     20  H   UNL A   1      32.302  25.663  25.558  1.00  0.00     0.348 HD
ENDBRANCH  12  13
ENDBRANCH   9  12
ENDBRANCH   7   8
BRANCH   7  21
ATOM     21  C   UNL A   1      30.733  28.152  22.015  1.00  0.00     0.070 C 
BRANCH  21  22
ATOM     22  C   UNL A   1      29.556  28.813  22.708  1.00  0.00    -0.043 A 
ATOM     23  C   UNL A   1      28.381  28.089  22.969  1.00  0.00     0.004 A 
ATOM     24  C   UNL A   1      29.576  30.187  22.985  1.00  0.00     0.043 A 
ATOM     25  C   UNL A   1      27.210  28.749  23.355  1.00  0.00     0.003 A 
ATOM     26  C   UNL A   1      28.395  30.838  23.336  1.00  0.00     0.123 A 
ATOM     27  C   UNL A   1      27.208  30.135  23.499  1.00  0.00     0.039 A 
ATOM     28  F   UNL A   1      28.386  32.174  23.430  1.00  0.00    -0.207 F 
ENDBRANCH  21  22
ENDBRANCH   7  21
ENDBRANCH   4   7
ENDBRANCH   2   3
ENDBRANCH   1   2
BRANCH   1  29
ATOM     29  C   UNL A   1      33.638  28.755  27.242  1.00  0.00     0.118 C 
BRANCH  29  30
ATOM     30  N   UNL A   1      33.665  30.155  27.648  1.00  0.00    -0.352 N 
ATOM     31  C   UNL A   1      34.620  30.814  28.383  1.00  0.00     0.251 C 
ATOM     32  H   UNL A   1      32.898  30.699  27.358  1.00  0.00     0.163 HD
ATOM     33  O   UNL A   1      34.365  31.900  28.900  1.00  0.00    -0.269 OA
BRANCH  31  34
ATOM     34  C   UNL A   1      35.942  30.187  28.551  1.00  0.00     0.039 A 
ATOM     35  C   UNL A   1      36.850  30.189  27.492  1.00  0.00     0.014 A 
ATOM     36  C   UNL A   1      36.294  29.650  29.792  1.00  0.00     0.014 A 
ATOM     37  C   UNL A   1      38.149  29.727  27.708  1.00  0.00     0.010 A 
ATOM     38  C   UNL A   1      37.612  29.293  30.032  1.00  0.00     0.010 A 
ATOM     39  C   UNL A   1      38.552  29.325  28.993  1.00  0.00    -0.014 A 
BRANCH  39  40
ATOM     40  C   UNL A   1      39.953  28.941  29.292  1.00  0.00     0.031 A 
ATOM     41  C   UNL A   1      40.891  29.954  29.889  1.00  0.00     0.074 A 
ATOM     42  C   UNL A   1      40.399  27.721  28.932  1.00  0.00     0.049 A 
ATOM     43  N   UNL A   1      42.174  29.853  30.115  1.00  0.00    -0.248 NA
ATOM     44  C   UNL A   1      40.319  31.263  30.251  1.00  0.00     0.031 C 
ATOM     45  C   UNL A   1      39.590  26.668  28.311  1.00  0.00     0.029 A 
ATOM     46  N   UNL A   1      41.649  27.164  29.024  1.00  0.00    -0.354 N 
ATOM     47  C   UNL A   1      42.567  31.089  30.615  1.00  0.00     0.074 A 
ATOM     48  C   UNL A   1      41.397  31.938  30.619  1.00  0.00     0.031 C 
ATOM     49  C   UNL A   1      40.357  25.584  28.108  1.00  0.00     0.029 A 
ATOM     50  C   UNL A   1      41.721  25.882  28.528  1.00  0.00     0.049 A 
ATOM     51  H   UNL A   1      42.422  27.636  29.409  1.00  0.00     0.167 HD
ATOM     52  C   UNL A   1      43.790  31.475  31.047  1.00  0.00     0.031 A 
ATOM     53  C   UNL A   1      42.772  25.048  28.408  1.00  0.00     0.031 A 
ATOM     54  C   UNL A   1      44.942  30.616  31.057  1.00  0.00     0.049 A 
ATOM     55  C   UNL A   1      44.127  25.515  28.869  1.00  0.00     0.074 A 
ATOM     56  C   UNL A   1      46.207  30.884  31.547  1.00  0.00     0.029 A 
ATOM     57  N   UNL A   1      44.973  29.327  30.546  1.00  0.00    -0.354 N 
ATOM     58  N   UNL A   1      44.461  26.657  29.421  1.00  0.00    -0.248 NA
ATOM     59  C   UNL A   1      45.247  24.581  28.690  1.00  0.00     0.031 C 
ATOM     60  C   UNL A   1      47.023  29.784  31.267  1.00  0.00     0.029 A 
ATOM     61  C   UNL A   1      46.248  28.804  30.668  1.00  0.00     0.049 A 
ATOM     62  H   UNL A   1      44.203  28.854  30.155  1.00  0.00     0.167 HD
ATOM     63  C   UNL A   1      45.824  26.568  29.678  1.00  0.00     0.074 A 
ATOM     64  C   UNL A   1      46.248  25.255  29.239  1.00  0.00     0.031 C 
ATOM     65  C   UNL A   1      46.651  27.492  30.226  1.00  0.00     0.031 A 
BRANCH  52  66
ATOM     66  C   UNL A   1      43.951  32.892  31.533  1.00  0.00    -0.014 A 
ATOM     67  C   UNL A   1      43.779  33.225  32.888  1.00  0.00     0.010 A 
ATOM     68  C   UNL A   1      44.341  33.894  30.626  1.00  0.00     0.010 A 
ATOM     69  C   UNL A   1      43.962  34.540  33.323  1.00  0.00     0.020 A 
ATOM     70  C   UNL A   1      44.556  35.205  31.062  1.00  0.00     0.020 A 
ATOM     71  C   UNL A   1      44.352  35.522  32.407  1.00  0.00     0.054 A 
BRANCH  71  72
ATOM     72  S   UNL A   1      44.624  37.211  33.008  1.00  0.00     0.124 S 
ATOM     73  O   UNL A   1      45.711  37.018  33.966  1.00  0.00    -0.237 OA
ATOM     74  O   UNL A   1      44.984  37.928  31.787  1.00  0.00    -0.237 OA
ATOM     75  O   UNL A   1      43.339  37.584  33.593  1.00  0.00    -0.744 OA
ENDBRANCH  71  72
ENDBRANCH  52  66
BRANCH  53  76
ATOM     76  C   UNL A   1      42.590  23.688  27.829  1.00  0.00    -0.014 A 
ATOM     77  C   UNL A   1      42.296  22.594  28.662  1.00  0.00     0.010 A 
ATOM     78  C   UNL A   1      42.711  23.476  26.443  1.00  0.00     0.010 A 
ATOM     79  C   UNL A   1      42.150  21.311  28.125  1.00  0.00     0.020 A 
ATOM     80  C   UNL A   1      42.533  22.201  25.898  1.00  0.00     0.020 A 
ATOM     81  C   UNL A   1      42.268  21.124  26.745  1.00  0.00     0.054 A 
BRANCH  81  82
ATOM     82  S   UNL A   1      42.038  19.457  26.069  1.00  0.00     0.124 S 
ATOM     83  O   UNL A   1      42.905  19.484  24.895  1.00  0.00    -0.237 OA
ATOM     84  O   UNL A   1      42.486  18.607  27.169  1.00  0.00    -0.237 OA
ATOM     85  O   UNL A   1      40.605  19.397  25.787  1.00  0.00    -0.744 OA
ENDBRANCH  81  82
ENDBRANCH  53  76
BRANCH  65  86
ATOM     86  C   UNL A   1      48.096  27.113  30.408  1.00  0.00    -0.014 A 
ATOM     87  C   UNL A   1      49.041  27.350  29.395  1.00  0.00     0.010 A 
ATOM     88  C   UNL A   1      48.527  26.592  31.642  1.00  0.00     0.010 A 
ATOM     89  C   UNL A   1      50.391  27.057  29.607  1.00  0.00     0.020 A 
ATOM     90  C   UNL A   1      49.880  26.328  31.869  1.00  0.00     0.020 A 
ATOM     91  C   UNL A   1      50.802  26.555  30.845  1.00  0.00     0.054 A 
BRANCH  91  92
ATOM     92  S   UNL A   1      52.569  26.255  31.118  1.00  0.00     0.124 S 
ATOM     93  O   UNL A   1      52.928  27.347  32.018  1.00  0.00    -0.237 OA
ATOM     94  O   UNL A   1      52.578  24.921  31.712  1.00  0.00    -0.237 OA
ATOM     95  O   UNL A   1      53.147  26.338  29.778  1.00  0.00    -0.744 OA
ENDBRANCH  91  92
ENDBRANCH  65  86
ENDBRANCH  39  40
ENDBRANCH  31  34
ENDBRANCH  29  30
ENDBRANCH   1  29
TORSDOF 18
ENDMDL
MODEL 2
REMARK VINA RESULT:     -10.9      5.247     10.285
REMARK SMILES CC1CC[NH+](CC(=O)N[C@H](Cc2cccc(F)c2)C(=O)NCCCNC(=O)c2ccc(-c3c4nc(c(-c5ccc(S(=O)(=O)[O-])cc5)c5ccc([nH]5)c(-c5ccc(S(=O)(=O)[O-])cc5)c5nc(c(-c6ccc(S(=O)(=O)[O-])cc6)c6ccc3[nH]6)C=C5)C=C4)cc2)CC1
REMARK SMILES IDX 23 1 22 2 21 3 19 4 20 5 10 7 9 8 7 9 8 10 6 12 5 13 1 14
REMARK SMILES IDX 2 15 3 16 89 17 4 18 88 19 11 21 12 22 13 23 18 24 14 25
REMARK SMILES IDX 16 26 15 27 17 28 24 29 25 30 26 31 27 33 28 34 29 35 87 36
REMARK SMILES IDX 30 37 86 38 31 39 32 40 33 41 80 42 34 43 85 44 79 45 81 46
REMARK SMILES IDX 35 47 84 48 78 49 77 50 36 52 66 53 47 54 65 55 48 56 51 57
REMARK SMILES IDX 64 58 82 59 49 60 50 61 63 63 83 64 52 65 37 66 38 67 46 68
REMARK SMILES IDX 39 69 45 70 40 71 41 72 42 73 43 74 44 75 67 76 68 77 76 78
REMARK SMILES IDX 69 79 75 80 70 81 71 82 72 83 73 84 74 85 53 86 54 87 62 88
REMARK SMILES IDX 55 89 61 90 56 91 57 92 58 93 59 94 60 95
REMARK H PARENT 21 6 9 11 5 20 25 32 81 51 51 62
REMARK Flexibility Score: inf
ROOT
ATOM      1  C   UNL A   1      37.220  23.916  26.042  1.00  0.00     0.042 C 
ENDROOT
BRANCH   1   2
ATOM      2  C   UNL A   1      36.929  22.447  25.784  1.00  0.00     0.117 C 
BRANCH   2   3
ATOM      3  N   UNL A   1      35.849  21.987  26.648  1.00  0.00    -0.354 N 
ATOM      4  C   UNL A   1      34.573  21.634  26.304  1.00  0.00     0.242 C 
ATOM      5  O   UNL A   1      33.684  21.751  27.148  1.00  0.00    -0.273 OA
ATOM      6  H   UNL A   1      36.067  21.921  27.606  1.00  0.00     0.163 HD
BRANCH   4   7
ATOM      7  C   UNL A   1      34.278  21.134  24.878  1.00  0.00     0.175 C 
BRANCH   7   8
ATOM      8  N   UNL A   1      34.541  22.308  24.017  1.00  0.00    -0.339 N 
ATOM      9  C   UNL A   1      34.084  23.581  23.946  1.00  0.00     0.275 C 
ATOM     10  O   UNL A   1      34.428  24.222  22.948  1.00  0.00    -0.268 OA
ATOM     11  H   UNL A   1      35.214  22.117  23.325  1.00  0.00     0.164 HD
BRANCH   9  12
ATOM     12  C   UNL A   1      33.260  24.211  25.050  1.00  0.00     0.363 C 
BRANCH  12  13
ATOM     13  N   UNL A   1      31.863  23.791  25.223  1.00  0.00    -0.327 N 
ATOM     14  C   UNL A   1      30.019  27.301  23.840  1.00  0.00     0.008 C 
ATOM     15  C   UNL A   1      29.960  25.889  24.432  1.00  0.00    -0.003 C 
ATOM     16  C   UNL A   1      30.661  25.882  25.802  1.00  0.00     0.065 C 
ATOM     17  C   UNL A   1      30.525  24.887  23.417  1.00  0.00     0.065 C 
ATOM     18  C   UNL A   1      31.125  24.506  26.251  1.00  0.00     0.262 C 
ATOM     19  C   UNL A   1      31.044  23.595  24.041  1.00  0.00     0.262 C 
ATOM     20  H   UNL A   1      32.040  22.843  25.556  1.00  0.00     0.348 HD
ENDBRANCH  12  13
ENDBRANCH   9  12
ENDBRANCH   7   8
BRANCH   7  21
ATOM     21  C   UNL A   1      32.887  20.466  24.795  1.00  0.00     0.070 C 
BRANCH  21  22
ATOM     22  C   UNL A   1      32.964  18.955  24.685  1.00  0.00    -0.043 A 
ATOM     23  C   UNL A   1      32.678  18.141  25.794  1.00  0.00     0.004 A 
ATOM     24  C   UNL A   1      33.442  18.352  23.513  1.00  0.00     0.043 A 
ATOM     25  C   UNL A   1      33.003  16.780  25.780  1.00  0.00     0.003 A 
ATOM     26  C   UNL A   1      33.793  17.004  23.523  1.00  0.00     0.123 A 
ATOM     27  C   UNL A   1      33.601  16.220  24.654  1.00  0.00     0.039 A 
ATOM     28  F   UNL A   1      34.408  16.479  22.455  1.00  0.00    -0.207 F 
ENDBRANCH  21  22
ENDBRANCH   7  21
ENDBRANCH   4   7
ENDBRANCH   2   3
ENDBRANCH   1   2
BRANCH   1  29
ATOM     29  C   UNL A   1      38.499  24.111  26.841  1.00  0.00     0.118 C 
BRANCH  29  30
ATOM     30  N   UNL A   1      39.616  24.484  25.981  1.00  0.00    -0.352 N 
ATOM     31  C   UNL A   1      40.482  25.541  26.115  1.00  0.00     0.251 C 
ATOM     32  H   UNL A   1      39.769  23.902  25.202  1.00  0.00     0.163 HD
ATOM     33  O   UNL A   1      41.172  25.903  25.164  1.00  0.00    -0.269 OA
BRANCH  31  34
ATOM     34  C   UNL A   1      40.553  26.239  27.410  1.00  0.00     0.039 A 
ATOM     35  C   UNL A   1      41.508  27.237  27.608  1.00  0.00     0.014 A 
ATOM     36  C   UNL A   1      39.622  25.935  28.406  1.00  0.00     0.014 A 
ATOM     37  C   UNL A   1      41.471  27.992  28.781  1.00  0.00     0.010 A 
ATOM     38  C   UNL A   1      39.521  26.755  29.519  1.00  0.00     0.010 A 
ATOM     39  C   UNL A   1      40.445  27.791  29.720  1.00  0.00    -0.014 A 
BRANCH  39  40
ATOM     40  C   UNL A   1      40.298  28.648  30.920  1.00  0.00     0.031 A 
ATOM     41  C   UNL A   1      39.271  29.748  30.927  1.00  0.00     0.074 A 
ATOM     42  C   UNL A   1      41.153  28.502  31.951  1.00  0.00     0.049 A 
ATOM     43  N   UNL A   1      39.066  30.676  31.825  1.00  0.00    -0.248 NA
ATOM     44  C   UNL A   1      38.378  29.837  29.758  1.00  0.00     0.031 C 
ATOM     45  C   UNL A   1      42.215  27.494  32.040  1.00  0.00     0.029 A 
ATOM     46  N   UNL A   1      41.276  29.211  33.118  1.00  0.00    -0.354 N 
ATOM     47  C   UNL A   1      38.046  31.471  31.318  1.00  0.00     0.074 A 
ATOM     48  C   UNL A   1      37.704  30.947  30.015  1.00  0.00     0.031 C 
ATOM     49  C   UNL A   1      42.857  27.632  33.211  1.00  0.00     0.029 A 
ATOM     50  C   UNL A   1      42.295  28.769  33.931  1.00  0.00     0.049 A 
ATOM     51  H   UNL A   1      40.689  29.966  33.355  1.00  0.00     0.167 HD
ATOM     52  C   UNL A   1      37.440  32.535  31.895  1.00  0.00     0.031 A 
ATOM     53  C   UNL A   1      42.739  29.238  35.113  1.00  0.00     0.031 A 
ATOM     54  C   UNL A   1      37.775  33.037  33.200  1.00  0.00     0.049 A 
ATOM     55  C   UNL A   1      42.065  30.441  35.716  1.00  0.00     0.074 A 
ATOM     56  C   UNL A   1      37.169  34.058  33.907  1.00  0.00     0.029 A 
ATOM     57  N   UNL A   1      38.813  32.561  33.988  1.00  0.00    -0.354 N 
ATOM     58  N   UNL A   1      41.044  31.127  35.262  1.00  0.00    -0.248 NA
ATOM     59  C   UNL A   1      42.604  30.934  36.992  1.00  0.00     0.031 C 
ATOM     60  C   UNL A   1      37.884  34.248  35.093  1.00  0.00     0.029 A 
ATOM     61  C   UNL A   1      38.892  33.299  35.155  1.00  0.00     0.049 A 
ATOM     62  H   UNL A   1      39.404  31.811  33.752  1.00  0.00     0.167 HD
ATOM     63  C   UNL A   1      40.802  32.117  36.209  1.00  0.00     0.074 A 
ATOM     64  C   UNL A   1      41.771  31.927  37.268  1.00  0.00     0.031 C 
ATOM     65  C   UNL A   1      39.864  33.094  36.200  1.00  0.00     0.031 A 
BRANCH  52  66
ATOM     66  C   UNL A   1      36.360  33.238  31.115  1.00  0.00    -0.014 A 
ATOM     67  C   UNL A   1      35.029  33.265  31.570  1.00  0.00     0.010 A 
ATOM     68  C   UNL A   1      36.695  33.935  29.940  1.00  0.00     0.010 A 
ATOM     69  C   UNL A   1      34.048  33.949  30.846  1.00  0.00     0.020 A 
ATOM     70  C   UNL A   1      35.723  34.646  29.230  1.00  0.00     0.020 A 
ATOM     71  C   UNL A   1      34.402  34.637  29.682  1.00  0.00     0.054 A 
BRANCH  71  72
ATOM     72  S   UNL A   1      33.116  35.551  28.789  1.00  0.00     0.124 S 
ATOM     73  O   UNL A   1      33.909  36.472  27.978  1.00  0.00    -0.237 OA
ATOM     74  O   UNL A   1      32.431  34.494  28.048  1.00  0.00    -0.237 OA
ATOM     75  O   UNL A   1      32.331  36.175  29.850  1.00  0.00    -0.744 OA
ENDBRANCH  71  72
ENDBRANCH  52  66
BRANCH  53  76
ATOM     76  C   UNL A   1      43.877  28.573  35.806  1.00  0.00    -0.014 A 
ATOM     77  C   UNL A   1      43.643  27.529  36.717  1.00  0.00     0.010 A 
ATOM     78  C   UNL A   1      45.202  28.980  35.561  1.00  0.00     0.010 A 
ATOM     79  C   UNL A   1      44.708  26.920  37.389  1.00  0.00     0.020 A 
ATOM     80  C   UNL A   1      46.272  28.352  36.206  1.00  0.00     0.020 A 
ATOM     81  C   UNL A   1      46.015  27.336  37.127  1.00  0.00     0.054 A 
BRANCH  81  82
ATOM     82  S   UNL A   1      47.382  26.505  37.984  1.00  0.00     0.124 S 
ATOM     83  O   UNL A   1      48.369  27.576  38.089  1.00  0.00    -0.237 OA
ATOM     84  O   UNL A   1      46.760  26.091  39.239  1.00  0.00    -0.237 OA
ATOM     85  O   UNL A   1      47.737  25.412  37.082  1.00  0.00    -0.744 OA
ENDBRANCH  81  82
ENDBRANCH  53  76
BRANCH  65  86
ATOM     86  C   UNL A   1      39.818  34.026  37.381  1.00  0.00    -0.014 A 
ATOM     87  C   UNL A   1      40.554  35.223  37.390  1.00  0.00     0.010 A 
ATOM     88  C   UNL A   1      38.959  33.739  38.459  1.00  0.00     0.010 A 
ATOM     89  C   UNL A   1      40.444  36.110  38.464  1.00  0.00     0.020 A 
ATOM     90  C   UNL A   1      38.823  34.638  39.519  1.00  0.00     0.020 A 
ATOM     91  C   UNL A   1      39.574  35.815  39.518  1.00  0.00     0.054 A 
BRANCH  91  92
ATOM     92  S   UNL A   1      39.396  37.020  40.861  1.00  0.00     0.124 S 
ATOM     93  O   UNL A   1      40.758  37.527  40.998  1.00  0.00    -0.237 OA
ATOM     94  O   UNL A   1      38.425  37.965  40.314  1.00  0.00    -0.237 OA
ATOM     95  O   UNL A   1      38.913  36.219  41.985  1.00  0.00    -0.744 OA
ENDBRANCH  91  92
ENDBRANCH  65  86
ENDBRANCH  39  40
ENDBRANCH  31  34
ENDBRANCH  29  30
ENDBRANCH   1  29
TORSDOF 18
ENDMDL
MODEL 3
REMARK VINA RESULT:     -10.9      3.929      9.728
REMARK SMILES CC1CC[NH+](CC(=O)N[C@H](Cc2cccc(F)c2)C(=O)NCCCNC(=O)c2ccc(-c3c4nc(c(-c5ccc(S(=O)(=O)[O-])cc5)c5ccc([nH]5)c(-c5ccc(S(=O)(=O)[O-])cc5)c5nc(c(-c6ccc(S(=O)(=O)[O-])cc6)c6ccc3[nH]6)C=C5)C=C4)cc2)CC1
REMARK SMILES IDX 23 1 22 2 21 3 19 4 20 5 10 7 9 8 7 9 8 10 6 12 5 13 1 14
REMARK SMILES IDX 2 15 3 16 89 17 4 18 88 19 11 21 12 22 13 23 18 24 14 25
REMARK SMILES IDX 16 26 15 27 17 28 24 29 25 30 26 31 27 33 28 34 29 35 87 36
REMARK SMILES IDX 30 37 86 38 31 39 32 40 33 41 80 42 34 43 85 44 79 45 81 46
REMARK SMILES IDX 35 47 84 48 78 49 77 50 36 52 66 53 47 54 65 55 48 56 51 57
REMARK SMILES IDX 64 58 82 59 49 60 50 61 63 63 83 64 52 65 37 66 38 67 46 68
REMARK SMILES IDX 39 69 45 70 40 71 41 72 42 73 43 74 44 75 67 76 68 77 76 78
REMARK SMILES IDX 69 79 75 80 70 81 71 82 72 83 73 84 74 85 53 86 54 87 62 88
REMARK SMILES IDX 55 89 61 90 56 91 57 92 58 93 59 94 60 95
REMARK H PARENT 21 6 9 11 5 20 25 32 81 51 51 62
REMARK Flexibility Score: inf
ROOT
ATOM      1  C   UNL A   1      38.302  20.090  25.098  1.00  0.00     0.042 C 
ENDROOT
BRANCH   1   2
ATOM      2  C   UNL A   1      37.363  21.258  24.845  1.00  0.00     0.117 C 
BRANCH   2   3
ATOM      3  N   UNL A   1      36.378  21.356  25.915  1.00  0.00    -0.354 N 
ATOM      4  C   UNL A   1      35.023  21.518  25.813  1.00  0.00     0.242 C 
ATOM      5  O   UNL A   1      34.427  22.063  26.743  1.00  0.00    -0.273 OA
ATOM      6  H   UNL A   1      36.735  21.299  26.830  1.00  0.00     0.163 HD
BRANCH   4   7
ATOM      7  C   UNL A   1      34.291  21.049  24.544  1.00  0.00     0.175 C 
BRANCH   7   8
ATOM      8  N   UNL A   1      34.299  22.233  23.657  1.00  0.00    -0.339 N 
ATOM      9  C   UNL A   1      33.482  23.293  23.448  1.00  0.00     0.275 C 
ATOM     10  O   UNL A   1      33.753  23.997  22.470  1.00  0.00    -0.268 OA
ATOM     11  H   UNL A   1      35.093  22.256  23.076  1.00  0.00     0.164 HD
BRANCH   9  12
ATOM     12  C   UNL A   1      32.348  23.643  24.390  1.00  0.00     0.363 C 
BRANCH  12  13
ATOM     13  N   UNL A   1      32.664  24.267  25.682  1.00  0.00    -0.327 N 
ATOM     14  C   UNL A   1      31.210  28.117  24.847  1.00  0.00     0.008 C 
ATOM     15  C   UNL A   1      31.897  27.105  25.769  1.00  0.00    -0.003 C 
ATOM     16  C   UNL A   1      33.201  26.620  25.112  1.00  0.00     0.065 C 
ATOM     17  C   UNL A   1      30.907  25.989  26.129  1.00  0.00     0.065 C 
ATOM     18  C   UNL A   1      33.700  25.285  25.640  1.00  0.00     0.262 C 
ATOM     19  C   UNL A   1      31.570  24.678  26.542  1.00  0.00     0.262 C 
ATOM     20  H   UNL A   1      33.043  23.442  26.149  1.00  0.00     0.348 HD
ENDBRANCH  12  13
ENDBRANCH   9  12
ENDBRANCH   7   8
BRANCH   7  21
ATOM     21  C   UNL A   1      32.930  20.404  24.887  1.00  0.00     0.070 C 
BRANCH  21  22
ATOM     22  C   UNL A   1      32.931  18.896  24.720  1.00  0.00    -0.043 A 
ATOM     23  C   UNL A   1      32.530  18.059  25.775  1.00  0.00     0.004 A 
ATOM     24  C   UNL A   1      33.451  18.311  23.557  1.00  0.00     0.043 A 
ATOM     25  C   UNL A   1      32.781  16.683  25.726  1.00  0.00     0.003 A 
ATOM     26  C   UNL A   1      33.727  16.946  23.534  1.00  0.00     0.123 A 
ATOM     27  C   UNL A   1      33.419  16.132  24.618  1.00  0.00     0.039 A 
ATOM     28  F   UNL A   1      34.381  16.427  22.487  1.00  0.00    -0.207 F 
ENDBRANCH  21  22
ENDBRANCH   7  21
ENDBRANCH   4   7
ENDBRANCH   2   3
ENDBRANCH   1   2
BRANCH   1  29
ATOM     29  C   UNL A   1      39.500  20.495  25.941  1.00  0.00     0.118 C 
BRANCH  29  30
ATOM     30  N   UNL A   1      40.425  19.382  26.126  1.00  0.00    -0.352 N 
ATOM     31  C   UNL A   1      41.797  19.404  26.131  1.00  0.00     0.251 C 
ATOM     32  H   UNL A   1      40.010  18.500  26.265  1.00  0.00     0.163 HD
ATOM     33  O   UNL A   1      42.435  18.362  25.994  1.00  0.00    -0.269 OA
BRANCH  31  34
ATOM     34  C   UNL A   1      42.486  20.698  26.285  1.00  0.00     0.039 A 
ATOM     35  C   UNL A   1      42.883  21.410  25.153  1.00  0.00     0.014 A 
ATOM     36  C   UNL A   1      42.678  21.225  27.563  1.00  0.00     0.014 A 
ATOM     37  C   UNL A   1      43.398  22.698  25.305  1.00  0.00     0.010 A 
ATOM     38  C   UNL A   1      43.088  22.542  27.705  1.00  0.00     0.010 A 
ATOM     39  C   UNL A   1      43.454  23.291  26.578  1.00  0.00    -0.014 A 
BRANCH  39  40
ATOM     40  C   UNL A   1      43.882  24.698  26.771  1.00  0.00     0.031 A 
ATOM     41  C   UNL A   1      45.320  25.076  26.548  1.00  0.00     0.074 A 
ATOM     42  C   UNL A   1      43.001  25.602  27.244  1.00  0.00     0.049 A 
ATOM     43  N   UNL A   1      45.916  26.217  26.774  1.00  0.00    -0.248 NA
ATOM     44  C   UNL A   1      46.215  24.024  26.030  1.00  0.00     0.031 C 
ATOM     45  C   UNL A   1      41.587  25.342  27.535  1.00  0.00     0.029 A 
ATOM     46  N   UNL A   1      43.167  26.921  27.579  1.00  0.00    -0.354 N 
ATOM     47  C   UNL A   1      47.253  26.013  26.457  1.00  0.00     0.074 A 
ATOM     48  C   UNL A   1      47.392  24.629  26.065  1.00  0.00     0.031 C 
ATOM     49  C   UNL A   1      41.012  26.473  27.973  1.00  0.00     0.029 A 
ATOM     50  C   UNL A   1      42.022  27.522  28.051  1.00  0.00     0.049 A 
ATOM     51  H   UNL A   1      44.025  27.396  27.489  1.00  0.00     0.167 HD
ATOM     52  C   UNL A   1      48.271  26.905  26.477  1.00  0.00     0.031 A 
ATOM     53  C   UNL A   1      41.814  28.770  28.511  1.00  0.00     0.031 A 
ATOM     54  C   UNL A   1      48.117  28.285  26.850  1.00  0.00     0.049 A 
ATOM     55  C   UNL A   1      42.970  29.732  28.550  1.00  0.00     0.074 A 
ATOM     56  C   UNL A   1      49.067  29.290  26.828  1.00  0.00     0.029 A 
ATOM     57  N   UNL A   1      46.942  28.852  27.321  1.00  0.00    -0.354 N 
ATOM     58  N   UNL A   1      44.210  29.546  28.163  1.00  0.00    -0.248 NA
ATOM     59  C   UNL A   1      42.701  31.073  29.088  1.00  0.00     0.031 C 
ATOM     60  C   UNL A   1      48.486  30.447  27.354  1.00  0.00     0.029 A 
ATOM     61  C   UNL A   1      47.156  30.182  27.637  1.00  0.00     0.049 A 
ATOM     62  H   UNL A   1      46.085  28.379  27.418  1.00  0.00     0.167 HD
ATOM     63  C   UNL A   1      44.861  30.754  28.388  1.00  0.00     0.074 A 
ATOM     64  C   UNL A   1      43.875  31.668  28.926  1.00  0.00     0.031 C 
ATOM     65  C   UNL A   1      46.159  31.077  28.170  1.00  0.00     0.031 A 
BRANCH  52  66
ATOM     66  C   UNL A   1      49.644  26.417  26.097  1.00  0.00    -0.014 A 
ATOM     67  C   UNL A   1      50.228  26.760  24.865  1.00  0.00     0.010 A 
ATOM     68  C   UNL A   1      50.385  25.651  27.016  1.00  0.00     0.010 A 
ATOM     69  C   UNL A   1      51.515  26.321  24.544  1.00  0.00     0.020 A 
ATOM     70  C   UNL A   1      51.685  25.236  26.712  1.00  0.00     0.020 A 
ATOM     71  C   UNL A   1      52.237  25.563  25.472  1.00  0.00     0.054 A 
BRANCH  71  72
ATOM     72  S   UNL A   1      53.921  25.044  25.046  1.00  0.00     0.124 S 
ATOM     73  O   UNL A   1      53.786  23.589  25.004  1.00  0.00    -0.237 OA
ATOM     74  O   UNL A   1      54.136  25.692  23.754  1.00  0.00    -0.237 OA
ATOM     75  O   UNL A   1      54.734  25.562  26.143  1.00  0.00    -0.744 OA
ENDBRANCH  71  72
ENDBRANCH  52  66
BRANCH  53  76
ATOM     76  C   UNL A   1      40.460  29.185  28.972  1.00  0.00    -0.014 A 
ATOM     77  C   UNL A   1      39.503  29.639  28.048  1.00  0.00     0.010 A 
ATOM     78  C   UNL A   1      40.119  29.132  30.337  1.00  0.00     0.010 A 
ATOM     79  C   UNL A   1      38.239  30.054  28.481  1.00  0.00     0.020 A 
ATOM     80  C   UNL A   1      38.846  29.515  30.770  1.00  0.00     0.020 A 
ATOM     81  C   UNL A   1      37.919  29.988  29.839  1.00  0.00     0.054 A 
BRANCH  81  82
ATOM     82  S   UNL A   1      36.261  30.497  30.371  1.00  0.00     0.124 S 
ATOM     83  O   UNL A   1      36.457  31.916  30.655  1.00  0.00    -0.237 OA
ATOM     84  O   UNL A   1      35.448  30.192  29.197  1.00  0.00    -0.237 OA
ATOM     85  O   UNL A   1      36.002  29.655  31.536  1.00  0.00    -0.744 OA
ENDBRANCH  81  82
ENDBRANCH  53  76
BRANCH  65  86
ATOM     86  C   UNL A   1      46.591  32.483  28.490  1.00  0.00    -0.014 A 
ATOM     87  C   UNL A   1      47.144  32.805  29.741  1.00  0.00     0.010 A 
ATOM     88  C   UNL A   1      46.521  33.474  27.493  1.00  0.00     0.010 A 
ATOM     89  C   UNL A   1      47.605  34.099  29.995  1.00  0.00     0.020 A 
ATOM     90  C   UNL A   1      47.008  34.760  27.734  1.00  0.00     0.020 A 
ATOM     91  C   UNL A   1      47.541  35.066  28.988  1.00  0.00     0.054 A 
BRANCH  91  92
ATOM     92  S   UNL A   1      48.214  36.716  29.322  1.00  0.00     0.124 S 
ATOM     93  O   UNL A   1      48.529  37.195  27.980  1.00  0.00    -0.237 OA
ATOM     94  O   UNL A   1      47.098  37.388  29.984  1.00  0.00    -0.237 OA
ATOM     95  O   UNL A   1      49.371  36.453  30.177  1.00  0.00    -0.744 OA
ENDBRANCH  91  92
ENDBRANCH  65  86
ENDBRANCH  39  40
ENDBRANCH  31  34
ENDBRANCH  29  30
ENDBRANCH   1  29
TORSDOF 18
ENDMDL
