MODEL 1
REMARK VINA RESULT:     -12.0      0.000      0.000
REMARK SMILES CC(=O)Nc1ccc(/C(=C\c2ccc(S(C)(=O)=O)cc2)C(=O)NCCCNC(=O)c2ccc(-c3c4nc(c(-c5ccc(S(=O)(=O)[O-])cc5)c5ccc([nH]5)c(-c5ccc(S(=O)(=O)[O-])cc5)c5nc(c(-c6ccc(S(=O)(=O)[O-])cc6)c6ccc3[nH]6)C=C5)C=C4)cc2)cc1
REMARK SMILES IDX 25 1 24 2 23 3 21 4 22 5 9 7 10 8 8 9 5 10 6 11 91 12 7 13
REMARK SMILES IDX 90 14 4 15 1 16 2 17 3 18 11 20 12 21 20 22 13 23 19 24
REMARK SMILES IDX 14 25 15 26 16 27 17 28 18 29 26 30 27 31 28 32 29 34 30 35
REMARK SMILES IDX 31 36 89 37 32 38 88 39 33 40 34 41 35 42 82 43 36 44 87 45
REMARK SMILES IDX 81 46 83 47 37 48 86 49 80 50 79 51 38 53 68 54 49 55 67 56
REMARK SMILES IDX 50 57 53 58 66 59 84 60 51 61 52 62 65 64 85 65 54 66 39 67
REMARK SMILES IDX 40 68 48 69 41 70 47 71 42 72 43 73 44 74 45 75 46 76 69 77
REMARK SMILES IDX 70 78 78 79 71 80 77 81 72 82 73 83 74 84 75 85 76 86 55 87
REMARK SMILES IDX 56 88 64 89 57 90 63 91 58 92 59 93 60 94 61 95 62 96
REMARK H PARENT 23 6 4 19 27 33 83 52 53 63
REMARK Flexibility Score: inf
ROOT
ATOM      1  C   UNL A   1      38.482  19.808  25.004  1.00  0.00     0.042 C 
ENDROOT
BRANCH   1   2
ATOM      2  C   UNL A   1      37.406  20.876  24.785  1.00  0.00     0.118 C 
BRANCH   2   3
ATOM      3  N   UNL A   1      37.760  22.113  25.453  1.00  0.00    -0.352 N 
ATOM      4  C   UNL A   1      37.127  23.276  25.757  1.00  0.00     0.251 C 
ATOM      5  O   UNL A   1      37.844  24.074  26.366  1.00  0.00    -0.269 OA
ATOM      6  H   UNL A   1      38.695  22.110  25.765  1.00  0.00     0.163 HD
BRANCH   4   7
ATOM      7  C   UNL A   1      35.658  23.576  25.463  1.00  0.00     0.047 C 
ATOM      8  C   UNL A   1      35.296  24.874  25.301  1.00  0.00     0.022 C 
BRANCH   7   9
ATOM      9  C   UNL A   1      34.630  22.470  25.567  1.00  0.00    -0.013 A 
ATOM     10  C   UNL A   1      33.122  20.039  25.641  1.00  0.00     0.041 A 
ATOM     11  C   UNL A   1      33.476  20.699  26.818  1.00  0.00     0.027 A 
ATOM     12  C   UNL A   1      33.365  20.688  24.442  1.00  0.00     0.027 A 
ATOM     13  C   UNL A   1      34.187  21.913  26.778  1.00  0.00     0.011 A 
ATOM     14  C   UNL A   1      34.135  21.856  24.408  1.00  0.00     0.011 A 
BRANCH  10  15
ATOM     15  N   UNL A   1      32.545  18.763  25.741  1.00  0.00    -0.326 N 
ATOM     16  C   UNL A   1      34.190  17.384  24.445  1.00  0.00     0.114 C 
ATOM     17  C   UNL A   1      32.900  17.558  25.201  1.00  0.00     0.221 C 
ATOM     18  O   UNL A   1      32.154  16.590  25.380  1.00  0.00    -0.275 OA
ATOM     19  H   UNL A   1      31.737  18.730  26.303  1.00  0.00     0.169 HD
ENDBRANCH  10  15
ENDBRANCH   7   9
BRANCH   8  20
ATOM     20  C   UNL A   1      34.018  25.432  24.840  1.00  0.00    -0.025 A 
ATOM     21  C   UNL A   1      33.309  26.249  25.739  1.00  0.00     0.009 A 
ATOM     22  C   UNL A   1      33.532  25.246  23.542  1.00  0.00     0.009 A 
ATOM     23  C   UNL A   1      32.167  26.933  25.325  1.00  0.00     0.021 A 
ATOM     24  C   UNL A   1      32.387  25.932  23.121  1.00  0.00     0.021 A 
ATOM     25  C   UNL A   1      31.720  26.781  24.011  1.00  0.00     0.067 A 
BRANCH  25  26
ATOM     26  S   UNL A   1      30.373  27.795  23.446  1.00  0.00     0.175 S 
ATOM     27  C   UNL A   1      28.925  26.869  23.875  1.00  0.00     0.163 C 
ATOM     28  O   UNL A   1      30.391  29.006  24.244  1.00  0.00    -0.224 OA
ATOM     29  O   UNL A   1      30.453  27.868  21.998  1.00  0.00    -0.224 OA
ENDBRANCH  25  26
ENDBRANCH   8  20
ENDBRANCH   4   7
ENDBRANCH   2   3
ENDBRANCH   1   2
BRANCH   1  30
ATOM     30  C   UNL A   1      39.524  20.194  26.056  1.00  0.00     0.118 C 
BRANCH  30  31
ATOM     31  N   UNL A   1      40.601  19.218  26.140  1.00  0.00    -0.352 N 
ATOM     32  C   UNL A   1      41.959  19.405  26.173  1.00  0.00     0.251 C 
ATOM     33  H   UNL A   1      40.309  18.278  26.178  1.00  0.00     0.163 HD
ATOM     34  O   UNL A   1      42.702  18.445  25.979  1.00  0.00    -0.269 OA
BRANCH  32  35
ATOM     35  C   UNL A   1      42.534  20.743  26.435  1.00  0.00     0.039 A 
ATOM     36  C   UNL A   1      43.022  21.491  25.359  1.00  0.00     0.014 A 
ATOM     37  C   UNL A   1      42.646  21.239  27.737  1.00  0.00     0.014 A 
ATOM     38  C   UNL A   1      43.571  22.757  25.584  1.00  0.00     0.010 A 
ATOM     39  C   UNL A   1      43.133  22.527  27.952  1.00  0.00     0.010 A 
ATOM     40  C   UNL A   1      43.604  23.298  26.879  1.00  0.00    -0.014 A 
BRANCH  40  41
ATOM     41  C   UNL A   1      44.120  24.669  27.131  1.00  0.00     0.031 A 
ATOM     42  C   UNL A   1      43.179  25.773  27.532  1.00  0.00     0.074 A 
ATOM     43  C   UNL A   1      45.426  24.935  26.927  1.00  0.00     0.049 A 
ATOM     44  N   UNL A   1      43.429  27.045  27.712  1.00  0.00    -0.248 NA
ATOM     45  C   UNL A   1      41.767  25.407  27.731  1.00  0.00     0.031 C 
ATOM     46  C   UNL A   1      46.433  23.959  26.500  1.00  0.00     0.029 A 
ATOM     47  N   UNL A   1      46.130  26.109  27.037  1.00  0.00    -0.354 N 
ATOM     48  C   UNL A   1      42.209  27.633  28.023  1.00  0.00     0.074 A 
ATOM     49  C   UNL A   1      41.211  26.587  27.968  1.00  0.00     0.031 C 
ATOM     50  C   UNL A   1      47.623  24.570  26.401  1.00  0.00     0.029 A 
ATOM     51  C   UNL A   1      47.461  25.987  26.714  1.00  0.00     0.049 A 
ATOM     52  H   UNL A   1      45.719  26.957  27.321  1.00  0.00     0.167 HD
ATOM     53  C   UNL A   1      41.944  28.923  28.340  1.00  0.00     0.031 A 
ATOM     54  C   UNL A   1      48.440  26.911  26.660  1.00  0.00     0.031 A 
ATOM     55  C   UNL A   1      42.942  29.957  28.408  1.00  0.00     0.049 A 
ATOM     56  C   UNL A   1      48.121  28.337  27.014  1.00  0.00     0.074 A 
ATOM     57  C   UNL A   1      42.785  31.281  28.783  1.00  0.00     0.029 A 
ATOM     58  N   UNL A   1      44.283  29.786  28.096  1.00  0.00    -0.354 N 
ATOM     59  N   UNL A   1      46.971  28.859  27.373  1.00  0.00    -0.248 NA
ATOM     60  C   UNL A   1      49.232  29.298  26.969  1.00  0.00     0.031 C 
ATOM     61  C   UNL A   1      44.020  31.923  28.644  1.00  0.00     0.029 A 
ATOM     62  C   UNL A   1      44.959  30.986  28.243  1.00  0.00     0.049 A 
ATOM     63  H   UNL A   1      44.693  28.939  27.811  1.00  0.00     0.167 HD
ATOM     64  C   UNL A   1      47.227  30.203  27.621  1.00  0.00     0.074 A 
ATOM     65  C   UNL A   1      48.642  30.410  27.387  1.00  0.00     0.031 C 
ATOM     66  C   UNL A   1      46.367  31.177  28.009  1.00  0.00     0.031 A 
BRANCH  53  67
ATOM     67  C   UNL A   1      40.513  29.295  28.630  1.00  0.00    -0.014 A 
ATOM     68  C   UNL A   1      39.550  29.342  27.607  1.00  0.00     0.010 A 
ATOM     69  C   UNL A   1      40.113  29.548  29.955  1.00  0.00     0.010 A 
ATOM     70  C   UNL A   1      38.224  29.673  27.896  1.00  0.00     0.020 A 
ATOM     71  C   UNL A   1      38.781  29.852  30.253  1.00  0.00     0.020 A 
ATOM     72  C   UNL A   1      37.848  29.928  29.218  1.00  0.00     0.054 A 
BRANCH  72  73
ATOM     73  S   UNL A   1      36.113  30.328  29.567  1.00  0.00     0.124 S 
ATOM     74  O   UNL A   1      35.427  29.692  28.446  1.00  0.00    -0.237 OA
ATOM     75  O   UNL A   1      35.897  29.705  30.871  1.00  0.00    -0.237 OA
ATOM     76  O   UNL A   1      36.086  31.788  29.566  1.00  0.00    -0.744 OA
ENDBRANCH  72  73
ENDBRANCH  53  67
BRANCH  54  77
ATOM     77  C   UNL A   1      49.816  26.512  26.255  1.00  0.00    -0.014 A 
ATOM     78  C   UNL A   1      50.259  26.711  24.937  1.00  0.00     0.010 A 
ATOM     79  C   UNL A   1      50.696  25.941  27.193  1.00  0.00     0.010 A 
ATOM     80  C   UNL A   1      51.550  26.329  24.557  1.00  0.00     0.020 A 
ATOM     81  C   UNL A   1      51.996  25.584  26.826  1.00  0.00     0.020 A 
ATOM     82  C   UNL A   1      52.411  25.769  25.506  1.00  0.00     0.054 A 
BRANCH  82  83
ATOM     83  S   UNL A   1      54.100  25.330  25.007  1.00  0.00     0.124 S 
ATOM     84  O   UNL A   1      54.199  25.957  23.693  1.00  0.00    -0.237 OA
ATOM     85  O   UNL A   1      54.908  25.935  26.062  1.00  0.00    -0.237 OA
ATOM     86  O   UNL A   1      54.085  23.869  25.006  1.00  0.00    -0.744 OA
ENDBRANCH  82  83
ENDBRANCH  54  77
BRANCH  66  87
ATOM     87  C   UNL A   1      46.936  32.551  28.242  1.00  0.00    -0.014 A 
ATOM     88  C   UNL A   1      46.971  33.511  27.216  1.00  0.00     0.010 A 
ATOM     89  C   UNL A   1      47.383  32.905  29.529  1.00  0.00     0.010 A 
ATOM     90  C   UNL A   1      47.469  34.793  27.465  1.00  0.00     0.020 A 
ATOM     91  C   UNL A   1      47.856  34.193  29.788  1.00  0.00     0.020 A 
ATOM     92  C   UNL A   1      47.908  35.125  28.750  1.00  0.00     0.054 A 
BRANCH  92  93
ATOM     93  S   UNL A   1      48.503  36.811  29.061  1.00  0.00     0.124 S 
ATOM     94  O   UNL A   1      47.415  37.374  29.856  1.00  0.00    -0.237 OA
ATOM     95  O   UNL A   1      49.753  36.583  29.780  1.00  0.00    -0.237 OA
ATOM     96  O   UNL A   1      48.654  37.377  27.723  1.00  0.00    -0.744 OA
ENDBRANCH  92  93
ENDBRANCH  66  87
ENDBRANCH  40  41
ENDBRANCH  32  35
ENDBRANCH  30  31
ENDBRANCH   1  30
TORSDOF 17
ENDMDL
MODEL 2
REMARK VINA RESULT:     -11.4      2.854      9.024
REMARK SMILES CC(=O)Nc1ccc(/C(=C\c2ccc(S(C)(=O)=O)cc2)C(=O)NCCCNC(=O)c2ccc(-c3c4nc(c(-c5ccc(S(=O)(=O)[O-])cc5)c5ccc([nH]5)c(-c5ccc(S(=O)(=O)[O-])cc5)c5nc(c(-c6ccc(S(=O)(=O)[O-])cc6)c6ccc3[nH]6)C=C5)C=C4)cc2)cc1
REMARK SMILES IDX 25 1 24 2 23 3 21 4 22 5 9 7 10 8 8 9 5 10 6 11 91 12 7 13
REMARK SMILES IDX 90 14 4 15 1 16 2 17 3 18 11 20 12 21 20 22 13 23 19 24
REMARK SMILES IDX 14 25 15 26 16 27 17 28 18 29 26 30 27 31 28 32 29 34 30 35
REMARK SMILES IDX 31 36 89 37 32 38 88 39 33 40 34 41 35 42 82 43 36 44 87 45
REMARK SMILES IDX 81 46 83 47 37 48 86 49 80 50 79 51 38 53 68 54 49 55 67 56
REMARK SMILES IDX 50 57 53 58 66 59 84 60 51 61 52 62 65 64 85 65 54 66 39 67
REMARK SMILES IDX 40 68 48 69 41 70 47 71 42 72 43 73 44 74 45 75 46 76 69 77
REMARK SMILES IDX 70 78 78 79 71 80 77 81 72 82 73 83 74 84 75 85 76 86 55 87
REMARK SMILES IDX 56 88 64 89 57 90 63 91 58 92 59 93 60 94 61 95 62 96
REMARK H PARENT 23 6 4 19 27 33 83 52 53 63
REMARK Flexibility Score: inf
ROOT
ATOM      1  C   UNL A   1      35.225  29.374  27.615  1.00  0.00     0.042 C 
ENDROOT
BRANCH   1   2
ATOM      2  C   UNL A   1      33.923  29.578  26.836  1.00  0.00     0.118 C 
BRANCH   2   3
ATOM      3  N   UNL A   1      32.777  29.174  27.628  1.00  0.00    -0.352 N 
ATOM      4  C   UNL A   1      31.834  28.199  27.556  1.00  0.00     0.251 C 
ATOM      5  O   UNL A   1      31.030  28.231  28.492  1.00  0.00    -0.269 OA
ATOM      6  H   UNL A   1      32.650  29.751  28.416  1.00  0.00     0.163 HD
BRANCH   4   7
ATOM      7  C   UNL A   1      31.782  27.107  26.489  1.00  0.00     0.047 C 
ATOM      8  C   UNL A   1      32.385  25.923  26.762  1.00  0.00     0.022 C 
BRANCH   7   9
ATOM      9  C   UNL A   1      31.259  27.433  25.107  1.00  0.00    -0.013 A 
ATOM     10  C   UNL A   1      29.951  28.430  22.765  1.00  0.00     0.041 A 
ATOM     11  C   UNL A   1      31.274  28.772  23.048  1.00  0.00     0.027 A 
ATOM     12  C   UNL A   1      29.357  27.457  23.550  1.00  0.00     0.027 A 
ATOM     13  C   UNL A   1      31.927  28.251  24.181  1.00  0.00     0.011 A 
ATOM     14  C   UNL A   1      29.983  27.001  24.715  1.00  0.00     0.011 A 
BRANCH  10  15
ATOM     15  N   UNL A   1      29.305  29.090  21.707  1.00  0.00    -0.326 N 
ATOM     16  C   UNL A   1      27.979  30.816  22.952  1.00  0.00     0.114 C 
ATOM     17  C   UNL A   1      28.379  30.097  21.692  1.00  0.00     0.221 C 
ATOM     18  O   UNL A   1      27.899  30.439  20.606  1.00  0.00    -0.275 OA
ATOM     19  H   UNL A   1      29.565  28.770  20.814  1.00  0.00     0.169 HD
ENDBRANCH  10  15
ENDBRANCH   7   9
BRANCH   8  20
ATOM     20  C   UNL A   1      32.337  24.660  26.013  1.00  0.00    -0.025 A 
ATOM     21  C   UNL A   1      33.529  24.224  25.408  1.00  0.00     0.009 A 
ATOM     22  C   UNL A   1      31.194  23.858  25.949  1.00  0.00     0.009 A 
ATOM     23  C   UNL A   1      33.601  22.967  24.809  1.00  0.00     0.021 A 
ATOM     24  C   UNL A   1      31.261  22.594  25.350  1.00  0.00     0.021 A 
ATOM     25  C   UNL A   1      32.467  22.152  24.796  1.00  0.00     0.067 A 
BRANCH  25  26
ATOM     26  S   UNL A   1      32.620  20.487  24.192  1.00  0.00     0.175 S 
ATOM     27  C   UNL A   1      34.319  20.075  24.484  1.00  0.00     0.163 C 
ATOM     28  O   UNL A   1      31.797  19.650  25.045  1.00  0.00    -0.224 OA
ATOM     29  O   UNL A   1      32.401  20.515  22.758  1.00  0.00    -0.224 OA
ENDBRANCH  25  26
ENDBRANCH   8  20
ENDBRANCH   4   7
ENDBRANCH   2   3
ENDBRANCH   1   2
BRANCH   1  30
ATOM     30  C   UNL A   1      35.692  30.621  28.369  1.00  0.00     0.118 C 
BRANCH  30  31
ATOM     31  N   UNL A   1      35.713  30.411  29.809  1.00  0.00    -0.352 N 
ATOM     32  C   UNL A   1      36.673  29.838  30.603  1.00  0.00     0.251 C 
ATOM     33  H   UNL A   1      34.913  30.731  30.287  1.00  0.00     0.163 HD
ATOM     34  O   UNL A   1      36.387  29.520  31.755  1.00  0.00    -0.269 OA
BRANCH  32  35
ATOM     35  C   UNL A   1      38.039  29.599  30.087  1.00  0.00     0.039 A 
ATOM     36  C   UNL A   1      39.028  29.158  30.972  1.00  0.00     0.014 A 
ATOM     37  C   UNL A   1      38.364  29.861  28.753  1.00  0.00     0.014 A 
ATOM     38  C   UNL A   1      40.326  28.927  30.507  1.00  0.00     0.010 A 
ATOM     39  C   UNL A   1      39.641  29.568  28.277  1.00  0.00     0.010 A 
ATOM     40  C   UNL A   1      40.636  29.102  29.149  1.00  0.00    -0.014 A 
BRANCH  40  41
ATOM     41  C   UNL A   1      41.991  28.797  28.619  1.00  0.00     0.031 A 
ATOM     42  C   UNL A   1      42.328  27.408  28.149  1.00  0.00     0.074 A 
ATOM     43  C   UNL A   1      42.939  29.756  28.632  1.00  0.00     0.049 A 
ATOM     44  N   UNL A   1      43.475  26.933  27.735  1.00  0.00    -0.248 NA
ATOM     45  C   UNL A   1      41.241  26.415  28.169  1.00  0.00     0.031 C 
ATOM     46  C   UNL A   1      42.748  31.131  29.099  1.00  0.00     0.029 A 
ATOM     47  N   UNL A   1      44.259  29.716  28.253  1.00  0.00    -0.354 N 
ATOM     48  C   UNL A   1      43.255  25.587  27.468  1.00  0.00     0.074 A 
ATOM     49  C   UNL A   1      41.876  25.310  27.804  1.00  0.00     0.031 C 
ATOM     50  C   UNL A   1      43.901  31.806  28.965  1.00  0.00     0.029 A 
ATOM     51  C   UNL A   1      44.924  30.904  28.443  1.00  0.00     0.049 A 
ATOM     52  H   UNL A   1      44.687  28.912  27.881  1.00  0.00     0.167 HD
ATOM     53  C   UNL A   1      44.119  24.668  26.975  1.00  0.00     0.031 A 
ATOM     54  C   UNL A   1      46.215  31.231  28.236  1.00  0.00     0.031 A 
ATOM     55  C   UNL A   1      45.487  24.951  26.628  1.00  0.00     0.049 A 
ATOM     56  C   UNL A   1      47.155  30.193  27.690  1.00  0.00     0.074 A 
ATOM     57  C   UNL A   1      46.424  24.104  26.061  1.00  0.00     0.029 A 
ATOM     58  N   UNL A   1      46.114  26.174  26.814  1.00  0.00    -0.354 N 
ATOM     59  N   UNL A   1      46.909  28.942  27.379  1.00  0.00    -0.248 NA
ATOM     60  C   UNL A   1      48.543  30.612  27.454  1.00  0.00     0.031 C 
ATOM     61  C   UNL A   1      47.633  24.799  25.955  1.00  0.00     0.029 A 
ATOM     62  C   UNL A   1      47.433  26.096  26.398  1.00  0.00     0.049 A 
ATOM     63  H   UNL A   1      45.687  26.978  27.188  1.00  0.00     0.167 HD
ATOM     64  C   UNL A   1      48.105  28.432  26.887  1.00  0.00     0.074 A 
ATOM     65  C   UNL A   1      49.069  29.514  26.927  1.00  0.00     0.031 C 
ATOM     66  C   UNL A   1      48.380  27.181  26.441  1.00  0.00     0.031 A 
BRANCH  53  67
ATOM     67  C   UNL A   1      43.615  23.260  26.787  1.00  0.00    -0.014 A 
ATOM     68  C   UNL A   1      43.808  22.572  25.576  1.00  0.00     0.010 A 
ATOM     69  C   UNL A   1      42.986  22.596  27.856  1.00  0.00     0.010 A 
ATOM     70  C   UNL A   1      43.349  21.262  25.424  1.00  0.00     0.020 A 
ATOM     71  C   UNL A   1      42.550  21.275  27.718  1.00  0.00     0.020 A 
ATOM     72  C   UNL A   1      42.720  20.621  26.496  1.00  0.00     0.054 A 
BRANCH  72  73
ATOM     73  S   UNL A   1      42.159  18.909  26.279  1.00  0.00     0.124 S 
ATOM     74  O   UNL A   1      40.789  19.099  25.810  1.00  0.00    -0.237 OA
ATOM     75  O   UNL A   1      43.097  18.389  25.286  1.00  0.00    -0.237 OA
ATOM     76  O   UNL A   1      42.286  18.331  27.614  1.00  0.00    -0.744 OA
ENDBRANCH  72  73
ENDBRANCH  53  67
BRANCH  54  77
ATOM     77  C   UNL A   1      46.691  32.607  28.547  1.00  0.00    -0.014 A 
ATOM     78  C   UNL A   1      47.208  32.915  29.816  1.00  0.00     0.010 A 
ATOM     79  C   UNL A   1      46.639  33.616  27.567  1.00  0.00     0.010 A 
ATOM     80  C   UNL A   1      47.649  34.210  30.108  1.00  0.00     0.020 A 
ATOM     81  C   UNL A   1      47.104  34.904  27.845  1.00  0.00     0.020 A 
ATOM     82  C   UNL A   1      47.595  35.197  29.118  1.00  0.00     0.054 A 
BRANCH  82  83
ATOM     83  S   UNL A   1      48.220  36.857  29.500  1.00  0.00     0.124 S 
ATOM     84  O   UNL A   1      49.376  36.956  28.614  1.00  0.00    -0.237 OA
ATOM     85  O   UNL A   1      47.084  37.708  29.159  1.00  0.00    -0.237 OA
ATOM     86  O   UNL A   1      48.528  36.784  30.927  1.00  0.00    -0.744 OA
ENDBRANCH  82  83
ENDBRANCH  54  77
BRANCH  66  87
ATOM     87  C   UNL A   1      49.769  26.919  25.924  1.00  0.00    -0.014 A 
ATOM     88  C   UNL A   1      50.085  27.081  24.564  1.00  0.00     0.010 A 
ATOM     89  C   UNL A   1      50.788  26.568  26.829  1.00  0.00     0.010 A 
ATOM     90  C   UNL A   1      51.391  26.868  24.113  1.00  0.00     0.020 A 
ATOM     91  C   UNL A   1      52.100  26.381  26.386  1.00  0.00     0.020 A 
ATOM     92  C   UNL A   1      52.390  26.520  25.028  1.00  0.00     0.054 A 
BRANCH  92  93
ATOM     93  S   UNL A   1      54.086  26.299  24.425  1.00  0.00     0.124 S 
ATOM     94  O   UNL A   1      54.816  27.297  25.203  1.00  0.00    -0.237 OA
ATOM     95  O   UNL A   1      54.370  24.907  24.767  1.00  0.00    -0.237 OA
ATOM     96  O   UNL A   1      53.986  26.575  22.995  1.00  0.00    -0.744 OA
ENDBRANCH  92  93
ENDBRANCH  66  87
ENDBRANCH  40  41
ENDBRANCH  32  35
ENDBRANCH  30  31
ENDBRANCH   1  30
TORSDOF 17
ENDMDL
MODEL 3
REMARK VINA RESULT:     -11.1      7.363     13.424
REMARK SMILES CC(=O)Nc1ccc(/C(=C\c2ccc(S(C)(=O)=O)cc2)C(=O)NCCCNC(=O)c2ccc(-c3c4nc(c(-c5ccc(S(=O)(=O)[O-])cc5)c5ccc([nH]5)c(-c5ccc(S(=O)(=O)[O-])cc5)c5nc(c(-c6ccc(S(=O)(=O)[O-])cc6)c6ccc3[nH]6)C=C5)C=C4)cc2)cc1
REMARK SMILES IDX 25 1 24 2 23 3 21 4 22 5 9 7 10 8 8 9 5 10 6 11 91 12 7 13
REMARK SMILES IDX 90 14 4 15 1 16 2 17 3 18 11 20 12 21 20 22 13 23 19 24
REMARK SMILES IDX 14 25 15 26 16 27 17 28 18 29 26 30 27 31 28 32 29 34 30 35
REMARK SMILES IDX 31 36 89 37 32 38 88 39 33 40 34 41 35 42 82 43 36 44 87 45
REMARK SMILES IDX 81 46 83 47 37 48 86 49 80 50 79 51 38 53 68 54 49 55 67 56
REMARK SMILES IDX 50 57 53 58 66 59 84 60 51 61 52 62 65 64 85 65 54 66 39 67
REMARK SMILES IDX 40 68 48 69 41 70 47 71 42 72 43 73 44 74 45 75 46 76 69 77
REMARK SMILES IDX 70 78 78 79 71 80 77 81 72 82 73 83 74 84 75 85 76 86 55 87
REMARK SMILES IDX 56 88 64 89 57 90 63 91 58 92 59 93 60 94 61 95 62 96
REMARK H PARENT 23 6 4 19 27 33 83 52 53 63
REMARK Flexibility Score: inf
ROOT
ATOM      1  C   UNL A   1      49.682  22.021  35.710  1.00  0.00     0.042 C 
ENDROOT
BRANCH   1   2
ATOM      2  C   UNL A   1      50.083  20.564  35.468  1.00  0.00     0.118 C 
BRANCH   2   3
ATOM      3  N   UNL A   1      49.362  20.009  34.338  1.00  0.00    -0.352 N 
ATOM      4  C   UNL A   1      48.063  19.932  33.950  1.00  0.00     0.251 C 
ATOM      5  O   UNL A   1      47.913  19.358  32.867  1.00  0.00    -0.269 OA
ATOM      6  H   UNL A   1      49.967  19.582  33.688  1.00  0.00     0.163 HD
BRANCH   4   7
ATOM      7  C   UNL A   1      46.885  20.545  34.704  1.00  0.00     0.047 C 
ATOM      8  C   UNL A   1      46.490  21.796  34.356  1.00  0.00     0.022 C 
BRANCH   7   9
ATOM      9  C   UNL A   1      46.336  19.850  35.931  1.00  0.00    -0.013 A 
ATOM     10  C   UNL A   1      45.593  18.091  38.063  1.00  0.00     0.041 A 
ATOM     11  C   UNL A   1      46.527  19.107  38.265  1.00  0.00     0.027 A 
ATOM     12  C   UNL A   1      44.910  18.075  36.859  1.00  0.00     0.027 A 
ATOM     13  C   UNL A   1      46.864  19.994  37.225  1.00  0.00     0.011 A 
ATOM     14  C   UNL A   1      45.302  18.911  35.807  1.00  0.00     0.011 A 
BRANCH  10  15
ATOM     15  N   UNL A   1      45.404  17.148  39.087  1.00  0.00    -0.326 N 
ATOM     16  C   UNL A   1      45.491  18.616  41.118  1.00  0.00     0.114 C 
ATOM     17  C   UNL A   1      45.409  17.269  40.449  1.00  0.00     0.221 C 
ATOM     18  O   UNL A   1      45.302  16.246  41.131  1.00  0.00    -0.275 OA
ATOM     19  H   UNL A   1      45.238  16.233  38.765  1.00  0.00     0.169 HD
ENDBRANCH  10  15
ENDBRANCH   7   9
BRANCH   8  20
ATOM     20  C   UNL A   1      45.299  22.545  34.777  1.00  0.00    -0.025 A 
ATOM     21  C   UNL A   1      45.296  23.074  36.080  1.00  0.00     0.009 A 
ATOM     22  C   UNL A   1      44.227  22.812  33.919  1.00  0.00     0.009 A 
ATOM     23  C   UNL A   1      44.270  23.920  36.499  1.00  0.00     0.021 A 
ATOM     24  C   UNL A   1      43.195  23.662  34.334  1.00  0.00     0.021 A 
ATOM     25  C   UNL A   1      43.231  24.221  35.617  1.00  0.00     0.067 A 
BRANCH  25  26
ATOM     26  S   UNL A   1      42.029  25.439  36.098  1.00  0.00     0.175 S 
ATOM     27  C   UNL A   1      42.960  26.618  37.037  1.00  0.00     0.163 C 
ATOM     28  O   UNL A   1      41.572  26.086  34.882  1.00  0.00    -0.224 OA
ATOM     29  O   UNL A   1      41.081  24.796  36.990  1.00  0.00    -0.224 OA
ENDBRANCH  25  26
ENDBRANCH   8  20
ENDBRANCH   4   7
ENDBRANCH   2   3
ENDBRANCH   1   2
BRANCH   1  30
ATOM     30  C   UNL A   1      50.578  23.032  34.991  1.00  0.00     0.118 C 
BRANCH  30  31
ATOM     31  N   UNL A   1      51.036  24.087  35.883  1.00  0.00    -0.352 N 
ATOM     32  C   UNL A   1      50.618  25.388  35.998  1.00  0.00     0.251 C 
ATOM     33  H   UNL A   1      51.757  23.826  36.500  1.00  0.00     0.163 HD
ATOM     34  O   UNL A   1      51.308  26.187  36.627  1.00  0.00    -0.269 OA
BRANCH  32  35
ATOM     35  C   UNL A   1      49.354  25.836  35.372  1.00  0.00     0.039 A 
ATOM     36  C   UNL A   1      48.141  25.481  35.970  1.00  0.00     0.014 A 
ATOM     37  C   UNL A   1      49.355  26.553  34.172  1.00  0.00     0.014 A 
ATOM     38  C   UNL A   1      46.934  25.891  35.396  1.00  0.00     0.010 A 
ATOM     39  C   UNL A   1      48.155  27.017  33.637  1.00  0.00     0.010 A 
ATOM     40  C   UNL A   1      46.932  26.688  34.240  1.00  0.00    -0.014 A 
BRANCH  40  41
ATOM     41  C   UNL A   1      45.664  27.193  33.651  1.00  0.00     0.031 A 
ATOM     42  C   UNL A   1      45.124  26.591  32.381  1.00  0.00     0.074 A 
ATOM     43  C   UNL A   1      45.039  28.242  34.221  1.00  0.00     0.049 A 
ATOM     44  N   UNL A   1      44.083  26.952  31.676  1.00  0.00    -0.248 NA
ATOM     45  C   UNL A   1      45.864  25.451  31.815  1.00  0.00     0.031 C 
ATOM     46  C   UNL A   1      45.483  28.937  35.432  1.00  0.00     0.029 A 
ATOM     47  N   UNL A   1      43.902  28.917  33.851  1.00  0.00    -0.354 N 
ATOM     48  C   UNL A   1      44.055  26.103  30.576  1.00  0.00     0.074 A 
ATOM     49  C   UNL A   1      45.206  25.234  30.685  1.00  0.00     0.031 C 
ATOM     50  C   UNL A   1      44.622  29.928  35.712  1.00  0.00     0.029 A 
ATOM     51  C   UNL A   1      43.588  29.968  34.681  1.00  0.00     0.049 A 
ATOM     52  H   UNL A   1      43.363  28.672  33.065  1.00  0.00     0.167 HD
ATOM     53  C   UNL A   1      43.146  26.042  29.573  1.00  0.00     0.031 A 
ATOM     54  C   UNL A   1      42.592  30.872  34.615  1.00  0.00     0.031 A 
ATOM     55  C   UNL A   1      41.994  26.899  29.477  1.00  0.00     0.049 A 
ATOM     56  C   UNL A   1      41.597  30.785  33.491  1.00  0.00     0.074 A 
ATOM     57  C   UNL A   1      40.980  26.874  28.534  1.00  0.00     0.029 A 
ATOM     58  N   UNL A   1      41.701  27.935  30.351  1.00  0.00    -0.354 N 
ATOM     59  N   UNL A   1      41.550  29.929  32.498  1.00  0.00    -0.248 NA
ATOM     60  C   UNL A   1      40.513  31.777  33.486  1.00  0.00     0.031 C 
ATOM     61  C   UNL A   1      40.103  27.929  28.807  1.00  0.00     0.029 A 
ATOM     62  C   UNL A   1      40.538  28.573  29.955  1.00  0.00     0.049 A 
ATOM     63  H   UNL A   1      42.241  28.181  31.136  1.00  0.00     0.167 HD
ATOM     64  C   UNL A   1      40.418  30.264  31.764  1.00  0.00     0.074 A 
ATOM     65  C   UNL A   1      39.801  31.390  32.436  1.00  0.00     0.031 C 
ATOM     66  C   UNL A   1      39.933  29.689  30.635  1.00  0.00     0.031 A 
BRANCH  53  67
ATOM     67  C   UNL A   1      43.364  25.017  28.490  1.00  0.00    -0.014 A 
ATOM     68  C   UNL A   1      44.129  25.314  27.349  1.00  0.00     0.010 A 
ATOM     69  C   UNL A   1      42.840  23.720  28.642  1.00  0.00     0.010 A 
ATOM     70  C   UNL A   1      44.334  24.347  26.361  1.00  0.00     0.020 A 
ATOM     71  C   UNL A   1      43.067  22.741  27.670  1.00  0.00     0.020 A 
ATOM     72  C   UNL A   1      43.799  23.065  26.528  1.00  0.00     0.054 A 
BRANCH  72  73
ATOM     73  S   UNL A   1      44.107  21.822  25.243  1.00  0.00     0.124 S 
ATOM     74  O   UNL A   1      43.658  22.516  24.039  1.00  0.00    -0.237 OA
ATOM     75  O   UNL A   1      45.548  21.607  25.344  1.00  0.00    -0.237 OA
ATOM     76  O   UNL A   1      43.281  20.689  25.653  1.00  0.00    -0.744 OA
ENDBRANCH  72  73
ENDBRANCH  53  67
BRANCH  54  77
ATOM     77  C   UNL A   1      42.488  31.938  35.649  1.00  0.00    -0.014 A 
ATOM     78  C   UNL A   1      41.749  31.724  36.825  1.00  0.00     0.010 A 
ATOM     79  C   UNL A   1      43.139  33.172  35.467  1.00  0.00     0.010 A 
ATOM     80  C   UNL A   1      41.646  32.729  37.792  1.00  0.00     0.020 A 
ATOM     81  C   UNL A   1      43.063  34.169  36.444  1.00  0.00     0.020 A 
ATOM     82  C   UNL A   1      42.307  33.946  37.595  1.00  0.00     0.054 A 
BRANCH  82  83
ATOM     83  S   UNL A   1      42.206  35.217  38.886  1.00  0.00     0.124 S 
ATOM     84  O   UNL A   1      42.533  34.456  40.087  1.00  0.00    -0.237 OA
ATOM     85  O   UNL A   1      43.211  36.185  38.455  1.00  0.00    -0.237 OA
ATOM     86  O   UNL A   1      40.824  35.685  38.796  1.00  0.00    -0.744 OA
ENDBRANCH  82  83
ENDBRANCH  54  77
BRANCH  66  87
ATOM     87  C   UNL A   1      38.651  30.242  30.072  1.00  0.00    -0.014 A 
ATOM     88  C   UNL A   1      37.464  29.491  30.085  1.00  0.00     0.010 A 
ATOM     89  C   UNL A   1      38.625  31.561  29.579  1.00  0.00     0.010 A 
ATOM     90  C   UNL A   1      36.277  30.039  29.590  1.00  0.00     0.020 A 
ATOM     91  C   UNL A   1      37.435  32.121  29.110  1.00  0.00     0.020 A 
ATOM     92  C   UNL A   1      36.270  31.351  29.106  1.00  0.00     0.054 A 
BRANCH  92  93
ATOM     93  S   UNL A   1      34.706  32.056  28.516  1.00  0.00     0.124 S 
ATOM     94  O   UNL A   1      35.169  33.114  27.623  1.00  0.00    -0.237 OA
ATOM     95  O   UNL A   1      34.067  30.917  27.863  1.00  0.00    -0.237 OA
ATOM     96  O   UNL A   1      34.050  32.515  29.738  1.00  0.00    -0.744 OA
ENDBRANCH  92  93
ENDBRANCH  66  87
ENDBRANCH  40  41
ENDBRANCH  32  35
ENDBRANCH  30  31
ENDBRANCH   1  30
TORSDOF 17
ENDMDL
