MODEL 1
REMARK VINA RESULT:     -11.5      0.000      0.000
REMARK SMILES Cc1nc(C[NH2+][C@@H](C(=O)NCCCNC(=O)c2ccc(-c3c4nc(c(-c5ccc(S(=O)(=O)[O-])cc5)c5ccc([nH]5)c(-c5ccc(S(=O)(=O)[O-])cc5)c5nc(c(-c6ccc(S(=O)(=O)[O-])cc6)c6ccc3[nH]6)C=C5)C=C4)cc2)c2ccccc2)sc1C
REMARK SMILES IDX 12 1 11 2 10 3 8 4 9 5 7 7 6 8 5 11 4 12 1 13 2 14 3 15
REMARK SMILES IDX 84 16 83 17 85 18 77 19 78 20 82 21 79 22 81 23 80 24 13 25
REMARK SMILES IDX 14 26 15 27 16 29 17 30 18 31 76 32 19 33 75 34 20 35 21 36
REMARK SMILES IDX 22 37 69 38 23 39 74 40 68 41 70 42 24 43 73 44 67 45 66 46
REMARK SMILES IDX 25 48 55 49 36 50 54 51 37 52 40 53 53 54 71 55 38 56 39 57
REMARK SMILES IDX 52 59 72 60 41 61 26 62 27 63 35 64 28 65 34 66 29 67 30 68
REMARK SMILES IDX 31 69 32 70 33 71 56 72 57 73 65 74 58 75 64 76 59 77 60 78
REMARK SMILES IDX 61 79 62 80 63 81 42 82 43 83 51 84 44 85 50 86 45 87 46 88
REMARK SMILES IDX 47 89 48 90 49 91
REMARK H PARENT 10 6 6 9 6 10 14 28 70 47 40 58
REMARK Flexibility Score: inf
ROOT
ATOM      1  C   UNL A   1      33.630  28.715  26.960  1.00  0.00     0.042 C 
ENDROOT
BRANCH   1   2
ATOM      2  C   UNL A   1      32.885  29.676  26.016  1.00  0.00     0.118 C 
BRANCH   2   3
ATOM      3  N   UNL A   1      33.423  29.665  24.662  1.00  0.00    -0.351 N 
ATOM      4  C   UNL A   1      33.276  28.822  23.594  1.00  0.00     0.283 C 
ATOM      5  O   UNL A   1      34.068  29.019  22.665  1.00  0.00    -0.268 OA
ATOM      6  H   UNL A   1      34.020  30.425  24.476  1.00  0.00     0.163 HD
BRANCH   4   7
ATOM      7  C   UNL A   1      32.206  27.673  23.559  1.00  0.00     0.304 C 
BRANCH   7   8
ATOM      8  N   UNL A   1      30.853  28.163  23.943  1.00  0.00    -0.326 N 
ATOM      9  H   UNL A   1      30.452  27.528  24.634  1.00  0.00     0.347 HD
ATOM     10  H   UNL A   1      30.946  29.102  24.330  1.00  0.00     0.347 HD
BRANCH   8  11
ATOM     11  C   UNL A   1      29.969  28.226  22.786  1.00  0.00     0.330 C 
BRANCH  11  12
ATOM     12  C   UNL A   1      29.270  29.531  22.534  1.00  0.00     0.148 A 
ATOM     13  C   UNL A   1      27.916  31.893  20.185  1.00  0.00     0.068 C 
ATOM     14  C   UNL A   1      28.468  31.271  21.416  1.00  0.00     0.052 A 
ATOM     15  N   UNL A   1      28.748  29.909  21.386  1.00  0.00    -0.240 NA
ATOM     16  C   UNL A   1      28.794  31.907  22.603  1.00  0.00     0.025 A 
ATOM     17  S   UNL A   1      29.340  30.756  23.743  1.00  0.00    -0.118 S 
ATOM     18  C   UNL A   1      28.733  33.352  22.958  1.00  0.00     0.058 C 
ENDBRANCH  11  12
ENDBRANCH   8  11
ENDBRANCH   7   8
BRANCH   7  19
ATOM     19  C   UNL A   1      32.598  26.529  24.505  1.00  0.00     0.019 A 
ATOM     20  C   UNL A   1      31.674  25.997  25.425  1.00  0.00     0.010 A 
ATOM     21  C   UNL A   1      33.885  25.968  24.463  1.00  0.00     0.010 A 
ATOM     22  C   UNL A   1      32.025  24.953  26.283  1.00  0.00     0.001 A 
ATOM     23  C   UNL A   1      34.234  24.919  25.322  1.00  0.00     0.001 A 
ATOM     24  C   UNL A   1      33.306  24.414  26.232  1.00  0.00     0.000 A 
ENDBRANCH   7  19
ENDBRANCH   4   7
ENDBRANCH   2   3
ENDBRANCH   1   2
BRANCH   1  25
ATOM     25  C   UNL A   1      35.071  29.103  27.285  1.00  0.00     0.118 C 
BRANCH  25  26
ATOM     26  N   UNL A   1      35.158  29.926  28.474  1.00  0.00    -0.352 N 
ATOM     27  C   UNL A   1      36.224  30.165  29.310  1.00  0.00     0.251 C 
ATOM     28  H   UNL A   1      34.323  30.387  28.722  1.00  0.00     0.163 HD
ATOM     29  O   UNL A   1      36.011  30.711  30.391  1.00  0.00    -0.269 OA
BRANCH  27  30
ATOM     30  C   UNL A   1      37.611  29.768  28.948  1.00  0.00     0.039 A 
ATOM     31  C   UNL A   1      38.505  29.461  29.981  1.00  0.00     0.014 A 
ATOM     32  C   UNL A   1      38.069  29.768  27.628  1.00  0.00     0.014 A 
ATOM     33  C   UNL A   1      39.831  29.121  29.691  1.00  0.00     0.010 A 
ATOM     34  C   UNL A   1      39.375  29.359  27.333  1.00  0.00     0.010 A 
ATOM     35  C   UNL A   1      40.276  29.044  28.362  1.00  0.00    -0.014 A 
BRANCH  35  36
ATOM     36  C   UNL A   1      41.680  28.659  28.044  1.00  0.00     0.031 A 
ATOM     37  C   UNL A   1      42.773  29.699  28.013  1.00  0.00     0.074 A 
ATOM     38  C   UNL A   1      41.977  27.377  27.749  1.00  0.00     0.049 A 
ATOM     39  N   UNL A   1      44.045  29.551  27.736  1.00  0.00    -0.248 NA
ATOM     40  C   UNL A   1      42.384  31.086  28.310  1.00  0.00     0.031 C 
ATOM     41  C   UNL A   1      41.015  26.274  27.706  1.00  0.00     0.029 A 
ATOM     42  N   UNL A   1      43.175  26.784  27.431  1.00  0.00    -0.354 N 
ATOM     43  C   UNL A   1      44.602  30.824  27.807  1.00  0.00     0.074 A 
ATOM     44  C   UNL A   1      43.521  31.737  28.111  1.00  0.00     0.031 C 
ATOM     45  C   UNL A   1      41.664  25.136  27.408  1.00  0.00     0.029 A 
ATOM     46  C   UNL A   1      43.080  25.431  27.206  1.00  0.00     0.049 A 
ATOM     47  H   UNL A   1      44.022  27.281  27.370  1.00  0.00     0.167 HD
ATOM     48  C   UNL A   1      45.895  31.201  27.651  1.00  0.00     0.031 A 
ATOM     49  C   UNL A   1      44.021  24.525  26.874  1.00  0.00     0.031 A 
ATOM     50  C   UNL A   1      46.978  30.295  27.370  1.00  0.00     0.049 A 
ATOM     51  C   UNL A   1      45.451  24.963  26.718  1.00  0.00     0.074 A 
ATOM     52  C   UNL A   1      48.328  30.579  27.252  1.00  0.00     0.029 A 
ATOM     53  N   UNL A   1      46.838  28.932  27.162  1.00  0.00    -0.354 N 
ATOM     54  N   UNL A   1      45.962  26.163  26.847  1.00  0.00    -0.248 NA
ATOM     55  C   UNL A   1      46.432  23.921  26.381  1.00  0.00     0.031 C 
ATOM     56  C   UNL A   1      48.999  29.393  26.935  1.00  0.00     0.029 A 
ATOM     57  C   UNL A   1      48.072  28.363  26.901  1.00  0.00     0.049 A 
ATOM     58  H   UNL A   1      45.984  28.440  27.196  1.00  0.00     0.167 HD
ATOM     59  C   UNL A   1      47.328  26.017  26.631  1.00  0.00     0.074 A 
ATOM     60  C   UNL A   1      47.566  24.611  26.375  1.00  0.00     0.031 C 
ATOM     61  C   UNL A   1      48.298  26.964  26.645  1.00  0.00     0.031 A 
BRANCH  48  62
ATOM     62  C   UNL A   1      46.211  32.668  27.780  1.00  0.00    -0.014 A 
ATOM     63  C   UNL A   1      46.587  33.222  29.017  1.00  0.00     0.010 A 
ATOM     64  C   UNL A   1      46.169  33.496  26.644  1.00  0.00     0.010 A 
ATOM     65  C   UNL A   1      46.869  34.586  29.125  1.00  0.00     0.020 A 
ATOM     66  C   UNL A   1      46.476  34.856  26.742  1.00  0.00     0.020 A 
ATOM     67  C   UNL A   1      46.806  35.396  27.986  1.00  0.00     0.054 A 
BRANCH  67  68
ATOM     68  S   UNL A   1      47.188  37.163  28.152  1.00  0.00     0.124 S 
ATOM     69  O   UNL A   1      48.624  37.135  28.416  1.00  0.00    -0.237 OA
ATOM     70  O   UNL A   1      46.800  37.700  26.850  1.00  0.00    -0.237 OA
ATOM     71  O   UNL A   1      46.355  37.592  29.273  1.00  0.00    -0.744 OA
ENDBRANCH  67  68
ENDBRANCH  48  62
BRANCH  49  72
ATOM     72  C   UNL A   1      43.638  23.099  26.685  1.00  0.00    -0.014 A 
ATOM     73  C   UNL A   1      43.105  22.357  27.753  1.00  0.00     0.010 A 
ATOM     74  C   UNL A   1      43.788  22.485  25.429  1.00  0.00     0.010 A 
ATOM     75  C   UNL A   1      42.736  21.021  27.571  1.00  0.00     0.020 A 
ATOM     76  C   UNL A   1      43.398  21.157  25.238  1.00  0.00     0.020 A 
ATOM     77  C   UNL A   1      42.883  20.431  26.313  1.00  0.00     0.054 A 
BRANCH  77  78
ATOM     78  S   UNL A   1      42.335  18.716  26.077  1.00  0.00     0.124 S 
ATOM     79  O   UNL A   1      43.248  18.245  25.041  1.00  0.00    -0.237 OA
ATOM     80  O   UNL A   1      42.527  18.136  27.405  1.00  0.00    -0.237 OA
ATOM     81  O   UNL A   1      40.939  18.862  25.667  1.00  0.00    -0.744 OA
ENDBRANCH  77  78
ENDBRANCH  49  72
BRANCH  61  82
ATOM     82  C   UNL A   1      49.713  26.512  26.404  1.00  0.00    -0.014 A 
ATOM     83  C   UNL A   1      50.513  26.032  27.455  1.00  0.00     0.010 A 
ATOM     84  C   UNL A   1      50.229  26.516  25.094  1.00  0.00     0.010 A 
ATOM     85  C   UNL A   1      51.814  25.587  27.206  1.00  0.00     0.020 A 
ATOM     86  C   UNL A   1      51.522  26.052  24.838  1.00  0.00     0.020 A 
ATOM     87  C   UNL A   1      52.312  25.603  25.899  1.00  0.00     0.054 A 
BRANCH  87  88
ATOM     88  S   UNL A   1      53.987  24.979  25.592  1.00  0.00     0.124 S 
ATOM     89  O   UNL A   1      54.480  25.915  24.585  1.00  0.00    -0.237 OA
ATOM     90  O   UNL A   1      54.616  25.082  26.907  1.00  0.00    -0.237 OA
ATOM     91  O   UNL A   1      53.767  23.614  25.120  1.00  0.00    -0.744 OA
ENDBRANCH  87  88
ENDBRANCH  61  82
ENDBRANCH  35  36
ENDBRANCH  27  30
ENDBRANCH  25  26
ENDBRANCH   1  25
TORSDOF 17
ENDMDL
MODEL 2
REMARK VINA RESULT:     -11.4      4.114      6.121
REMARK SMILES Cc1nc(C[NH2+][C@@H](C(=O)NCCCNC(=O)c2ccc(-c3c4nc(c(-c5ccc(S(=O)(=O)[O-])cc5)c5ccc([nH]5)c(-c5ccc(S(=O)(=O)[O-])cc5)c5nc(c(-c6ccc(S(=O)(=O)[O-])cc6)c6ccc3[nH]6)C=C5)C=C4)cc2)c2ccccc2)sc1C
REMARK SMILES IDX 12 1 11 2 10 3 8 4 9 5 7 7 6 8 5 11 4 12 1 13 2 14 3 15
REMARK SMILES IDX 84 16 83 17 85 18 77 19 78 20 82 21 79 22 81 23 80 24 13 25
REMARK SMILES IDX 14 26 15 27 16 29 17 30 18 31 76 32 19 33 75 34 20 35 21 36
REMARK SMILES IDX 22 37 69 38 23 39 74 40 68 41 70 42 24 43 73 44 67 45 66 46
REMARK SMILES IDX 25 48 55 49 36 50 54 51 37 52 40 53 53 54 71 55 38 56 39 57
REMARK SMILES IDX 52 59 72 60 41 61 26 62 27 63 35 64 28 65 34 66 29 67 30 68
REMARK SMILES IDX 31 69 32 70 33 71 56 72 57 73 65 74 58 75 64 76 59 77 60 78
REMARK SMILES IDX 61 79 62 80 63 81 42 82 43 83 51 84 44 85 50 86 45 87 46 88
REMARK SMILES IDX 47 89 48 90 49 91
REMARK H PARENT 10 6 6 9 6 10 14 28 70 47 40 58
REMARK Flexibility Score: inf
ROOT
ATOM      1  C   UNL A   1      32.473  27.079  26.182  1.00  0.00     0.042 C 
ENDROOT
BRANCH   1   2
ATOM      2  C   UNL A   1      32.661  25.634  25.686  1.00  0.00     0.118 C 
BRANCH   2   3
ATOM      3  N   UNL A   1      32.647  24.660  26.772  1.00  0.00    -0.351 N 
ATOM      4  C   UNL A   1      32.607  23.294  26.813  1.00  0.00     0.283 C 
ATOM      5  O   UNL A   1      32.387  22.815  27.932  1.00  0.00    -0.268 OA
ATOM      6  H   UNL A   1      32.670  25.075  27.664  1.00  0.00     0.163 HD
BRANCH   4   7
ATOM      7  C   UNL A   1      32.795  22.398  25.537  1.00  0.00     0.304 C 
BRANCH   7   8
ATOM      8  N   UNL A   1      32.362  20.993  25.775  1.00  0.00    -0.326 N 
ATOM      9  H   UNL A   1      33.007  20.552  26.431  1.00  0.00     0.347 HD
ATOM     10  H   UNL A   1      31.416  21.007  26.156  1.00  0.00     0.347 HD
BRANCH   8  11
ATOM     11  C   UNL A   1      32.349  20.229  24.534  1.00  0.00     0.330 C 
BRANCH  11  12
ATOM     12  C   UNL A   1      32.774  18.791  24.615  1.00  0.00     0.148 A 
ATOM     13  C   UNL A   1      32.135  15.456  25.794  1.00  0.00     0.068 C 
ATOM     14  C   UNL A   1      32.807  16.674  25.272  1.00  0.00     0.052 A 
ATOM     15  N   UNL A   1      32.021  17.794  25.026  1.00  0.00    -0.240 NA
ATOM     16  C   UNL A   1      34.162  16.851  25.044  1.00  0.00     0.025 A 
ATOM     17  S   UNL A   1      34.438  18.405  24.387  1.00  0.00    -0.118 S 
ATOM     18  C   UNL A   1      35.299  15.922  25.291  1.00  0.00     0.058 C 
ENDBRANCH  11  12
ENDBRANCH   8  11
ENDBRANCH   7   8
BRANCH   7  19
ATOM     19  C   UNL A   1      34.263  22.387  25.086  1.00  0.00     0.019 A 
ATOM     20  C   UNL A   1      35.274  21.862  25.913  1.00  0.00     0.010 A 
ATOM     21  C   UNL A   1      34.633  22.883  23.825  1.00  0.00     0.010 A 
ATOM     22  C   UNL A   1      36.609  21.845  25.505  1.00  0.00     0.001 A 
ATOM     23  C   UNL A   1      35.972  22.862  23.416  1.00  0.00     0.001 A 
ATOM     24  C   UNL A   1      36.958  22.347  24.256  1.00  0.00     0.000 A 
ENDBRANCH   7  19
ENDBRANCH   4   7
ENDBRANCH   2   3
ENDBRANCH   1   2
BRANCH   1  25
ATOM     25  C   UNL A   1      33.735  27.760  26.709  1.00  0.00     0.118 C 
BRANCH  25  26
ATOM     26  N   UNL A   1      33.526  29.171  26.961  1.00  0.00    -0.352 N 
ATOM     27  C   UNL A   1      34.316  30.079  27.629  1.00  0.00     0.251 C 
ATOM     28  H   UNL A   1      32.687  29.539  26.597  1.00  0.00     0.163 HD
ATOM     29  O   UNL A   1      33.834  31.170  27.925  1.00  0.00    -0.269 OA
BRANCH  27  30
ATOM     30  C   UNL A   1      35.719  29.767  28.012  1.00  0.00     0.039 A 
ATOM     31  C   UNL A   1      36.712  29.861  27.030  1.00  0.00     0.014 A 
ATOM     32  C   UNL A   1      36.062  29.311  29.288  1.00  0.00     0.014 A 
ATOM     33  C   UNL A   1      38.040  29.538  27.334  1.00  0.00     0.010 A 
ATOM     34  C   UNL A   1      37.400  29.057  29.611  1.00  0.00     0.010 A 
ATOM     35  C   UNL A   1      38.403  29.154  28.635  1.00  0.00    -0.014 A 
BRANCH  35  36
ATOM     36  C   UNL A   1      39.819  28.832  28.972  1.00  0.00     0.031 A 
ATOM     37  C   UNL A   1      40.701  29.856  29.641  1.00  0.00     0.074 A 
ATOM     38  C   UNL A   1      40.330  27.626  28.649  1.00  0.00     0.049 A 
ATOM     39  N   UNL A   1      41.961  29.759  29.989  1.00  0.00    -0.248 NA
ATOM     40  C   UNL A   1      40.098  31.165  29.939  1.00  0.00     0.031 C 
ATOM     41  C   UNL A   1      39.603  26.553  27.967  1.00  0.00     0.029 A 
ATOM     42  N   UNL A   1      41.583  27.100  28.851  1.00  0.00    -0.354 N 
ATOM     43  C   UNL A   1      42.304  30.995  30.526  1.00  0.00     0.074 A 
ATOM     44  C   UNL A   1      41.133  31.838  30.421  1.00  0.00     0.031 C 
ATOM     45  C   UNL A   1      40.413  25.490  27.834  1.00  0.00     0.029 A 
ATOM     46  C   UNL A   1      41.724  25.813  28.389  1.00  0.00     0.049 A 
ATOM     47  H   UNL A   1      42.312  27.598  29.287  1.00  0.00     0.167 HD
ATOM     48  C   UNL A   1      43.480  31.391  31.075  1.00  0.00     0.031 A 
ATOM     49  C   UNL A   1      42.786  24.984  28.404  1.00  0.00     0.031 A 
ATOM     50  C   UNL A   1      44.642  30.552  31.203  1.00  0.00     0.049 A 
ATOM     51  C   UNL A   1      44.076  25.439  29.028  1.00  0.00     0.074 A 
ATOM     52  C   UNL A   1      45.857  30.849  31.796  1.00  0.00     0.029 A 
ATOM     53  N   UNL A   1      44.736  29.252  30.732  1.00  0.00    -0.354 N 
ATOM     54  N   UNL A   1      44.359  26.592  29.583  1.00  0.00    -0.248 NA
ATOM     55  C   UNL A   1      45.187  24.476  29.037  1.00  0.00     0.031 C 
ATOM     56  C   UNL A   1      46.700  29.742  31.649  1.00  0.00     0.029 A 
ATOM     57  C   UNL A   1      45.992  28.739  31.005  1.00  0.00     0.049 A 
ATOM     58  H   UNL A   1      44.014  28.764  30.270  1.00  0.00     0.167 HD
ATOM     59  C   UNL A   1      45.672  26.486  30.028  1.00  0.00     0.074 A 
ATOM     60  C   UNL A   1      46.124  25.152  29.689  1.00  0.00     0.031 C 
ATOM     61  C   UNL A   1      46.434  27.411  30.662  1.00  0.00     0.031 A 
BRANCH  48  62
ATOM     62  C   UNL A   1      43.568  32.808  31.580  1.00  0.00    -0.014 A 
ATOM     63  C   UNL A   1      43.987  33.854  30.736  1.00  0.00     0.010 A 
ATOM     64  C   UNL A   1      43.191  33.105  32.902  1.00  0.00     0.010 A 
ATOM     65  C   UNL A   1      44.072  35.162  31.220  1.00  0.00     0.020 A 
ATOM     66  C   UNL A   1      43.250  34.417  33.382  1.00  0.00     0.020 A 
ATOM     67  C   UNL A   1      43.709  35.434  32.543  1.00  0.00     0.054 A 
BRANCH  67  68
ATOM     68  S   UNL A   1      43.819  37.143  33.142  1.00  0.00     0.124 S 
ATOM     69  O   UNL A   1      45.105  37.136  33.833  1.00  0.00    -0.237 OA
ATOM     70  O   UNL A   1      43.773  37.921  31.906  1.00  0.00    -0.237 OA
ATOM     71  O   UNL A   1      42.647  37.282  34.005  1.00  0.00    -0.744 OA
ENDBRANCH  67  68
ENDBRANCH  48  62
BRANCH  49  72
ATOM     72  C   UNL A   1      42.664  23.619  27.823  1.00  0.00    -0.014 A 
ATOM     73  C   UNL A   1      42.137  22.563  28.587  1.00  0.00     0.010 A 
ATOM     74  C   UNL A   1      43.057  23.376  26.494  1.00  0.00     0.010 A 
ATOM     75  C   UNL A   1      42.013  21.285  28.034  1.00  0.00     0.020 A 
ATOM     76  C   UNL A   1      42.912  22.105  25.933  1.00  0.00     0.020 A 
ATOM     77  C   UNL A   1      42.399  21.065  26.710  1.00  0.00     0.054 A 
BRANCH  77  78
ATOM     78  S   UNL A   1      42.167  19.415  25.989  1.00  0.00     0.124 S 
ATOM     79  O   UNL A   1      43.003  19.486  24.794  1.00  0.00    -0.237 OA
ATOM     80  O   UNL A   1      42.650  18.534  27.050  1.00  0.00    -0.237 OA
ATOM     81  O   UNL A   1      40.727  19.353  25.746  1.00  0.00    -0.744 OA
ENDBRANCH  77  78
ENDBRANCH  49  72
BRANCH  61  82
ATOM     82  C   UNL A   1      47.828  27.009  31.058  1.00  0.00    -0.014 A 
ATOM     83  C   UNL A   1      48.077  26.351  32.274  1.00  0.00     0.010 A 
ATOM     84  C   UNL A   1      48.896  27.243  30.173  1.00  0.00     0.010 A 
ATOM     85  C   UNL A   1      49.376  25.957  32.611  1.00  0.00     0.020 A 
ATOM     86  C   UNL A   1      50.192  26.832  30.496  1.00  0.00     0.020 A 
ATOM     87  C   UNL A   1      50.425  26.203  31.721  1.00  0.00     0.054 A 
BRANCH  87  88
ATOM     88  S   UNL A   1      52.094  25.642  32.158  1.00  0.00     0.124 S 
ATOM     89  O   UNL A   1      52.836  25.912  30.929  1.00  0.00    -0.237 OA
ATOM     90  O   UNL A   1      52.433  26.494  33.295  1.00  0.00    -0.237 OA
ATOM     91  O   UNL A   1      51.912  24.229  32.479  1.00  0.00    -0.744 OA
ENDBRANCH  87  88
ENDBRANCH  61  82
ENDBRANCH  35  36
ENDBRANCH  27  30
ENDBRANCH  25  26
ENDBRANCH   1  25
TORSDOF 17
ENDMDL
MODEL 3
REMARK VINA RESULT:     -11.2      5.329      7.329
REMARK SMILES Cc1nc(C[NH2+][C@@H](C(=O)NCCCNC(=O)c2ccc(-c3c4nc(c(-c5ccc(S(=O)(=O)[O-])cc5)c5ccc([nH]5)c(-c5ccc(S(=O)(=O)[O-])cc5)c5nc(c(-c6ccc(S(=O)(=O)[O-])cc6)c6ccc3[nH]6)C=C5)C=C4)cc2)c2ccccc2)sc1C
REMARK SMILES IDX 12 1 11 2 10 3 8 4 9 5 7 7 6 8 5 11 4 12 1 13 2 14 3 15
REMARK SMILES IDX 84 16 83 17 85 18 77 19 78 20 82 21 79 22 81 23 80 24 13 25
REMARK SMILES IDX 14 26 15 27 16 29 17 30 18 31 76 32 19 33 75 34 20 35 21 36
REMARK SMILES IDX 22 37 69 38 23 39 74 40 68 41 70 42 24 43 73 44 67 45 66 46
REMARK SMILES IDX 25 48 55 49 36 50 54 51 37 52 40 53 53 54 71 55 38 56 39 57
REMARK SMILES IDX 52 59 72 60 41 61 26 62 27 63 35 64 28 65 34 66 29 67 30 68
REMARK SMILES IDX 31 69 32 70 33 71 56 72 57 73 65 74 58 75 64 76 59 77 60 78
REMARK SMILES IDX 61 79 62 80 63 81 42 82 43 83 51 84 44 85 50 86 45 87 46 88
REMARK SMILES IDX 47 89 48 90 49 91
REMARK H PARENT 10 6 6 9 6 10 14 28 70 47 40 58
REMARK Flexibility Score: inf
ROOT
ATOM      1  C   UNL A   1      33.759  28.525  24.527  1.00  0.00     0.042 C 
ENDROOT
BRANCH   1   2
ATOM      2  C   UNL A   1      33.669  27.046  24.111  1.00  0.00     0.118 C 
BRANCH   2   3
ATOM      3  N   UNL A   1      32.795  26.836  22.963  1.00  0.00    -0.351 N 
ATOM      4  C   UNL A   1      31.439  26.743  22.814  1.00  0.00     0.283 C 
ATOM      5  O   UNL A   1      31.065  26.343  21.706  1.00  0.00    -0.268 OA
ATOM      6  H   UNL A   1      33.286  26.741  22.115  1.00  0.00     0.163 HD
BRANCH   4   7
ATOM      7  C   UNL A   1      30.431  27.089  23.968  1.00  0.00     0.304 C 
BRANCH   7   8
ATOM      8  N   UNL A   1      29.643  25.898  24.392  1.00  0.00    -0.326 N 
ATOM      9  H   UNL A   1      28.648  26.114  24.319  1.00  0.00     0.347 HD
ATOM     10  H   UNL A   1      29.886  25.116  23.785  1.00  0.00     0.347 HD
BRANCH   8  11
ATOM     11  C   UNL A   1      29.950  25.527  25.768  1.00  0.00     0.330 C 
BRANCH  11  12
ATOM     12  C   UNL A   1      30.779  24.291  25.971  1.00  0.00     0.148 A 
ATOM     13  C   UNL A   1      33.115  22.452  27.992  1.00  0.00     0.068 C 
ATOM     14  C   UNL A   1      32.301  22.938  26.849  1.00  0.00     0.052 A 
ATOM     15  N   UNL A   1      31.378  23.949  27.092  1.00  0.00    -0.240 NA
ATOM     16  C   UNL A   1      32.388  22.534  25.526  1.00  0.00     0.025 A 
ATOM     17  S   UNL A   1      31.203  23.343  24.597  1.00  0.00    -0.118 S 
ATOM     18  C   UNL A   1      33.320  21.566  24.885  1.00  0.00     0.058 C 
ENDBRANCH  11  12
ENDBRANCH   8  11
ENDBRANCH   7   8
BRANCH   7  19
ATOM     19  C   UNL A   1      29.455  28.191  23.534  1.00  0.00     0.019 A 
ATOM     20  C   UNL A   1      28.066  27.961  23.500  1.00  0.00     0.010 A 
ATOM     21  C   UNL A   1      29.921  29.467  23.177  1.00  0.00     0.010 A 
ATOM     22  C   UNL A   1      27.175  28.963  23.110  1.00  0.00     0.001 A 
ATOM     23  C   UNL A   1      29.026  30.471  22.790  1.00  0.00     0.001 A 
ATOM     24  C   UNL A   1      27.655  30.218  22.754  1.00  0.00     0.000 A 
ENDBRANCH   7  19
ENDBRANCH   4   7
ENDBRANCH   2   3
ENDBRANCH   1   2
BRANCH   1  25
ATOM     25  C   UNL A   1      33.931  28.774  26.025  1.00  0.00     0.118 C 
BRANCH  25  26
ATOM     26  N   UNL A   1      33.656  30.151  26.381  1.00  0.00    -0.352 N 
ATOM     27  C   UNL A   1      34.212  30.941  27.361  1.00  0.00     0.251 C 
ATOM     28  H   UNL A   1      32.962  30.590  25.837  1.00  0.00     0.163 HD
ATOM     29  O   UNL A   1      33.663  32.005  27.639  1.00  0.00    -0.269 OA
BRANCH  27  30
ATOM     30  C   UNL A   1      35.440  30.533  28.096  1.00  0.00     0.039 A 
ATOM     31  C   UNL A   1      36.677  30.985  27.624  1.00  0.00     0.014 A 
ATOM     32  C   UNL A   1      35.404  29.658  29.185  1.00  0.00     0.014 A 
ATOM     33  C   UNL A   1      37.862  30.595  28.259  1.00  0.00     0.010 A 
ATOM     34  C   UNL A   1      36.582  29.325  29.863  1.00  0.00     0.010 A 
ATOM     35  C   UNL A   1      37.827  29.778  29.401  1.00  0.00    -0.014 A 
BRANCH  35  36
ATOM     36  C   UNL A   1      39.082  29.378  30.097  1.00  0.00     0.031 A 
ATOM     37  C   UNL A   1      39.514  30.075  31.363  1.00  0.00     0.074 A 
ATOM     38  C   UNL A   1      39.860  28.407  29.576  1.00  0.00     0.049 A 
ATOM     39  N   UNL A   1      40.585  29.875  32.091  1.00  0.00    -0.248 NA
ATOM     40  C   UNL A   1      38.643  31.149  31.865  1.00  0.00     0.031 C 
ATOM     41  C   UNL A   1      39.584  27.673  28.339  1.00  0.00     0.029 A 
ATOM     42  N   UNL A   1      41.042  27.868  30.023  1.00  0.00    -0.354 N 
ATOM     43  C   UNL A   1      40.526  30.806  33.122  1.00  0.00     0.074 A 
ATOM     44  C   UNL A   1      39.336  31.599  32.901  1.00  0.00     0.031 C 
ATOM     45  C   UNL A   1      40.553  26.764  28.142  1.00  0.00     0.029 A 
ATOM     46  C   UNL A   1      41.535  26.870  29.218  1.00  0.00     0.049 A 
ATOM     47  H   UNL A   1      41.494  28.170  30.844  1.00  0.00     0.167 HD
ATOM     48  C   UNL A   1      41.372  30.979  34.167  1.00  0.00     0.031 A 
ATOM     49  C   UNL A   1      42.652  26.122  29.325  1.00  0.00     0.031 A 
ATOM     50  C   UNL A   1      42.545  30.180  34.405  1.00  0.00     0.049 A 
ATOM     51  C   UNL A   1      43.569  26.321  30.499  1.00  0.00     0.074 A 
ATOM     52  C   UNL A   1      43.429  30.245  35.469  1.00  0.00     0.029 A 
ATOM     53  N   UNL A   1      42.999  29.171  33.570  1.00  0.00    -0.354 N 
ATOM     54  N   UNL A   1      43.461  27.170  31.493  1.00  0.00    -0.248 NA
ATOM     55  C   UNL A   1      44.755  25.454  30.572  1.00  0.00     0.031 C 
ATOM     56  C   UNL A   1      44.441  29.301  35.256  1.00  0.00     0.029 A 
ATOM     57  C   UNL A   1      44.159  28.618  34.084  1.00  0.00     0.049 A 
ATOM     58  H   UNL A   1      42.561  28.890  32.733  1.00  0.00     0.167 HD
ATOM     59  C   UNL A   1      44.551  26.924  32.320  1.00  0.00     0.074 A 
ATOM     60  C   UNL A   1      45.300  25.839  31.719  1.00  0.00     0.031 C 
ATOM     61  C   UNL A   1      44.898  27.540  33.477  1.00  0.00     0.031 A 
BRANCH  48  62
ATOM     62  C   UNL A   1      41.057  32.085  35.140  1.00  0.00    -0.014 A 
ATOM     63  C   UNL A   1      41.569  33.382  34.955  1.00  0.00     0.010 A 
ATOM     64  C   UNL A   1      40.207  31.835  36.233  1.00  0.00     0.010 A 
ATOM     65  C   UNL A   1      41.276  34.397  35.869  1.00  0.00     0.020 A 
ATOM     66  C   UNL A   1      39.890  32.854  37.136  1.00  0.00     0.020 A 
ATOM     67  C   UNL A   1      40.442  34.124  36.959  1.00  0.00     0.054 A 
BRANCH  67  68
ATOM     68  S   UNL A   1      40.069  35.463  38.126  1.00  0.00     0.124 S 
ATOM     69  O   UNL A   1      38.895  34.938  38.818  1.00  0.00    -0.237 OA
ATOM     70  O   UNL A   1      41.287  35.542  38.927  1.00  0.00    -0.237 OA
ATOM     71  O   UNL A   1      39.820  36.614  37.261  1.00  0.00    -0.744 OA
ENDBRANCH  67  68
ENDBRANCH  48  62
BRANCH  49  72
ATOM     72  C   UNL A   1      42.952  25.093  28.293  1.00  0.00    -0.014 A 
ATOM     73  C   UNL A   1      43.725  25.420  27.165  1.00  0.00     0.010 A 
ATOM     74  C   UNL A   1      42.482  23.776  28.445  1.00  0.00     0.010 A 
ATOM     75  C   UNL A   1      44.015  24.448  26.202  1.00  0.00     0.020 A 
ATOM     76  C   UNL A   1      42.790  22.798  27.497  1.00  0.00     0.020 A 
ATOM     77  C   UNL A   1      43.548  23.143  26.377  1.00  0.00     0.054 A 
BRANCH  77  78
ATOM     78  S   UNL A   1      43.992  21.879  25.151  1.00  0.00     0.124 S 
ATOM     79  O   UNL A   1      45.365  21.560  25.529  1.00  0.00    -0.237 OA
ATOM     80  O   UNL A   1      43.004  20.832  25.403  1.00  0.00    -0.237 OA
ATOM     81  O   UNL A   1      43.836  22.577  23.876  1.00  0.00    -0.744 OA
ENDBRANCH  77  78
ENDBRANCH  49  72
BRANCH  61  82
ATOM     82  C   UNL A   1      46.128  27.043  34.187  1.00  0.00    -0.014 A 
ATOM     83  C   UNL A   1      47.390  27.610  33.939  1.00  0.00     0.010 A 
ATOM     84  C   UNL A   1      46.008  26.031  35.157  1.00  0.00     0.010 A 
ATOM     85  C   UNL A   1      48.516  27.156  34.631  1.00  0.00     0.020 A 
ATOM     86  C   UNL A   1      47.128  25.590  35.867  1.00  0.00     0.020 A 
ATOM     87  C   UNL A   1      48.378  26.147  35.589  1.00  0.00     0.054 A 
BRANCH  87  88
ATOM     88  S   UNL A   1      49.846  25.605  36.508  1.00  0.00     0.124 S 
ATOM     89  O   UNL A   1      50.921  26.288  35.793  1.00  0.00    -0.237 OA
ATOM     90  O   UNL A   1      49.579  26.095  37.859  1.00  0.00    -0.237 OA
ATOM     91  O   UNL A   1      49.827  24.152  36.366  1.00  0.00    -0.744 OA
ENDBRANCH  87  88
ENDBRANCH  61  82
ENDBRANCH  35  36
ENDBRANCH  27  30
ENDBRANCH  25  26
ENDBRANCH   1  25
TORSDOF 17
ENDMDL
