MODEL 1
REMARK VINA RESULT:     -10.6      0.000      0.000
REMARK SMILES CC[C@@H]1CCC[C@@](Cc2ccccn2)(C(=O)NCCCNC(=O)c2ccc(-c3c4nc(c(-c5ccc(S(=O)(=O)[O-])cc5)c5ccc([nH]5)c(-c5ccc(S(=O)(=O)[O-])cc5)c5nc(c(-c6ccc(S(=O)(=O)[O-])cc6)c6ccc3[nH]6)C=C5)C=C4)cc2)C1
REMARK SMILES IDX 19 1 18 2 17 3 15 4 16 5 7 7 3 8 4 9 84 10 5 11 6 12 2 13
REMARK SMILES IDX 1 14 8 15 9 16 10 17 14 18 11 19 13 20 12 21 20 22 21 23
REMARK SMILES IDX 22 24 23 26 24 27 25 28 83 29 26 30 82 31 27 32 28 33 29 34
REMARK SMILES IDX 76 35 30 36 81 37 75 38 77 39 31 40 80 41 74 42 73 43 32 45
REMARK SMILES IDX 62 46 43 47 61 48 44 49 47 50 60 51 78 52 45 53 46 54 59 56
REMARK SMILES IDX 79 57 48 58 33 59 34 60 42 61 35 62 41 63 36 64 37 65 38 66
REMARK SMILES IDX 39 67 40 68 63 69 64 70 72 71 65 72 71 73 66 74 67 75 68 76
REMARK SMILES IDX 69 77 70 78 49 79 50 80 58 81 51 82 57 83 52 84 53 85 54 86
REMARK SMILES IDX 55 87 56 88
REMARK H PARENT 17 6 21 25 77 44 47 55
REMARK Flexibility Score: inf
ROOT
ATOM      1  C   UNL A   1      33.348  28.058  26.060  1.00  0.00     0.042 C 
ENDROOT
BRANCH   1   2
ATOM      2  C   UNL A   1      33.652  26.581  25.975  1.00  0.00     0.117 C 
BRANCH   2   3
ATOM      3  N   UNL A   1      32.528  25.759  25.577  1.00  0.00    -0.356 N 
ATOM      4  C   UNL A   1      32.460  24.434  25.285  1.00  0.00     0.226 C 
ATOM      5  O   UNL A   1      31.333  23.931  25.378  1.00  0.00    -0.274 OA
ATOM      6  H   UNL A   1      31.671  26.240  25.508  1.00  0.00     0.163 HD
BRANCH   4   7
ATOM      7  C   UNL A   1      33.688  23.572  24.899  1.00  0.00     0.055 C 
ATOM      8  C   UNL A   1      32.359  22.240  23.063  1.00  0.00    -0.010 C 
ATOM      9  C   UNL A   1      33.117  23.009  21.972  1.00  0.00     0.003 C 
ATOM     10  C   UNL A   1      33.155  22.183  24.386  1.00  0.00     0.021 C 
ATOM     11  C   UNL A   1      33.688  24.333  22.464  1.00  0.00     0.001 C 
ATOM     12  C   UNL A   1      34.528  24.130  23.726  1.00  0.00     0.017 C 
BRANCH   8  13
ATOM     13  C   UNL A   1      32.015  20.831  22.533  1.00  0.00     0.000 C 
ATOM     14  C   UNL A   1      32.393  19.697  23.473  1.00  0.00     0.004 C 
ENDBRANCH   8  13
BRANCH   7  15
ATOM     15  C   UNL A   1      34.527  23.236  26.173  1.00  0.00     0.073 C 
BRANCH  15  16
ATOM     16  C   UNL A   1      35.975  22.840  26.023  1.00  0.00     0.041 A 
ATOM     17  C   UNL A   1      36.997  23.740  26.334  1.00  0.00     0.024 A 
ATOM     18  N   UNL A   1      36.229  21.598  25.544  1.00  0.00    -0.261 NA
ATOM     19  C   UNL A   1      38.320  23.367  26.098  1.00  0.00     0.003 A 
ATOM     20  C   UNL A   1      37.523  21.261  25.333  1.00  0.00     0.111 A 
ATOM     21  C   UNL A   1      38.592  22.108  25.578  1.00  0.00     0.020 A 
ENDBRANCH  15  16
ENDBRANCH   7  15
ENDBRANCH   4   7
ENDBRANCH   2   3
ENDBRANCH   1   2
BRANCH   1  22
ATOM     22  C   UNL A   1      33.221  28.547  27.493  1.00  0.00     0.118 C 
BRANCH  22  23
ATOM     23  N   UNL A   1      33.327  30.004  27.617  1.00  0.00    -0.352 N 
ATOM     24  C   UNL A   1      34.362  30.793  28.058  1.00  0.00     0.251 C 
ATOM     25  H   UNL A   1      32.523  30.499  27.340  1.00  0.00     0.163 HD
ATOM     26  O   UNL A   1      34.171  31.985  28.280  1.00  0.00    -0.269 OA
BRANCH  24  27
ATOM     27  C   UNL A   1      35.691  30.193  28.281  1.00  0.00     0.039 A 
ATOM     28  C   UNL A   1      36.634  30.188  27.251  1.00  0.00     0.014 A 
ATOM     29  C   UNL A   1      36.015  29.667  29.531  1.00  0.00     0.014 A 
ATOM     30  C   UNL A   1      37.932  29.744  27.513  1.00  0.00     0.010 A 
ATOM     31  C   UNL A   1      37.333  29.359  29.825  1.00  0.00     0.010 A 
ATOM     32  C   UNL A   1      38.304  29.378  28.816  1.00  0.00    -0.014 A 
BRANCH  32  33
ATOM     33  C   UNL A   1      39.695  28.992  29.160  1.00  0.00     0.031 A 
ATOM     34  C   UNL A   1      40.604  29.995  29.823  1.00  0.00     0.074 A 
ATOM     35  C   UNL A   1      40.167  27.785  28.790  1.00  0.00     0.049 A 
ATOM     36  N   UNL A   1      41.877  29.894  30.106  1.00  0.00    -0.248 NA
ATOM     37  C   UNL A   1      40.018  31.302  30.171  1.00  0.00     0.031 C 
ATOM     38  C   UNL A   1      39.406  26.755  28.076  1.00  0.00     0.029 A 
ATOM     39  N   UNL A   1      41.406  27.220  28.956  1.00  0.00    -0.354 N 
ATOM     40  C   UNL A   1      42.245  31.130  30.625  1.00  0.00     0.074 A 
ATOM     41  C   UNL A   1      41.082  31.985  30.557  1.00  0.00     0.031 C 
ATOM     42  C   UNL A   1      40.180  25.671  27.907  1.00  0.00     0.029 A 
ATOM     43  C   UNL A   1      41.503  25.942  28.458  1.00  0.00     0.049 A 
ATOM     44  H   UNL A   1      42.155  27.686  29.393  1.00  0.00     0.167 HD
ATOM     45  C   UNL A   1      43.437  31.513  31.143  1.00  0.00     0.031 A 
ATOM     46  C   UNL A   1      42.541  25.084  28.451  1.00  0.00     0.031 A 
ATOM     47  C   UNL A   1      44.575  30.643  31.249  1.00  0.00     0.049 A 
ATOM     48  C   UNL A   1      43.839  25.511  29.079  1.00  0.00     0.074 A 
ATOM     49  C   UNL A   1      45.807  30.902  31.821  1.00  0.00     0.029 A 
ATOM     50  N   UNL A   1      44.613  29.337  30.783  1.00  0.00    -0.354 N 
ATOM     51  N   UNL A   1      44.150  26.663  29.625  1.00  0.00    -0.248 NA
ATOM     52  C   UNL A   1      44.918  24.517  29.109  1.00  0.00     0.031 C 
ATOM     53  C   UNL A   1      46.604  29.762  31.669  1.00  0.00     0.029 A 
ATOM     54  C   UNL A   1      45.851  28.778  31.049  1.00  0.00     0.049 A 
ATOM     55  H   UNL A   1      43.870  28.876  30.330  1.00  0.00     0.167 HD
ATOM     56  C   UNL A   1      45.450  26.521  30.093  1.00  0.00     0.074 A 
ATOM     57  C   UNL A   1      45.862  25.168  29.777  1.00  0.00     0.031 C 
ATOM     58  C   UNL A   1      46.233  27.426  30.732  1.00  0.00     0.031 A 
BRANCH  45  59
ATOM     59  C   UNL A   1      43.554  32.929  31.645  1.00  0.00    -0.014 A 
ATOM     60  C   UNL A   1      43.956  33.971  30.789  1.00  0.00     0.010 A 
ATOM     61  C   UNL A   1      43.243  33.226  32.983  1.00  0.00     0.010 A 
ATOM     62  C   UNL A   1      44.094  35.274  31.274  1.00  0.00     0.020 A 
ATOM     63  C   UNL A   1      43.348  34.535  33.465  1.00  0.00     0.020 A 
ATOM     64  C   UNL A   1      43.793  35.547  32.611  1.00  0.00     0.054 A 
BRANCH  64  65
ATOM     65  S   UNL A   1      43.963  37.250  33.209  1.00  0.00     0.124 S 
ATOM     66  O   UNL A   1      43.927  38.011  31.963  1.00  0.00    -0.237 OA
ATOM     67  O   UNL A   1      42.795  37.404  34.073  1.00  0.00    -0.237 OA
ATOM     68  O   UNL A   1      45.249  37.248  33.901  1.00  0.00    -0.744 OA
ENDBRANCH  64  65
ENDBRANCH  45  59
BRANCH  46  69
ATOM     69  C   UNL A   1      42.378  23.723  27.871  1.00  0.00    -0.014 A 
ATOM     70  C   UNL A   1      42.658  23.493  26.512  1.00  0.00     0.010 A 
ATOM     71  C   UNL A   1      41.966  22.646  28.676  1.00  0.00     0.010 A 
ATOM     72  C   UNL A   1      42.508  22.216  25.964  1.00  0.00     0.020 A 
ATOM     73  C   UNL A   1      41.841  21.361  28.137  1.00  0.00     0.020 A 
ATOM     74  C   UNL A   1      42.101  21.157  26.780  1.00  0.00     0.054 A 
BRANCH  74  75
ATOM     75  S   UNL A   1      41.962  19.498  26.057  1.00  0.00     0.124 S 
ATOM     76  O   UNL A   1      42.509  18.658  27.118  1.00  0.00    -0.237 OA
ATOM     77  O   UNL A   1      40.525  19.372  25.828  1.00  0.00    -0.237 OA
ATOM     78  O   UNL A   1      42.773  19.586  24.845  1.00  0.00    -0.744 OA
ENDBRANCH  74  75
ENDBRANCH  46  69
BRANCH  58  79
ATOM     79  C   UNL A   1      47.595  26.967  31.176  1.00  0.00    -0.014 A 
ATOM     80  C   UNL A   1      48.722  27.117  30.349  1.00  0.00     0.010 A 
ATOM     81  C   UNL A   1      47.751  26.428  32.465  1.00  0.00     0.010 A 
ATOM     82  C   UNL A   1      49.978  26.700  30.794  1.00  0.00     0.020 A 
ATOM     83  C   UNL A   1      49.011  26.037  32.923  1.00  0.00     0.020 A 
ATOM     84  C   UNL A   1      50.115  26.161  32.077  1.00  0.00     0.054 A 
BRANCH  84  85
ATOM     85  S   UNL A   1      51.763  25.663  32.645  1.00  0.00     0.124 S 
ATOM     86  O   UNL A   1      51.874  24.311  32.104  1.00  0.00    -0.237 OA
ATOM     87  O   UNL A   1      52.632  26.661  32.028  1.00  0.00    -0.237 OA
ATOM     88  O   UNL A   1      51.667  25.745  34.102  1.00  0.00    -0.744 OA
ENDBRANCH  84  85
ENDBRANCH  58  79
ENDBRANCH  32  33
ENDBRANCH  24  27
ENDBRANCH  22  23
ENDBRANCH   1  22
TORSDOF 16
ENDMDL
MODEL 2
REMARK VINA RESULT:     -10.2      1.348      2.933
REMARK SMILES CC[C@@H]1CCC[C@@](Cc2ccccn2)(C(=O)NCCCNC(=O)c2ccc(-c3c4nc(c(-c5ccc(S(=O)(=O)[O-])cc5)c5ccc([nH]5)c(-c5ccc(S(=O)(=O)[O-])cc5)c5nc(c(-c6ccc(S(=O)(=O)[O-])cc6)c6ccc3[nH]6)C=C5)C=C4)cc2)C1
REMARK SMILES IDX 19 1 18 2 17 3 15 4 16 5 7 7 3 8 4 9 84 10 5 11 6 12 2 13
REMARK SMILES IDX 1 14 8 15 9 16 10 17 14 18 11 19 13 20 12 21 20 22 21 23
REMARK SMILES IDX 22 24 23 26 24 27 25 28 83 29 26 30 82 31 27 32 28 33 29 34
REMARK SMILES IDX 76 35 30 36 81 37 75 38 77 39 31 40 80 41 74 42 73 43 32 45
REMARK SMILES IDX 62 46 43 47 61 48 44 49 47 50 60 51 78 52 45 53 46 54 59 56
REMARK SMILES IDX 79 57 48 58 33 59 34 60 42 61 35 62 41 63 36 64 37 65 38 66
REMARK SMILES IDX 39 67 40 68 63 69 64 70 72 71 65 72 71 73 66 74 67 75 68 76
REMARK SMILES IDX 69 77 70 78 49 79 50 80 58 81 51 82 57 83 52 84 53 85 54 86
REMARK SMILES IDX 55 87 56 88
REMARK H PARENT 17 6 21 25 77 44 47 55
REMARK Flexibility Score: inf
ROOT
ATOM      1  C   UNL A   1      33.965  28.152  25.810  1.00  0.00     0.042 C 
ENDROOT
BRANCH   1   2
ATOM      2  C   UNL A   1      33.168  27.072  25.116  1.00  0.00     0.117 C 
BRANCH   2   3
ATOM      3  N   UNL A   1      33.964  26.141  24.344  1.00  0.00    -0.356 N 
ATOM      4  C   UNL A   1      33.629  24.959  23.763  1.00  0.00     0.226 C 
ATOM      5  O   UNL A   1      34.374  24.593  22.845  1.00  0.00    -0.274 OA
ATOM      6  H   UNL A   1      34.903  26.409  24.218  1.00  0.00     0.163 HD
BRANCH   4   7
ATOM      7  C   UNL A   1      32.388  24.122  24.166  1.00  0.00     0.055 C 
ATOM      8  C   UNL A   1      33.839  22.054  24.893  1.00  0.00    -0.010 C 
ATOM      9  C   UNL A   1      33.542  22.378  26.364  1.00  0.00     0.003 C 
ATOM     10  C   UNL A   1      32.746  22.605  23.951  1.00  0.00     0.021 C 
ATOM     11  C   UNL A   1      33.141  23.830  26.585  1.00  0.00     0.001 C 
ATOM     12  C   UNL A   1      31.993  24.227  25.656  1.00  0.00     0.017 C 
BRANCH   8  13
ATOM     13  C   UNL A   1      34.018  20.528  24.744  1.00  0.00     0.000 C 
ATOM     14  C   UNL A   1      32.804  19.710  25.159  1.00  0.00     0.004 C 
ENDBRANCH   8  13
BRANCH   7  15
ATOM     15  C   UNL A   1      31.211  24.403  23.177  1.00  0.00     0.073 C 
BRANCH  15  16
ATOM     16  C   UNL A   1      30.561  25.764  23.169  1.00  0.00     0.041 A 
ATOM     17  C   UNL A   1      29.370  25.991  23.863  1.00  0.00     0.024 A 
ATOM     18  N   UNL A   1      31.163  26.731  22.436  1.00  0.00    -0.261 NA
ATOM     19  C   UNL A   1      28.754  27.238  23.759  1.00  0.00     0.003 A 
ATOM     20  C   UNL A   1      30.547  27.935  22.360  1.00  0.00     0.111 A 
ATOM     21  C   UNL A   1      29.346  28.228  22.985  1.00  0.00     0.020 A 
ENDBRANCH  15  16
ENDBRANCH   7  15
ENDBRANCH   4   7
ENDBRANCH   2   3
ENDBRANCH   1   2
BRANCH   1  22
ATOM     22  C   UNL A   1      33.425  28.480  27.192  1.00  0.00     0.118 C 
BRANCH  22  23
ATOM     23  N   UNL A   1      33.469  29.911  27.504  1.00  0.00    -0.352 N 
ATOM     24  C   UNL A   1      34.452  30.671  28.092  1.00  0.00     0.251 C 
ATOM     25  H   UNL A   1      32.660  30.411  27.251  1.00  0.00     0.163 HD
ATOM     26  O   UNL A   1      34.205  31.818  28.452  1.00  0.00    -0.269 OA
BRANCH  24  27
ATOM     27  C   UNL A   1      35.791  30.091  28.304  1.00  0.00     0.039 A 
ATOM     28  C   UNL A   1      36.734  30.123  27.274  1.00  0.00     0.014 A 
ATOM     29  C   UNL A   1      36.125  29.546  29.543  1.00  0.00     0.014 A 
ATOM     30  C   UNL A   1      38.039  29.697  27.527  1.00  0.00     0.010 A 
ATOM     31  C   UNL A   1      37.448  29.257  29.831  1.00  0.00     0.010 A 
ATOM     32  C   UNL A   1      38.419  29.313  28.823  1.00  0.00    -0.014 A 
BRANCH  32  33
ATOM     33  C   UNL A   1      39.817  28.946  29.160  1.00  0.00     0.031 A 
ATOM     34  C   UNL A   1      40.715  29.961  29.818  1.00  0.00     0.074 A 
ATOM     35  C   UNL A   1      40.302  27.745  28.788  1.00  0.00     0.049 A 
ATOM     36  N   UNL A   1      41.991  29.877  30.094  1.00  0.00    -0.248 NA
ATOM     37  C   UNL A   1      40.114  31.260  30.168  1.00  0.00     0.031 C 
ATOM     38  C   UNL A   1      39.551  26.704  28.079  1.00  0.00     0.029 A 
ATOM     39  N   UNL A   1      41.549  27.196  28.948  1.00  0.00    -0.354 N 
ATOM     40  C   UNL A   1      42.346  31.118  30.611  1.00  0.00     0.074 A 
ATOM     41  C   UNL A   1      41.171  31.958  30.549  1.00  0.00     0.031 C 
ATOM     42  C   UNL A   1      40.339  25.631  27.906  1.00  0.00     0.029 A 
ATOM     43  C   UNL A   1      41.661  25.920  28.449  1.00  0.00     0.049 A 
ATOM     44  H   UNL A   1      42.295  27.673  29.380  1.00  0.00     0.167 HD
ATOM     45  C   UNL A   1      43.535  31.517  31.122  1.00  0.00     0.031 A 
ATOM     46  C   UNL A   1      42.710  25.076  28.437  1.00  0.00     0.031 A 
ATOM     47  C   UNL A   1      44.685  30.662  31.222  1.00  0.00     0.049 A 
ATOM     48  C   UNL A   1      44.005  25.519  29.058  1.00  0.00     0.074 A 
ATOM     49  C   UNL A   1      45.916  30.938  31.788  1.00  0.00     0.029 A 
ATOM     50  N   UNL A   1      44.738  29.356  30.756  1.00  0.00    -0.354 N 
ATOM     51  N   UNL A   1      44.304  26.676  29.603  1.00  0.00    -0.248 NA
ATOM     52  C   UNL A   1      45.098  24.540  29.084  1.00  0.00     0.031 C 
ATOM     53  C   UNL A   1      46.728  29.808  31.632  1.00  0.00     0.029 A 
ATOM     54  C   UNL A   1      45.984  28.814  31.017  1.00  0.00     0.049 A 
ATOM     55  H   UNL A   1      43.999  28.886  30.308  1.00  0.00     0.167 HD
ATOM     56  C   UNL A   1      45.608  26.551  30.064  1.00  0.00     0.074 A 
ATOM     57  C   UNL A   1      46.037  25.204  29.746  1.00  0.00     0.031 C 
ATOM     58  C   UNL A   1      46.382  27.467  30.698  1.00  0.00     0.031 A 
BRANCH  45  59
ATOM     59  C   UNL A   1      43.636  32.935  31.622  1.00  0.00    -0.014 A 
ATOM     60  C   UNL A   1      44.044  33.978  30.770  1.00  0.00     0.010 A 
ATOM     61  C   UNL A   1      43.305  33.232  32.956  1.00  0.00     0.010 A 
ATOM     62  C   UNL A   1      44.166  35.282  31.255  1.00  0.00     0.020 A 
ATOM     63  C   UNL A   1      43.394  34.543  33.437  1.00  0.00     0.020 A 
ATOM     64  C   UNL A   1      43.844  35.556  32.586  1.00  0.00     0.054 A 
BRANCH  64  65
ATOM     65  S   UNL A   1      43.995  37.261  33.184  1.00  0.00     0.124 S 
ATOM     66  O   UNL A   1      44.045  38.014  31.932  1.00  0.00    -0.237 OA
ATOM     67  O   UNL A   1      42.778  37.433  33.972  1.00  0.00    -0.237 OA
ATOM     68  O   UNL A   1      45.236  37.251  33.954  1.00  0.00    -0.744 OA
ENDBRANCH  64  65
ENDBRANCH  45  59
BRANCH  46  69
ATOM     69  C   UNL A   1      42.562  23.712  27.859  1.00  0.00    -0.014 A 
ATOM     70  C   UNL A   1      42.068  22.657  28.647  1.00  0.00     0.010 A 
ATOM     71  C   UNL A   1      42.893  23.464  26.515  1.00  0.00     0.010 A 
ATOM     72  C   UNL A   1      41.927  21.375  28.108  1.00  0.00     0.020 A 
ATOM     73  C   UNL A   1      42.727  22.189  25.964  1.00  0.00     0.020 A 
ATOM     74  C   UNL A   1      42.257  21.149  26.768  1.00  0.00     0.054 A 
BRANCH  74  75
ATOM     75  S   UNL A   1      42.017  19.488  26.077  1.00  0.00     0.124 S 
ATOM     76  O   UNL A   1      42.857  19.532  24.884  1.00  0.00    -0.237 OA
ATOM     77  O   UNL A   1      42.494  18.625  27.155  1.00  0.00    -0.237 OA
ATOM     78  O   UNL A   1      40.579  19.426  25.831  1.00  0.00    -0.744 OA
ENDBRANCH  74  75
ENDBRANCH  46  69
BRANCH  58  79
ATOM     79  C   UNL A   1      47.753  27.027  31.135  1.00  0.00    -0.014 A 
ATOM     80  C   UNL A   1      47.993  26.580  32.446  1.00  0.00     0.010 A 
ATOM     81  C   UNL A   1      48.801  27.011  30.197  1.00  0.00     0.010 A 
ATOM     82  C   UNL A   1      49.271  26.158  32.820  1.00  0.00     0.020 A 
ATOM     83  C   UNL A   1      50.072  26.563  30.561  1.00  0.00     0.020 A 
ATOM     84  C   UNL A   1      50.303  26.154  31.876  1.00  0.00     0.054 A 
BRANCH  84  85
ATOM     85  S   UNL A   1      51.943  25.566  32.376  1.00  0.00     0.124 S 
ATOM     86  O   UNL A   1      51.951  25.870  33.804  1.00  0.00    -0.237 OA
ATOM     87  O   UNL A   1      51.894  24.146  32.036  1.00  0.00    -0.237 OA
ATOM     88  O   UNL A   1      52.860  26.364  31.564  1.00  0.00    -0.744 OA
ENDBRANCH  84  85
ENDBRANCH  58  79
ENDBRANCH  32  33
ENDBRANCH  24  27
ENDBRANCH  22  23
ENDBRANCH   1  22
TORSDOF 16
ENDMDL
MODEL 3
REMARK VINA RESULT:     -10.1      4.513      9.469
REMARK SMILES CC[C@@H]1CCC[C@@](Cc2ccccn2)(C(=O)NCCCNC(=O)c2ccc(-c3c4nc(c(-c5ccc(S(=O)(=O)[O-])cc5)c5ccc([nH]5)c(-c5ccc(S(=O)(=O)[O-])cc5)c5nc(c(-c6ccc(S(=O)(=O)[O-])cc6)c6ccc3[nH]6)C=C5)C=C4)cc2)C1
REMARK SMILES IDX 19 1 18 2 17 3 15 4 16 5 7 7 3 8 4 9 84 10 5 11 6 12 2 13
REMARK SMILES IDX 1 14 8 15 9 16 10 17 14 18 11 19 13 20 12 21 20 22 21 23
REMARK SMILES IDX 22 24 23 26 24 27 25 28 83 29 26 30 82 31 27 32 28 33 29 34
REMARK SMILES IDX 76 35 30 36 81 37 75 38 77 39 31 40 80 41 74 42 73 43 32 45
REMARK SMILES IDX 62 46 43 47 61 48 44 49 47 50 60 51 78 52 45 53 46 54 59 56
REMARK SMILES IDX 79 57 48 58 33 59 34 60 42 61 35 62 41 63 36 64 37 65 38 66
REMARK SMILES IDX 39 67 40 68 63 69 64 70 72 71 65 72 71 73 66 74 67 75 68 76
REMARK SMILES IDX 69 77 70 78 49 79 50 80 58 81 51 82 57 83 52 84 53 85 54 86
REMARK SMILES IDX 55 87 56 88
REMARK H PARENT 17 6 21 25 77 44 47 55
REMARK Flexibility Score: inf
ROOT
ATOM      1  C   UNL A   1      38.875  22.791  26.509  1.00  0.00     0.042 C 
ENDROOT
BRANCH   1   2
ATOM      2  C   UNL A   1      37.898  23.663  25.757  1.00  0.00     0.117 C 
BRANCH   2   3
ATOM      3  N   UNL A   1      37.374  23.071  24.544  1.00  0.00    -0.356 N 
ATOM      4  C   UNL A   1      36.144  23.162  23.974  1.00  0.00     0.226 C 
ATOM      5  O   UNL A   1      36.104  22.900  22.765  1.00  0.00    -0.274 OA
ATOM      6  H   UNL A   1      38.015  22.509  24.052  1.00  0.00     0.163 HD
BRANCH   4   7
ATOM      7  C   UNL A   1      34.869  23.598  24.739  1.00  0.00     0.055 C 
ATOM      8  C   UNL A   1      33.659  21.301  24.326  1.00  0.00    -0.010 C 
ATOM      9  C   UNL A   1      33.878  20.934  25.801  1.00  0.00     0.003 C 
ATOM     10  C   UNL A   1      33.648  22.830  24.109  1.00  0.00     0.021 C 
ATOM     11  C   UNL A   1      35.021  21.707  26.444  1.00  0.00     0.001 C 
ATOM     12  C   UNL A   1      34.848  23.213  26.236  1.00  0.00     0.017 C 
BRANCH   8  13
ATOM     13  C   UNL A   1      32.356  20.636  23.833  1.00  0.00     0.000 C 
ATOM     14  C   UNL A   1      32.557  19.300  23.136  1.00  0.00     0.004 C 
ENDBRANCH   8  13
BRANCH   7  15
ATOM     15  C   UNL A   1      34.577  25.109  24.470  1.00  0.00     0.073 C 
BRANCH  15  16
ATOM     16  C   UNL A   1      33.503  25.491  23.482  1.00  0.00     0.041 A 
ATOM     17  C   UNL A   1      32.188  25.705  23.902  1.00  0.00     0.024 A 
ATOM     18  N   UNL A   1      33.866  25.579  22.179  1.00  0.00    -0.261 NA
ATOM     19  C   UNL A   1      31.207  25.969  22.947  1.00  0.00     0.003 A 
ATOM     20  C   UNL A   1      32.894  25.846  21.275  1.00  0.00     0.111 A 
ATOM     21  C   UNL A   1      31.562  26.032  21.605  1.00  0.00     0.020 A 
ENDBRANCH  15  16
ENDBRANCH   7  15
ENDBRANCH   4   7
ENDBRANCH   2   3
ENDBRANCH   1   2
BRANCH   1  22
ATOM     22  C   UNL A   1      40.018  23.586  27.120  1.00  0.00     0.118 C 
BRANCH  22  23
ATOM     23  N   UNL A   1      40.799  24.329  26.127  1.00  0.00    -0.352 N 
ATOM     24  C   UNL A   1      41.086  25.669  26.033  1.00  0.00     0.251 C 
ATOM     25  H   UNL A   1      41.182  23.776  25.408  1.00  0.00     0.163 HD
ATOM     26  O   UNL A   1      41.586  26.117  25.004  1.00  0.00    -0.269 OA
BRANCH  24  27
ATOM     27  C   UNL A   1      40.769  26.563  27.162  1.00  0.00     0.039 A 
ATOM     28  C   UNL A   1      39.915  26.124  28.177  1.00  0.00     0.014 A 
ATOM     29  C   UNL A   1      41.352  27.827  27.233  1.00  0.00     0.014 A 
ATOM     30  C   UNL A   1      39.730  26.922  29.308  1.00  0.00     0.010 A 
ATOM     31  C   UNL A   1      41.279  28.551  28.412  1.00  0.00     0.010 A 
ATOM     32  C   UNL A   1      40.454  28.116  29.458  1.00  0.00    -0.014 A 
BRANCH  32  33
ATOM     33  C   UNL A   1      40.363  28.946  30.684  1.00  0.00     0.031 A 
ATOM     34  C   UNL A   1      39.323  30.034  30.771  1.00  0.00     0.074 A 
ATOM     35  C   UNL A   1      41.270  28.789  31.669  1.00  0.00     0.049 A 
ATOM     36  N   UNL A   1      39.148  30.934  31.703  1.00  0.00    -0.248 NA
ATOM     37  C   UNL A   1      38.386  30.156  29.641  1.00  0.00     0.031 C 
ATOM     38  C   UNL A   1      42.370  27.820  31.667  1.00  0.00     0.029 A 
ATOM     39  N   UNL A   1      41.417  29.449  32.862  1.00  0.00    -0.354 N 
ATOM     40  C   UNL A   1      38.114  31.746  31.252  1.00  0.00     0.074 A 
ATOM     41  C   UNL A   1      37.745  31.274  29.937  1.00  0.00     0.031 C 
ATOM     42  C   UNL A   1      43.049  27.920  32.821  1.00  0.00     0.029 A 
ATOM     43  C   UNL A   1      42.463  28.986  33.625  1.00  0.00     0.049 A 
ATOM     44  H   UNL A   1      40.827  30.185  33.146  1.00  0.00     0.167 HD
ATOM     45  C   UNL A   1      37.502  32.773  31.887  1.00  0.00     0.031 A 
ATOM     46  C   UNL A   1      42.897  29.374  34.839  1.00  0.00     0.031 A 
ATOM     47  C   UNL A   1      37.844  33.207  33.213  1.00  0.00     0.049 A 
ATOM     48  C   UNL A   1      42.169  30.482  35.549  1.00  0.00     0.074 A 
ATOM     49  C   UNL A   1      37.243  34.188  33.981  1.00  0.00     0.029 A 
ATOM     50  N   UNL A   1      38.874  32.673  33.974  1.00  0.00    -0.354 N 
ATOM     51  N   UNL A   1      41.149  31.196  35.134  1.00  0.00    -0.248 NA
ATOM     52  C   UNL A   1      42.635  30.823  36.899  1.00  0.00     0.031 C 
ATOM     53  C   UNL A   1      37.933  34.272  35.195  1.00  0.00     0.029 A 
ATOM     54  C   UNL A   1      38.929  33.308  35.202  1.00  0.00     0.049 A 
ATOM     55  H   UNL A   1      39.475  31.950  33.684  1.00  0.00     0.167 HD
ATOM     56  C   UNL A   1      40.831  32.048  36.184  1.00  0.00     0.074 A 
ATOM     57  C   UNL A   1      41.759  31.753  37.257  1.00  0.00     0.031 C 
ATOM     58  C   UNL A   1      39.857  32.989  36.257  1.00  0.00     0.031 A 
BRANCH  45  59
ATOM     59  C   UNL A   1      36.392  33.482  31.154  1.00  0.00    -0.014 A 
ATOM     60  C   UNL A   1      36.578  33.962  29.844  1.00  0.00     0.010 A 
ATOM     61  C   UNL A   1      35.142  33.656  31.774  1.00  0.00     0.010 A 
ATOM     62  C   UNL A   1      35.552  34.646  29.187  1.00  0.00     0.020 A 
ATOM     63  C   UNL A   1      34.102  34.312  31.107  1.00  0.00     0.020 A 
ATOM     64  C   UNL A   1      34.322  34.821  29.825  1.00  0.00     0.054 A 
BRANCH  64  65
ATOM     65  S   UNL A   1      33.003  35.697  28.943  1.00  0.00     0.124 S 
ATOM     66  O   UNL A   1      32.192  36.208  30.046  1.00  0.00    -0.237 OA
ATOM     67  O   UNL A   1      33.739  36.706  28.185  1.00  0.00    -0.237 OA
ATOM     68  O   UNL A   1      32.372  34.655  28.137  1.00  0.00    -0.744 OA
ENDBRANCH  64  65
ENDBRANCH  45  59
BRANCH  46  69
ATOM     69  C   UNL A   1      44.049  28.679  35.477  1.00  0.00    -0.014 A 
ATOM     70  C   UNL A   1      45.357  29.159  35.292  1.00  0.00     0.010 A 
ATOM     71  C   UNL A   1      43.843  27.550  36.290  1.00  0.00     0.010 A 
ATOM     72  C   UNL A   1      46.441  28.510  35.889  1.00  0.00     0.020 A 
ATOM     73  C   UNL A   1      44.923  26.914  36.912  1.00  0.00     0.020 A 
ATOM     74  C   UNL A   1      46.217  27.391  36.697  1.00  0.00     0.054 A 
BRANCH  74  75
ATOM     75  S   UNL A   1      47.635  26.596  37.503  1.00  0.00     0.124 S 
ATOM     76  O   UNL A   1      47.002  25.481  38.200  1.00  0.00    -0.237 OA
ATOM     77  O   UNL A   1      48.482  26.235  36.369  1.00  0.00    -0.237 OA
ATOM     78  O   UNL A   1      48.174  27.649  38.362  1.00  0.00    -0.744 OA
ENDBRANCH  74  75
ENDBRANCH  46  69
BRANCH  58  79
ATOM     79  C   UNL A   1      39.711  33.731  37.557  1.00  0.00    -0.014 A 
ATOM     80  C   UNL A   1      40.354  34.962  37.772  1.00  0.00     0.010 A 
ATOM     81  C   UNL A   1      38.871  33.207  38.557  1.00  0.00     0.010 A 
ATOM     82  C   UNL A   1      40.187  35.640  38.982  1.00  0.00     0.020 A 
ATOM     83  C   UNL A   1      38.679  33.897  39.755  1.00  0.00     0.020 A 
ATOM     84  C   UNL A   1      39.352  35.102  39.967  1.00  0.00     0.054 A 
BRANCH  84  85
ATOM     85  S   UNL A   1      39.120  36.020  41.513  1.00  0.00     0.124 S 
ATOM     86  O   UNL A   1      40.326  35.667  42.258  1.00  0.00    -0.237 OA
ATOM     87  O   UNL A   1      39.045  37.405  41.057  1.00  0.00    -0.237 OA
ATOM     88  O   UNL A   1      37.873  35.479  42.053  1.00  0.00    -0.744 OA
ENDBRANCH  84  85
ENDBRANCH  58  79
ENDBRANCH  32  33
ENDBRANCH  24  27
ENDBRANCH  22  23
ENDBRANCH   1  22
TORSDOF 16
ENDMDL
