MODEL 1
REMARK VINA RESULT:     -10.0      0.000      0.000
REMARK SMILES CC1=C(CCC(=O)NCCCNC(=O)c2ccc(-c3c4nc(c(-c5ccc(S(=O)(=O)[O-])cc5)c5ccc([nH]5)c(-c5ccc(S(=O)(=O)[O-])cc5)c5nc(c(-c6ccc(S(=O)(=O)[O-])cc6)c6ccc3[nH]6)C=C5)C=C4)cc2)N=N[C@H]1C
REMARK SMILES IDX 10 1 9 2 8 3 6 4 7 5 5 7 4 8 3 9 1 10 2 11 77 12 75 13 76 14
REMARK SMILES IDX 78 15 11 16 12 17 13 18 14 20 15 21 16 22 74 23 17 24 73 25
REMARK SMILES IDX 18 26 19 27 20 28 67 29 21 30 72 31 66 32 68 33 22 34 71 35
REMARK SMILES IDX 65 36 64 37 23 39 53 40 34 41 52 42 35 43 38 44 51 45 69 46
REMARK SMILES IDX 36 47 37 48 50 50 70 51 39 52 24 53 25 54 33 55 26 56 32 57
REMARK SMILES IDX 27 58 28 59 29 60 30 61 31 62 54 63 55 64 63 65 56 66 62 67
REMARK SMILES IDX 57 68 58 69 59 70 60 71 61 72 40 73 41 74 49 75 42 76 48 77
REMARK SMILES IDX 43 78 44 79 45 80 46 81 47 82
REMARK H PARENT 8 6 12 19 68 38 38 49
REMARK Flexibility Score: inf
ROOT
ATOM      1  C   UNL A   1      43.915  21.900  25.962  1.00  0.00     0.042 C 
ENDROOT
BRANCH   1   2
ATOM      2  C   UNL A   1      44.761  22.882  26.759  1.00  0.00     0.117 C 
BRANCH   2   3
ATOM      3  N   UNL A   1      45.759  23.502  25.904  1.00  0.00    -0.356 N 
ATOM      4  C   UNL A   1      45.636  24.572  25.069  1.00  0.00     0.220 C 
ATOM      5  O   UNL A   1      46.546  24.800  24.271  1.00  0.00    -0.275 OA
ATOM      6  H   UNL A   1      46.653  23.089  25.931  1.00  0.00     0.163 HD
BRANCH   4   7
ATOM      7  C   UNL A   1      44.444  25.506  25.174  1.00  0.00     0.106 C 
BRANCH   7   8
ATOM      8  C   UNL A   1      44.601  26.649  26.186  1.00  0.00     0.068 C 
BRANCH   8   9
ATOM      9  C   UNL A   1      45.876  27.426  26.040  1.00  0.00     0.064 C 
ATOM     10  C   UNL A   1      47.233  26.882  28.161  1.00  0.00     0.044 C 
ATOM     11  C   UNL A   1      46.910  27.544  26.880  1.00  0.00    -0.024 C 
ATOM     12  C   UNL A   1      47.815  28.557  26.263  1.00  0.00     0.153 C 
ATOM     13  N   UNL A   1      46.114  28.091  24.865  1.00  0.00    -0.160 NA
ATOM     14  N   UNL A   1      47.188  28.750  24.932  1.00  0.00    -0.181 NA
ATOM     15  C   UNL A   1      47.809  29.878  27.033  1.00  0.00     0.040 C 
ENDBRANCH   8   9
ENDBRANCH   7   8
ENDBRANCH   4   7
ENDBRANCH   2   3
ENDBRANCH   1   2
BRANCH   1  16
ATOM     16  C   UNL A   1      42.731  22.519  25.277  1.00  0.00     0.118 C 
BRANCH  16  17
ATOM     17  N   UNL A   1      41.443  22.001  25.724  1.00  0.00    -0.352 N 
ATOM     18  C   UNL A   1      40.583  22.580  26.651  1.00  0.00     0.251 C 
ATOM     19  H   UNL A   1      41.151  21.149  25.327  1.00  0.00     0.163 HD
ATOM     20  O   UNL A   1      39.671  21.931  27.133  1.00  0.00    -0.269 OA
BRANCH  18  21
ATOM     21  C   UNL A   1      40.816  23.993  27.046  1.00  0.00     0.039 A 
ATOM     22  C   UNL A   1      40.097  25.046  26.478  1.00  0.00     0.014 A 
ATOM     23  C   UNL A   1      41.731  24.252  28.063  1.00  0.00     0.014 A 
ATOM     24  C   UNL A   1      40.266  26.330  27.001  1.00  0.00     0.010 A 
ATOM     25  C   UNL A   1      41.710  25.445  28.727  1.00  0.00     0.010 A 
ATOM     26  C   UNL A   1      41.058  26.516  28.150  1.00  0.00    -0.014 A 
BRANCH  26  27
ATOM     27  C   UNL A   1      41.112  27.783  28.872  1.00  0.00     0.031 A 
ATOM     28  C   UNL A   1      42.190  28.667  28.373  1.00  0.00     0.074 A 
ATOM     29  C   UNL A   1      40.167  28.202  29.746  1.00  0.00     0.049 A 
ATOM     30  N   UNL A   1      43.363  28.807  28.892  1.00  0.00    -0.248 NA
ATOM     31  C   UNL A   1      42.060  29.270  27.034  1.00  0.00     0.031 C 
ATOM     32  C   UNL A   1      38.896  27.548  30.095  1.00  0.00     0.029 A 
ATOM     33  N   UNL A   1      40.089  29.366  30.451  1.00  0.00    -0.354 N 
ATOM     34  C   UNL A   1      43.993  29.772  28.119  1.00  0.00     0.074 A 
ATOM     35  C   UNL A   1      43.273  29.806  26.872  1.00  0.00     0.031 C 
ATOM     36  C   UNL A   1      38.090  28.418  30.748  1.00  0.00     0.029 A 
ATOM     37  C   UNL A   1      38.843  29.624  31.029  1.00  0.00     0.049 A 
ATOM     38  H   UNL A   1      40.854  29.979  30.545  1.00  0.00     0.167 HD
ATOM     39  C   UNL A   1      44.806  30.692  28.707  1.00  0.00     0.031 A 
ATOM     40  C   UNL A   1      38.466  30.744  31.704  1.00  0.00     0.031 A 
ATOM     41  C   UNL A   1      45.085  30.326  30.078  1.00  0.00     0.049 A 
ATOM     42  C   UNL A   1      39.713  31.386  32.173  1.00  0.00     0.074 A 
ATOM     43  C   UNL A   1      45.672  29.252  30.715  1.00  0.00     0.029 A 
ATOM     44  N   UNL A   1      44.310  30.968  31.015  1.00  0.00    -0.354 N 
ATOM     45  N   UNL A   1      40.498  30.852  33.065  1.00  0.00    -0.248 NA
ATOM     46  C   UNL A   1      40.316  32.414  31.342  1.00  0.00     0.031 C 
ATOM     47  C   UNL A   1      44.925  29.075  31.918  1.00  0.00     0.029 A 
ATOM     48  C   UNL A   1      43.978  30.097  32.015  1.00  0.00     0.049 A 
ATOM     49  H   UNL A   1      44.037  31.913  30.973  1.00  0.00     0.167 HD
ATOM     50  C   UNL A   1      41.776  31.121  32.602  1.00  0.00     0.074 A 
ATOM     51  C   UNL A   1      41.603  32.195  31.627  1.00  0.00     0.031 C 
ATOM     52  C   UNL A   1      42.795  30.243  32.840  1.00  0.00     0.031 A 
BRANCH  39  53
ATOM     53  C   UNL A   1      44.909  32.136  28.257  1.00  0.00    -0.014 A 
ATOM     54  C   UNL A   1      46.147  32.794  28.420  1.00  0.00     0.010 A 
ATOM     55  C   UNL A   1      43.795  32.947  27.963  1.00  0.00     0.010 A 
ATOM     56  C   UNL A   1      46.245  34.189  28.369  1.00  0.00     0.020 A 
ATOM     57  C   UNL A   1      43.889  34.337  27.870  1.00  0.00     0.020 A 
ATOM     58  C   UNL A   1      45.110  34.952  28.101  1.00  0.00     0.054 A 
BRANCH  58  59
ATOM     59  S   UNL A   1      45.238  36.755  28.095  1.00  0.00     0.124 S 
ATOM     60  O   UNL A   1      46.282  36.986  29.088  1.00  0.00    -0.237 OA
ATOM     61  O   UNL A   1      45.606  37.029  26.709  1.00  0.00    -0.237 OA
ATOM     62  O   UNL A   1      43.897  37.193  28.478  1.00  0.00    -0.744 OA
ENDBRANCH  58  59
ENDBRANCH  39  53
BRANCH  40  63
ATOM     63  C   UNL A   1      37.154  31.440  31.795  1.00  0.00    -0.014 A 
ATOM     64  C   UNL A   1      36.634  31.843  33.044  1.00  0.00     0.010 A 
ATOM     65  C   UNL A   1      36.578  32.004  30.640  1.00  0.00     0.010 A 
ATOM     66  C   UNL A   1      35.641  32.837  33.138  1.00  0.00     0.020 A 
ATOM     67  C   UNL A   1      35.584  32.993  30.727  1.00  0.00     0.020 A 
ATOM     68  C   UNL A   1      35.141  33.427  31.976  1.00  0.00     0.054 A 
BRANCH  68  69
ATOM     69  S   UNL A   1      34.016  34.854  32.107  1.00  0.00     0.124 S 
ATOM     70  O   UNL A   1      33.765  35.184  30.707  1.00  0.00    -0.237 OA
ATOM     71  O   UNL A   1      32.879  34.301  32.838  1.00  0.00    -0.237 OA
ATOM     72  O   UNL A   1      34.800  35.843  32.845  1.00  0.00    -0.744 OA
ENDBRANCH  68  69
ENDBRANCH  40  63
BRANCH  52  73
ATOM     73  C   UNL A   1      42.627  29.244  33.963  1.00  0.00    -0.014 A 
ATOM     74  C   UNL A   1      42.888  29.497  35.323  1.00  0.00     0.010 A 
ATOM     75  C   UNL A   1      42.078  28.001  33.606  1.00  0.00     0.010 A 
ATOM     76  C   UNL A   1      42.639  28.510  36.293  1.00  0.00     0.020 A 
ATOM     77  C   UNL A   1      41.806  27.025  34.565  1.00  0.00     0.020 A 
ATOM     78  C   UNL A   1      42.104  27.277  35.903  1.00  0.00     0.054 A 
BRANCH  78  79
ATOM     79  S   UNL A   1      41.781  25.997  37.147  1.00  0.00     0.124 S 
ATOM     80  O   UNL A   1      41.948  24.763  36.384  1.00  0.00    -0.237 OA
ATOM     81  O   UNL A   1      42.806  26.257  38.155  1.00  0.00    -0.237 OA
ATOM     82  O   UNL A   1      40.412  26.272  37.584  1.00  0.00    -0.744 OA
ENDBRANCH  78  79
ENDBRANCH  52  73
ENDBRANCH  26  27
ENDBRANCH  18  21
ENDBRANCH  16  17
ENDBRANCH   1  16
TORSDOF 15
ENDMDL
MODEL 2
REMARK VINA RESULT:      -9.9      3.451      5.916
REMARK SMILES CC1=C(CCC(=O)NCCCNC(=O)c2ccc(-c3c4nc(c(-c5ccc(S(=O)(=O)[O-])cc5)c5ccc([nH]5)c(-c5ccc(S(=O)(=O)[O-])cc5)c5nc(c(-c6ccc(S(=O)(=O)[O-])cc6)c6ccc3[nH]6)C=C5)C=C4)cc2)N=N[C@H]1C
REMARK SMILES IDX 10 1 9 2 8 3 6 4 7 5 5 7 4 8 3 9 1 10 2 11 77 12 75 13 76 14
REMARK SMILES IDX 78 15 11 16 12 17 13 18 14 20 15 21 16 22 74 23 17 24 73 25
REMARK SMILES IDX 18 26 19 27 20 28 67 29 21 30 72 31 66 32 68 33 22 34 71 35
REMARK SMILES IDX 65 36 64 37 23 39 53 40 34 41 52 42 35 43 38 44 51 45 69 46
REMARK SMILES IDX 36 47 37 48 50 50 70 51 39 52 24 53 25 54 33 55 26 56 32 57
REMARK SMILES IDX 27 58 28 59 29 60 30 61 31 62 54 63 55 64 63 65 56 66 62 67
REMARK SMILES IDX 57 68 58 69 59 70 60 71 61 72 40 73 41 74 49 75 42 76 48 77
REMARK SMILES IDX 43 78 44 79 45 80 46 81 47 82
REMARK H PARENT 8 6 12 19 68 38 38 49
REMARK Flexibility Score: inf
ROOT
ATOM      1  C   UNL A   1      37.194  21.427  24.786  1.00  0.00     0.042 C 
ENDROOT
BRANCH   1   2
ATOM      2  C   UNL A   1      35.794  21.441  25.384  1.00  0.00     0.117 C 
BRANCH   2   3
ATOM      3  N   UNL A   1      35.118  20.182  25.119  1.00  0.00    -0.356 N 
ATOM      4  C   UNL A   1      33.792  19.939  24.921  1.00  0.00     0.220 C 
ATOM      5  O   UNL A   1      33.403  18.770  24.929  1.00  0.00    -0.275 OA
ATOM      6  H   UNL A   1      35.702  19.390  25.079  1.00  0.00     0.163 HD
BRANCH   4   7
ATOM      7  C   UNL A   1      32.831  21.074  24.617  1.00  0.00     0.106 C 
BRANCH   7   8
ATOM      8  C   UNL A   1      32.769  21.497  23.144  1.00  0.00     0.068 C 
BRANCH   8   9
ATOM      9  C   UNL A   1      32.988  22.963  22.917  1.00  0.00     0.064 C 
ATOM     10  C   UNL A   1      30.715  24.063  23.428  1.00  0.00     0.044 C 
ATOM     11  C   UNL A   1      32.124  23.982  22.991  1.00  0.00    -0.024 C 
ATOM     12  C   UNL A   1      32.877  25.182  22.522  1.00  0.00     0.153 C 
ATOM     13  N   UNL A   1      34.257  23.408  22.652  1.00  0.00    -0.160 NA
ATOM     14  N   UNL A   1      34.257  24.648  22.415  1.00  0.00    -0.181 NA
ATOM     15  C   UNL A   1      32.401  25.658  21.150  1.00  0.00     0.040 C 
ENDBRANCH   8   9
ENDBRANCH   7   8
ENDBRANCH   4   7
ENDBRANCH   2   3
ENDBRANCH   1   2
BRANCH   1  16
ATOM     16  C   UNL A   1      38.212  22.197  25.577  1.00  0.00     0.118 C 
BRANCH  16  17
ATOM     17  N   UNL A   1      39.097  21.364  26.384  1.00  0.00    -0.352 N 
ATOM     18  C   UNL A   1      40.217  21.777  27.096  1.00  0.00     0.251 C 
ATOM     19  H   UNL A   1      38.877  20.406  26.428  1.00  0.00     0.163 HD
ATOM     20  O   UNL A   1      41.018  20.958  27.512  1.00  0.00    -0.269 OA
BRANCH  18  21
ATOM     21  C   UNL A   1      40.418  23.233  27.318  1.00  0.00     0.039 A 
ATOM     22  C   UNL A   1      39.428  24.168  27.014  1.00  0.00     0.014 A 
ATOM     23  C   UNL A   1      41.605  23.652  27.911  1.00  0.00     0.014 A 
ATOM     24  C   UNL A   1      39.631  25.500  27.384  1.00  0.00     0.010 A 
ATOM     25  C   UNL A   1      41.694  24.887  28.486  1.00  0.00     0.010 A 
ATOM     26  C   UNL A   1      40.761  25.847  28.149  1.00  0.00    -0.014 A 
BRANCH  26  27
ATOM     27  C   UNL A   1      40.931  27.167  28.746  1.00  0.00     0.031 A 
ATOM     28  C   UNL A   1      42.037  27.928  28.120  1.00  0.00     0.074 A 
ATOM     29  C   UNL A   1      40.059  27.727  29.619  1.00  0.00     0.049 A 
ATOM     30  N   UNL A   1      43.241  28.034  28.571  1.00  0.00    -0.248 NA
ATOM     31  C   UNL A   1      41.877  28.415  26.738  1.00  0.00     0.031 C 
ATOM     32  C   UNL A   1      38.769  27.194  30.084  1.00  0.00     0.029 A 
ATOM     33  N   UNL A   1      40.092  28.952  30.215  1.00  0.00    -0.354 N 
ATOM     34  C   UNL A   1      43.891  28.880  27.685  1.00  0.00     0.074 A 
ATOM     35  C   UNL A   1      43.112  28.850  26.473  1.00  0.00     0.031 C 
ATOM     36  C   UNL A   1      38.053  28.172  30.687  1.00  0.00     0.029 A 
ATOM     37  C   UNL A   1      38.895  29.345  30.822  1.00  0.00     0.049 A 
ATOM     38  H   UNL A   1      40.897  29.517  30.218  1.00  0.00     0.167 HD
ATOM     39  C   UNL A   1      44.789  29.793  28.148  1.00  0.00     0.031 A 
ATOM     40  C   UNL A   1      38.624  30.543  31.405  1.00  0.00     0.031 A 
ATOM     41  C   UNL A   1      45.113  29.533  29.533  1.00  0.00     0.049 A 
ATOM     42  C   UNL A   1      39.931  31.139  31.757  1.00  0.00     0.074 A 
ATOM     43  C   UNL A   1      45.662  28.484  30.241  1.00  0.00     0.029 A 
ATOM     44  N   UNL A   1      44.429  30.308  30.440  1.00  0.00    -0.354 N 
ATOM     45  N   UNL A   1      40.725  30.635  32.658  1.00  0.00    -0.248 NA
ATOM     46  C   UNL A   1      40.556  32.045  30.807  1.00  0.00     0.031 C 
ATOM     47  C   UNL A   1      44.967  28.466  31.487  1.00  0.00     0.029 A 
ATOM     48  C   UNL A   1      44.093  29.555  31.530  1.00  0.00     0.049 A 
ATOM     49  H   UNL A   1      44.214  31.262  30.322  1.00  0.00     0.167 HD
ATOM     50  C   UNL A   1      41.992  30.775  32.117  1.00  0.00     0.074 A 
ATOM     51  C   UNL A   1      41.839  31.766  31.054  1.00  0.00     0.031 C 
ATOM     52  C   UNL A   1      42.965  29.854  32.390  1.00  0.00     0.031 A 
BRANCH  39  53
ATOM     53  C   UNL A   1      44.961  31.179  27.561  1.00  0.00    -0.014 A 
ATOM     54  C   UNL A   1      46.265  31.599  27.223  1.00  0.00     0.010 A 
ATOM     55  C   UNL A   1      43.965  32.176  27.601  1.00  0.00     0.010 A 
ATOM     56  C   UNL A   1      46.567  32.950  27.015  1.00  0.00     0.020 A 
ATOM     57  C   UNL A   1      44.248  33.522  27.355  1.00  0.00     0.020 A 
ATOM     58  C   UNL A   1      45.554  33.904  27.090  1.00  0.00     0.054 A 
BRANCH  58  59
ATOM     59  S   UNL A   1      45.967  35.650  26.877  1.00  0.00     0.124 S 
ATOM     60  O   UNL A   1      46.461  35.677  25.504  1.00  0.00    -0.237 OA
ATOM     61  O   UNL A   1      44.678  36.298  27.103  1.00  0.00    -0.237 OA
ATOM     62  O   UNL A   1      46.971  35.892  27.911  1.00  0.00    -0.744 OA
ENDBRANCH  58  59
ENDBRANCH  39  53
BRANCH  40  63
ATOM     63  C   UNL A   1      37.365  31.332  31.489  1.00  0.00    -0.014 A 
ATOM     64  C   UNL A   1      36.629  31.394  32.691  1.00  0.00     0.010 A 
ATOM     65  C   UNL A   1      37.070  32.288  30.498  1.00  0.00     0.010 A 
ATOM     66  C   UNL A   1      35.700  32.425  32.929  1.00  0.00     0.020 A 
ATOM     67  C   UNL A   1      36.140  33.316  30.727  1.00  0.00     0.020 A 
ATOM     68  C   UNL A   1      35.481  33.397  31.953  1.00  0.00     0.054 A 
BRANCH  68  69
ATOM     69  S   UNL A   1      34.441  34.842  32.343  1.00  0.00     0.124 S 
ATOM     70  O   UNL A   1      33.332  34.240  33.077  1.00  0.00    -0.237 OA
ATOM     71  O   UNL A   1      35.339  35.679  33.135  1.00  0.00    -0.237 OA
ATOM     72  O   UNL A   1      34.095  35.381  31.029  1.00  0.00    -0.744 OA
ENDBRANCH  68  69
ENDBRANCH  40  63
BRANCH  52  73
ATOM     73  C   UNL A   1      42.791  28.974  33.607  1.00  0.00    -0.014 A 
ATOM     74  C   UNL A   1      43.363  29.211  34.872  1.00  0.00     0.010 A 
ATOM     75  C   UNL A   1      41.908  27.890  33.464  1.00  0.00     0.010 A 
ATOM     76  C   UNL A   1      43.084  28.356  35.952  1.00  0.00     0.020 A 
ATOM     77  C   UNL A   1      41.608  27.052  34.537  1.00  0.00     0.020 A 
ATOM     78  C   UNL A   1      42.211  27.277  35.773  1.00  0.00     0.054 A 
BRANCH  78  79
ATOM     79  S   UNL A   1      41.847  26.168  37.162  1.00  0.00     0.124 S 
ATOM     80  O   UNL A   1      42.965  26.418  38.069  1.00  0.00    -0.237 OA
ATOM     81  O   UNL A   1      40.544  26.641  37.623  1.00  0.00    -0.237 OA
ATOM     82  O   UNL A   1      41.833  24.838  36.552  1.00  0.00    -0.744 OA
ENDBRANCH  78  79
ENDBRANCH  52  73
ENDBRANCH  26  27
ENDBRANCH  18  21
ENDBRANCH  16  17
ENDBRANCH   1  16
TORSDOF 15
ENDMDL
MODEL 3
REMARK VINA RESULT:      -9.9      2.989      5.220
REMARK SMILES CC1=C(CCC(=O)NCCCNC(=O)c2ccc(-c3c4nc(c(-c5ccc(S(=O)(=O)[O-])cc5)c5ccc([nH]5)c(-c5ccc(S(=O)(=O)[O-])cc5)c5nc(c(-c6ccc(S(=O)(=O)[O-])cc6)c6ccc3[nH]6)C=C5)C=C4)cc2)N=N[C@H]1C
REMARK SMILES IDX 10 1 9 2 8 3 6 4 7 5 5 7 4 8 3 9 1 10 2 11 77 12 75 13 76 14
REMARK SMILES IDX 78 15 11 16 12 17 13 18 14 20 15 21 16 22 74 23 17 24 73 25
REMARK SMILES IDX 18 26 19 27 20 28 67 29 21 30 72 31 66 32 68 33 22 34 71 35
REMARK SMILES IDX 65 36 64 37 23 39 53 40 34 41 52 42 35 43 38 44 51 45 69 46
REMARK SMILES IDX 36 47 37 48 50 50 70 51 39 52 24 53 25 54 33 55 26 56 32 57
REMARK SMILES IDX 27 58 28 59 29 60 30 61 31 62 54 63 55 64 63 65 56 66 62 67
REMARK SMILES IDX 57 68 58 69 59 70 60 71 61 72 40 73 41 74 49 75 42 76 48 77
REMARK SMILES IDX 43 78 44 79 45 80 46 81 47 82
REMARK H PARENT 8 6 12 19 68 38 38 49
REMARK Flexibility Score: inf
ROOT
ATOM      1  C   UNL A   1      38.906  21.021  25.733  1.00  0.00     0.042 C 
ENDROOT
BRANCH   1   2
ATOM      2  C   UNL A   1      37.673  21.900  25.585  1.00  0.00     0.117 C 
BRANCH   2   3
ATOM      3  N   UNL A   1      37.462  22.246  24.189  1.00  0.00    -0.356 N 
ATOM      4  C   UNL A   1      36.494  23.025  23.629  1.00  0.00     0.220 C 
ATOM      5  O   UNL A   1      36.367  23.012  22.403  1.00  0.00    -0.275 OA
ATOM      6  H   UNL A   1      38.111  21.860  23.556  1.00  0.00     0.163 HD
BRANCH   4   7
ATOM      7  C   UNL A   1      35.647  23.947  24.486  1.00  0.00     0.106 C 
BRANCH   7   8
ATOM      8  C   UNL A   1      34.166  24.022  24.094  1.00  0.00     0.068 C 
BRANCH   8   9
ATOM      9  C   UNL A   1      33.794  25.262  23.336  1.00  0.00     0.064 C 
ATOM     10  C   UNL A   1      33.367  27.046  25.144  1.00  0.00     0.044 C 
ATOM     11  C   UNL A   1      33.425  26.466  23.786  1.00  0.00    -0.024 C 
ATOM     12  C   UNL A   1      33.042  27.248  22.575  1.00  0.00     0.153 C 
ATOM     13  N   UNL A   1      33.885  25.251  21.968  1.00  0.00    -0.160 NA
ATOM     14  N   UNL A   1      33.470  26.340  21.483  1.00  0.00    -0.181 NA
ATOM     15  C   UNL A   1      31.532  27.476  22.494  1.00  0.00     0.040 C 
ENDBRANCH   8   9
ENDBRANCH   7   8
ENDBRANCH   4   7
ENDBRANCH   2   3
ENDBRANCH   1   2
BRANCH   1  16
ATOM     16  C   UNL A   1      40.029  21.654  26.502  1.00  0.00     0.118 C 
BRANCH  16  17
ATOM     17  N   UNL A   1      41.261  21.815  25.738  1.00  0.00    -0.352 N 
ATOM     18  C   UNL A   1      42.045  22.960  25.643  1.00  0.00     0.251 C 
ATOM     19  H   UNL A   1      41.572  21.028  25.236  1.00  0.00     0.163 HD
ATOM     20  O   UNL A   1      42.897  23.052  24.776  1.00  0.00    -0.269 OA
BRANCH  18  21
ATOM     21  C   UNL A   1      41.804  24.065  26.606  1.00  0.00     0.039 A 
ATOM     22  C   UNL A   1      42.435  24.109  27.851  1.00  0.00     0.014 A 
ATOM     23  C   UNL A   1      40.977  25.114  26.215  1.00  0.00     0.014 A 
ATOM     24  C   UNL A   1      42.273  25.249  28.642  1.00  0.00     0.010 A 
ATOM     25  C   UNL A   1      41.020  26.312  26.869  1.00  0.00     0.010 A 
ATOM     26  C   UNL A   1      41.583  26.363  28.128  1.00  0.00    -0.014 A 
BRANCH  26  27
ATOM     27  C   UNL A   1      41.554  27.653  28.808  1.00  0.00     0.031 A 
ATOM     28  C   UNL A   1      42.616  28.565  28.326  1.00  0.00     0.074 A 
ATOM     29  C   UNL A   1      40.555  28.060  29.627  1.00  0.00     0.049 A 
ATOM     30  N   UNL A   1      43.759  28.770  28.889  1.00  0.00    -0.248 NA
ATOM     31  C   UNL A   1      42.520  29.118  26.963  1.00  0.00     0.031 C 
ATOM     32  C   UNL A   1      39.298  27.365  29.945  1.00  0.00     0.029 A 
ATOM     33  N   UNL A   1      40.400  29.242  30.289  1.00  0.00    -0.354 N 
ATOM     34  C   UNL A   1      44.382  29.735  28.111  1.00  0.00     0.074 A 
ATOM     35  C   UNL A   1      43.716  29.699  26.834  1.00  0.00     0.031 C 
ATOM     36  C   UNL A   1      38.429  28.221  30.533  1.00  0.00     0.029 A 
ATOM     37  C   UNL A   1      39.121  29.466  30.805  1.00  0.00     0.049 A 
ATOM     38  H   UNL A   1      41.134  29.888  30.394  1.00  0.00     0.167 HD
ATOM     39  C   UNL A   1      45.131  30.707  28.702  1.00  0.00     0.031 A 
ATOM     40  C   UNL A   1      38.669  30.589  31.425  1.00  0.00     0.031 A 
ATOM     41  C   UNL A   1      45.365  30.396  30.095  1.00  0.00     0.049 A 
ATOM     42  C   UNL A   1      39.868  31.298  31.924  1.00  0.00     0.074 A 
ATOM     43  C   UNL A   1      45.966  29.369  30.792  1.00  0.00     0.029 A 
ATOM     44  N   UNL A   1      44.525  31.035  30.977  1.00  0.00    -0.354 N 
ATOM     45  N   UNL A   1      40.634  30.826  32.866  1.00  0.00    -0.248 NA
ATOM     46  C   UNL A   1      40.465  32.323  31.085  1.00  0.00     0.031 C 
ATOM     47  C   UNL A   1      45.175  29.199  31.967  1.00  0.00     0.029 A 
ATOM     48  C   UNL A   1      44.185  30.183  31.990  1.00  0.00     0.049 A 
ATOM     49  H   UNL A   1      44.215  31.966  30.891  1.00  0.00     0.167 HD
ATOM     50  C   UNL A   1      41.919  31.133  32.449  1.00  0.00     0.074 A 
ATOM     51  C   UNL A   1      41.746  32.168  31.432  1.00  0.00     0.031 C 
ATOM     52  C   UNL A   1      42.962  30.306  32.759  1.00  0.00     0.031 A 
BRANCH  39  53
ATOM     53  C   UNL A   1      45.195  32.138  28.209  1.00  0.00    -0.014 A 
ATOM     54  C   UNL A   1      46.430  32.816  28.299  1.00  0.00     0.010 A 
ATOM     55  C   UNL A   1      44.059  32.927  27.941  1.00  0.00     0.010 A 
ATOM     56  C   UNL A   1      46.508  34.210  28.205  1.00  0.00     0.020 A 
ATOM     57  C   UNL A   1      44.130  34.316  27.806  1.00  0.00     0.020 A 
ATOM     58  C   UNL A   1      45.352  34.951  27.966  1.00  0.00     0.054 A 
BRANCH  58  59
ATOM     59  S   UNL A   1      45.456  36.755  27.905  1.00  0.00     0.124 S 
ATOM     60  O   UNL A   1      44.448  37.080  26.901  1.00  0.00    -0.237 OA
ATOM     61  O   UNL A   1      45.129  37.126  29.279  1.00  0.00    -0.237 OA
ATOM     62  O   UNL A   1      46.841  37.003  27.510  1.00  0.00    -0.744 OA
ENDBRANCH  58  59
ENDBRANCH  39  53
BRANCH  40  63
ATOM     63  C   UNL A   1      37.328  31.233  31.437  1.00  0.00    -0.014 A 
ATOM     64  C   UNL A   1      36.610  31.386  32.642  1.00  0.00     0.010 A 
ATOM     65  C   UNL A   1      36.905  31.993  30.330  1.00  0.00     0.010 A 
ATOM     66  C   UNL A   1      35.569  32.327  32.761  1.00  0.00     0.020 A 
ATOM     67  C   UNL A   1      35.864  32.931  30.440  1.00  0.00     0.020 A 
ATOM     68  C   UNL A   1      35.221  33.115  31.663  1.00  0.00     0.054 A 
BRANCH  68  69
ATOM     69  S   UNL A   1      34.024  34.472  31.877  1.00  0.00     0.124 S 
ATOM     70  O   UNL A   1      33.081  33.909  32.839  1.00  0.00    -0.237 OA
ATOM     71  O   UNL A   1      34.860  35.561  32.377  1.00  0.00    -0.237 OA
ATOM     72  O   UNL A   1      33.490  34.674  30.531  1.00  0.00    -0.744 OA
ENDBRANCH  68  69
ENDBRANCH  40  63
BRANCH  52  73
ATOM     73  C   UNL A   1      42.786  29.338  33.907  1.00  0.00    -0.014 A 
ATOM     74  C   UNL A   1      43.008  29.635  35.265  1.00  0.00     0.010 A 
ATOM     75  C   UNL A   1      42.269  28.074  33.574  1.00  0.00     0.010 A 
ATOM     76  C   UNL A   1      42.754  28.672  36.257  1.00  0.00     0.020 A 
ATOM     77  C   UNL A   1      41.992  27.122  34.555  1.00  0.00     0.020 A 
ATOM     78  C   UNL A   1      42.252  27.418  35.892  1.00  0.00     0.054 A 
BRANCH  78  79
ATOM     79  S   UNL A   1      41.923  26.169  37.165  1.00  0.00     0.124 S 
ATOM     80  O   UNL A   1      43.000  26.403  38.125  1.00  0.00    -0.237 OA
ATOM     81  O   UNL A   1      40.582  26.520  37.627  1.00  0.00    -0.237 OA
ATOM     82  O   UNL A   1      42.007  24.901  36.441  1.00  0.00    -0.744 OA
ENDBRANCH  78  79
ENDBRANCH  52  73
ENDBRANCH  26  27
ENDBRANCH  18  21
ENDBRANCH  16  17
ENDBRANCH   1  16
TORSDOF 15
ENDMDL
