MODEL 1
REMARK VINA RESULT:     -13.4      0.000      0.000
REMARK SMILES COc1ccc2c(c1)c(CC(=O)NCCCNC(=O)c1ccc(-c3c4nc(c(-c5ccc(S(=O)(=O)[O-])cc5)c5ccc([nH]5)c(-c5ccc(S(=O)(=O)[O-])cc5)c5nc(c(-c6ccc(S(=O)(=O)[O-])cc6)c6ccc3[nH]6)C=C5)C=C4)cc1)c(C)n2C(=O)c1ccc(Cl)cc1
REMARK SMILES IDX 15 1 14 2 13 3 11 4 12 5 10 7 9 8 3 9 4 10 8 11 5 12 7 13
REMARK SMILES IDX 6 14 82 15 80 16 81 17 2 18 1 19 83 20 84 21 85 22 86 23
REMARK SMILES IDX 91 24 87 25 90 26 88 27 89 28 16 29 17 30 18 31 19 33 20 34
REMARK SMILES IDX 21 35 79 36 22 37 78 38 23 39 24 40 25 41 72 42 26 43 77 44
REMARK SMILES IDX 71 45 73 46 27 47 76 48 70 49 69 50 28 52 58 53 39 54 57 55
REMARK SMILES IDX 40 56 43 57 56 58 74 59 41 60 42 61 55 63 75 64 44 65 29 66
REMARK SMILES IDX 30 67 38 68 31 69 37 70 32 71 33 72 34 73 35 74 36 75 59 76
REMARK SMILES IDX 60 77 68 78 61 79 67 80 62 81 63 82 64 83 65 84 66 85 45 86
REMARK SMILES IDX 46 87 54 88 47 89 53 90 48 91 49 92 50 93 51 94 52 95
REMARK H PARENT 13 6 17 32 73 51 43 62
REMARK Flexibility Score: inf
ROOT
ATOM      1  C   UNL A   1      39.633  21.820  26.608  1.00  0.00     0.042 C 
ENDROOT
BRANCH   1   2
ATOM      2  C   UNL A   1      38.922  23.172  26.512  1.00  0.00     0.117 C 
BRANCH   2   3
ATOM      3  N   UNL A   1      38.281  23.382  25.224  1.00  0.00    -0.356 N 
ATOM      4  C   UNL A   1      36.957  23.541  24.934  1.00  0.00     0.224 C 
ATOM      5  O   UNL A   1      36.642  23.737  23.756  1.00  0.00    -0.275 OA
ATOM      6  H   UNL A   1      38.890  23.414  24.451  1.00  0.00     0.163 HD
BRANCH   4   7
ATOM      7  C   UNL A   1      35.915  23.534  26.041  1.00  0.00     0.138 C 
BRANCH   7   8
ATOM      8  C   UNL A   1      34.662  22.794  25.677  1.00  0.00    -0.009 A 
ATOM      9  C   UNL A   1      31.409  24.654  26.395  1.00  0.00     0.119 A 
ATOM     10  C   UNL A   1      30.559  23.639  25.987  1.00  0.00     0.048 A 
ATOM     11  C   UNL A   1      32.790  24.486  26.302  1.00  0.00     0.057 A 
ATOM     12  C   UNL A   1      31.072  22.427  25.514  1.00  0.00     0.031 A 
ATOM     13  C   UNL A   1      33.331  23.272  25.817  1.00  0.00     0.008 A 
ATOM     14  C   UNL A   1      32.466  22.256  25.394  1.00  0.00     0.057 A 
ATOM     15  N   UNL A   1      33.251  21.220  24.856  1.00  0.00    -0.280 N 
ATOM     16  C   UNL A   1      34.581  21.486  25.219  1.00  0.00     0.028 A 
ATOM     17  C   UNL A   1      35.706  20.504  25.081  1.00  0.00     0.065 C 
BRANCH   9  18
ATOM     18  O   UNL A   1      30.972  25.860  26.874  1.00  0.00    -0.497 OA
ATOM     19  C   UNL A   1      31.246  26.948  25.995  1.00  0.00     0.278 C 
ENDBRANCH   9  18
BRANCH  15  20
ATOM     20  C   UNL A   1      32.807  20.122  24.061  1.00  0.00     0.262 C 
ATOM     21  O   UNL A   1      32.206  20.364  23.026  1.00  0.00    -0.268 OA
BRANCH  20  22
ATOM     22  C   UNL A   1      32.969  18.699  24.416  1.00  0.00     0.040 A 
ATOM     23  C   UNL A   1      33.374  17.773  23.448  1.00  0.00     0.015 A 
ATOM     24  C   UNL A   1      32.670  18.289  25.719  1.00  0.00     0.015 A 
ATOM     25  C   UNL A   1      33.374  16.412  23.762  1.00  0.00     0.021 A 
ATOM     26  C   UNL A   1      32.682  16.927  26.029  1.00  0.00     0.021 A 
ATOM     27  C   UNL A   1      33.008  15.994  25.043  1.00  0.00     0.041 A 
ATOM     28  Cl  UNL A   1      32.924  14.312  25.397  1.00  0.00    -0.084 Cl
ENDBRANCH  20  22
ENDBRANCH  15  20
ENDBRANCH   7   8
ENDBRANCH   4   7
ENDBRANCH   2   3
ENDBRANCH   1   2
BRANCH   1  29
ATOM     29  C   UNL A   1      41.108  21.930  26.995  1.00  0.00     0.118 C 
BRANCH  29  30
ATOM     30  N   UNL A   1      41.972  22.352  25.910  1.00  0.00    -0.352 N 
ATOM     31  C   UNL A   1      42.665  23.486  25.594  1.00  0.00     0.251 C 
ATOM     32  H   UNL A   1      42.089  21.646  25.233  1.00  0.00     0.163 HD
ATOM     33  O   UNL A   1      43.398  23.396  24.605  1.00  0.00    -0.269 OA
BRANCH  31  34
ATOM     34  C   UNL A   1      42.555  24.798  26.286  1.00  0.00     0.039 A 
ATOM     35  C   UNL A   1      43.105  25.123  27.526  1.00  0.00     0.014 A 
ATOM     36  C   UNL A   1      41.750  25.756  25.637  1.00  0.00     0.014 A 
ATOM     37  C   UNL A   1      42.765  26.325  28.149  1.00  0.00     0.010 A 
ATOM     38  C   UNL A   1      41.417  26.959  26.249  1.00  0.00     0.010 A 
ATOM     39  C   UNL A   1      41.878  27.215  27.534  1.00  0.00    -0.014 A 
BRANCH  39  40
ATOM     40  C   UNL A   1      41.516  28.444  28.236  1.00  0.00     0.031 A 
ATOM     41  C   UNL A   1      42.524  29.537  28.150  1.00  0.00     0.074 A 
ATOM     42  C   UNL A   1      40.327  28.637  28.846  1.00  0.00     0.049 A 
ATOM     43  N   UNL A   1      43.219  30.053  29.110  1.00  0.00    -0.248 NA
ATOM     44  C   UNL A   1      42.889  30.033  26.814  1.00  0.00     0.031 C 
ATOM     45  C   UNL A   1      39.133  27.787  28.813  1.00  0.00     0.029 A 
ATOM     46  N   UNL A   1      39.909  29.711  29.572  1.00  0.00    -0.354 N 
ATOM     47  C   UNL A   1      43.991  31.060  28.536  1.00  0.00     0.074 A 
ATOM     48  C   UNL A   1      43.845  30.916  27.109  1.00  0.00     0.031 C 
ATOM     49  C   UNL A   1      38.071  28.480  29.289  1.00  0.00     0.029 A 
ATOM     50  C   UNL A   1      38.539  29.753  29.810  1.00  0.00     0.049 A 
ATOM     51  H   UNL A   1      40.528  30.403  29.903  1.00  0.00     0.167 HD
ATOM     52  C   UNL A   1      44.563  32.049  29.279  1.00  0.00     0.031 A 
ATOM     53  C   UNL A   1      37.840  30.772  30.374  1.00  0.00     0.031 A 
ATOM     54  C   UNL A   1      44.591  31.718  30.678  1.00  0.00     0.049 A 
ATOM     55  C   UNL A   1      38.809  31.571  31.160  1.00  0.00     0.074 A 
ATOM     56  C   UNL A   1      45.225  30.753  31.433  1.00  0.00     0.029 A 
ATOM     57  N   UNL A   1      43.582  32.219  31.463  1.00  0.00    -0.354 N 
ATOM     58  N   UNL A   1      39.424  31.122  32.219  1.00  0.00    -0.248 NA
ATOM     59  C   UNL A   1      39.418  32.724  30.520  1.00  0.00     0.031 C 
ATOM     60  C   UNL A   1      44.276  30.392  32.432  1.00  0.00     0.029 A 
ATOM     61  C   UNL A   1      43.148  31.203  32.273  1.00  0.00     0.049 A 
ATOM     62  H   UNL A   1      43.234  33.140  31.447  1.00  0.00     0.167 HD
ATOM     63  C   UNL A   1      40.702  31.651  32.133  1.00  0.00     0.074 A 
ATOM     64  C   UNL A   1      40.611  32.699  31.117  1.00  0.00     0.031 C 
ATOM     65  C   UNL A   1      41.772  31.017  32.694  1.00  0.00     0.031 A 
BRANCH  52  66
ATOM     66  C   UNL A   1      44.815  33.450  28.784  1.00  0.00    -0.014 A 
ATOM     67  C   UNL A   1      43.851  34.203  28.084  1.00  0.00     0.010 A 
ATOM     68  C   UNL A   1      45.959  34.145  29.236  1.00  0.00     0.010 A 
ATOM     69  C   UNL A   1      44.013  35.567  27.833  1.00  0.00     0.020 A 
ATOM     70  C   UNL A   1      46.112  35.523  29.027  1.00  0.00     0.020 A 
ATOM     71  C   UNL A   1      45.138  36.224  28.319  1.00  0.00     0.054 A 
BRANCH  71  72
ATOM     72  S   UNL A   1      45.259  38.011  28.063  1.00  0.00     0.124 S 
ATOM     73  O   UNL A   1      46.331  38.373  28.988  1.00  0.00    -0.237 OA
ATOM     74  O   UNL A   1      45.593  38.101  26.646  1.00  0.00    -0.237 OA
ATOM     75  O   UNL A   1      43.931  38.499  28.424  1.00  0.00    -0.744 OA
ENDBRANCH  71  72
ENDBRANCH  52  66
BRANCH  53  76
ATOM     76  C   UNL A   1      36.550  31.353  29.909  1.00  0.00    -0.014 A 
ATOM     77  C   UNL A   1      36.406  31.751  28.565  1.00  0.00     0.010 A 
ATOM     78  C   UNL A   1      35.603  31.829  30.839  1.00  0.00     0.010 A 
ATOM     79  C   UNL A   1      35.414  32.661  28.177  1.00  0.00     0.020 A 
ATOM     80  C   UNL A   1      34.604  32.742  30.456  1.00  0.00     0.020 A 
ATOM     81  C   UNL A   1      34.543  33.183  29.134  1.00  0.00     0.054 A 
BRANCH  81  82
ATOM     82  S   UNL A   1      33.409  34.511  28.631  1.00  0.00     0.124 S 
ATOM     83  O   UNL A   1      34.318  35.469  28.008  1.00  0.00    -0.237 OA
ATOM     84  O   UNL A   1      32.501  33.823  27.716  1.00  0.00    -0.237 OA
ATOM     85  O   UNL A   1      32.806  34.948  29.887  1.00  0.00    -0.744 OA
ENDBRANCH  81  82
ENDBRANCH  53  76
BRANCH  65  86
ATOM     86  C   UNL A   1      41.537  29.856  33.640  1.00  0.00    -0.014 A 
ATOM     87  C   UNL A   1      41.684  30.115  35.014  1.00  0.00     0.010 A 
ATOM     88  C   UNL A   1      41.435  28.514  33.217  1.00  0.00     0.010 A 
ATOM     89  C   UNL A   1      41.802  29.074  35.935  1.00  0.00     0.020 A 
ATOM     90  C   UNL A   1      41.527  27.461  34.145  1.00  0.00     0.020 A 
ATOM     91  C   UNL A   1      41.746  27.751  35.494  1.00  0.00     0.054 A 
BRANCH  91  92
ATOM     92  S   UNL A   1      42.007  26.438  36.720  1.00  0.00     0.124 S 
ATOM     93  O   UNL A   1      43.059  27.002  37.566  1.00  0.00    -0.237 OA
ATOM     94  O   UNL A   1      40.697  26.328  37.359  1.00  0.00    -0.237 OA
ATOM     95  O   UNL A   1      42.400  25.278  35.923  1.00  0.00    -0.744 OA
ENDBRANCH  91  92
ENDBRANCH  65  86
ENDBRANCH  39  40
ENDBRANCH  31  34
ENDBRANCH  29  30
ENDBRANCH   1  29
TORSDOF 17
ENDMDL
MODEL 2
REMARK VINA RESULT:     -13.4      2.055      3.893
REMARK SMILES COc1ccc2c(c1)c(CC(=O)NCCCNC(=O)c1ccc(-c3c4nc(c(-c5ccc(S(=O)(=O)[O-])cc5)c5ccc([nH]5)c(-c5ccc(S(=O)(=O)[O-])cc5)c5nc(c(-c6ccc(S(=O)(=O)[O-])cc6)c6ccc3[nH]6)C=C5)C=C4)cc1)c(C)n2C(=O)c1ccc(Cl)cc1
REMARK SMILES IDX 15 1 14 2 13 3 11 4 12 5 10 7 9 8 3 9 4 10 8 11 5 12 7 13
REMARK SMILES IDX 6 14 82 15 80 16 81 17 2 18 1 19 83 20 84 21 85 22 86 23
REMARK SMILES IDX 91 24 87 25 90 26 88 27 89 28 16 29 17 30 18 31 19 33 20 34
REMARK SMILES IDX 21 35 79 36 22 37 78 38 23 39 24 40 25 41 72 42 26 43 77 44
REMARK SMILES IDX 71 45 73 46 27 47 76 48 70 49 69 50 28 52 58 53 39 54 57 55
REMARK SMILES IDX 40 56 43 57 56 58 74 59 41 60 42 61 55 63 75 64 44 65 29 66
REMARK SMILES IDX 30 67 38 68 31 69 37 70 32 71 33 72 34 73 35 74 36 75 59 76
REMARK SMILES IDX 60 77 68 78 61 79 67 80 62 81 63 82 64 83 65 84 66 85 45 86
REMARK SMILES IDX 46 87 54 88 47 89 53 90 48 91 49 92 50 93 51 94 52 95
REMARK H PARENT 13 6 17 32 73 51 43 62
REMARK Flexibility Score: inf
ROOT
ATOM      1  C   UNL A   1      38.961  22.621  26.272  1.00  0.00     0.042 C 
ENDROOT
BRANCH   1   2
ATOM      2  C   UNL A   1      37.828  21.762  25.705  1.00  0.00     0.117 C 
BRANCH   2   3
ATOM      3  N   UNL A   1      37.279  22.295  24.470  1.00  0.00    -0.356 N 
ATOM      4  C   UNL A   1      36.412  23.334  24.288  1.00  0.00     0.224 C 
ATOM      5  O   UNL A   1      36.100  23.633  23.131  1.00  0.00    -0.275 OA
ATOM      6  H   UNL A   1      37.574  21.842  23.647  1.00  0.00     0.163 HD
BRANCH   4   7
ATOM      7  C   UNL A   1      35.898  24.131  25.476  1.00  0.00     0.138 C 
BRANCH   7   8
ATOM      8  C   UNL A   1      34.410  24.327  25.465  1.00  0.00    -0.009 A 
ATOM      9  C   UNL A   1      32.349  21.117  25.382  1.00  0.00     0.119 A 
ATOM     10  C   UNL A   1      31.110  21.732  25.322  1.00  0.00     0.048 A 
ATOM     11  C   UNL A   1      33.508  21.889  25.465  1.00  0.00     0.057 A 
ATOM     12  C   UNL A   1      31.006  23.126  25.308  1.00  0.00     0.031 A 
ATOM     13  C   UNL A   1      33.426  23.301  25.463  1.00  0.00     0.008 A 
ATOM     14  C   UNL A   1      32.169  23.915  25.416  1.00  0.00     0.057 A 
ATOM     15  N   UNL A   1      32.365  25.303  25.542  1.00  0.00    -0.280 N 
ATOM     16  C   UNL A   1      33.739  25.538  25.373  1.00  0.00     0.028 A 
ATOM     17  C   UNL A   1      34.344  26.895  25.168  1.00  0.00     0.065 C 
BRANCH   9  18
ATOM     18  O   UNL A   1      32.520  19.758  25.392  1.00  0.00    -0.497 OA
ATOM     19  C   UNL A   1      33.597  19.319  24.569  1.00  0.00     0.278 C 
ENDBRANCH   9  18
BRANCH  15  20
ATOM     20  C   UNL A   1      31.378  26.294  25.824  1.00  0.00     0.262 C 
ATOM     21  O   UNL A   1      31.102  26.518  26.992  1.00  0.00    -0.268 OA
BRANCH  20  22
ATOM     22  C   UNL A   1      30.614  27.042  24.808  1.00  0.00     0.040 A 
ATOM     23  C   UNL A   1      31.063  28.292  24.367  1.00  0.00     0.015 A 
ATOM     24  C   UNL A   1      29.416  26.501  24.329  1.00  0.00     0.015 A 
ATOM     25  C   UNL A   1      30.251  29.051  23.521  1.00  0.00     0.021 A 
ATOM     26  C   UNL A   1      28.613  27.262  23.476  1.00  0.00     0.021 A 
ATOM     27  C   UNL A   1      29.022  28.542  23.097  1.00  0.00     0.041 A 
ATOM     28  Cl  UNL A   1      27.986  29.518  22.129  1.00  0.00    -0.084 Cl
ENDBRANCH  20  22
ENDBRANCH  15  20
ENDBRANCH   7   8
ENDBRANCH   4   7
ENDBRANCH   2   3
ENDBRANCH   1   2
BRANCH   1  29
ATOM     29  C   UNL A   1      40.229  21.830  26.591  1.00  0.00     0.118 C 
BRANCH  29  30
ATOM     30  N   UNL A   1      41.351  22.140  25.727  1.00  0.00    -0.352 N 
ATOM     31  C   UNL A   1      42.253  23.160  25.621  1.00  0.00     0.251 C 
ATOM     32  H   UNL A   1      41.499  21.444  25.047  1.00  0.00     0.163 HD
ATOM     33  O   UNL A   1      43.153  22.983  24.795  1.00  0.00    -0.269 OA
BRANCH  31  34
ATOM     34  C   UNL A   1      42.198  24.455  26.353  1.00  0.00     0.039 A 
ATOM     35  C   UNL A   1      42.436  24.641  27.714  1.00  0.00     0.014 A 
ATOM     36  C   UNL A   1      41.792  25.564  25.584  1.00  0.00     0.014 A 
ATOM     37  C   UNL A   1      42.163  25.873  28.310  1.00  0.00     0.010 A 
ATOM     38  C   UNL A   1      41.528  26.796  26.171  1.00  0.00     0.010 A 
ATOM     39  C   UNL A   1      41.657  26.932  27.547  1.00  0.00    -0.014 A 
BRANCH  39  40
ATOM     40  C   UNL A   1      41.347  28.193  28.214  1.00  0.00     0.031 A 
ATOM     41  C   UNL A   1      42.376  29.257  28.058  1.00  0.00     0.074 A 
ATOM     42  C   UNL A   1      40.182  28.437  28.854  1.00  0.00     0.049 A 
ATOM     43  N   UNL A   1      43.113  29.791  28.976  1.00  0.00    -0.248 NA
ATOM     44  C   UNL A   1      42.710  29.696  26.693  1.00  0.00     0.031 C 
ATOM     45  C   UNL A   1      38.969  27.615  28.889  1.00  0.00     0.029 A 
ATOM     46  N   UNL A   1      39.813  29.546  29.554  1.00  0.00    -0.354 N 
ATOM     47  C   UNL A   1      43.889  30.758  28.342  1.00  0.00     0.074 A 
ATOM     48  C   UNL A   1      43.695  30.566  26.926  1.00  0.00     0.031 C 
ATOM     49  C   UNL A   1      37.938  28.351  29.372  1.00  0.00     0.029 A 
ATOM     50  C   UNL A   1      38.453  29.630  29.832  1.00  0.00     0.049 A 
ATOM     51  H   UNL A   1      40.458  30.235  29.839  1.00  0.00     0.167 HD
ATOM     52  C   UNL A   1      44.507  31.758  29.030  1.00  0.00     0.031 A 
ATOM     53  C   UNL A   1      37.796  30.685  30.380  1.00  0.00     0.031 A 
ATOM     54  C   UNL A   1      44.573  31.476  30.438  1.00  0.00     0.049 A 
ATOM     55  C   UNL A   1      38.808  31.488  31.106  1.00  0.00     0.074 A 
ATOM     56  C   UNL A   1      45.208  30.524  31.208  1.00  0.00     0.029 A 
ATOM     57  N   UNL A   1      43.601  32.030  31.236  1.00  0.00    -0.354 N 
ATOM     58  N   UNL A   1      39.445  31.062  32.161  1.00  0.00    -0.248 NA
ATOM     59  C   UNL A   1      39.422  32.602  30.405  1.00  0.00     0.031 C 
ATOM     60  C   UNL A   1      44.284  30.223  32.249  1.00  0.00     0.029 A 
ATOM     61  C   UNL A   1      43.170  31.054  32.096  1.00  0.00     0.049 A 
ATOM     62  H   UNL A   1      43.275  32.958  31.197  1.00  0.00     0.167 HD
ATOM     63  C   UNL A   1      40.732  31.556  32.015  1.00  0.00     0.074 A 
ATOM     64  C   UNL A   1      40.633  32.569  30.965  1.00  0.00     0.031 C 
ATOM     65  C   UNL A   1      41.805  30.918  32.566  1.00  0.00     0.031 A 
BRANCH  52  66
ATOM     66  C   UNL A   1      44.776  33.135  28.477  1.00  0.00    -0.014 A 
ATOM     67  C   UNL A   1      43.805  33.888  27.786  1.00  0.00     0.010 A 
ATOM     68  C   UNL A   1      45.953  33.813  28.862  1.00  0.00     0.010 A 
ATOM     69  C   UNL A   1      43.993  35.237  27.481  1.00  0.00     0.020 A 
ATOM     70  C   UNL A   1      46.133  35.179  28.598  1.00  0.00     0.020 A 
ATOM     71  C   UNL A   1      45.152  35.880  27.902  1.00  0.00     0.054 A 
BRANCH  71  72
ATOM     72  S   UNL A   1      45.308  37.654  27.578  1.00  0.00     0.124 S 
ATOM     73  O   UNL A   1      46.330  37.678  26.535  1.00  0.00    -0.237 OA
ATOM     74  O   UNL A   1      43.960  38.012  27.147  1.00  0.00    -0.237 OA
ATOM     75  O   UNL A   1      45.718  38.203  28.867  1.00  0.00    -0.744 OA
ENDBRANCH  71  72
ENDBRANCH  52  66
BRANCH  53  76
ATOM     76  C   UNL A   1      36.505  31.280  29.935  1.00  0.00    -0.014 A 
ATOM     77  C   UNL A   1      36.311  31.591  28.574  1.00  0.00     0.010 A 
ATOM     78  C   UNL A   1      35.620  31.853  30.871  1.00  0.00     0.010 A 
ATOM     79  C   UNL A   1      35.333  32.508  28.169  1.00  0.00     0.020 A 
ATOM     80  C   UNL A   1      34.635  32.774  30.471  1.00  0.00     0.020 A 
ATOM     81  C   UNL A   1      34.526  33.126  29.125  1.00  0.00     0.054 A 
BRANCH  81  82
ATOM     82  S   UNL A   1      33.414  34.458  28.583  1.00  0.00     0.124 S 
ATOM     83  O   UNL A   1      34.345  35.397  27.963  1.00  0.00    -0.237 OA
ATOM     84  O   UNL A   1      32.517  33.766  27.663  1.00  0.00    -0.237 OA
ATOM     85  O   UNL A   1      32.794  34.919  29.822  1.00  0.00    -0.744 OA
ENDBRANCH  81  82
ENDBRANCH  53  76
BRANCH  65  86
ATOM     86  C   UNL A   1      41.573  29.797  33.560  1.00  0.00    -0.014 A 
ATOM     87  C   UNL A   1      41.765  30.103  34.920  1.00  0.00     0.010 A 
ATOM     88  C   UNL A   1      41.432  28.443  33.191  1.00  0.00     0.010 A 
ATOM     89  C   UNL A   1      41.888  29.094  35.875  1.00  0.00     0.020 A 
ATOM     90  C   UNL A   1      41.529  27.423  34.154  1.00  0.00     0.020 A 
ATOM     91  C   UNL A   1      41.792  27.757  35.485  1.00  0.00     0.054 A 
BRANCH  91  92
ATOM     92  S   UNL A   1      42.062  26.484  36.751  1.00  0.00     0.124 S 
ATOM     93  O   UNL A   1      42.498  25.337  35.954  1.00  0.00    -0.237 OA
ATOM     94  O   UNL A   1      43.100  27.079  37.591  1.00  0.00    -0.237 OA
ATOM     95  O   UNL A   1      40.759  26.339  37.395  1.00  0.00    -0.744 OA
ENDBRANCH  91  92
ENDBRANCH  65  86
ENDBRANCH  39  40
ENDBRANCH  31  34
ENDBRANCH  29  30
ENDBRANCH   1  29
TORSDOF 17
ENDMDL
MODEL 3
REMARK VINA RESULT:     -13.1      3.278      9.451
REMARK SMILES COc1ccc2c(c1)c(CC(=O)NCCCNC(=O)c1ccc(-c3c4nc(c(-c5ccc(S(=O)(=O)[O-])cc5)c5ccc([nH]5)c(-c5ccc(S(=O)(=O)[O-])cc5)c5nc(c(-c6ccc(S(=O)(=O)[O-])cc6)c6ccc3[nH]6)C=C5)C=C4)cc1)c(C)n2C(=O)c1ccc(Cl)cc1
REMARK SMILES IDX 15 1 14 2 13 3 11 4 12 5 10 7 9 8 3 9 4 10 8 11 5 12 7 13
REMARK SMILES IDX 6 14 82 15 80 16 81 17 2 18 1 19 83 20 84 21 85 22 86 23
REMARK SMILES IDX 91 24 87 25 90 26 88 27 89 28 16 29 17 30 18 31 19 33 20 34
REMARK SMILES IDX 21 35 79 36 22 37 78 38 23 39 24 40 25 41 72 42 26 43 77 44
REMARK SMILES IDX 71 45 73 46 27 47 76 48 70 49 69 50 28 52 58 53 39 54 57 55
REMARK SMILES IDX 40 56 43 57 56 58 74 59 41 60 42 61 55 63 75 64 44 65 29 66
REMARK SMILES IDX 30 67 38 68 31 69 37 70 32 71 33 72 34 73 35 74 36 75 59 76
REMARK SMILES IDX 60 77 68 78 61 79 67 80 62 81 63 82 64 83 65 84 66 85 45 86
REMARK SMILES IDX 46 87 54 88 47 89 53 90 48 91 49 92 50 93 51 94 52 95
REMARK H PARENT 13 6 17 32 73 51 43 62
REMARK Flexibility Score: inf
ROOT
ATOM      1  C   UNL A   1      34.012  32.518  28.002  1.00  0.00     0.042 C 
ENDROOT
BRANCH   1   2
ATOM      2  C   UNL A   1      34.613  31.141  27.710  1.00  0.00     0.117 C 
BRANCH   2   3
ATOM      3  N   UNL A   1      33.689  30.053  27.982  1.00  0.00    -0.356 N 
ATOM      4  C   UNL A   1      33.333  29.004  27.186  1.00  0.00     0.224 C 
ATOM      5  O   UNL A   1      32.541  28.173  27.641  1.00  0.00    -0.275 OA
ATOM      6  H   UNL A   1      33.258  30.077  28.867  1.00  0.00     0.163 HD
BRANCH   4   7
ATOM      7  C   UNL A   1      33.944  28.838  25.803  1.00  0.00     0.138 C 
BRANCH   7   8
ATOM      8  C   UNL A   1      33.171  27.907  24.916  1.00  0.00    -0.009 A 
ATOM      9  C   UNL A   1      29.943  29.341  23.474  1.00  0.00     0.119 A 
ATOM     10  C   UNL A   1      29.548  28.191  22.809  1.00  0.00     0.048 A 
ATOM     11  C   UNL A   1      31.147  29.361  24.176  1.00  0.00     0.057 A 
ATOM     12  C   UNL A   1      30.329  27.033  22.863  1.00  0.00     0.031 A 
ATOM     13  C   UNL A   1      31.958  28.204  24.236  1.00  0.00     0.008 A 
ATOM     14  C   UNL A   1      31.560  27.050  23.551  1.00  0.00     0.057 A 
ATOM     15  N   UNL A   1      32.589  26.099  23.678  1.00  0.00    -0.280 N 
ATOM     16  C   UNL A   1      33.462  26.572  24.670  1.00  0.00     0.028 A 
ATOM     17  C   UNL A   1      34.543  25.749  25.306  1.00  0.00     0.065 C 
BRANCH   9  18
ATOM     18  O   UNL A   1      29.222  30.505  23.466  1.00  0.00    -0.497 OA
ATOM     19  C   UNL A   1      27.838  30.308  23.186  1.00  0.00     0.278 C 
ENDBRANCH   9  18
BRANCH  15  20
ATOM     20  C   UNL A   1      32.752  24.896  22.927  1.00  0.00     0.262 C 
ATOM     21  O   UNL A   1      33.088  24.987  21.757  1.00  0.00    -0.268 OA
BRANCH  20  22
ATOM     22  C   UNL A   1      32.495  23.537  23.439  1.00  0.00     0.040 A 
ATOM     23  C   UNL A   1      31.919  23.356  24.702  1.00  0.00     0.015 A 
ATOM     24  C   UNL A   1      32.875  22.439  22.661  1.00  0.00     0.015 A 
ATOM     25  C   UNL A   1      31.824  22.067  25.231  1.00  0.00     0.021 A 
ATOM     26  C   UNL A   1      32.768  21.151  23.193  1.00  0.00     0.021 A 
ATOM     27  C   UNL A   1      32.268  20.974  24.484  1.00  0.00     0.041 A 
ATOM     28  Cl  UNL A   1      32.231  19.399  25.178  1.00  0.00    -0.084 Cl
ENDBRANCH  20  22
ENDBRANCH  15  20
ENDBRANCH   7   8
ENDBRANCH   4   7
ENDBRANCH   2   3
ENDBRANCH   1   2
BRANCH   1  29
ATOM     29  C   UNL A   1      34.861  33.372  28.943  1.00  0.00     0.118 C 
BRANCH  29  30
ATOM     30  N   UNL A   1      34.735  33.013  30.342  1.00  0.00    -0.352 N 
ATOM     31  C   UNL A   1      35.406  32.200  31.209  1.00  0.00     0.251 C 
ATOM     32  H   UNL A   1      33.976  33.468  30.774  1.00  0.00     0.163 HD
ATOM     33  O   UNL A   1      35.036  32.264  32.385  1.00  0.00    -0.269 OA
BRANCH  31  34
ATOM     34  C   UNL A   1      36.469  31.224  30.847  1.00  0.00     0.039 A 
ATOM     35  C   UNL A   1      36.314  29.842  30.736  1.00  0.00     0.014 A 
ATOM     36  C   UNL A   1      37.758  31.770  30.679  1.00  0.00     0.014 A 
ATOM     37  C   UNL A   1      37.433  29.022  30.579  1.00  0.00     0.010 A 
ATOM     38  C   UNL A   1      38.874  30.959  30.512  1.00  0.00     0.010 A 
ATOM     39  C   UNL A   1      38.715  29.579  30.523  1.00  0.00    -0.014 A 
BRANCH  39  40
ATOM     40  C   UNL A   1      39.864  28.686  30.397  1.00  0.00     0.031 A 
ATOM     41  C   UNL A   1      40.599  28.424  31.666  1.00  0.00     0.074 A 
ATOM     42  C   UNL A   1      40.203  28.057  29.252  1.00  0.00     0.049 A 
ATOM     43  N   UNL A   1      41.811  28.758  31.965  1.00  0.00    -0.248 NA
ATOM     44  C   UNL A   1      39.852  27.823  32.782  1.00  0.00     0.031 C 
ATOM     45  C   UNL A   1      39.461  27.990  27.989  1.00  0.00     0.029 A 
ATOM     46  N   UNL A   1      41.278  27.254  29.009  1.00  0.00    -0.354 N 
ATOM     47  C   UNL A   1      42.049  28.262  33.244  1.00  0.00     0.074 A 
ATOM     48  C   UNL A   1      40.774  27.813  33.746  1.00  0.00     0.031 C 
ATOM     49  C   UNL A   1      39.985  27.017  27.206  1.00  0.00     0.029 A 
ATOM     50  C   UNL A   1      41.192  26.510  27.836  1.00  0.00     0.049 A 
ATOM     51  H   UNL A   1      42.053  27.204  29.615  1.00  0.00     0.167 HD
ATOM     52  C   UNL A   1      43.309  28.101  33.738  1.00  0.00     0.031 A 
ATOM     53  C   UNL A   1      42.042  25.533  27.427  1.00  0.00     0.031 A 
ATOM     54  C   UNL A   1      44.281  28.827  32.967  1.00  0.00     0.049 A 
ATOM     55  C   UNL A   1      43.324  25.756  28.136  1.00  0.00     0.074 A 
ATOM     56  C   UNL A   1      44.523  30.163  32.724  1.00  0.00     0.029 A 
ATOM     57  N   UNL A   1      44.967  28.130  32.003  1.00  0.00    -0.354 N 
ATOM     58  N   UNL A   1      44.085  26.797  27.940  1.00  0.00    -0.248 NA
ATOM     59  C   UNL A   1      43.549  25.036  29.377  1.00  0.00     0.031 C 
ATOM     60  C   UNL A   1      44.938  30.215  31.363  1.00  0.00     0.029 A 
ATOM     61  C   UNL A   1      44.992  28.906  30.874  1.00  0.00     0.049 A 
ATOM     62  H   UNL A   1      45.368  27.237  32.105  1.00  0.00     0.167 HD
ATOM     63  C   UNL A   1      44.578  27.112  29.197  1.00  0.00     0.074 A 
ATOM     64  C   UNL A   1      44.286  25.942  30.023  1.00  0.00     0.031 C 
ATOM     65  C   UNL A   1      44.935  28.389  29.520  1.00  0.00     0.031 A 
BRANCH  52  66
ATOM     66  C   UNL A   1      43.707  27.037  34.729  1.00  0.00    -0.014 A 
ATOM     67  C   UNL A   1      43.516  25.660  34.496  1.00  0.00     0.010 A 
ATOM     68  C   UNL A   1      44.521  27.390  35.828  1.00  0.00     0.010 A 
ATOM     69  C   UNL A   1      44.090  24.684  35.312  1.00  0.00     0.020 A 
ATOM     70  C   UNL A   1      45.136  26.417  36.628  1.00  0.00     0.020 A 
ATOM     71  C   UNL A   1      44.911  25.068  36.367  1.00  0.00     0.054 A 
BRANCH  71  72
ATOM     72  S   UNL A   1      45.718  23.770  37.335  1.00  0.00     0.124 S 
ATOM     73  O   UNL A   1      45.287  22.562  36.634  1.00  0.00    -0.237 OA
ATOM     74  O   UNL A   1      47.131  24.109  37.195  1.00  0.00    -0.237 OA
ATOM     75  O   UNL A   1      45.164  23.945  38.674  1.00  0.00    -0.744 OA
ENDBRANCH  71  72
ENDBRANCH  52  66
BRANCH  53  76
ATOM     76  C   UNL A   1      41.688  24.200  26.864  1.00  0.00    -0.014 A 
ATOM     77  C   UNL A   1      40.821  23.348  27.578  1.00  0.00     0.010 A 
ATOM     78  C   UNL A   1      42.455  23.635  25.825  1.00  0.00     0.010 A 
ATOM     79  C   UNL A   1      40.788  21.970  27.328  1.00  0.00     0.020 A 
ATOM     80  C   UNL A   1      42.425  22.252  25.569  1.00  0.00     0.020 A 
ATOM     81  C   UNL A   1      41.621  21.423  26.351  1.00  0.00     0.054 A 
BRANCH  81  82
ATOM     82  S   UNL A   1      41.699  19.614  26.200  1.00  0.00     0.124 S 
ATOM     83  O   UNL A   1      42.111  19.214  27.543  1.00  0.00    -0.237 OA
ATOM     84  O   UNL A   1      40.327  19.267  25.838  1.00  0.00    -0.237 OA
ATOM     85  O   UNL A   1      42.690  19.394  25.150  1.00  0.00    -0.744 OA
ENDBRANCH  81  82
ENDBRANCH  53  76
BRANCH  65  86
ATOM     86  C   UNL A   1      45.036  29.432  28.425  1.00  0.00    -0.014 A 
ATOM     87  C   UNL A   1      46.289  30.045  28.245  1.00  0.00     0.010 A 
ATOM     88  C   UNL A   1      43.917  29.989  27.772  1.00  0.00     0.010 A 
ATOM     89  C   UNL A   1      46.418  31.218  27.500  1.00  0.00     0.020 A 
ATOM     90  C   UNL A   1      44.045  31.156  26.998  1.00  0.00     0.020 A 
ATOM     91  C   UNL A   1      45.291  31.781  26.898  1.00  0.00     0.054 A 
BRANCH  91  92
ATOM     92  S   UNL A   1      45.497  33.361  26.028  1.00  0.00     0.124 S 
ATOM     93  O   UNL A   1      44.902  34.315  26.963  1.00  0.00    -0.237 OA
ATOM     94  O   UNL A   1      46.949  33.464  25.886  1.00  0.00    -0.237 OA
ATOM     95  O   UNL A   1      44.771  33.175  24.774  1.00  0.00    -0.744 OA
ENDBRANCH  91  92
ENDBRANCH  65  86
ENDBRANCH  39  40
ENDBRANCH  31  34
ENDBRANCH  29  30
ENDBRANCH   1  29
TORSDOF 17
ENDMDL
