MODEL 1
REMARK VINA RESULT:     -10.6      0.000      0.000
REMARK SMILES CC[C@]1(C(=O)NCCCNC(=O)c2ccc(-c3c4nc(c(-c5ccc(S(=O)(=O)[O-])cc5)c5ccc([nH]5)c(-c5ccc(S(=O)(=O)[O-])cc5)c5nc(c(-c6ccc(S(=O)(=O)[O-])cc6)c6ccc3[nH]6)C=C5)C=C4)cc2)CCCN(C(=O)C[C@H](C)COC)C1
REMARK SMILES IDX 7 1 6 2 4 3 5 4 3 6 73 7 85 8 74 9 76 10 75 11 2 12 1 13
REMARK SMILES IDX 77 14 78 15 79 16 80 17 81 18 82 19 83 20 84 21 8 22 9 23
REMARK SMILES IDX 10 24 11 25 12 27 13 28 14 29 72 30 15 31 71 32 16 33 17 34
REMARK SMILES IDX 18 35 65 36 19 37 70 38 64 39 66 40 20 41 69 42 63 43 62 44
REMARK SMILES IDX 21 46 51 47 32 48 50 49 33 50 36 51 49 52 67 53 34 54 35 55
REMARK SMILES IDX 48 57 68 58 37 59 22 60 23 61 31 62 24 63 30 64 25 65 26 66
REMARK SMILES IDX 27 67 28 68 29 69 52 70 53 71 61 72 54 73 60 74 55 75 56 76
REMARK SMILES IDX 57 77 58 78 59 79 38 80 39 81 47 82 40 83 46 84 41 85 42 86
REMARK SMILES IDX 43 87 44 88 45 89
REMARK H PARENT 6 5 10 26 66 45 36 56
REMARK Flexibility Score: inf
ROOT
ATOM      1  C   UNL A   1      37.758  22.626  26.068  1.00  0.00     0.117 C 
ENDROOT
BRANCH   1   2
ATOM      2  N   UNL A   1      37.535  22.794  24.639  1.00  0.00    -0.355 N 
ATOM      3  C   UNL A   1      36.402  22.861  23.884  1.00  0.00     0.228 C 
ATOM      4  O   UNL A   1      36.579  23.067  22.679  1.00  0.00    -0.274 OA
ATOM      5  H   UNL A   1      38.365  22.875  24.117  1.00  0.00     0.163 HD
BRANCH   3   6
ATOM      6  C   UNL A   1      34.983  22.728  24.494  1.00  0.00     0.066 C 
ATOM      7  C   UNL A   1      34.815  21.313  25.114  1.00  0.00     0.020 C 
ATOM      8  C   UNL A   1      34.836  23.890  25.506  1.00  0.00     0.136 C 
ATOM      9  C   UNL A   1      34.040  21.207  26.430  1.00  0.00     0.023 C 
ATOM     10  N   UNL A   1      33.803  23.642  26.507  1.00  0.00    -0.342 N 
ATOM     11  C   UNL A   1      34.049  22.455  27.308  1.00  0.00     0.119 C 
BRANCH   6  12
ATOM     12  C   UNL A   1      33.946  22.946  23.334  1.00  0.00     0.015 C 
ATOM     13  C   UNL A   1      33.636  24.385  22.953  1.00  0.00     0.005 C 
ENDBRANCH   6  12
BRANCH  10  14
ATOM     14  C   UNL A   1      32.742  24.524  26.610  1.00  0.00     0.222 C 
ATOM     15  O   UNL A   1      31.674  24.191  27.134  1.00  0.00    -0.275 OA
BRANCH  14  16
ATOM     16  C   UNL A   1      32.860  25.940  26.061  1.00  0.00     0.106 C 
BRANCH  16  17
ATOM     17  C   UNL A   1      31.667  26.882  26.320  1.00  0.00     0.021 C 
ATOM     18  C   UNL A   1      30.976  27.313  25.033  1.00  0.00     0.010 C 
BRANCH  17  19
ATOM     19  C   UNL A   1      32.029  28.065  27.240  1.00  0.00     0.163 C 
BRANCH  19  20
ATOM     20  O   UNL A   1      33.439  28.290  27.334  1.00  0.00    -0.384 OA
ATOM     21  C   UNL A   1      33.875  29.536  26.799  1.00  0.00     0.194 C 
ENDBRANCH  19  20
ENDBRANCH  17  19
ENDBRANCH  16  17
ENDBRANCH  14  16
ENDBRANCH  10  14
ENDBRANCH   3   6
ENDBRANCH   1   2
BRANCH   1  22
ATOM     22  C   UNL A   1      39.223  22.400  26.423  1.00  0.00     0.042 C 
BRANCH  22  23
ATOM     23  C   UNL A   1      39.897  23.620  27.023  1.00  0.00     0.118 C 
BRANCH  23  24
ATOM     24  N   UNL A   1      40.713  24.325  26.047  1.00  0.00    -0.352 N 
ATOM     25  C   UNL A   1      41.077  25.649  26.007  1.00  0.00     0.251 C 
ATOM     26  H   UNL A   1      41.056  23.772  25.307  1.00  0.00     0.163 HD
ATOM     27  O   UNL A   1      41.553  26.116  24.979  1.00  0.00    -0.269 OA
BRANCH  25  28
ATOM     28  C   UNL A   1      40.875  26.505  27.197  1.00  0.00     0.039 A 
ATOM     29  C   UNL A   1      39.939  26.123  28.160  1.00  0.00     0.014 A 
ATOM     30  C   UNL A   1      41.604  27.685  27.358  1.00  0.00     0.014 A 
ATOM     31  C   UNL A   1      39.779  26.897  29.311  1.00  0.00     0.010 A 
ATOM     32  C   UNL A   1      41.520  28.396  28.548  1.00  0.00     0.010 A 
ATOM     33  C   UNL A   1      40.593  28.021  29.531  1.00  0.00    -0.014 A 
BRANCH  33  34
ATOM     34  C   UNL A   1      40.473  28.846  30.759  1.00  0.00     0.031 A 
ATOM     35  C   UNL A   1      39.450  29.951  30.819  1.00  0.00     0.074 A 
ATOM     36  C   UNL A   1      41.326  28.654  31.785  1.00  0.00     0.049 A 
ATOM     37  N   UNL A   1      39.254  30.843  31.754  1.00  0.00    -0.248 NA
ATOM     38  C   UNL A   1      38.549  30.088  29.661  1.00  0.00     0.031 C 
ATOM     39  C   UNL A   1      42.382  27.639  31.834  1.00  0.00     0.029 A 
ATOM     40  N   UNL A   1      41.446  29.312  32.983  1.00  0.00    -0.354 N 
ATOM     41  C   UNL A   1      38.227  31.658  31.289  1.00  0.00     0.074 A 
ATOM     42  C   UNL A   1      37.881  31.189  29.966  1.00  0.00     0.031 C 
ATOM     43  C   UNL A   1      43.021  27.725  33.012  1.00  0.00     0.029 A 
ATOM     44  C   UNL A   1      42.457  28.830  33.780  1.00  0.00     0.049 A 
ATOM     45  H   UNL A   1      40.862  30.059  33.248  1.00  0.00     0.167 HD
ATOM     46  C   UNL A   1      37.610  32.687  31.916  1.00  0.00     0.031 A 
ATOM     47  C   UNL A   1      42.892  29.240  34.988  1.00  0.00     0.031 A 
ATOM     48  C   UNL A   1      37.948  33.138  33.239  1.00  0.00     0.049 A 
ATOM     49  C   UNL A   1      42.205  30.401  35.656  1.00  0.00     0.074 A 
ATOM     50  C   UNL A   1      37.352  34.139  33.984  1.00  0.00     0.029 A 
ATOM     51  N   UNL A   1      38.972  32.615  34.015  1.00  0.00    -0.354 N 
ATOM     52  N   UNL A   1      41.197  31.122  35.223  1.00  0.00    -0.248 NA
ATOM     53  C   UNL A   1      42.704  30.795  36.980  1.00  0.00     0.031 C 
ATOM     54  C   UNL A   1      38.051  34.261  35.187  1.00  0.00     0.029 A 
ATOM     55  C   UNL A   1      39.039  33.290  35.222  1.00  0.00     0.049 A 
ATOM     56  H   UNL A   1      39.564  31.875  33.748  1.00  0.00     0.167 HD
ATOM     57  C   UNL A   1      40.921  32.033  36.237  1.00  0.00     0.074 A 
ATOM     58  C   UNL A   1      41.858  31.761  37.309  1.00  0.00     0.031 C 
ATOM     59  C   UNL A   1      39.974  33.001  36.281  1.00  0.00     0.031 A 
BRANCH  46  60
ATOM     60  C   UNL A   1      36.509  33.399  31.174  1.00  0.00    -0.014 A 
ATOM     61  C   UNL A   1      36.731  33.959  29.902  1.00  0.00     0.010 A 
ATOM     62  C   UNL A   1      35.221  33.471  31.734  1.00  0.00     0.010 A 
ATOM     63  C   UNL A   1      35.699  34.614  29.226  1.00  0.00     0.020 A 
ATOM     64  C   UNL A   1      34.177  34.096  31.047  1.00  0.00     0.020 A 
ATOM     65  C   UNL A   1      34.428  34.678  29.802  1.00  0.00     0.054 A 
BRANCH  65  66
ATOM     66  S   UNL A   1      33.101  35.506  28.885  1.00  0.00     0.124 S 
ATOM     67  O   UNL A   1      32.285  36.053  29.966  1.00  0.00    -0.237 OA
ATOM     68  O   UNL A   1      33.830  36.491  28.089  1.00  0.00    -0.237 OA
ATOM     69  O   UNL A   1      32.480  34.428  28.122  1.00  0.00    -0.744 OA
ENDBRANCH  65  66
ENDBRANCH  46  60
BRANCH  47  70
ATOM     70  C   UNL A   1      44.030  28.542  35.649  1.00  0.00    -0.014 A 
ATOM     71  C   UNL A   1      45.353  28.961  35.426  1.00  0.00     0.010 A 
ATOM     72  C   UNL A   1      43.794  27.454  36.510  1.00  0.00     0.010 A 
ATOM     73  C   UNL A   1      46.421  28.290  36.031  1.00  0.00     0.020 A 
ATOM     74  C   UNL A   1      44.857  26.801  37.141  1.00  0.00     0.020 A 
ATOM     75  C   UNL A   1      46.165  27.215  36.886  1.00  0.00     0.054 A 
BRANCH  75  76
ATOM     76  S   UNL A   1      47.564  26.387  37.692  1.00  0.00     0.124 S 
ATOM     77  O   UNL A   1      47.038  25.044  37.909  1.00  0.00    -0.237 OA
ATOM     78  O   UNL A   1      48.619  26.502  36.688  1.00  0.00    -0.237 OA
ATOM     79  O   UNL A   1      47.778  27.179  38.902  1.00  0.00    -0.744 OA
ENDBRANCH  75  76
ENDBRANCH  47  70
BRANCH  59  80
ATOM     80  C   UNL A   1      39.864  33.813  37.546  1.00  0.00    -0.014 A 
ATOM     81  C   UNL A   1      40.550  35.029  37.701  1.00  0.00     0.010 A 
ATOM     82  C   UNL A   1      39.002  33.375  38.570  1.00  0.00     0.010 A 
ATOM     83  C   UNL A   1      40.400  35.779  38.871  1.00  0.00     0.020 A 
ATOM     84  C   UNL A   1      38.826  34.137  39.727  1.00  0.00     0.020 A 
ATOM     85  C   UNL A   1      39.537  35.328  39.875  1.00  0.00     0.054 A 
BRANCH  85  86
ATOM     86  S   UNL A   1      39.323  36.345  41.361  1.00  0.00     0.124 S 
ATOM     87  O   UNL A   1      38.973  37.645  40.793  1.00  0.00    -0.237 OA
ATOM     88  O   UNL A   1      38.244  35.656  42.067  1.00  0.00    -0.237 OA
ATOM     89  O   UNL A   1      40.627  36.283  42.016  1.00  0.00    -0.744 OA
ENDBRANCH  85  86
ENDBRANCH  59  80
ENDBRANCH  33  34
ENDBRANCH  25  28
ENDBRANCH  23  24
ENDBRANCH  22  23
ENDBRANCH   1  22
TORSDOF 19
ENDMDL
MODEL 2
REMARK VINA RESULT:     -10.5      6.240     10.932
REMARK SMILES CC[C@]1(C(=O)NCCCNC(=O)c2ccc(-c3c4nc(c(-c5ccc(S(=O)(=O)[O-])cc5)c5ccc([nH]5)c(-c5ccc(S(=O)(=O)[O-])cc5)c5nc(c(-c6ccc(S(=O)(=O)[O-])cc6)c6ccc3[nH]6)C=C5)C=C4)cc2)CCCN(C(=O)C[C@H](C)COC)C1
REMARK SMILES IDX 7 1 6 2 4 3 5 4 3 6 73 7 85 8 74 9 76 10 75 11 2 12 1 13
REMARK SMILES IDX 77 14 78 15 79 16 80 17 81 18 82 19 83 20 84 21 8 22 9 23
REMARK SMILES IDX 10 24 11 25 12 27 13 28 14 29 72 30 15 31 71 32 16 33 17 34
REMARK SMILES IDX 18 35 65 36 19 37 70 38 64 39 66 40 20 41 69 42 63 43 62 44
REMARK SMILES IDX 21 46 51 47 32 48 50 49 33 50 36 51 49 52 67 53 34 54 35 55
REMARK SMILES IDX 48 57 68 58 37 59 22 60 23 61 31 62 24 63 30 64 25 65 26 66
REMARK SMILES IDX 27 67 28 68 29 69 52 70 53 71 61 72 54 73 60 74 55 75 56 76
REMARK SMILES IDX 57 77 58 78 59 79 38 80 39 81 47 82 40 83 46 84 41 85 42 86
REMARK SMILES IDX 43 87 44 88 45 89
REMARK H PARENT 6 5 10 26 66 45 36 56
REMARK Flexibility Score: inf
ROOT
ATOM      1  C   UNL A   1      37.150  20.478  24.986  1.00  0.00     0.117 C 
ENDROOT
BRANCH   1   2
ATOM      2  N   UNL A   1      35.888  19.753  24.987  1.00  0.00    -0.355 N 
ATOM      3  C   UNL A   1      34.587  20.164  25.007  1.00  0.00     0.228 C 
ATOM      4  O   UNL A   1      33.745  19.262  24.945  1.00  0.00    -0.274 OA
ATOM      5  H   UNL A   1      35.994  18.775  24.970  1.00  0.00     0.163 HD
BRANCH   3   6
ATOM      6  C   UNL A   1      34.186  21.660  25.065  1.00  0.00     0.066 C 
ATOM      7  C   UNL A   1      34.594  22.359  23.739  1.00  0.00     0.020 C 
ATOM      8  C   UNL A   1      32.667  21.690  25.361  1.00  0.00     0.136 C 
ATOM      9  C   UNL A   1      33.633  23.406  23.167  1.00  0.00     0.023 C 
ATOM     10  N   UNL A   1      32.038  22.947  24.967  1.00  0.00    -0.342 N 
ATOM     11  C   UNL A   1      32.166  23.235  23.548  1.00  0.00     0.119 C 
BRANCH   6  12
ATOM     12  C   UNL A   1      34.943  22.306  26.282  1.00  0.00     0.015 C 
ATOM     13  C   UNL A   1      35.673  23.613  26.018  1.00  0.00     0.005 C 
ENDBRANCH   6  12
BRANCH  10  14
ATOM     14  C   UNL A   1      31.395  23.706  25.928  1.00  0.00     0.222 C 
ATOM     15  O   UNL A   1      30.268  23.409  26.338  1.00  0.00    -0.275 OA
BRANCH  14  16
ATOM     16  C   UNL A   1      32.061  24.950  26.501  1.00  0.00     0.106 C 
BRANCH  16  17
ATOM     17  C   UNL A   1      32.319  26.110  25.518  1.00  0.00     0.021 C 
ATOM     18  C   UNL A   1      33.649  26.806  25.776  1.00  0.00     0.010 C 
BRANCH  17  19
ATOM     19  C   UNL A   1      31.131  27.087  25.421  1.00  0.00     0.163 C 
BRANCH  19  20
ATOM     20  O   UNL A   1      30.550  27.135  24.115  1.00  0.00    -0.384 OA
ATOM     21  C   UNL A   1      29.400  26.312  23.949  1.00  0.00     0.194 C 
ENDBRANCH  19  20
ENDBRANCH  17  19
ENDBRANCH  16  17
ENDBRANCH  14  16
ENDBRANCH  10  14
ENDBRANCH   3   6
ENDBRANCH   1   2
BRANCH   1  22
ATOM     22  C   UNL A   1      38.354  19.584  25.259  1.00  0.00     0.042 C 
BRANCH  22  23
ATOM     23  C   UNL A   1      39.492  20.297  25.966  1.00  0.00     0.118 C 
BRANCH  23  24
ATOM     24  N   UNL A   1      40.648  19.432  26.144  1.00  0.00    -0.352 N 
ATOM     25  C   UNL A   1      41.977  19.763  26.253  1.00  0.00     0.251 C 
ATOM     26  H   UNL A   1      40.449  18.469  26.194  1.00  0.00     0.163 HD
ATOM     27  O   UNL A   1      42.829  18.890  26.142  1.00  0.00    -0.269 OA
BRANCH  25  28
ATOM     28  C   UNL A   1      42.369  21.171  26.486  1.00  0.00     0.039 A 
ATOM     29  C   UNL A   1      42.568  21.616  27.794  1.00  0.00     0.014 A 
ATOM     30  C   UNL A   1      42.531  22.051  25.414  1.00  0.00     0.014 A 
ATOM     31  C   UNL A   1      42.987  22.928  28.020  1.00  0.00     0.010 A 
ATOM     32  C   UNL A   1      43.048  23.322  25.633  1.00  0.00     0.010 A 
ATOM     33  C   UNL A   1      43.264  23.782  26.940  1.00  0.00    -0.014 A 
BRANCH  33  34
ATOM     34  C   UNL A   1      43.745  25.171  27.143  1.00  0.00     0.031 A 
ATOM     35  C   UNL A   1      45.195  25.502  26.898  1.00  0.00     0.074 A 
ATOM     36  C   UNL A   1      42.904  26.113  27.615  1.00  0.00     0.049 A 
ATOM     37  N   UNL A   1      45.832  26.623  27.111  1.00  0.00    -0.248 NA
ATOM     38  C   UNL A   1      46.046  24.420  26.372  1.00  0.00     0.031 C 
ATOM     39  C   UNL A   1      41.486  25.908  27.922  1.00  0.00     0.029 A 
ATOM     40  N   UNL A   1      43.123  27.431  27.927  1.00  0.00    -0.354 N 
ATOM     41  C   UNL A   1      47.157  26.376  26.768  1.00  0.00     0.074 A 
ATOM     42  C   UNL A   1      47.243  24.984  26.388  1.00  0.00     0.031 C 
ATOM     43  C   UNL A   1      40.958  27.066  28.352  1.00  0.00     0.029 A 
ATOM     44  C   UNL A   1      42.006  28.080  28.399  1.00  0.00     0.049 A 
ATOM     45  H   UNL A   1      43.997  27.871  27.823  1.00  0.00     0.167 HD
ATOM     46  C   UNL A   1      48.203  27.235  26.747  1.00  0.00     0.031 A 
ATOM     47  C   UNL A   1      41.847  29.345  28.834  1.00  0.00     0.031 A 
ATOM     48  C   UNL A   1      48.107  28.623  27.110  1.00  0.00     0.049 A 
ATOM     49  C   UNL A   1      43.029  30.277  28.822  1.00  0.00     0.074 A 
ATOM     50  C   UNL A   1      49.096  29.590  27.077  1.00  0.00     0.029 A 
ATOM     51  N   UNL A   1      46.956  29.242  27.573  1.00  0.00    -0.354 N 
ATOM     52  N   UNL A   1      44.262  30.038  28.441  1.00  0.00    -0.248 NA
ATOM     53  C   UNL A   1      42.798  31.651  29.288  1.00  0.00     0.031 C 
ATOM     54  C   UNL A   1      48.557  30.780  27.573  1.00  0.00     0.029 A 
ATOM     55  C   UNL A   1      47.216  30.573  27.850  1.00  0.00     0.049 A 
ATOM     56  H   UNL A   1      46.083  28.801  27.688  1.00  0.00     0.167 HD
ATOM     57  C   UNL A   1      44.943  31.241  28.587  1.00  0.00     0.074 A 
ATOM     58  C   UNL A   1      43.982  32.207  29.079  1.00  0.00     0.031 C 
ATOM     59  C   UNL A   1      46.244  31.523  28.332  1.00  0.00     0.031 A 
BRANCH  46  60
ATOM     60  C   UNL A   1      49.543  26.695  26.321  1.00  0.00    -0.014 A 
ATOM     61  C   UNL A   1      50.009  26.857  25.002  1.00  0.00     0.010 A 
ATOM     62  C   UNL A   1      50.371  26.053  27.261  1.00  0.00     0.010 A 
ATOM     63  C   UNL A   1      51.255  26.352  24.623  1.00  0.00     0.020 A 
ATOM     64  C   UNL A   1      51.632  25.576  26.894  1.00  0.00     0.020 A 
ATOM     65  C   UNL A   1      52.059  25.715  25.572  1.00  0.00     0.054 A 
BRANCH  65  66
ATOM     66  S   UNL A   1      53.685  25.099  25.057  1.00  0.00     0.124 S 
ATOM     67  O   UNL A   1      53.526  23.657  25.221  1.00  0.00    -0.237 OA
ATOM     68  O   UNL A   1      53.781  25.568  23.677  1.00  0.00    -0.237 OA
ATOM     69  O   UNL A   1      54.609  25.733  25.994  1.00  0.00    -0.744 OA
ENDBRANCH  65  66
ENDBRANCH  46  60
BRANCH  47  70
ATOM     70  C   UNL A   1      40.513  29.810  29.308  1.00  0.00    -0.014 A 
ATOM     71  C   UNL A   1      39.417  29.856  28.428  1.00  0.00     0.010 A 
ATOM     72  C   UNL A   1      40.332  30.209  30.645  1.00  0.00     0.010 A 
ATOM     73  C   UNL A   1      38.172  30.315  28.870  1.00  0.00     0.020 A 
ATOM     74  C   UNL A   1      39.081  30.638  31.098  1.00  0.00     0.020 A 
ATOM     75  C   UNL A   1      38.012  30.701  30.203  1.00  0.00     0.054 A 
BRANCH  75  76
ATOM     76  S   UNL A   1      36.377  31.253  30.763  1.00  0.00     0.124 S 
ATOM     77  O   UNL A   1      35.686  31.485  29.499  1.00  0.00    -0.237 OA
ATOM     78  O   UNL A   1      35.908  30.109  31.542  1.00  0.00    -0.237 OA
ATOM     79  O   UNL A   1      36.671  32.452  31.546  1.00  0.00    -0.744 OA
ENDBRANCH  75  76
ENDBRANCH  47  70
BRANCH  59  80
ATOM     80  C   UNL A   1      46.702  32.945  28.531  1.00  0.00    -0.014 A 
ATOM     81  C   UNL A   1      47.255  33.375  29.749  1.00  0.00     0.010 A 
ATOM     82  C   UNL A   1      46.634  33.846  27.451  1.00  0.00     0.010 A 
ATOM     83  C   UNL A   1      47.704  34.691  29.893  1.00  0.00     0.020 A 
ATOM     84  C   UNL A   1      47.111  35.152  27.581  1.00  0.00     0.020 A 
ATOM     85  C   UNL A   1      47.632  35.569  28.807  1.00  0.00     0.054 A 
BRANCH  85  86
ATOM     86  S   UNL A   1      48.268  37.256  29.006  1.00  0.00     0.124 S 
ATOM     87  O   UNL A   1      49.197  37.364  27.884  1.00  0.00    -0.237 OA
ATOM     88  O   UNL A   1      47.058  38.068  28.901  1.00  0.00    -0.237 OA
ATOM     89  O   UNL A   1      48.888  37.241  30.329  1.00  0.00    -0.744 OA
ENDBRANCH  85  86
ENDBRANCH  59  80
ENDBRANCH  33  34
ENDBRANCH  25  28
ENDBRANCH  23  24
ENDBRANCH  22  23
ENDBRANCH   1  22
TORSDOF 19
ENDMDL
MODEL 3
REMARK VINA RESULT:     -10.3      1.339      8.473
REMARK SMILES CC[C@]1(C(=O)NCCCNC(=O)c2ccc(-c3c4nc(c(-c5ccc(S(=O)(=O)[O-])cc5)c5ccc([nH]5)c(-c5ccc(S(=O)(=O)[O-])cc5)c5nc(c(-c6ccc(S(=O)(=O)[O-])cc6)c6ccc3[nH]6)C=C5)C=C4)cc2)CCCN(C(=O)C[C@H](C)COC)C1
REMARK SMILES IDX 7 1 6 2 4 3 5 4 3 6 73 7 85 8 74 9 76 10 75 11 2 12 1 13
REMARK SMILES IDX 77 14 78 15 79 16 80 17 81 18 82 19 83 20 84 21 8 22 9 23
REMARK SMILES IDX 10 24 11 25 12 27 13 28 14 29 72 30 15 31 71 32 16 33 17 34
REMARK SMILES IDX 18 35 65 36 19 37 70 38 64 39 66 40 20 41 69 42 63 43 62 44
REMARK SMILES IDX 21 46 51 47 32 48 50 49 33 50 36 51 49 52 67 53 34 54 35 55
REMARK SMILES IDX 48 57 68 58 37 59 22 60 23 61 31 62 24 63 30 64 25 65 26 66
REMARK SMILES IDX 27 67 28 68 29 69 52 70 53 71 61 72 54 73 60 74 55 75 56 76
REMARK SMILES IDX 57 77 58 78 59 79 38 80 39 81 47 82 40 83 46 84 41 85 42 86
REMARK SMILES IDX 43 87 44 88 45 89
REMARK H PARENT 6 5 10 26 66 45 36 56
REMARK Flexibility Score: inf
ROOT
ATOM      1  C   UNL A   1      36.625  22.855  25.646  1.00  0.00     0.117 C 
ENDROOT
BRANCH   1   2
ATOM      2  N   UNL A   1      35.730  22.647  26.776  1.00  0.00    -0.355 N 
ATOM      3  C   UNL A   1      34.418  22.957  26.984  1.00  0.00     0.228 C 
ATOM      4  O   UNL A   1      33.948  22.578  28.061  1.00  0.00    -0.274 OA
ATOM      5  H   UNL A   1      36.156  22.193  27.538  1.00  0.00     0.163 HD
BRANCH   3   6
ATOM      6  C   UNL A   1      33.559  23.699  25.929  1.00  0.00     0.066 C 
ATOM      7  C   UNL A   1      33.640  22.948  24.571  1.00  0.00     0.020 C 
ATOM      8  C   UNL A   1      32.133  23.795  26.521  1.00  0.00     0.136 C 
ATOM      9  C   UNL A   1      32.360  22.862  23.735  1.00  0.00     0.023 C 
ATOM     10  N   UNL A   1      31.109  24.004  25.502  1.00  0.00    -0.342 N 
ATOM     11  C   UNL A   1      31.052  22.938  24.516  1.00  0.00     0.119 C 
BRANCH   6  12
ATOM     12  C   UNL A   1      34.137  25.154  25.787  1.00  0.00     0.015 C 
ATOM     13  C   UNL A   1      34.136  25.758  24.391  1.00  0.00     0.005 C 
ENDBRANCH   6  12
BRANCH  10  14
ATOM     14  C   UNL A   1      30.313  25.133  25.571  1.00  0.00     0.222 C 
ATOM     15  O   UNL A   1      29.855  25.536  26.646  1.00  0.00    -0.275 OA
BRANCH  14  16
ATOM     16  C   UNL A   1      29.965  25.909  24.308  1.00  0.00     0.106 C 
BRANCH  16  17
ATOM     17  C   UNL A   1      30.653  27.277  24.127  1.00  0.00     0.021 C 
ATOM     18  C   UNL A   1      31.347  27.752  25.396  1.00  0.00     0.010 C 
BRANCH  17  19
ATOM     19  C   UNL A   1      29.721  28.339  23.511  1.00  0.00     0.163 C 
BRANCH  19  20
ATOM     20  O   UNL A   1      30.430  29.413  22.886  1.00  0.00    -0.384 OA
ATOM     21  C   UNL A   1      29.715  30.064  21.841  1.00  0.00     0.194 C 
ENDBRANCH  19  20
ENDBRANCH  17  19
ENDBRANCH  16  17
ENDBRANCH  14  16
ENDBRANCH  10  14
ENDBRANCH   3   6
ENDBRANCH   1   2
BRANCH   1  22
ATOM     22  C   UNL A   1      37.460  24.124  25.770  1.00  0.00     0.042 C 
BRANCH  22  23
ATOM     23  C   UNL A   1      38.514  24.053  26.859  1.00  0.00     0.118 C 
BRANCH  23  24
ATOM     24  N   UNL A   1      39.860  24.008  26.310  1.00  0.00    -0.352 N 
ATOM     25  C   UNL A   1      40.920  24.855  26.527  1.00  0.00     0.251 C 
ATOM     26  H   UNL A   1      40.039  23.261  25.694  1.00  0.00     0.163 HD
ATOM     27  O   UNL A   1      41.894  24.809  25.785  1.00  0.00    -0.269 OA
BRANCH  25  28
ATOM     28  C   UNL A   1      40.870  25.828  27.641  1.00  0.00     0.039 A 
ATOM     29  C   UNL A   1      41.830  26.841  27.706  1.00  0.00     0.014 A 
ATOM     30  C   UNL A   1      39.881  25.736  28.622  1.00  0.00     0.014 A 
ATOM     31  C   UNL A   1      41.759  27.793  28.724  1.00  0.00     0.010 A 
ATOM     32  C   UNL A   1      39.750  26.742  29.571  1.00  0.00     0.010 A 
ATOM     33  C   UNL A   1      40.699  27.772  29.645  1.00  0.00    -0.014 A 
BRANCH  33  34
ATOM     34  C   UNL A   1      40.574  28.790  30.718  1.00  0.00     0.031 A 
ATOM     35  C   UNL A   1      41.439  28.686  31.948  1.00  0.00     0.074 A 
ATOM     36  C   UNL A   1      39.640  29.757  30.624  1.00  0.00     0.049 A 
ATOM     37  N   UNL A   1      41.415  29.410  33.036  1.00  0.00    -0.248 NA
ATOM     38  C   UNL A   1      42.442  27.607  31.968  1.00  0.00     0.031 C 
ATOM     39  C   UNL A   1      38.720  29.943  29.499  1.00  0.00     0.029 A 
ATOM     40  N   UNL A   1      39.304  30.762  31.495  1.00  0.00    -0.354 N 
ATOM     41  C   UNL A   1      42.379  28.863  33.876  1.00  0.00     0.074 A 
ATOM     42  C   UNL A   1      42.929  27.712  33.195  1.00  0.00     0.031 C 
ATOM     43  C   UNL A   1      37.944  31.013  29.737  1.00  0.00     0.029 A 
ATOM     44  C   UNL A   1      38.275  31.559  31.050  1.00  0.00     0.049 A 
ATOM     45  H   UNL A   1      39.756  30.901  32.359  1.00  0.00     0.167 HD
ATOM     46  C   UNL A   1      42.788  29.293  35.093  1.00  0.00     0.031 A 
ATOM     47  C   UNL A   1      37.658  32.603  31.637  1.00  0.00     0.031 A 
ATOM     48  C   UNL A   1      42.247  30.448  35.758  1.00  0.00     0.049 A 
ATOM     49  C   UNL A   1      38.115  33.049  33.000  1.00  0.00     0.074 A 
ATOM     50  C   UNL A   1      42.626  30.996  36.970  1.00  0.00     0.029 A 
ATOM     51  N   UNL A   1      41.214  31.232  35.266  1.00  0.00    -0.354 N 
ATOM     52  N   UNL A   1      39.068  32.552  33.753  1.00  0.00    -0.248 NA
ATOM     53  C   UNL A   1      37.423  34.204  33.587  1.00  0.00     0.031 C 
ATOM     54  C   UNL A   1      41.784  32.078  37.239  1.00  0.00     0.029 A 
ATOM     55  C   UNL A   1      40.926  32.247  36.163  1.00  0.00     0.049 A 
ATOM     56  H   UNL A   1      40.754  31.088  34.409  1.00  0.00     0.167 HD
ATOM     57  C   UNL A   1      39.112  33.356  34.887  1.00  0.00     0.074 A 
ATOM     58  C   UNL A   1      38.100  34.378  34.714  1.00  0.00     0.031 C 
ATOM     59  C   UNL A   1      39.920  33.261  35.971  1.00  0.00     0.031 A 
BRANCH  46  60
ATOM     60  C   UNL A   1      43.869  28.505  35.785  1.00  0.00    -0.014 A 
ATOM     61  C   UNL A   1      45.230  28.811  35.593  1.00  0.00     0.010 A 
ATOM     62  C   UNL A   1      43.523  27.473  36.675  1.00  0.00     0.010 A 
ATOM     63  C   UNL A   1      46.221  28.073  36.244  1.00  0.00     0.020 A 
ATOM     64  C   UNL A   1      44.510  26.754  37.355  1.00  0.00     0.020 A 
ATOM     65  C   UNL A   1      45.855  27.049  37.121  1.00  0.00     0.054 A 
BRANCH  65  66
ATOM     66  S   UNL A   1      47.164  26.131  37.976  1.00  0.00     0.124 S 
ATOM     67  O   UNL A   1      46.555  25.885  39.282  1.00  0.00    -0.237 OA
ATOM     68  O   UNL A   1      47.332  24.952  37.130  1.00  0.00    -0.237 OA
ATOM     69  O   UNL A   1      48.293  27.058  37.982  1.00  0.00    -0.744 OA
ENDBRANCH  65  66
ENDBRANCH  46  60
BRANCH  47  70
ATOM     70  C   UNL A   1      36.548  33.306  30.935  1.00  0.00    -0.014 A 
ATOM     71  C   UNL A   1      35.247  33.299  31.469  1.00  0.00     0.010 A 
ATOM     72  C   UNL A   1      36.787  33.989  29.729  1.00  0.00     0.010 A 
ATOM     73  C   UNL A   1      34.202  33.941  30.797  1.00  0.00     0.020 A 
ATOM     74  C   UNL A   1      35.751  34.659  29.071  1.00  0.00     0.020 A 
ATOM     75  C   UNL A   1      34.461  34.618  29.603  1.00  0.00     0.054 A 
BRANCH  75  76
ATOM     76  S   UNL A   1      33.097  35.479  28.771  1.00  0.00     0.124 S 
ATOM     77  O   UNL A   1      32.363  36.043  29.898  1.00  0.00    -0.237 OA
ATOM     78  O   UNL A   1      33.800  36.440  27.926  1.00  0.00    -0.237 OA
ATOM     79  O   UNL A   1      32.411  34.410  28.048  1.00  0.00    -0.744 OA
ENDBRANCH  75  76
ENDBRANCH  47  70
BRANCH  59  80
ATOM     80  C   UNL A   1      39.784  34.316  37.037  1.00  0.00    -0.014 A 
ATOM     81  C   UNL A   1      39.003  34.103  38.186  1.00  0.00     0.010 A 
ATOM     82  C   UNL A   1      40.508  35.517  36.912  1.00  0.00     0.010 A 
ATOM     83  C   UNL A   1      38.923  35.086  39.177  1.00  0.00     0.020 A 
ATOM     84  C   UNL A   1      40.456  36.488  37.915  1.00  0.00     0.020 A 
ATOM     85  C   UNL A   1      39.653  36.271  39.035  1.00  0.00     0.054 A 
BRANCH  85  86
ATOM     86  S   UNL A   1      39.572  37.508  40.359  1.00  0.00     0.124 S 
ATOM     87  O   UNL A   1      40.985  37.796  40.592  1.00  0.00    -0.237 OA
ATOM     88  O   UNL A   1      38.804  38.587  39.741  1.00  0.00    -0.237 OA
ATOM     89  O   UNL A   1      38.890  36.810  41.446  1.00  0.00    -0.744 OA
ENDBRANCH  85  86
ENDBRANCH  59  80
ENDBRANCH  33  34
ENDBRANCH  25  28
ENDBRANCH  23  24
ENDBRANCH  22  23
ENDBRANCH   1  22
TORSDOF 19
ENDMDL
