MODEL 1
REMARK VINA RESULT:     -13.3      0.000      0.000
REMARK SMILES Cc1cccc(O[C@@H](C)C(=O)N2CC[C@@H](C(=O)NCCCNC(=O)c3ccc(-c4c5nc(c(-c6ccc(S(=O)(=O)[O-])cc6)c6ccc([nH]6)c(-c6ccc(S(=O)(=O)[O-])cc6)c6nc(c(-c7ccc(S(=O)(=O)[O-])cc7)c7ccc4[nH]7)C=C6)C=C5)cc3)[C@@H]2C)c1
REMARK SMILES IDX 19 1 18 2 16 3 17 4 15 6 12 7 13 8 85 9 14 10 86 11 10 12
REMARK SMILES IDX 11 13 8 14 9 15 7 16 6 17 1 18 2 19 3 20 87 21 4 22 5 23
REMARK SMILES IDX 20 24 21 25 22 26 23 27 24 29 25 30 26 31 84 32 27 33 83 34
REMARK SMILES IDX 28 35 29 36 30 37 77 38 31 39 82 40 76 41 78 42 32 43 81 44
REMARK SMILES IDX 75 45 74 46 33 48 63 49 44 50 62 51 45 52 48 53 61 54 79 55
REMARK SMILES IDX 46 56 47 57 60 59 80 60 49 61 34 62 35 63 43 64 36 65 42 66
REMARK SMILES IDX 37 67 38 68 39 69 40 70 41 71 64 72 65 73 73 74 66 75 72 76
REMARK SMILES IDX 67 77 68 78 69 79 70 80 71 81 50 82 51 83 59 84 52 85 58 86
REMARK SMILES IDX 53 87 54 88 55 89 56 90 57 91
REMARK H PARENT 18 5 22 28 78 47 48 58
REMARK Flexibility Score: inf
ROOT
ATOM      1  C   UNL A   1      32.244  31.166  26.936  1.00  0.00     0.117 C 
ENDROOT
BRANCH   1   2
ATOM      2  N   UNL A   1      31.875  29.686  27.247  1.00  0.00    -0.356 N 
ATOM      3  C   UNL A   1      31.720  28.381  26.879  1.00  0.00     0.225 C 
ATOM      4  O   UNL A   1      31.450  27.715  27.910  1.00  0.00    -0.275 OA
ATOM      5  H   UNL A   1      31.624  29.697  28.200  1.00  0.00     0.163 HD
BRANCH   3   6
ATOM      6  C   UNL A   1      31.833  27.450  25.557  1.00  0.00     0.102 C 
ATOM      7  N   UNL A   1      31.315  25.203  24.738  1.00  0.00    -0.336 N 
ATOM      8  C   UNL A   1      30.422  26.120  24.039  1.00  0.00     0.121 C 
ATOM      9  C   UNL A   1      32.415  25.994  25.325  1.00  0.00     0.094 C 
ATOM     10  C   UNL A   1      30.675  27.536  24.561  1.00  0.00     0.037 C 
ATOM     11  C   UNL A   1      33.579  26.003  24.304  1.00  0.00     0.032 C 
BRANCH   7  12
ATOM     12  C   UNL A   1      31.072  23.843  24.574  1.00  0.00     0.263 C 
ATOM     13  O   UNL A   1      30.651  23.487  23.451  1.00  0.00    -0.271 OA
BRANCH  12  14
ATOM     14  C   UNL A   1      31.175  22.637  25.653  1.00  0.00     0.259 C 
ATOM     15  C   UNL A   1      30.159  22.992  26.795  1.00  0.00     0.064 C 
BRANCH  14  16
ATOM     16  O   UNL A   1      32.237  21.847  26.192  1.00  0.00    -0.481 OA
BRANCH  16  17
ATOM     17  C   UNL A   1      33.361  21.776  25.421  1.00  0.00     0.120 A 
ATOM     18  C   UNL A   1      34.242  18.509  24.451  1.00  0.00     0.044 C 
ATOM     19  C   UNL A   1      34.559  19.970  24.701  1.00  0.00    -0.047 A 
ATOM     20  C   UNL A   1      35.740  20.600  25.164  1.00  0.00     0.003 A 
ATOM     21  C   UNL A   1      33.492  20.782  24.491  1.00  0.00     0.049 A 
ATOM     22  C   UNL A   1      35.719  21.916  25.633  1.00  0.00     0.004 A 
ATOM     23  C   UNL A   1      34.479  22.484  25.850  1.00  0.00     0.046 A 
ENDBRANCH  16  17
ENDBRANCH  14  16
ENDBRANCH  12  14
ENDBRANCH   7  12
ENDBRANCH   3   6
ENDBRANCH   1   2
BRANCH   1  24
ATOM     24  C   UNL A   1      33.693  31.647  27.277  1.00  0.00     0.042 C 
BRANCH  24  25
ATOM     25  C   UNL A   1      34.702  30.755  28.023  1.00  0.00     0.118 C 
BRANCH  25  26
ATOM     26  N   UNL A   1      35.776  31.464  28.762  1.00  0.00    -0.352 N 
ATOM     27  C   UNL A   1      37.055  31.032  29.149  1.00  0.00     0.251 C 
ATOM     28  H   UNL A   1      35.556  32.387  29.025  1.00  0.00     0.163 HD
ATOM     29  O   UNL A   1      37.833  31.686  29.792  1.00  0.00    -0.269 OA
BRANCH  27  30
ATOM     30  C   UNL A   1      37.428  29.666  28.719  1.00  0.00     0.039 A 
ATOM     31  C   UNL A   1      37.515  28.711  29.742  1.00  0.00     0.014 A 
ATOM     32  C   UNL A   1      38.208  29.604  27.570  1.00  0.00     0.014 A 
ATOM     33  C   UNL A   1      38.626  27.885  29.778  1.00  0.00     0.010 A 
ATOM     34  C   UNL A   1      39.340  28.821  27.640  1.00  0.00     0.010 A 
ATOM     35  C   UNL A   1      39.598  28.055  28.795  1.00  0.00    -0.014 A 
BRANCH  35  36
ATOM     36  C   UNL A   1      40.974  27.598  28.959  1.00  0.00     0.031 A 
ATOM     37  C   UNL A   1      41.286  26.216  28.567  1.00  0.00     0.074 A 
ATOM     38  C   UNL A   1      41.960  28.408  29.416  1.00  0.00     0.049 A 
ATOM     39  N   UNL A   1      42.277  25.539  29.030  1.00  0.00    -0.248 NA
ATOM     40  C   UNL A   1      40.430  25.450  27.668  1.00  0.00     0.031 C 
ATOM     41  C   UNL A   1      43.402  28.171  29.359  1.00  0.00     0.029 A 
ATOM     42  N   UNL A   1      41.849  29.550  30.200  1.00  0.00    -0.354 N 
ATOM     43  C   UNL A   1      42.373  24.394  28.277  1.00  0.00     0.074 A 
ATOM     44  C   UNL A   1      41.142  24.333  27.529  1.00  0.00     0.031 C 
ATOM     45  C   UNL A   1      44.019  28.979  30.238  1.00  0.00     0.029 A 
ATOM     46  C   UNL A   1      42.995  29.677  30.995  1.00  0.00     0.049 A 
ATOM     47  H   UNL A   1      41.087  30.172  30.197  1.00  0.00     0.167 HD
ATOM     48  C   UNL A   1      43.552  23.715  28.260  1.00  0.00     0.031 A 
ATOM     49  C   UNL A   1      42.902  29.699  32.358  1.00  0.00     0.031 A 
ATOM     50  C   UNL A   1      44.488  24.253  29.251  1.00  0.00     0.049 A 
ATOM     51  C   UNL A   1      43.510  28.474  33.008  1.00  0.00     0.074 A 
ATOM     52  C   UNL A   1      45.595  25.080  29.162  1.00  0.00     0.029 A 
ATOM     53  N   UNL A   1      44.134  24.220  30.597  1.00  0.00    -0.354 N 
ATOM     54  N   UNL A   1      43.908  27.422  32.347  1.00  0.00    -0.248 NA
ATOM     55  C   UNL A   1      43.697  28.320  34.448  1.00  0.00     0.031 C 
ATOM     56  C   UNL A   1      45.849  25.615  30.457  1.00  0.00     0.029 A 
ATOM     57  C   UNL A   1      44.924  25.080  31.338  1.00  0.00     0.049 A 
ATOM     58  H   UNL A   1      43.417  23.659  30.972  1.00  0.00     0.167 HD
ATOM     59  C   UNL A   1      44.333  26.452  33.215  1.00  0.00     0.074 A 
ATOM     60  C   UNL A   1      44.216  27.080  34.520  1.00  0.00     0.031 C 
ATOM     61  C   UNL A   1      44.715  25.214  32.780  1.00  0.00     0.031 A 
BRANCH  48  62
ATOM     62  C   UNL A   1      43.934  22.770  27.139  1.00  0.00    -0.014 A 
ATOM     63  C   UNL A   1      43.019  21.789  26.712  1.00  0.00     0.010 A 
ATOM     64  C   UNL A   1      45.200  22.735  26.522  1.00  0.00     0.010 A 
ATOM     65  C   UNL A   1      43.376  20.789  25.790  1.00  0.00     0.020 A 
ATOM     66  C   UNL A   1      45.585  21.727  25.631  1.00  0.00     0.020 A 
ATOM     67  C   UNL A   1      44.669  20.752  25.272  1.00  0.00     0.054 A 
BRANCH  67  68
ATOM     68  S   UNL A   1      45.140  19.434  24.124  1.00  0.00     0.124 S 
ATOM     69  O   UNL A   1      44.575  18.246  24.759  1.00  0.00    -0.237 OA
ATOM     70  O   UNL A   1      44.496  19.857  22.885  1.00  0.00    -0.237 OA
ATOM     71  O   UNL A   1      46.601  19.490  24.113  1.00  0.00    -0.744 OA
ENDBRANCH  67  68
ENDBRANCH  48  62
BRANCH  49  72
ATOM     72  C   UNL A   1      41.721  30.469  32.852  1.00  0.00    -0.014 A 
ATOM     73  C   UNL A   1      40.492  29.778  32.934  1.00  0.00     0.010 A 
ATOM     74  C   UNL A   1      41.898  31.624  33.634  1.00  0.00     0.010 A 
ATOM     75  C   UNL A   1      39.545  30.117  33.906  1.00  0.00     0.020 A 
ATOM     76  C   UNL A   1      40.949  31.965  34.611  1.00  0.00     0.020 A 
ATOM     77  C   UNL A   1      39.811  31.169  34.781  1.00  0.00     0.054 A 
BRANCH  77  78
ATOM     78  S   UNL A   1      38.761  31.329  36.262  1.00  0.00     0.124 S 
ATOM     79  O   UNL A   1      38.403  29.944  36.539  1.00  0.00    -0.237 OA
ATOM     80  O   UNL A   1      39.679  31.939  37.229  1.00  0.00    -0.237 OA
ATOM     81  O   UNL A   1      37.674  32.189  35.807  1.00  0.00    -0.744 OA
ENDBRANCH  77  78
ENDBRANCH  49  72
BRANCH  61  82
ATOM     82  C   UNL A   1      44.988  24.007  33.653  1.00  0.00    -0.014 A 
ATOM     83  C   UNL A   1      44.097  22.941  33.846  1.00  0.00     0.010 A 
ATOM     84  C   UNL A   1      46.274  23.870  34.236  1.00  0.00     0.010 A 
ATOM     85  C   UNL A   1      44.444  21.830  34.632  1.00  0.00     0.020 A 
ATOM     86  C   UNL A   1      46.649  22.745  34.973  1.00  0.00     0.020 A 
ATOM     87  C   UNL A   1      45.717  21.741  35.193  1.00  0.00     0.054 A 
BRANCH  87  88
ATOM     88  S   UNL A   1      46.170  20.282  36.163  1.00  0.00     0.124 S 
ATOM     89  O   UNL A   1      45.870  20.722  37.522  1.00  0.00    -0.237 OA
ATOM     90  O   UNL A   1      45.284  19.249  35.630  1.00  0.00    -0.237 OA
ATOM     91  O   UNL A   1      47.586  20.095  35.860  1.00  0.00    -0.744 OA
ENDBRANCH  87  88
ENDBRANCH  61  82
ENDBRANCH  35  36
ENDBRANCH  27  30
ENDBRANCH  25  26
ENDBRANCH  24  25
ENDBRANCH   1  24
TORSDOF 17
ENDMDL
MODEL 2
REMARK VINA RESULT:     -12.7      0.898      1.405
REMARK SMILES Cc1cccc(O[C@@H](C)C(=O)N2CC[C@@H](C(=O)NCCCNC(=O)c3ccc(-c4c5nc(c(-c6ccc(S(=O)(=O)[O-])cc6)c6ccc([nH]6)c(-c6ccc(S(=O)(=O)[O-])cc6)c6nc(c(-c7ccc(S(=O)(=O)[O-])cc7)c7ccc4[nH]7)C=C6)C=C5)cc3)[C@@H]2C)c1
REMARK SMILES IDX 19 1 18 2 16 3 17 4 15 6 12 7 13 8 85 9 14 10 86 11 10 12
REMARK SMILES IDX 11 13 8 14 9 15 7 16 6 17 1 18 2 19 3 20 87 21 4 22 5 23
REMARK SMILES IDX 20 24 21 25 22 26 23 27 24 29 25 30 26 31 84 32 27 33 83 34
REMARK SMILES IDX 28 35 29 36 30 37 77 38 31 39 82 40 76 41 78 42 32 43 81 44
REMARK SMILES IDX 75 45 74 46 33 48 63 49 44 50 62 51 45 52 48 53 61 54 79 55
REMARK SMILES IDX 46 56 47 57 60 59 80 60 49 61 34 62 35 63 43 64 36 65 42 66
REMARK SMILES IDX 37 67 38 68 39 69 40 70 41 71 64 72 65 73 73 74 66 75 72 76
REMARK SMILES IDX 67 77 68 78 69 79 70 80 71 81 50 82 51 83 59 84 52 85 58 86
REMARK SMILES IDX 53 87 54 88 55 89 56 90 57 91
REMARK H PARENT 18 5 22 28 78 47 48 58
REMARK Flexibility Score: inf
ROOT
ATOM      1  C   UNL A   1      32.704  30.523  26.604  1.00  0.00     0.117 C 
ENDROOT
BRANCH   1   2
ATOM      2  N   UNL A   1      31.958  29.217  27.006  1.00  0.00    -0.356 N 
ATOM      3  C   UNL A   1      31.393  28.012  26.704  1.00  0.00     0.225 C 
ATOM      4  O   UNL A   1      31.056  27.459  27.782  1.00  0.00    -0.275 OA
ATOM      5  H   UNL A   1      31.827  29.307  27.978  1.00  0.00     0.163 HD
BRANCH   3   6
ATOM      6  C   UNL A   1      31.087  27.080  25.414  1.00  0.00     0.102 C 
ATOM      7  N   UNL A   1      31.969  25.165  24.173  1.00  0.00    -0.336 N 
ATOM      8  C   UNL A   1      30.737  24.719  24.812  1.00  0.00     0.121 C 
ATOM      9  C   UNL A   1      31.979  26.642  24.179  1.00  0.00     0.094 C 
ATOM     10  C   UNL A   1      30.177  25.873  25.646  1.00  0.00     0.037 C 
ATOM     11  C   UNL A   1      31.367  27.118  22.839  1.00  0.00     0.032 C 
BRANCH   7  12
ATOM     12  C   UNL A   1      32.750  24.188  23.564  1.00  0.00     0.263 C 
ATOM     13  O   UNL A   1      32.541  23.989  22.347  1.00  0.00    -0.271 OA
BRANCH  12  14
ATOM     14  C   UNL A   1      33.854  23.193  24.215  1.00  0.00     0.259 C 
ATOM     15  C   UNL A   1      33.233  21.754  24.141  1.00  0.00     0.064 C 
BRANCH  14  16
ATOM     16  O   UNL A   1      34.755  23.265  25.321  1.00  0.00    -0.481 OA
BRANCH  16  17
ATOM     17  C   UNL A   1      36.074  23.097  25.011  1.00  0.00     0.120 A 
ATOM     18  C   UNL A   1      37.097  19.732  24.840  1.00  0.00     0.044 C 
ATOM     19  C   UNL A   1      37.370  21.216  24.997  1.00  0.00    -0.047 A 
ATOM     20  C   UNL A   1      38.339  21.908  25.761  1.00  0.00     0.003 A 
ATOM     21  C   UNL A   1      36.478  21.986  24.323  1.00  0.00     0.049 A 
ATOM     22  C   UNL A   1      38.212  23.275  26.020  1.00  0.00     0.004 A 
ATOM     23  C   UNL A   1      37.000  23.862  25.713  1.00  0.00     0.046 A 
ENDBRANCH  16  17
ENDBRANCH  14  16
ENDBRANCH  12  14
ENDBRANCH   7  12
ENDBRANCH   3   6
ENDBRANCH   1   2
BRANCH   1  24
ATOM     24  C   UNL A   1      33.688  31.154  27.642  1.00  0.00     0.042 C 
BRANCH  24  25
ATOM     25  C   UNL A   1      35.204  31.252  27.386  1.00  0.00     0.118 C 
BRANCH  25  26
ATOM     26  N   UNL A   1      36.025  31.756  28.515  1.00  0.00    -0.352 N 
ATOM     27  C   UNL A   1      37.063  31.142  29.233  1.00  0.00     0.251 C 
ATOM     28  H   UNL A   1      35.806  32.670  28.808  1.00  0.00     0.163 HD
ATOM     29  O   UNL A   1      37.633  31.636  30.171  1.00  0.00    -0.269 OA
BRANCH  27  30
ATOM     30  C   UNL A   1      37.445  29.787  28.777  1.00  0.00     0.039 A 
ATOM     31  C   UNL A   1      37.516  28.808  29.777  1.00  0.00     0.014 A 
ATOM     32  C   UNL A   1      38.244  29.754  27.639  1.00  0.00     0.014 A 
ATOM     33  C   UNL A   1      38.627  27.981  29.812  1.00  0.00     0.010 A 
ATOM     34  C   UNL A   1      39.376  28.971  27.709  1.00  0.00     0.010 A 
ATOM     35  C   UNL A   1      39.616  28.177  28.850  1.00  0.00    -0.014 A 
BRANCH  35  36
ATOM     36  C   UNL A   1      40.989  27.718  29.026  1.00  0.00     0.031 A 
ATOM     37  C   UNL A   1      41.302  26.334  28.641  1.00  0.00     0.074 A 
ATOM     38  C   UNL A   1      41.973  28.527  29.488  1.00  0.00     0.049 A 
ATOM     39  N   UNL A   1      42.287  25.656  29.114  1.00  0.00    -0.248 NA
ATOM     40  C   UNL A   1      40.451  25.567  27.737  1.00  0.00     0.031 C 
ATOM     41  C   UNL A   1      43.415  28.287  29.443  1.00  0.00     0.029 A 
ATOM     42  N   UNL A   1      41.859  29.671  30.267  1.00  0.00    -0.354 N 
ATOM     43  C   UNL A   1      42.386  24.508  28.365  1.00  0.00     0.074 A 
ATOM     44  C   UNL A   1      41.161  24.447  27.608  1.00  0.00     0.031 C 
ATOM     45  C   UNL A   1      44.027  29.096  30.324  1.00  0.00     0.029 A 
ATOM     46  C   UNL A   1      42.999  29.799  31.070  1.00  0.00     0.049 A 
ATOM     47  H   UNL A   1      41.098  30.295  30.256  1.00  0.00     0.167 HD
ATOM     48  C   UNL A   1      43.564  23.827  28.360  1.00  0.00     0.031 A 
ATOM     49  C   UNL A   1      42.895  29.826  32.433  1.00  0.00     0.031 A 
ATOM     50  C   UNL A   1      44.494  24.366  29.356  1.00  0.00     0.049 A 
ATOM     51  C   UNL A   1      43.496  28.602  33.092  1.00  0.00     0.074 A 
ATOM     52  C   UNL A   1      45.603  25.191  29.273  1.00  0.00     0.029 A 
ATOM     53  N   UNL A   1      44.129  24.339  30.700  1.00  0.00    -0.354 N 
ATOM     54  N   UNL A   1      43.897  27.547  32.437  1.00  0.00    -0.248 NA
ATOM     55  C   UNL A   1      43.671  28.452  34.534  1.00  0.00     0.031 C 
ATOM     56  C   UNL A   1      45.848  25.729  30.568  1.00  0.00     0.029 A 
ATOM     57  C   UNL A   1      44.916  25.199  31.444  1.00  0.00     0.049 A 
ATOM     58  H   UNL A   1      43.409  23.780  31.071  1.00  0.00     0.167 HD
ATOM     59  C   UNL A   1      44.313  26.579  33.312  1.00  0.00     0.074 A 
ATOM     60  C   UNL A   1      44.187  27.211  34.614  1.00  0.00     0.031 C 
ATOM     61  C   UNL A   1      44.696  25.338  32.884  1.00  0.00     0.031 A 
BRANCH  48  62
ATOM     62  C   UNL A   1      43.953  22.877  27.245  1.00  0.00    -0.014 A 
ATOM     63  C   UNL A   1      43.022  21.928  26.781  1.00  0.00     0.010 A 
ATOM     64  C   UNL A   1      45.237  22.806  26.669  1.00  0.00     0.010 A 
ATOM     65  C   UNL A   1      43.377  20.924  25.864  1.00  0.00     0.020 A 
ATOM     66  C   UNL A   1      45.619  21.792  25.784  1.00  0.00     0.020 A 
ATOM     67  C   UNL A   1      44.685  20.849  25.388  1.00  0.00     0.054 A 
BRANCH  67  68
ATOM     68  S   UNL A   1      45.151  19.524  24.247  1.00  0.00     0.124 S 
ATOM     69  O   UNL A   1      44.472  19.915  23.014  1.00  0.00    -0.237 OA
ATOM     70  O   UNL A   1      46.607  19.629  24.229  1.00  0.00    -0.237 OA
ATOM     71  O   UNL A   1      44.625  18.317  24.883  1.00  0.00    -0.744 OA
ENDBRANCH  67  68
ENDBRANCH  48  62
BRANCH  49  72
ATOM     72  C   UNL A   1      41.712  30.600  32.915  1.00  0.00    -0.014 A 
ATOM     73  C   UNL A   1      40.492  29.899  33.038  1.00  0.00     0.010 A 
ATOM     74  C   UNL A   1      41.886  31.784  33.653  1.00  0.00     0.010 A 
ATOM     75  C   UNL A   1      39.554  30.262  34.009  1.00  0.00     0.020 A 
ATOM     76  C   UNL A   1      40.946  32.149  34.631  1.00  0.00     0.020 A 
ATOM     77  C   UNL A   1      39.820  31.347  34.844  1.00  0.00     0.054 A 
BRANCH  77  78
ATOM     78  S   UNL A   1      38.788  31.548  36.332  1.00  0.00     0.124 S 
ATOM     79  O   UNL A   1      37.745  32.454  35.866  1.00  0.00    -0.237 OA
ATOM     80  O   UNL A   1      38.346  30.175  36.591  1.00  0.00    -0.237 OA
ATOM     81  O   UNL A   1      39.718  32.099  37.310  1.00  0.00    -0.744 OA
ENDBRANCH  77  78
ENDBRANCH  49  72
BRANCH  61  82
ATOM     82  C   UNL A   1      44.959  24.133  33.763  1.00  0.00    -0.014 A 
ATOM     83  C   UNL A   1      44.350  22.880  33.605  1.00  0.00     0.010 A 
ATOM     84  C   UNL A   1      45.973  24.225  34.750  1.00  0.00     0.010 A 
ATOM     85  C   UNL A   1      44.686  21.794  34.431  1.00  0.00     0.020 A 
ATOM     86  C   UNL A   1      46.354  23.138  35.540  1.00  0.00     0.020 A 
ATOM     87  C   UNL A   1      45.684  21.932  35.395  1.00  0.00     0.054 A 
BRANCH  87  88
ATOM     88  S   UNL A   1      46.142  20.513  36.420  1.00  0.00     0.124 S 
ATOM     89  O   UNL A   1      45.850  21.007  37.763  1.00  0.00    -0.237 OA
ATOM     90  O   UNL A   1      45.253  19.460  35.934  1.00  0.00    -0.237 OA
ATOM     91  O   UNL A   1      47.556  20.314  36.118  1.00  0.00    -0.744 OA
ENDBRANCH  87  88
ENDBRANCH  61  82
ENDBRANCH  35  36
ENDBRANCH  27  30
ENDBRANCH  25  26
ENDBRANCH  24  25
ENDBRANCH   1  24
TORSDOF 17
ENDMDL
MODEL 3
REMARK VINA RESULT:     -12.3      2.556      3.703
REMARK SMILES Cc1cccc(O[C@@H](C)C(=O)N2CC[C@@H](C(=O)NCCCNC(=O)c3ccc(-c4c5nc(c(-c6ccc(S(=O)(=O)[O-])cc6)c6ccc([nH]6)c(-c6ccc(S(=O)(=O)[O-])cc6)c6nc(c(-c7ccc(S(=O)(=O)[O-])cc7)c7ccc4[nH]7)C=C6)C=C5)cc3)[C@@H]2C)c1
REMARK SMILES IDX 19 1 18 2 16 3 17 4 15 6 12 7 13 8 85 9 14 10 86 11 10 12
REMARK SMILES IDX 11 13 8 14 9 15 7 16 6 17 1 18 2 19 3 20 87 21 4 22 5 23
REMARK SMILES IDX 20 24 21 25 22 26 23 27 24 29 25 30 26 31 84 32 27 33 83 34
REMARK SMILES IDX 28 35 29 36 30 37 77 38 31 39 82 40 76 41 78 42 32 43 81 44
REMARK SMILES IDX 75 45 74 46 33 48 63 49 44 50 62 51 45 52 48 53 61 54 79 55
REMARK SMILES IDX 46 56 47 57 60 59 80 60 49 61 34 62 35 63 43 64 36 65 42 66
REMARK SMILES IDX 37 67 38 68 39 69 40 70 41 71 64 72 65 73 73 74 66 75 72 76
REMARK SMILES IDX 67 77 68 78 69 79 70 80 71 81 50 82 51 83 59 84 52 85 58 86
REMARK SMILES IDX 53 87 54 88 55 89 56 90 57 91
REMARK H PARENT 18 5 22 28 78 47 48 58
REMARK Flexibility Score: inf
ROOT
ATOM      1  C   UNL A   1      31.901  29.452  24.647  1.00  0.00     0.117 C 
ENDROOT
BRANCH   1   2
ATOM      2  N   UNL A   1      30.875  28.287  24.538  1.00  0.00    -0.356 N 
ATOM      3  C   UNL A   1      30.489  27.061  24.078  1.00  0.00     0.225 C 
ATOM      4  O   UNL A   1      29.394  26.768  24.622  1.00  0.00    -0.275 OA
ATOM      5  H   UNL A   1      30.109  28.592  25.078  1.00  0.00     0.163 HD
BRANCH   3   6
ATOM      6  C   UNL A   1      31.033  25.877  23.114  1.00  0.00     0.102 C 
ATOM      7  N   UNL A   1      32.684  24.074  23.028  1.00  0.00    -0.336 N 
ATOM      8  C   UNL A   1      31.373  23.439  23.102  1.00  0.00     0.121 C 
ATOM      9  C   UNL A   1      32.489  25.482  22.628  1.00  0.00     0.094 C 
ATOM     10  C   UNL A   1      30.309  24.533  23.212  1.00  0.00     0.037 C 
ATOM     11  C   UNL A   1      32.611  25.549  21.086  1.00  0.00     0.032 C 
BRANCH   7  12
ATOM     12  C   UNL A   1      33.792  23.243  23.162  1.00  0.00     0.263 C 
ATOM     13  O   UNL A   1      34.668  23.340  22.275  1.00  0.00    -0.271 OA
BRANCH  12  14
ATOM     14  C   UNL A   1      34.094  22.092  24.264  1.00  0.00     0.259 C 
ATOM     15  C   UNL A   1      33.068  20.940  23.976  1.00  0.00     0.064 C 
BRANCH  14  16
ATOM     16  O   UNL A   1      34.441  22.082  25.651  1.00  0.00    -0.481 OA
BRANCH  16  17
ATOM     17  C   UNL A   1      33.939  23.118  26.385  1.00  0.00     0.120 A 
ATOM     18  C   UNL A   1      30.439  23.061  26.757  1.00  0.00     0.044 C 
ATOM     19  C   UNL A   1      31.782  23.765  26.764  1.00  0.00    -0.047 A 
ATOM     20  C   UNL A   1      32.142  25.087  26.405  1.00  0.00     0.003 A 
ATOM     21  C   UNL A   1      32.802  22.945  27.124  1.00  0.00     0.049 A 
ATOM     22  C   UNL A   1      33.475  25.434  26.175  1.00  0.00     0.004 A 
ATOM     23  C   UNL A   1      34.384  24.399  26.074  1.00  0.00     0.046 A 
ENDBRANCH  16  17
ENDBRANCH  14  16
ENDBRANCH  12  14
ENDBRANCH   7  12
ENDBRANCH   3   6
ENDBRANCH   1   2
BRANCH   1  24
ATOM     24  C   UNL A   1      32.993  29.364  25.765  1.00  0.00     0.042 C 
BRANCH  24  25
ATOM     25  C   UNL A   1      32.802  30.002  27.153  1.00  0.00     0.118 C 
BRANCH  25  26
ATOM     26  N   UNL A   1      33.626  31.203  27.437  1.00  0.00    -0.352 N 
ATOM     27  C   UNL A   1      34.913  31.318  27.985  1.00  0.00     0.251 C 
ATOM     28  H   UNL A   1      33.200  32.059  27.204  1.00  0.00     0.163 HD
ATOM     29  O   UNL A   1      35.469  32.360  28.214  1.00  0.00    -0.269 OA
BRANCH  27  30
ATOM     30  C   UNL A   1      35.595  30.041  28.295  1.00  0.00     0.039 A 
ATOM     31  C   UNL A   1      35.854  29.807  29.652  1.00  0.00     0.014 A 
ATOM     32  C   UNL A   1      36.409  29.549  27.282  1.00  0.00     0.014 A 
ATOM     33  C   UNL A   1      37.119  29.373  30.015  1.00  0.00     0.010 A 
ATOM     34  C   UNL A   1      37.683  29.173  27.649  1.00  0.00     0.010 A 
ATOM     35  C   UNL A   1      38.063  29.199  29.006  1.00  0.00    -0.014 A 
BRANCH  35  36
ATOM     36  C   UNL A   1      39.499  29.193  29.263  1.00  0.00     0.031 A 
ATOM     37  C   UNL A   1      40.239  27.955  28.976  1.00  0.00     0.074 A 
ATOM     38  C   UNL A   1      40.164  30.286  29.711  1.00  0.00     0.049 A 
ATOM     39  N   UNL A   1      41.356  27.635  29.528  1.00  0.00    -0.248 NA
ATOM     40  C   UNL A   1      39.713  26.922  28.090  1.00  0.00     0.031 C 
ATOM     41  C   UNL A   1      41.610  30.497  29.736  1.00  0.00     0.029 A 
ATOM     42  N   UNL A   1      39.664  31.375  30.414  1.00  0.00    -0.354 N 
ATOM     43  C   UNL A   1      41.841  26.539  28.856  1.00  0.00     0.074 A 
ATOM     44  C   UNL A   1      40.736  26.070  28.057  1.00  0.00     0.031 C 
ATOM     45  C   UNL A   1      41.898  31.496  30.589  1.00  0.00     0.029 A 
ATOM     46  C   UNL A   1      40.665  31.884  31.250  1.00  0.00     0.049 A 
ATOM     47  H   UNL A   1      38.751  31.734  30.335  1.00  0.00     0.167 HD
ATOM     48  C   UNL A   1      43.169  26.252  28.937  1.00  0.00     0.031 A 
ATOM     49  C   UNL A   1      40.482  31.942  32.604  1.00  0.00     0.031 A 
ATOM     50  C   UNL A   1      43.834  27.096  29.934  1.00  0.00     0.049 A 
ATOM     51  C   UNL A   1      41.390  30.993  33.359  1.00  0.00     0.074 A 
ATOM     52  C   UNL A   1      44.642  28.217  29.842  1.00  0.00     0.029 A 
ATOM     53  N   UNL A   1      43.421  27.022  31.261  1.00  0.00    -0.354 N 
ATOM     54  N   UNL A   1      42.128  30.082  32.787  1.00  0.00    -0.248 NA
ATOM     55  C   UNL A   1      41.522  30.973  34.814  1.00  0.00     0.031 C 
ATOM     56  C   UNL A   1      44.640  28.865  31.110  1.00  0.00     0.029 A 
ATOM     57  C   UNL A   1      43.866  28.117  31.981  1.00  0.00     0.049 A 
ATOM     58  H   UNL A   1      42.884  26.287  31.638  1.00  0.00     0.167 HD
ATOM     59  C   UNL A   1      42.769  29.331  33.735  1.00  0.00     0.074 A 
ATOM     60  C   UNL A   1      42.385  29.955  34.990  1.00  0.00     0.031 C 
ATOM     61  C   UNL A   1      43.534  28.249  33.399  1.00  0.00     0.031 A 
BRANCH  48  62
ATOM     62  C   UNL A   1      43.889  25.416  27.899  1.00  0.00    -0.014 A 
ATOM     63  C   UNL A   1      44.008  25.894  26.580  1.00  0.00     0.010 A 
ATOM     64  C   UNL A   1      44.394  24.121  28.128  1.00  0.00     0.010 A 
ATOM     65  C   UNL A   1      44.524  25.097  25.543  1.00  0.00     0.020 A 
ATOM     66  C   UNL A   1      44.876  23.300  27.103  1.00  0.00     0.020 A 
ATOM     67  C   UNL A   1      44.934  23.792  25.809  1.00  0.00     0.054 A 
BRANCH  67  68
ATOM     68  S   UNL A   1      45.550  22.751  24.463  1.00  0.00     0.124 S 
ATOM     69  O   UNL A   1      46.502  23.632  23.793  1.00  0.00    -0.237 OA
ATOM     70  O   UNL A   1      46.130  21.622  25.184  1.00  0.00    -0.237 OA
ATOM     71  O   UNL A   1      44.349  22.440  23.688  1.00  0.00    -0.744 OA
ENDBRANCH  67  68
ENDBRANCH  48  62
BRANCH  49  72
ATOM     72  C   UNL A   1      39.095  32.338  32.991  1.00  0.00    -0.014 A 
ATOM     73  C   UNL A   1      38.759  33.704  32.866  1.00  0.00     0.010 A 
ATOM     74  C   UNL A   1      38.059  31.387  33.008  1.00  0.00     0.010 A 
ATOM     75  C   UNL A   1      37.447  34.092  32.574  1.00  0.00     0.020 A 
ATOM     76  C   UNL A   1      36.743  31.775  32.712  1.00  0.00     0.020 A 
ATOM     77  C   UNL A   1      36.461  33.117  32.434  1.00  0.00     0.054 A 
BRANCH  77  78
ATOM     78  S   UNL A   1      34.879  33.610  31.675  1.00  0.00     0.124 S 
ATOM     79  O   UNL A   1      35.318  34.360  30.504  1.00  0.00    -0.237 OA
ATOM     80  O   UNL A   1      34.257  32.315  31.385  1.00  0.00    -0.237 OA
ATOM     81  O   UNL A   1      34.235  34.390  32.726  1.00  0.00    -0.744 OA
ENDBRANCH  77  78
ENDBRANCH  49  72
BRANCH  61  82
ATOM     82  C   UNL A   1      44.102  27.226  34.361  1.00  0.00    -0.014 A 
ATOM     83  C   UNL A   1      45.459  27.110  34.696  1.00  0.00     0.010 A 
ATOM     84  C   UNL A   1      43.202  26.390  35.069  1.00  0.00     0.010 A 
ATOM     85  C   UNL A   1      45.903  26.166  35.637  1.00  0.00     0.020 A 
ATOM     86  C   UNL A   1      43.625  25.487  36.047  1.00  0.00     0.020 A 
ATOM     87  C   UNL A   1      44.982  25.359  36.304  1.00  0.00     0.054 A 
BRANCH  87  88
ATOM     88  S   UNL A   1      45.560  24.181  37.551  1.00  0.00     0.124 S 
ATOM     89  O   UNL A   1      46.949  24.595  37.731  1.00  0.00    -0.237 OA
ATOM     90  O   UNL A   1      44.675  24.446  38.683  1.00  0.00    -0.237 OA
ATOM     91  O   UNL A   1      45.369  22.883  36.910  1.00  0.00    -0.744 OA
ENDBRANCH  87  88
ENDBRANCH  61  82
ENDBRANCH  35  36
ENDBRANCH  27  30
ENDBRANCH  25  26
ENDBRANCH  24  25
ENDBRANCH   1  24
TORSDOF 17
ENDMDL
