MODEL 1
REMARK VINA RESULT:      -9.4      0.000      0.000
REMARK SMILES Cc1ccc2c(=O)c3cccc(CC(=O)NCCCNC(=O)c4ccc(-c5c6nc(c(-c7ccc(S(=O)(=O)[O-])cc7)c7ccc([nH]7)c(-c7ccc(S(=O)(=O)[O-])cc7)c7nc(c(-c8ccc(S(=O)(=O)[O-])cc8)c8ccc5[nH]8)C=C7)C=C6)cc4)c3oc2c1C
REMARK SMILES IDX 19 1 18 2 17 3 16 4 14 5 15 6 13 8 12 9 1 10 2 11 3 12 86 13
REMARK SMILES IDX 4 14 85 15 87 16 5 17 84 18 6 19 83 20 7 21 8 22 9 23 11 24
REMARK SMILES IDX 10 25 20 26 21 27 22 29 23 30 24 31 82 32 25 33 81 34 26 35
REMARK SMILES IDX 27 36 28 37 75 38 29 39 80 40 74 41 76 42 30 43 79 44 73 45
REMARK SMILES IDX 72 46 31 48 61 49 42 50 60 51 43 52 46 53 59 54 77 55 44 56
REMARK SMILES IDX 45 57 58 59 78 60 47 61 32 62 33 63 41 64 34 65 40 66 35 67
REMARK SMILES IDX 36 68 37 69 38 70 39 71 62 72 63 73 71 74 64 75 70 76 65 77
REMARK SMILES IDX 66 78 67 79 68 80 69 81 48 82 49 83 57 84 50 85 56 86 51 87
REMARK SMILES IDX 52 88 53 89 54 90 55 91
REMARK H PARENT 16 7 20 28 76 47 46 58
REMARK Flexibility Score: inf
ROOT
ATOM      1  C   UNL A   1      44.303  19.999  25.571  1.00  0.00     0.118 C 
ENDROOT
BRANCH   1   2
ATOM      2  C   UNL A   1      44.870  20.708  24.346  1.00  0.00     0.042 C 
BRANCH   2   3
ATOM      3  C   UNL A   1      46.357  21.026  24.449  1.00  0.00     0.117 C 
BRANCH   3   4
ATOM      4  N   UNL A   1      46.676  22.346  23.938  1.00  0.00    -0.356 N 
ATOM      5  C   UNL A   1      46.517  23.566  24.529  1.00  0.00     0.224 C 
ATOM      6  O   UNL A   1      46.900  24.563  23.911  1.00  0.00    -0.275 OA
ATOM      7  H   UNL A   1      47.063  22.365  23.033  1.00  0.00     0.163 HD
BRANCH   5   8
ATOM      8  C   UNL A   1      45.966  23.675  25.940  1.00  0.00     0.139 C 
BRANCH   8   9
ATOM      9  C   UNL A   1      46.635  24.714  26.814  1.00  0.00     0.005 A 
ATOM     10  C   UNL A   1      40.856  29.094  25.852  1.00  0.00     0.045 C 
ATOM     11  C   UNL A   1      42.203  28.801  26.458  1.00  0.00    -0.044 A 
ATOM     12  C   UNL A   1      42.781  29.772  27.292  1.00  0.00     0.005 A 
ATOM     13  C   UNL A   1      42.900  27.597  26.200  1.00  0.00    -0.005 A 
ATOM     14  C   UNL A   1      44.024  29.557  27.882  1.00  0.00     0.016 A 
ATOM     15  C   UNL A   1      44.156  27.384  26.813  1.00  0.00     0.141 A 
ATOM     16  C   UNL A   1      42.331  26.517  25.315  1.00  0.00     0.049 C 
ATOM     17  C   UNL A   1      44.702  28.364  27.641  1.00  0.00     0.066 A 
ATOM     18  O   UNL A   1      44.789  26.188  26.553  1.00  0.00    -0.455 OA
ATOM     19  C   UNL A   1      46.012  28.127  28.254  1.00  0.00     0.200 A 
ATOM     20  C   UNL A   1      46.017  25.940  27.117  1.00  0.00     0.142 A 
ATOM     21  O   UNL A   1      46.545  28.964  28.974  1.00  0.00    -0.288 OA
ATOM     22  C   UNL A   1      46.665  26.848  27.956  1.00  0.00     0.066 A 
ATOM     23  C   UNL A   1      47.919  26.560  28.502  1.00  0.00     0.016 A 
ATOM     24  C   UNL A   1      47.918  24.452  27.334  1.00  0.00     0.008 A 
ATOM     25  C   UNL A   1      48.549  25.361  28.184  1.00  0.00     0.001 A 
ENDBRANCH   8   9
ENDBRANCH   5   8
ENDBRANCH   3   4
ENDBRANCH   2   3
ENDBRANCH   1   2
BRANCH   1  26
ATOM     26  N   UNL A   1      42.920  19.569  25.396  1.00  0.00    -0.352 N 
ATOM     27  C   UNL A   1      41.753  20.109  25.888  1.00  0.00     0.251 C 
ATOM     28  H   UNL A   1      42.802  18.767  24.838  1.00  0.00     0.163 HD
ATOM     29  O   UNL A   1      40.698  19.501  25.739  1.00  0.00    -0.269 OA
BRANCH  27  30
ATOM     30  C   UNL A   1      41.775  21.393  26.624  1.00  0.00     0.039 A 
ATOM     31  C   UNL A   1      42.172  22.573  25.996  1.00  0.00     0.014 A 
ATOM     32  C   UNL A   1      41.405  21.414  27.973  1.00  0.00     0.014 A 
ATOM     33  C   UNL A   1      42.396  23.716  26.753  1.00  0.00     0.010 A 
ATOM     34  C   UNL A   1      41.531  22.596  28.711  1.00  0.00     0.010 A 
ATOM     35  C   UNL A   1      42.086  23.743  28.123  1.00  0.00    -0.014 A 
BRANCH  35  36
ATOM     36  C   UNL A   1      42.371  24.972  28.913  1.00  0.00     0.031 A 
ATOM     37  C   UNL A   1      41.359  26.088  28.993  1.00  0.00     0.074 A 
ATOM     38  C   UNL A   1      43.515  25.051  29.623  1.00  0.00     0.049 A 
ATOM     39  N   UNL A   1      41.421  27.203  29.677  1.00  0.00    -0.248 NA
ATOM     40  C   UNL A   1      40.122  25.940  28.207  1.00  0.00     0.031 C 
ATOM     41  C   UNL A   1      44.559  24.024  29.645  1.00  0.00     0.029 A 
ATOM     42  N   UNL A   1      43.977  26.011  30.489  1.00  0.00    -0.354 N 
ATOM     43  C   UNL A   1      40.242  27.888  29.401  1.00  0.00     0.074 A 
ATOM     44  C   UNL A   1      39.503  27.088  28.449  1.00  0.00     0.031 C 
ATOM     45  C   UNL A   1      45.499  24.373  30.534  1.00  0.00     0.029 A 
ATOM     46  C   UNL A   1      45.172  25.683  31.088  1.00  0.00     0.049 A 
ATOM     47  H   UNL A   1      43.499  26.853  30.664  1.00  0.00     0.167 HD
ATOM     48  C   UNL A   1      39.805  29.064  29.910  1.00  0.00     0.031 A 
ATOM     49  C   UNL A   1      45.927  26.353  31.981  1.00  0.00     0.031 A 
ATOM     50  C   UNL A   1      40.540  29.846  30.873  1.00  0.00     0.049 A 
ATOM     51  C   UNL A   1      45.448  27.683  32.490  1.00  0.00     0.074 A 
ATOM     52  C   UNL A   1      40.173  31.046  31.456  1.00  0.00     0.029 A 
ATOM     53  N   UNL A   1      41.778  29.508  31.400  1.00  0.00    -0.354 N 
ATOM     54  N   UNL A   1      44.326  28.308  32.222  1.00  0.00    -0.248 NA
ATOM     55  C   UNL A   1      46.327  28.398  33.426  1.00  0.00     0.031 C 
ATOM     56  C   UNL A   1      41.220  31.472  32.275  1.00  0.00     0.029 A 
ATOM     57  C   UNL A   1      42.201  30.493  32.278  1.00  0.00     0.049 A 
ATOM     58  H   UNL A   1      42.281  28.690  31.184  1.00  0.00     0.167 HD
ATOM     59  C   UNL A   1      44.354  29.478  32.972  1.00  0.00     0.074 A 
ATOM     60  C   UNL A   1      45.594  29.465  33.721  1.00  0.00     0.031 C 
ATOM     61  C   UNL A   1      43.435  30.473  33.028  1.00  0.00     0.031 A 
BRANCH  48  62
ATOM     62  C   UNL A   1      38.466  29.594  29.460  1.00  0.00    -0.014 A 
ATOM     63  C   UNL A   1      38.389  30.438  28.335  1.00  0.00     0.010 A 
ATOM     64  C   UNL A   1      37.305  29.374  30.225  1.00  0.00     0.010 A 
ATOM     65  C   UNL A   1      37.194  31.084  28.009  1.00  0.00     0.020 A 
ATOM     66  C   UNL A   1      36.098  29.993  29.880  1.00  0.00     0.020 A 
ATOM     67  C   UNL A   1      36.058  30.866  28.791  1.00  0.00     0.054 A 
BRANCH  67  68
ATOM     68  S   UNL A   1      34.527  31.749  28.376  1.00  0.00     0.124 S 
ATOM     69  O   UNL A   1      33.706  30.688  27.801  1.00  0.00    -0.237 OA
ATOM     70  O   UNL A   1      34.090  32.253  29.675  1.00  0.00    -0.237 OA
ATOM     71  O   UNL A   1      34.969  32.776  27.435  1.00  0.00    -0.744 OA
ENDBRANCH  67  68
ENDBRANCH  48  62
BRANCH  49  72
ATOM     72  C   UNL A   1      47.199  25.740  32.464  1.00  0.00    -0.014 A 
ATOM     73  C   UNL A   1      48.398  25.934  31.750  1.00  0.00     0.010 A 
ATOM     74  C   UNL A   1      47.202  24.886  33.579  1.00  0.00     0.010 A 
ATOM     75  C   UNL A   1      49.554  25.231  32.097  1.00  0.00     0.020 A 
ATOM     76  C   UNL A   1      48.368  24.210  33.954  1.00  0.00     0.020 A 
ATOM     77  C   UNL A   1      49.527  24.361  33.189  1.00  0.00     0.054 A 
BRANCH  77  78
ATOM     78  S   UNL A   1      51.022  23.408  33.576  1.00  0.00     0.124 S 
ATOM     79  O   UNL A   1      51.331  22.801  32.285  1.00  0.00    -0.237 OA
ATOM     80  O   UNL A   1      51.951  24.442  34.024  1.00  0.00    -0.237 OA
ATOM     81  O   UNL A   1      50.578  22.481  34.613  1.00  0.00    -0.744 OA
ENDBRANCH  77  78
ENDBRANCH  49  72
BRANCH  61  82
ATOM     82  C   UNL A   1      43.704  31.648  33.936  1.00  0.00    -0.014 A 
ATOM     83  C   UNL A   1      43.229  31.627  35.261  1.00  0.00     0.010 A 
ATOM     84  C   UNL A   1      44.297  32.824  33.443  1.00  0.00     0.010 A 
ATOM     85  C   UNL A   1      43.299  32.769  36.061  1.00  0.00     0.020 A 
ATOM     86  C   UNL A   1      44.403  33.959  34.253  1.00  0.00     0.020 A 
ATOM     87  C   UNL A   1      43.877  33.932  35.547  1.00  0.00     0.054 A 
BRANCH  87  88
ATOM     88  S   UNL A   1      43.917  35.420  36.585  1.00  0.00     0.124 S 
ATOM     89  O   UNL A   1      43.403  36.442  35.679  1.00  0.00    -0.237 OA
ATOM     90  O   UNL A   1      43.036  35.060  37.693  1.00  0.00    -0.237 OA
ATOM     91  O   UNL A   1      45.329  35.553  36.939  1.00  0.00    -0.744 OA
ENDBRANCH  87  88
ENDBRANCH  61  82
ENDBRANCH  35  36
ENDBRANCH  27  30
ENDBRANCH   1  26
TORSDOF 14
ENDMDL
MODEL 2
REMARK VINA RESULT:      -9.1      5.098     11.573
REMARK SMILES Cc1ccc2c(=O)c3cccc(CC(=O)NCCCNC(=O)c4ccc(-c5c6nc(c(-c7ccc(S(=O)(=O)[O-])cc7)c7ccc([nH]7)c(-c7ccc(S(=O)(=O)[O-])cc7)c7nc(c(-c8ccc(S(=O)(=O)[O-])cc8)c8ccc5[nH]8)C=C7)C=C6)cc4)c3oc2c1C
REMARK SMILES IDX 19 1 18 2 17 3 16 4 14 5 15 6 13 8 12 9 1 10 2 11 3 12 86 13
REMARK SMILES IDX 4 14 85 15 87 16 5 17 84 18 6 19 83 20 7 21 8 22 9 23 11 24
REMARK SMILES IDX 10 25 20 26 21 27 22 29 23 30 24 31 82 32 25 33 81 34 26 35
REMARK SMILES IDX 27 36 28 37 75 38 29 39 80 40 74 41 76 42 30 43 79 44 73 45
REMARK SMILES IDX 72 46 31 48 61 49 42 50 60 51 43 52 46 53 59 54 77 55 44 56
REMARK SMILES IDX 45 57 58 59 78 60 47 61 32 62 33 63 41 64 34 65 40 66 35 67
REMARK SMILES IDX 36 68 37 69 38 70 39 71 62 72 63 73 71 74 64 75 70 76 65 77
REMARK SMILES IDX 66 78 67 79 68 80 69 81 48 82 49 83 57 84 50 85 56 86 51 87
REMARK SMILES IDX 52 88 53 89 54 90 55 91
REMARK H PARENT 16 7 20 28 76 47 46 58
REMARK Flexibility Score: inf
ROOT
ATOM      1  C   UNL A   1      35.547  29.673  28.072  1.00  0.00     0.118 C 
ENDROOT
BRANCH   1   2
ATOM      2  C   UNL A   1      34.654  30.667  27.339  1.00  0.00     0.042 C 
BRANCH   2   3
ATOM      3  C   UNL A   1      33.375  30.055  26.780  1.00  0.00     0.117 C 
BRANCH   3   4
ATOM      4  N   UNL A   1      33.554  29.530  25.439  1.00  0.00    -0.356 N 
ATOM      5  C   UNL A   1      33.784  28.248  25.033  1.00  0.00     0.224 C 
ATOM      6  O   UNL A   1      33.865  28.030  23.822  1.00  0.00    -0.275 OA
ATOM      7  H   UNL A   1      33.502  30.197  24.717  1.00  0.00     0.163 HD
BRANCH   5   8
ATOM      8  C   UNL A   1      33.848  27.118  26.046  1.00  0.00     0.139 C 
BRANCH   8   9
ATOM      9  C   UNL A   1      32.710  26.123  25.975  1.00  0.00     0.005 A 
ATOM     10  C   UNL A   1      37.578  20.784  24.834  1.00  0.00     0.045 C 
ATOM     11  C   UNL A   1      36.162  21.261  25.022  1.00  0.00    -0.044 A 
ATOM     12  C   UNL A   1      35.130  20.308  24.982  1.00  0.00     0.005 A 
ATOM     13  C   UNL A   1      35.844  22.626  25.215  1.00  0.00    -0.005 A 
ATOM     14  C   UNL A   1      33.802  20.688  25.151  1.00  0.00     0.016 A 
ATOM     15  C   UNL A   1      34.494  22.999  25.397  1.00  0.00     0.141 A 
ATOM     16  C   UNL A   1      36.907  23.694  25.267  1.00  0.00     0.049 C 
ATOM     17  C   UNL A   1      33.492  22.030  25.361  1.00  0.00     0.066 A 
ATOM     18  O   UNL A   1      34.233  24.336  25.607  1.00  0.00    -0.455 OA
ATOM     19  C   UNL A   1      32.097  22.443  25.537  1.00  0.00     0.200 A 
ATOM     20  C   UNL A   1      32.933  24.749  25.777  1.00  0.00     0.142 A 
ATOM     21  O   UNL A   1      31.177  21.634  25.493  1.00  0.00    -0.288 OA
ATOM     22  C   UNL A   1      31.848  23.872  25.753  1.00  0.00     0.066 A 
ATOM     23  C   UNL A   1      30.540  24.336  25.921  1.00  0.00     0.016 A 
ATOM     24  C   UNL A   1      31.384  26.586  26.099  1.00  0.00     0.008 A 
ATOM     25  C   UNL A   1      30.309  25.698  26.088  1.00  0.00     0.001 A 
ENDBRANCH   8   9
ENDBRANCH   5   8
ENDBRANCH   3   4
ENDBRANCH   2   3
ENDBRANCH   1   2
BRANCH   1  26
ATOM     26  N   UNL A   1      35.521  29.838  29.522  1.00  0.00    -0.352 N 
ATOM     27  C   UNL A   1      36.545  29.783  30.439  1.00  0.00     0.251 C 
ATOM     28  H   UNL A   1      34.632  30.018  29.903  1.00  0.00     0.163 HD
ATOM     29  O   UNL A   1      36.282  29.805  31.638  1.00  0.00    -0.269 OA
BRANCH  27  30
ATOM     30  C   UNL A   1      37.949  29.659  29.989  1.00  0.00     0.039 A 
ATOM     31  C   UNL A   1      38.318  30.003  28.688  1.00  0.00     0.014 A 
ATOM     32  C   UNL A   1      38.913  29.175  30.879  1.00  0.00     0.014 A 
ATOM     33  C   UNL A   1      39.585  29.674  28.220  1.00  0.00     0.010 A 
ATOM     34  C   UNL A   1      40.219  28.944  30.433  1.00  0.00     0.010 A 
ATOM     35  C   UNL A   1      40.551  29.133  29.083  1.00  0.00    -0.014 A 
BRANCH  35  36
ATOM     36  C   UNL A   1      41.887  28.759  28.543  1.00  0.00     0.031 A 
ATOM     37  C   UNL A   1      43.032  29.741  28.570  1.00  0.00     0.074 A 
ATOM     38  C   UNL A   1      42.090  27.504  28.093  1.00  0.00     0.049 A 
ATOM     39  N   UNL A   1      44.272  29.565  28.191  1.00  0.00    -0.248 NA
ATOM     40  C   UNL A   1      42.753  31.093  29.085  1.00  0.00     0.031 C 
ATOM     41  C   UNL A   1      41.066  26.458  28.039  1.00  0.00     0.029 A 
ATOM     42  N   UNL A   1      43.224  26.881  27.633  1.00  0.00    -0.354 N 
ATOM     43  C   UNL A   1      44.917  30.777  28.414  1.00  0.00     0.074 A 
ATOM     44  C   UNL A   1      43.922  31.698  28.916  1.00  0.00     0.031 C 
ATOM     45  C   UNL A   1      41.633  25.309  27.646  1.00  0.00     0.029 A 
ATOM     46  C   UNL A   1      43.040  25.549  27.341  1.00  0.00     0.049 A 
ATOM     47  H   UNL A   1      44.086  27.343  27.524  1.00  0.00     0.167 HD
ATOM     48  C   UNL A   1      46.224  31.088  28.238  1.00  0.00     0.031 A 
ATOM     49  C   UNL A   1      43.899  24.618  26.877  1.00  0.00     0.031 A 
ATOM     50  C   UNL A   1      47.213  30.158  27.754  1.00  0.00     0.049 A 
ATOM     51  C   UNL A   1      45.331  25.002  26.637  1.00  0.00     0.074 A 
ATOM     52  C   UNL A   1      48.565  30.378  27.554  1.00  0.00     0.029 A 
ATOM     53  N   UNL A   1      46.968  28.838  27.406  1.00  0.00    -0.354 N 
ATOM     54  N   UNL A   1      45.921  26.151  26.863  1.00  0.00    -0.248 NA
ATOM     55  C   UNL A   1      46.218  23.967  26.087  1.00  0.00     0.031 C 
ATOM     56  C   UNL A   1      49.121  29.218  27.013  1.00  0.00     0.029 A 
ATOM     57  C   UNL A   1      48.138  28.242  26.963  1.00  0.00     0.049 A 
ATOM     58  H   UNL A   1      46.093  28.390  27.465  1.00  0.00     0.167 HD
ATOM     59  C   UNL A   1      47.253  25.972  26.504  1.00  0.00     0.074 A 
ATOM     60  C   UNL A   1      47.386  24.597  26.066  1.00  0.00     0.031 C 
ATOM     61  C   UNL A   1      48.268  26.870  26.533  1.00  0.00     0.031 A 
BRANCH  48  62
ATOM     62  C   UNL A   1      46.686  32.485  28.575  1.00  0.00    -0.014 A 
ATOM     63  C   UNL A   1      46.709  33.475  27.574  1.00  0.00     0.010 A 
ATOM     64  C   UNL A   1      47.228  32.784  29.839  1.00  0.00     0.010 A 
ATOM     65  C   UNL A   1      47.302  34.718  27.814  1.00  0.00     0.020 A 
ATOM     66  C   UNL A   1      47.790  34.039  30.093  1.00  0.00     0.020 A 
ATOM     67  C   UNL A   1      47.849  34.988  29.070  1.00  0.00     0.054 A 
BRANCH  67  68
ATOM     68  S   UNL A   1      48.652  36.592  29.347  1.00  0.00     0.124 S 
ATOM     69  O   UNL A   1      49.466  36.329  30.529  1.00  0.00    -0.237 OA
ATOM     70  O   UNL A   1      49.390  36.796  28.103  1.00  0.00    -0.237 OA
ATOM     71  O   UNL A   1      47.529  37.505  29.552  1.00  0.00    -0.744 OA
ENDBRANCH  67  68
ENDBRANCH  48  62
BRANCH  49  72
ATOM     72  C   UNL A   1      43.409  23.227  26.649  1.00  0.00    -0.014 A 
ATOM     73  C   UNL A   1      42.901  22.467  27.720  1.00  0.00     0.010 A 
ATOM     74  C   UNL A   1      43.536  22.624  25.386  1.00  0.00     0.010 A 
ATOM     75  C   UNL A   1      42.597  21.114  27.551  1.00  0.00     0.020 A 
ATOM     76  C   UNL A   1      43.196  21.279  25.203  1.00  0.00     0.020 A 
ATOM     77  C   UNL A   1      42.762  20.525  26.296  1.00  0.00     0.054 A 
BRANCH  77  78
ATOM     78  S   UNL A   1      42.428  18.750  26.120  1.00  0.00     0.124 S 
ATOM     79  O   UNL A   1      41.026  18.749  25.710  1.00  0.00    -0.237 OA
ATOM     80  O   UNL A   1      43.384  18.347  25.093  1.00  0.00    -0.237 OA
ATOM     81  O   UNL A   1      42.688  18.218  27.455  1.00  0.00    -0.744 OA
ENDBRANCH  77  78
ENDBRANCH  49  72
BRANCH  61  82
ATOM     82  C   UNL A   1      49.638  26.418  26.090  1.00  0.00    -0.014 A 
ATOM     83  C   UNL A   1      50.488  25.771  27.008  1.00  0.00     0.010 A 
ATOM     84  C   UNL A   1      50.137  26.755  24.820  1.00  0.00     0.010 A 
ATOM     85  C   UNL A   1      51.821  25.512  26.683  1.00  0.00     0.020 A 
ATOM     86  C   UNL A   1      51.461  26.463  24.477  1.00  0.00     0.020 A 
ATOM     87  C   UNL A   1      52.301  25.870  25.422  1.00  0.00     0.054 A 
BRANCH  87  88
ATOM     88  S   UNL A   1      54.048  25.566  25.035  1.00  0.00     0.124 S 
ATOM     89  O   UNL A   1      54.144  26.034  23.655  1.00  0.00    -0.237 OA
ATOM     90  O   UNL A   1      54.742  26.384  26.026  1.00  0.00    -0.237 OA
ATOM     91  O   UNL A   1      54.194  24.123  25.216  1.00  0.00    -0.744 OA
ENDBRANCH  87  88
ENDBRANCH  61  82
ENDBRANCH  35  36
ENDBRANCH  27  30
ENDBRANCH   1  26
TORSDOF 14
ENDMDL
MODEL 3
REMARK VINA RESULT:      -9.0      5.284     11.743
REMARK SMILES Cc1ccc2c(=O)c3cccc(CC(=O)NCCCNC(=O)c4ccc(-c5c6nc(c(-c7ccc(S(=O)(=O)[O-])cc7)c7ccc([nH]7)c(-c7ccc(S(=O)(=O)[O-])cc7)c7nc(c(-c8ccc(S(=O)(=O)[O-])cc8)c8ccc5[nH]8)C=C7)C=C6)cc4)c3oc2c1C
REMARK SMILES IDX 19 1 18 2 17 3 16 4 14 5 15 6 13 8 12 9 1 10 2 11 3 12 86 13
REMARK SMILES IDX 4 14 85 15 87 16 5 17 84 18 6 19 83 20 7 21 8 22 9 23 11 24
REMARK SMILES IDX 10 25 20 26 21 27 22 29 23 30 24 31 82 32 25 33 81 34 26 35
REMARK SMILES IDX 27 36 28 37 75 38 29 39 80 40 74 41 76 42 30 43 79 44 73 45
REMARK SMILES IDX 72 46 31 48 61 49 42 50 60 51 43 52 46 53 59 54 77 55 44 56
REMARK SMILES IDX 45 57 58 59 78 60 47 61 32 62 33 63 41 64 34 65 40 66 35 67
REMARK SMILES IDX 36 68 37 69 38 70 39 71 62 72 63 73 71 74 64 75 70 76 65 77
REMARK SMILES IDX 66 78 67 79 68 80 69 81 48 82 49 83 57 84 50 85 56 86 51 87
REMARK SMILES IDX 52 88 53 89 54 90 55 91
REMARK H PARENT 16 7 20 28 76 47 46 58
REMARK Flexibility Score: inf
ROOT
ATOM      1  C   UNL A   1      35.951  32.120  29.040  1.00  0.00     0.118 C 
ENDROOT
BRANCH   1   2
ATOM      2  C   UNL A   1      34.943  31.836  27.931  1.00  0.00     0.042 C 
BRANCH   2   3
ATOM      3  C   UNL A   1      34.741  30.353  27.643  1.00  0.00     0.117 C 
BRANCH   3   4
ATOM      4  N   UNL A   1      33.339  29.981  27.622  1.00  0.00    -0.356 N 
ATOM      5  C   UNL A   1      32.748  28.855  27.127  1.00  0.00     0.224 C 
ATOM      6  O   UNL A   1      31.527  28.737  27.256  1.00  0.00    -0.275 OA
ATOM      7  H   UNL A   1      32.724  30.637  28.022  1.00  0.00     0.163 HD
BRANCH   5   8
ATOM      8  C   UNL A   1      33.589  27.746  26.517  1.00  0.00     0.139 C 
BRANCH   8   9
ATOM      9  C   UNL A   1      33.623  27.722  25.004  1.00  0.00     0.005 A 
ATOM     10  C   UNL A   1      32.544  20.490  25.197  1.00  0.00     0.045 C 
ATOM     11  C   UNL A   1      32.736  21.775  24.437  1.00  0.00    -0.044 A 
ATOM     12  C   UNL A   1      32.730  21.724  23.033  1.00  0.00     0.005 A 
ATOM     13  C   UNL A   1      32.938  23.015  25.089  1.00  0.00    -0.005 A 
ATOM     14  C   UNL A   1      32.901  22.880  22.276  1.00  0.00     0.016 A 
ATOM     15  C   UNL A   1      33.099  24.183  24.311  1.00  0.00     0.141 A 
ATOM     16  C   UNL A   1      32.954  23.133  26.592  1.00  0.00     0.049 C 
ATOM     17  C   UNL A   1      33.081  24.102  22.919  1.00  0.00     0.066 A 
ATOM     18  O   UNL A   1      33.268  25.372  24.988  1.00  0.00    -0.455 OA
ATOM     19  C   UNL A   1      33.265  25.326  22.134  1.00  0.00     0.200 A 
ATOM     20  C   UNL A   1      33.440  26.534  24.275  1.00  0.00     0.142 A 
ATOM     21  O   UNL A   1      33.278  25.306  20.908  1.00  0.00    -0.288 OA
ATOM     22  C   UNL A   1      33.448  26.575  22.880  1.00  0.00     0.066 A 
ATOM     23  C   UNL A   1      33.636  27.779  22.194  1.00  0.00     0.016 A 
ATOM     24  C   UNL A   1      33.856  28.922  24.303  1.00  0.00     0.008 A 
ATOM     25  C   UNL A   1      33.846  28.953  22.909  1.00  0.00     0.001 A 
ENDBRANCH   8   9
ENDBRANCH   5   8
ENDBRANCH   3   4
ENDBRANCH   2   3
ENDBRANCH   1   2
BRANCH   1  26
ATOM     26  N   UNL A   1      35.804  31.235  30.191  1.00  0.00    -0.352 N 
ATOM     27  C   UNL A   1      36.661  30.283  30.693  1.00  0.00     0.251 C 
ATOM     28  H   UNL A   1      34.959  31.335  30.685  1.00  0.00     0.163 HD
ATOM     29  O   UNL A   1      36.276  29.541  31.593  1.00  0.00    -0.269 OA
BRANCH  27  30
ATOM     30  C   UNL A   1      38.021  30.128  30.132  1.00  0.00     0.039 A 
ATOM     31  C   UNL A   1      38.223  30.044  28.754  1.00  0.00     0.014 A 
ATOM     32  C   UNL A   1      39.114  30.047  31.000  1.00  0.00     0.014 A 
ATOM     33  C   UNL A   1      39.470  29.680  28.260  1.00  0.00     0.010 A 
ATOM     34  C   UNL A   1      40.391  29.785  30.491  1.00  0.00     0.010 A 
ATOM     35  C   UNL A   1      40.570  29.537  29.122  1.00  0.00    -0.014 A 
BRANCH  35  36
ATOM     36  C   UNL A   1      41.884  29.112  28.566  1.00  0.00     0.031 A 
ATOM     37  C   UNL A   1      43.054  30.064  28.538  1.00  0.00     0.074 A 
ATOM     38  C   UNL A   1      42.045  27.838  28.152  1.00  0.00     0.049 A 
ATOM     39  N   UNL A   1      44.281  29.843  28.139  1.00  0.00    -0.248 NA
ATOM     40  C   UNL A   1      42.821  31.438  29.015  1.00  0.00     0.031 C 
ATOM     41  C   UNL A   1      40.994  26.818  28.153  1.00  0.00     0.029 A 
ATOM     42  N   UNL A   1      43.152  27.171  27.689  1.00  0.00    -0.354 N 
ATOM     43  C   UNL A   1      44.961  31.044  28.310  1.00  0.00     0.074 A 
ATOM     44  C   UNL A   1      44.001  32.006  28.803  1.00  0.00     0.031 C 
ATOM     45  C   UNL A   1      41.522  25.643  27.785  1.00  0.00     0.029 A 
ATOM     46  C   UNL A   1      42.928  25.836  27.443  1.00  0.00     0.049 A 
ATOM     47  H   UNL A   1      44.023  27.607  27.547  1.00  0.00     0.167 HD
ATOM     48  C   UNL A   1      46.271  31.314  28.097  1.00  0.00     0.031 A 
ATOM     49  C   UNL A   1      43.752  24.869  26.992  1.00  0.00     0.031 A 
ATOM     50  C   UNL A   1      47.226  30.344  27.623  1.00  0.00     0.049 A 
ATOM     51  C   UNL A   1      45.188  25.207  26.709  1.00  0.00     0.074 A 
ATOM     52  C   UNL A   1      48.578  30.521  27.387  1.00  0.00     0.029 A 
ATOM     53  N   UNL A   1      46.939  29.020  27.321  1.00  0.00    -0.354 N 
ATOM     54  N   UNL A   1      45.812  26.347  26.886  1.00  0.00    -0.248 NA
ATOM     55  C   UNL A   1      46.036  24.132  26.175  1.00  0.00     0.031 C 
ATOM     56  C   UNL A   1      49.093  29.331  26.872  1.00  0.00     0.029 A 
ATOM     57  C   UNL A   1      48.084  28.381  26.873  1.00  0.00     0.049 A 
ATOM     58  H   UNL A   1      46.055  28.598  27.413  1.00  0.00     0.167 HD
ATOM     59  C   UNL A   1      47.131  26.122  26.506  1.00  0.00     0.074 A 
ATOM     60  C   UNL A   1      47.219  24.731  26.109  1.00  0.00     0.031 C 
ATOM     61  C   UNL A   1      48.169  26.992  26.485  1.00  0.00     0.031 A 
BRANCH  48  62
ATOM     62  C   UNL A   1      46.777  32.708  28.379  1.00  0.00    -0.014 A 
ATOM     63  C   UNL A   1      46.786  33.671  27.352  1.00  0.00     0.010 A 
ATOM     64  C   UNL A   1      47.370  33.028  29.615  1.00  0.00     0.010 A 
ATOM     65  C   UNL A   1      47.415  34.905  27.537  1.00  0.00     0.020 A 
ATOM     66  C   UNL A   1      47.969  34.276  29.815  1.00  0.00     0.020 A 
ATOM     67  C   UNL A   1      48.012  35.196  28.766  1.00  0.00     0.054 A 
BRANCH  67  68
ATOM     68  S   UNL A   1      48.860  36.787  28.971  1.00  0.00     0.124 S 
ATOM     69  O   UNL A   1      50.262  36.412  28.819  1.00  0.00    -0.237 OA
ATOM     70  O   UNL A   1      48.299  37.588  27.886  1.00  0.00    -0.237 OA
ATOM     71  O   UNL A   1      48.469  37.213  30.313  1.00  0.00    -0.744 OA
ENDBRANCH  67  68
ENDBRANCH  48  62
BRANCH  49  72
ATOM     72  C   UNL A   1      43.222  23.485  26.818  1.00  0.00    -0.014 A 
ATOM     73  C   UNL A   1      43.032  22.650  27.936  1.00  0.00     0.010 A 
ATOM     74  C   UNL A   1      42.995  22.963  25.533  1.00  0.00     0.010 A 
ATOM     75  C   UNL A   1      42.697  21.304  27.771  1.00  0.00     0.020 A 
ATOM     76  C   UNL A   1      42.621  21.625  25.365  1.00  0.00     0.020 A 
ATOM     77  C   UNL A   1      42.509  20.796  26.483  1.00  0.00     0.054 A 
BRANCH  77  78
ATOM     78  S   UNL A   1      42.144  19.029  26.293  1.00  0.00     0.124 S 
ATOM     79  O   UNL A   1      42.270  18.548  27.666  1.00  0.00    -0.237 OA
ATOM     80  O   UNL A   1      40.788  19.042  25.753  1.00  0.00    -0.237 OA
ATOM     81  O   UNL A   1      43.176  18.564  25.370  1.00  0.00    -0.744 OA
ENDBRANCH  77  78
ENDBRANCH  49  72
BRANCH  61  82
ATOM     82  C   UNL A   1      49.517  26.491  26.029  1.00  0.00    -0.014 A 
ATOM     83  C   UNL A   1      50.384  25.883  26.957  1.00  0.00     0.010 A 
ATOM     84  C   UNL A   1      49.982  26.744  24.726  1.00  0.00     0.010 A 
ATOM     85  C   UNL A   1      51.702  25.581  26.608  1.00  0.00     0.020 A 
ATOM     86  C   UNL A   1      51.290  26.409  24.361  1.00  0.00     0.020 A 
ATOM     87  C   UNL A   1      52.149  25.857  25.314  1.00  0.00     0.054 A 
BRANCH  87  88
ATOM     88  S   UNL A   1      53.878  25.500  24.893  1.00  0.00     0.124 S 
ATOM     89  O   UNL A   1      54.605  26.288  25.883  1.00  0.00    -0.237 OA
ATOM     90  O   UNL A   1      53.956  24.051  25.062  1.00  0.00    -0.237 OA
ATOM     91  O   UNL A   1      53.999  25.966  23.513  1.00  0.00    -0.744 OA
ENDBRANCH  87  88
ENDBRANCH  61  82
ENDBRANCH  35  36
ENDBRANCH  27  30
ENDBRANCH   1  26
TORSDOF 14
ENDMDL
