MODEL 1
REMARK VINA RESULT:     -13.1      0.000      0.000
REMARK SMILES O=C(NCCCNC(=O)[C@H]1CC2=c3ccccc3=N[C@H]2[C@@H](c2ccccc2)[NH2+]1)c1ccc(-c2c3nc(c(-c4ccc(S(=O)(=O)[O-])cc4)c4ccc([nH]4)c(-c4ccc(S(=O)(=O)[O-])cc4)c4nc(c(-c5ccc(S(=O)(=O)[O-])cc5)c5ccc2[nH]5)C=C4)C=C3)cc1
REMARK SMILES IDX 4 1 3 2 1 3 2 4 29 6 30 7 88 8 31 9 87 10 32 11 33 12 34 13
REMARK SMILES IDX 81 14 35 15 86 16 80 17 82 18 36 19 85 20 79 21 78 22 37 24
REMARK SMILES IDX 67 25 48 26 66 27 49 28 52 29 65 30 83 31 50 32 51 33 64 35
REMARK SMILES IDX 84 36 53 37 38 38 39 39 47 40 40 41 46 42 41 43 42 44 43 45
REMARK SMILES IDX 44 46 45 47 68 48 69 49 77 50 70 51 76 52 71 53 72 54 73 55
REMARK SMILES IDX 74 56 75 57 54 58 55 59 63 60 56 61 62 62 57 63 58 64 59 65
REMARK SMILES IDX 60 66 61 67 5 68 6 69 7 70 8 71 9 73 10 74 11 75 28 76 12 77
REMARK SMILES IDX 21 78 13 81 20 82 14 83 18 84 19 85 15 86 17 87 16 88 22 89
REMARK SMILES IDX 23 90 27 91 24 92 26 93 25 94
REMARK H PARENT 3 5 82 23 52 34 7 72 28 79 28 80
REMARK Flexibility Score: inf
ROOT
ATOM      1  C   UNL A   1      36.632  23.246  25.313  1.00  0.00     0.118 C 
ENDROOT
BRANCH   1   2
ATOM      2  N   UNL A   1      37.762  22.395  25.656  1.00  0.00    -0.352 N 
ATOM      3  O   UNL A   1      39.841  21.803  26.224  1.00  0.00    -0.269 OA
ATOM      4  C   UNL A   1      38.985  22.687  26.216  1.00  0.00     0.251 C 
ATOM      5  H   UNL A   1      37.628  21.442  25.451  1.00  0.00     0.163 HD
BRANCH   4   6
ATOM      6  C   UNL A   1      39.310  24.014  26.806  1.00  0.00     0.039 A 
ATOM      7  C   UNL A   1      40.024  24.931  26.021  1.00  0.00     0.014 A 
ATOM      8  C   UNL A   1      39.034  24.339  28.136  1.00  0.00     0.014 A 
ATOM      9  C   UNL A   1      40.433  26.162  26.552  1.00  0.00     0.010 A 
ATOM     10  C   UNL A   1      39.383  25.597  28.647  1.00  0.00     0.010 A 
ATOM     11  C   UNL A   1      40.107  26.514  27.870  1.00  0.00    -0.014 A 
BRANCH  11  12
ATOM     12  C   UNL A   1      40.559  27.806  28.462  1.00  0.00     0.031 A 
ATOM     13  C   UNL A   1      41.995  27.992  28.877  1.00  0.00     0.074 A 
ATOM     14  C   UNL A   1      39.681  28.813  28.657  1.00  0.00     0.049 A 
ATOM     15  N   UNL A   1      42.560  29.021  29.459  1.00  0.00    -0.248 NA
ATOM     16  C   UNL A   1      42.915  26.872  28.620  1.00  0.00     0.031 C 
ATOM     17  C   UNL A   1      38.264  28.776  28.299  1.00  0.00     0.029 A 
ATOM     18  N   UNL A   1      39.857  30.063  29.201  1.00  0.00    -0.354 N 
ATOM     19  C   UNL A   1      43.891  28.667  29.650  1.00  0.00     0.074 A 
ATOM     20  C   UNL A   1      44.040  27.313  29.165  1.00  0.00     0.031 C 
ATOM     21  C   UNL A   1      37.706  29.958  28.602  1.00  0.00     0.029 A 
ATOM     22  C   UNL A   1      38.710  30.823  29.221  1.00  0.00     0.049 A 
ATOM     23  H   UNL A   1      40.721  30.384  29.545  1.00  0.00     0.167 HD
ATOM     24  C   UNL A   1      44.903  29.407  30.163  1.00  0.00     0.031 A 
ATOM     25  C   UNL A   1      38.480  32.071  29.682  1.00  0.00     0.031 A 
ATOM     26  C   UNL A   1      44.765  30.764  30.621  1.00  0.00     0.049 A 
ATOM     27  C   UNL A   1      39.606  32.864  30.286  1.00  0.00     0.074 A 
ATOM     28  C   UNL A   1      45.753  31.608  31.101  1.00  0.00     0.029 A 
ATOM     29  N   UNL A   1      43.577  31.477  30.660  1.00  0.00    -0.354 N 
ATOM     30  N   UNL A   1      40.863  32.522  30.427  1.00  0.00    -0.248 NA
ATOM     31  C   UNL A   1      39.286  34.206  30.792  1.00  0.00     0.031 C 
ATOM     32  C   UNL A   1      45.151  32.807  31.490  1.00  0.00     0.029 A 
ATOM     33  C   UNL A   1      43.800  32.737  31.191  1.00  0.00     0.049 A 
ATOM     34  H   UNL A   1      42.704  31.138  30.356  1.00  0.00     0.167 HD
ATOM     35  C   UNL A   1      41.489  33.611  31.026  1.00  0.00     0.074 A 
ATOM     36  C   UNL A   1      40.475  34.628  31.210  1.00  0.00     0.031 C 
ATOM     37  C   UNL A   1      42.788  33.747  31.387  1.00  0.00     0.031 A 
BRANCH  24  38
ATOM     38  C   UNL A   1      46.267  28.771  30.258  1.00  0.00    -0.014 A 
ATOM     39  C   UNL A   1      47.151  28.849  29.167  1.00  0.00     0.010 A 
ATOM     40  C   UNL A   1      46.641  28.021  31.389  1.00  0.00     0.010 A 
ATOM     41  C   UNL A   1      48.379  28.181  29.197  1.00  0.00     0.020 A 
ATOM     42  C   UNL A   1      47.880  27.376  31.434  1.00  0.00     0.020 A 
ATOM     43  C   UNL A   1      48.734  27.446  30.330  1.00  0.00     0.054 A 
BRANCH  43  44
ATOM     44  S   UNL A   1      50.337  26.598  30.360  1.00  0.00     0.124 S 
ATOM     45  O   UNL A   1      50.912  26.979  29.075  1.00  0.00    -0.237 OA
ATOM     46  O   UNL A   1      50.983  27.172  31.538  1.00  0.00    -0.237 OA
ATOM     47  O   UNL A   1      49.973  25.188  30.490  1.00  0.00    -0.744 OA
ENDBRANCH  43  44
ENDBRANCH  24  38
BRANCH  25  48
ATOM     48  C   UNL A   1      37.113  32.643  29.541  1.00  0.00    -0.014 A 
ATOM     49  C   UNL A   1      36.710  33.241  28.333  1.00  0.00     0.010 A 
ATOM     50  C   UNL A   1      36.257  32.704  30.654  1.00  0.00     0.010 A 
ATOM     51  C   UNL A   1      35.512  33.957  28.262  1.00  0.00     0.020 A 
ATOM     52  C   UNL A   1      35.045  33.398  30.580  1.00  0.00     0.020 A 
ATOM     53  C   UNL A   1      34.700  34.052  29.396  1.00  0.00     0.054 A 
BRANCH  53  54
ATOM     54  S   UNL A   1      33.206  35.079  29.309  1.00  0.00     0.124 S 
ATOM     55  O   UNL A   1      32.418  34.373  28.302  1.00  0.00    -0.237 OA
ATOM     56  O   UNL A   1      32.694  35.018  30.669  1.00  0.00    -0.237 OA
ATOM     57  O   UNL A   1      33.717  36.388  28.894  1.00  0.00    -0.744 OA
ENDBRANCH  53  54
ENDBRANCH  25  48
BRANCH  37  58
ATOM     58  C   UNL A   1      43.224  35.033  32.041  1.00  0.00    -0.014 A 
ATOM     59  C   UNL A   1      42.964  35.247  33.408  1.00  0.00     0.010 A 
ATOM     60  C   UNL A   1      43.746  36.087  31.272  1.00  0.00     0.010 A 
ATOM     61  C   UNL A   1      43.171  36.503  33.983  1.00  0.00     0.020 A 
ATOM     62  C   UNL A   1      43.980  37.338  31.850  1.00  0.00     0.020 A 
ATOM     63  C   UNL A   1      43.663  37.547  33.194  1.00  0.00     0.054 A 
BRANCH  63  64
ATOM     64  S   UNL A   1      43.870  39.187  33.942  1.00  0.00     0.124 S 
ATOM     65  O   UNL A   1      42.640  39.865  33.545  1.00  0.00    -0.237 OA
ATOM     66  O   UNL A   1      43.986  38.879  35.366  1.00  0.00    -0.237 OA
ATOM     67  O   UNL A   1      45.091  39.695  33.322  1.00  0.00    -0.744 OA
ENDBRANCH  63  64
ENDBRANCH  37  58
ENDBRANCH  11  12
ENDBRANCH   4   6
ENDBRANCH   1   2
BRANCH   1  68
ATOM     68  C   UNL A   1      36.319  23.230  23.816  1.00  0.00     0.042 C 
BRANCH  68  69
ATOM     69  C   UNL A   1      34.968  23.833  23.417  1.00  0.00     0.118 C 
BRANCH  69  70
ATOM     70  N   UNL A   1      34.578  24.936  24.291  1.00  0.00    -0.351 N 
ATOM     71  C   UNL A   1      33.768  26.023  24.192  1.00  0.00     0.278 C 
ATOM     72  H   UNL A   1      35.011  24.878  25.173  1.00  0.00     0.163 HD
ATOM     73  O   UNL A   1      33.831  26.795  25.164  1.00  0.00    -0.268 OA
BRANCH  71  74
ATOM     74  C   UNL A   1      32.785  26.381  23.042  1.00  0.00     0.277 C 
ATOM     75  C   UNL A   1      32.106  25.092  22.465  1.00  0.00     0.109 C 
ATOM     76  N   UNL A   1      31.880  27.528  23.283  1.00  0.00    -0.327 N 
ATOM     77  C   UNL A   1      30.956  24.736  23.356  1.00  0.00    -0.024 C 
ATOM     78  C   UNL A   1      30.460  27.165  23.132  1.00  0.00     0.243 C 
ATOM     79  H   UNL A   1      32.103  28.267  22.614  1.00  0.00     0.347 HD
ATOM     80  H   UNL A   1      32.021  27.838  24.244  1.00  0.00     0.347 HD
ATOM     81  C   UNL A   1      30.965  23.743  24.234  1.00  0.00     0.002 A 
ATOM     82  C   UNL A   1      30.003  25.821  23.777  1.00  0.00     0.196 C 
ATOM     83  C   UNL A   1      31.690  22.520  24.323  1.00  0.00     0.010 A 
ATOM     84  C   UNL A   1      30.453  24.460  25.425  1.00  0.00     0.066 A 
ATOM     85  N   UNL A   1      29.985  25.673  25.262  1.00  0.00    -0.270 NA
ATOM     86  C   UNL A   1      31.845  21.946  25.524  1.00  0.00     0.001 A 
ATOM     87  C   UNL A   1      30.684  23.762  26.718  1.00  0.00     0.028 A 
ATOM     88  C   UNL A   1      31.351  22.592  26.728  1.00  0.00     0.002 A 
BRANCH  78  89
ATOM     89  C   UNL A   1      29.541  28.369  23.230  1.00  0.00     0.012 A 
ATOM     90  C   UNL A   1      30.003  29.674  23.420  1.00  0.00     0.010 A 
ATOM     91  C   UNL A   1      28.151  28.171  23.066  1.00  0.00     0.010 A 
ATOM     92  C   UNL A   1      29.101  30.746  23.432  1.00  0.00     0.001 A 
ATOM     93  C   UNL A   1      27.254  29.235  23.088  1.00  0.00     0.001 A 
ATOM     94  C   UNL A   1      27.732  30.527  23.266  1.00  0.00     0.000 A 
ENDBRANCH  78  89
ENDBRANCH  71  74
ENDBRANCH  69  70
ENDBRANCH  68  69
ENDBRANCH   1  68
TORSDOF 14
ENDMDL
MODEL 2
REMARK VINA RESULT:     -13.1      2.948      9.663
REMARK SMILES O=C(NCCCNC(=O)[C@H]1CC2=c3ccccc3=N[C@H]2[C@@H](c2ccccc2)[NH2+]1)c1ccc(-c2c3nc(c(-c4ccc(S(=O)(=O)[O-])cc4)c4ccc([nH]4)c(-c4ccc(S(=O)(=O)[O-])cc4)c4nc(c(-c5ccc(S(=O)(=O)[O-])cc5)c5ccc2[nH]5)C=C4)C=C3)cc1
REMARK SMILES IDX 4 1 3 2 1 3 2 4 29 6 30 7 88 8 31 9 87 10 32 11 33 12 34 13
REMARK SMILES IDX 81 14 35 15 86 16 80 17 82 18 36 19 85 20 79 21 78 22 37 24
REMARK SMILES IDX 67 25 48 26 66 27 49 28 52 29 65 30 83 31 50 32 51 33 64 35
REMARK SMILES IDX 84 36 53 37 38 38 39 39 47 40 40 41 46 42 41 43 42 44 43 45
REMARK SMILES IDX 44 46 45 47 68 48 69 49 77 50 70 51 76 52 71 53 72 54 73 55
REMARK SMILES IDX 74 56 75 57 54 58 55 59 63 60 56 61 62 62 57 63 58 64 59 65
REMARK SMILES IDX 60 66 61 67 5 68 6 69 7 70 8 71 9 73 10 74 11 75 28 76 12 77
REMARK SMILES IDX 21 78 13 81 20 82 14 83 18 84 19 85 15 86 17 87 16 88 22 89
REMARK SMILES IDX 23 90 27 91 24 92 26 93 25 94
REMARK H PARENT 3 5 82 23 52 34 7 72 28 79 28 80
REMARK Flexibility Score: inf
ROOT
ATOM      1  C   UNL A   1      33.523  28.242  26.869  1.00  0.00     0.118 C 
ENDROOT
BRANCH   1   2
ATOM      2  N   UNL A   1      33.467  29.691  26.997  1.00  0.00    -0.352 N 
ATOM      3  O   UNL A   1      33.935  31.746  27.740  1.00  0.00    -0.269 OA
ATOM      4  C   UNL A   1      34.316  30.583  27.611  1.00  0.00     0.251 C 
ATOM      5  H   UNL A   1      32.685  30.105  26.568  1.00  0.00     0.163 HD
BRANCH   4   6
ATOM      6  C   UNL A   1      35.662  30.203  28.122  1.00  0.00     0.039 A 
ATOM      7  C   UNL A   1      36.751  30.282  27.243  1.00  0.00     0.014 A 
ATOM      8  C   UNL A   1      35.864  29.670  29.397  1.00  0.00     0.014 A 
ATOM      9  C   UNL A   1      38.025  29.856  27.642  1.00  0.00     0.010 A 
ATOM     10  C   UNL A   1      37.150  29.307  29.820  1.00  0.00     0.010 A 
ATOM     11  C   UNL A   1      38.242  29.374  28.941  1.00  0.00    -0.014 A 
BRANCH  11  12
ATOM     12  C   UNL A   1      39.583  28.888  29.374  1.00  0.00     0.031 A 
ATOM     13  C   UNL A   1      40.457  29.746  30.252  1.00  0.00     0.074 A 
ATOM     14  C   UNL A   1      40.041  27.687  28.963  1.00  0.00     0.049 A 
ATOM     15  N   UNL A   1      41.672  29.518  30.684  1.00  0.00    -0.248 NA
ATOM     16  C   UNL A   1      39.899  31.036  30.691  1.00  0.00     0.031 C 
ATOM     17  C   UNL A   1      39.304  26.749  28.117  1.00  0.00     0.029 A 
ATOM     18  N   UNL A   1      41.235  27.050  29.206  1.00  0.00    -0.354 N 
ATOM     19  C   UNL A   1      42.029  30.637  31.428  1.00  0.00     0.074 A 
ATOM     20  C   UNL A   1      40.921  31.563  31.353  1.00  0.00     0.031 C 
ATOM     21  C   UNL A   1      40.046  25.646  27.937  1.00  0.00     0.029 A 
ATOM     22  C   UNL A   1      41.332  25.812  28.614  1.00  0.00     0.049 A 
ATOM     23  H   UNL A   1      41.953  27.444  29.752  1.00  0.00     0.167 HD
ATOM     24  C   UNL A   1      43.165  30.866  32.128  1.00  0.00     0.031 A 
ATOM     25  C   UNL A   1      42.335  24.908  28.607  1.00  0.00     0.031 A 
ATOM     26  C   UNL A   1      44.259  29.936  32.229  1.00  0.00     0.049 A 
ATOM     27  C   UNL A   1      43.606  25.196  29.356  1.00  0.00     0.074 A 
ATOM     28  C   UNL A   1      45.423  30.063  32.966  1.00  0.00     0.029 A 
ATOM     29  N   UNL A   1      44.329  28.713  31.579  1.00  0.00    -0.354 N 
ATOM     30  N   UNL A   1      43.909  26.246  30.080  1.00  0.00    -0.248 NA
ATOM     31  C   UNL A   1      44.669  24.183  29.290  1.00  0.00     0.031 C 
ATOM     32  C   UNL A   1      46.226  28.949  32.712  1.00  0.00     0.029 A 
ATOM     33  C   UNL A   1      45.535  28.094  31.869  1.00  0.00     0.049 A 
ATOM     34  H   UNL A   1      43.628  28.340  30.997  1.00  0.00     0.167 HD
ATOM     35  C   UNL A   1      45.193  26.015  30.567  1.00  0.00     0.074 A 
ATOM     36  C   UNL A   1      45.604  24.721  30.065  1.00  0.00     0.031 C 
ATOM     37  C   UNL A   1      45.953  26.811  31.359  1.00  0.00     0.031 A 
BRANCH  24  38
ATOM     38  C   UNL A   1      43.295  32.180  32.856  1.00  0.00    -0.014 A 
ATOM     39  C   UNL A   1      42.795  32.306  34.165  1.00  0.00     0.010 A 
ATOM     40  C   UNL A   1      43.829  33.314  32.217  1.00  0.00     0.010 A 
ATOM     41  C   UNL A   1      42.815  33.541  34.819  1.00  0.00     0.020 A 
ATOM     42  C   UNL A   1      43.877  34.545  32.878  1.00  0.00     0.020 A 
ATOM     43  C   UNL A   1      43.353  34.655  34.169  1.00  0.00     0.054 A 
BRANCH  43  44
ATOM     44  S   UNL A   1      43.386  36.247  35.036  1.00  0.00     0.124 S 
ATOM     45  O   UNL A   1      44.818  36.489  35.182  1.00  0.00    -0.237 OA
ATOM     46  O   UNL A   1      42.686  37.133  34.109  1.00  0.00    -0.237 OA
ATOM     47  O   UNL A   1      42.668  35.972  36.278  1.00  0.00    -0.744 OA
ENDBRANCH  43  44
ENDBRANCH  24  38
BRANCH  25  48
ATOM     48  C   UNL A   1      42.133  23.624  27.882  1.00  0.00    -0.014 A 
ATOM     49  C   UNL A   1      41.464  22.551  28.501  1.00  0.00     0.010 A 
ATOM     50  C   UNL A   1      42.718  23.428  26.619  1.00  0.00     0.010 A 
ATOM     51  C   UNL A   1      41.453  21.287  27.907  1.00  0.00     0.020 A 
ATOM     52  C   UNL A   1      42.687  22.170  26.010  1.00  0.00     0.020 A 
ATOM     53  C   UNL A   1      42.088  21.099  26.676  1.00  0.00     0.054 A 
BRANCH  53  54
ATOM     54  S   UNL A   1      42.155  19.424  25.981  1.00  0.00     0.124 S 
ATOM     55  O   UNL A   1      42.658  18.653  27.115  1.00  0.00    -0.237 OA
ATOM     56  O   UNL A   1      40.770  19.173  25.611  1.00  0.00    -0.237 OA
ATOM     57  O   UNL A   1      43.086  19.559  24.858  1.00  0.00    -0.744 OA
ENDBRANCH  53  54
ENDBRANCH  25  48
BRANCH  37  58
ATOM     58  C   UNL A   1      47.332  26.340  31.742  1.00  0.00    -0.014 A 
ATOM     59  C   UNL A   1      48.396  26.471  30.829  1.00  0.00     0.010 A 
ATOM     60  C   UNL A   1      47.540  25.628  32.937  1.00  0.00     0.010 A 
ATOM     61  C   UNL A   1      49.626  25.859  31.079  1.00  0.00     0.020 A 
ATOM     62  C   UNL A   1      48.779  25.037  33.203  1.00  0.00     0.020 A 
ATOM     63  C   UNL A   1      49.805  25.131  32.259  1.00  0.00     0.054 A 
BRANCH  63  64
ATOM     64  S   UNL A   1      51.390  24.294  32.541  1.00  0.00     0.124 S 
ATOM     65  O   UNL A   1      52.296  25.054  31.685  1.00  0.00    -0.237 OA
ATOM     66  O   UNL A   1      51.592  24.463  33.978  1.00  0.00    -0.237 OA
ATOM     67  O   UNL A   1      51.133  22.921  32.114  1.00  0.00    -0.744 OA
ENDBRANCH  63  64
ENDBRANCH  37  58
ENDBRANCH  11  12
ENDBRANCH   4   6
ENDBRANCH   1   2
BRANCH   1  68
ATOM     68  C   UNL A   1      32.216  27.650  26.339  1.00  0.00     0.042 C 
BRANCH  68  69
ATOM     69  C   UNL A   1      32.047  26.140  26.537  1.00  0.00     0.118 C 
BRANCH  69  70
ATOM     70  N   UNL A   1      33.248  25.399  26.166  1.00  0.00    -0.351 N 
ATOM     71  C   UNL A   1      33.582  24.089  26.014  1.00  0.00     0.278 C 
ATOM     72  H   UNL A   1      34.008  25.996  25.981  1.00  0.00     0.163 HD
ATOM     73  O   UNL A   1      34.791  23.893  25.807  1.00  0.00    -0.268 OA
BRANCH  71  74
ATOM     74  C   UNL A   1      32.641  22.853  26.046  1.00  0.00     0.277 C 
ATOM     75  C   UNL A   1      31.225  23.212  25.474  1.00  0.00     0.109 C 
ATOM     76  N   UNL A   1      33.216  21.574  25.572  1.00  0.00    -0.327 N 
ATOM     77  C   UNL A   1      31.298  23.136  23.980  1.00  0.00    -0.024 C 
ATOM     78  C   UNL A   1      32.433  20.977  24.475  1.00  0.00     0.243 C 
ATOM     79  H   UNL A   1      33.241  20.917  26.352  1.00  0.00     0.347 HD
ATOM     80  H   UNL A   1      34.152  21.768  25.216  1.00  0.00     0.347 HD
ATOM     81  C   UNL A   1      31.348  24.189  23.176  1.00  0.00     0.002 A 
ATOM     82  C   UNL A   1      31.953  21.941  23.347  1.00  0.00     0.196 C 
ATOM     83  C   UNL A   1      30.910  25.539  23.300  1.00  0.00     0.010 A 
ATOM     84  C   UNL A   1      32.488  23.791  22.317  1.00  0.00     0.066 A 
ATOM     85  N   UNL A   1      32.947  22.569  22.427  1.00  0.00    -0.270 NA
ATOM     86  C   UNL A   1      31.495  26.480  22.547  1.00  0.00     0.001 A 
ATOM     87  C   UNL A   1      33.090  24.900  21.531  1.00  0.00     0.028 A 
ATOM     88  C   UNL A   1      32.608  26.150  21.673  1.00  0.00     0.002 A 
BRANCH  78  89
ATOM     89  C   UNL A   1      32.936  19.598  24.090  1.00  0.00     0.012 A 
ATOM     90  C   UNL A   1      32.312  18.792  23.134  1.00  0.00     0.010 A 
ATOM     91  C   UNL A   1      34.127  19.125  24.686  1.00  0.00     0.010 A 
ATOM     92  C   UNL A   1      32.873  17.558  22.780  1.00  0.00     0.001 A 
ATOM     93  C   UNL A   1      34.678  17.894  24.341  1.00  0.00     0.001 A 
ATOM     94  C   UNL A   1      34.051  17.111  23.380  1.00  0.00     0.000 A 
ENDBRANCH  78  89
ENDBRANCH  71  74
ENDBRANCH  69  70
ENDBRANCH  68  69
ENDBRANCH   1  68
TORSDOF 14
ENDMDL
MODEL 3
REMARK VINA RESULT:     -13.0      2.527      8.783
REMARK SMILES O=C(NCCCNC(=O)[C@H]1CC2=c3ccccc3=N[C@H]2[C@@H](c2ccccc2)[NH2+]1)c1ccc(-c2c3nc(c(-c4ccc(S(=O)(=O)[O-])cc4)c4ccc([nH]4)c(-c4ccc(S(=O)(=O)[O-])cc4)c4nc(c(-c5ccc(S(=O)(=O)[O-])cc5)c5ccc2[nH]5)C=C4)C=C3)cc1
REMARK SMILES IDX 4 1 3 2 1 3 2 4 29 6 30 7 88 8 31 9 87 10 32 11 33 12 34 13
REMARK SMILES IDX 81 14 35 15 86 16 80 17 82 18 36 19 85 20 79 21 78 22 37 24
REMARK SMILES IDX 67 25 48 26 66 27 49 28 52 29 65 30 83 31 50 32 51 33 64 35
REMARK SMILES IDX 84 36 53 37 38 38 39 39 47 40 40 41 46 42 41 43 42 44 43 45
REMARK SMILES IDX 44 46 45 47 68 48 69 49 77 50 70 51 76 52 71 53 72 54 73 55
REMARK SMILES IDX 74 56 75 57 54 58 55 59 63 60 56 61 62 62 57 63 58 64 59 65
REMARK SMILES IDX 60 66 61 67 5 68 6 69 7 70 8 71 9 73 10 74 11 75 28 76 12 77
REMARK SMILES IDX 21 78 13 81 20 82 14 83 18 84 19 85 15 86 17 87 16 88 22 89
REMARK SMILES IDX 23 90 27 91 24 92 26 93 25 94
REMARK H PARENT 3 5 82 23 52 34 7 72 28 79 28 80
REMARK Flexibility Score: inf
ROOT
ATOM      1  C   UNL A   1      33.172  28.448  27.453  1.00  0.00     0.118 C 
ENDROOT
BRANCH   1   2
ATOM      2  N   UNL A   1      33.283  29.886  27.646  1.00  0.00    -0.352 N 
ATOM      3  O   UNL A   1      34.092  31.849  28.347  1.00  0.00    -0.269 OA
ATOM      4  C   UNL A   1      34.325  30.667  28.093  1.00  0.00     0.251 C 
ATOM      5  H   UNL A   1      32.470  30.389  27.415  1.00  0.00     0.163 HD
BRANCH   4   6
ATOM      6  C   UNL A   1      35.707  30.146  28.282  1.00  0.00     0.039 A 
ATOM      7  C   UNL A   1      36.073  29.687  29.555  1.00  0.00     0.014 A 
ATOM      8  C   UNL A   1      36.678  30.200  27.280  1.00  0.00     0.014 A 
ATOM      9  C   UNL A   1      37.385  29.266  29.813  1.00  0.00     0.010 A 
ATOM     10  C   UNL A   1      37.971  29.716  27.519  1.00  0.00     0.010 A 
ATOM     11  C   UNL A   1      38.348  29.265  28.793  1.00  0.00    -0.014 A 
BRANCH  11  12
ATOM     12  C   UNL A   1      39.755  28.849  29.056  1.00  0.00     0.031 A 
ATOM     13  C   UNL A   1      40.716  29.796  29.728  1.00  0.00     0.074 A 
ATOM     14  C   UNL A   1      40.192  27.631  28.672  1.00  0.00     0.049 A 
ATOM     15  N   UNL A   1      41.989  29.632  29.989  1.00  0.00    -0.248 NA
ATOM     16  C   UNL A   1      40.182  31.101  30.149  1.00  0.00     0.031 C 
ATOM     17  C   UNL A   1      39.373  26.612  28.017  1.00  0.00     0.029 A 
ATOM     18  N   UNL A   1      41.431  27.046  28.781  1.00  0.00    -0.354 N 
ATOM     19  C   UNL A   1      42.410  30.815  30.587  1.00  0.00     0.074 A 
ATOM     20  C   UNL A   1      41.270  31.704  30.610  1.00  0.00     0.031 C 
ATOM     21  C   UNL A   1      40.121  25.516  27.811  1.00  0.00     0.029 A 
ATOM     22  C   UNL A   1      41.486  25.768  28.274  1.00  0.00     0.049 A 
ATOM     23  H   UNL A   1      42.207  27.499  29.182  1.00  0.00     0.167 HD
ATOM     24  C   UNL A   1      43.628  31.128  31.091  1.00  0.00     0.031 A 
ATOM     25  C   UNL A   1      42.509  24.892  28.184  1.00  0.00     0.031 A 
ATOM     26  C   UNL A   1      44.758  30.236  31.096  1.00  0.00     0.049 A 
ATOM     27  C   UNL A   1      43.865  25.271  28.712  1.00  0.00     0.074 A 
ATOM     28  C   UNL A   1      46.013  30.451  31.640  1.00  0.00     0.029 A 
ATOM     29  N   UNL A   1      44.777  28.968  30.535  1.00  0.00    -0.354 N 
ATOM     30  N   UNL A   1      44.232  26.381  29.303  1.00  0.00    -0.248 NA
ATOM     31  C   UNL A   1      44.943  24.282  28.563  1.00  0.00     0.031 C 
ATOM     32  C   UNL A   1      46.809  29.341  31.351  1.00  0.00     0.029 A 
ATOM     33  C   UNL A   1      46.034  28.405  30.687  1.00  0.00     0.049 A 
ATOM     34  H   UNL A   1      44.012  28.533  30.093  1.00  0.00     0.167 HD
ATOM     35  C   UNL A   1      45.581  26.222  29.608  1.00  0.00     0.074 A 
ATOM     36  C   UNL A   1      45.962  24.903  29.148  1.00  0.00     0.031 C 
ATOM     37  C   UNL A   1      46.419  27.097  30.216  1.00  0.00     0.031 A 
BRANCH  24  38
ATOM     38  C   UNL A   1      43.815  32.497  31.692  1.00  0.00    -0.014 A 
ATOM     39  C   UNL A   1      43.498  32.716  33.045  1.00  0.00     0.010 A 
ATOM     40  C   UNL A   1      44.218  33.589  30.900  1.00  0.00     0.010 A 
ATOM     41  C   UNL A   1      43.568  33.999  33.594  1.00  0.00     0.020 A 
ATOM     42  C   UNL A   1      44.317  34.869  31.453  1.00  0.00     0.020 A 
ATOM     43  C   UNL A   1      43.974  35.069  32.792  1.00  0.00     0.054 A 
BRANCH  43  44
ATOM     44  S   UNL A   1      44.076  36.726  33.524  1.00  0.00     0.124 S 
ATOM     45  O   UNL A   1      44.063  37.585  32.344  1.00  0.00    -0.237 OA
ATOM     46  O   UNL A   1      42.880  36.782  34.361  1.00  0.00    -0.237 OA
ATOM     47  O   UNL A   1      45.337  36.694  34.261  1.00  0.00    -0.744 OA
ENDBRANCH  43  44
ENDBRANCH  24  38
BRANCH  25  48
ATOM     48  C   UNL A   1      42.249  23.550  27.594  1.00  0.00    -0.014 A 
ATOM     49  C   UNL A   1      41.786  22.493  28.399  1.00  0.00     0.010 A 
ATOM     50  C   UNL A   1      42.586  23.293  26.254  1.00  0.00     0.010 A 
ATOM     51  C   UNL A   1      41.739  21.190  27.898  1.00  0.00     0.020 A 
ATOM     52  C   UNL A   1      42.515  21.994  25.741  1.00  0.00     0.020 A 
ATOM     53  C   UNL A   1      42.128  20.945  26.579  1.00  0.00     0.054 A 
BRANCH  53  54
ATOM     54  S   UNL A   1      42.164  19.230  25.988  1.00  0.00     0.124 S 
ATOM     55  O   UNL A   1      40.750  18.981  25.716  1.00  0.00    -0.237 OA
ATOM     56  O   UNL A   1      43.027  19.309  24.819  1.00  0.00    -0.237 OA
ATOM     57  O   UNL A   1      42.718  18.490  27.124  1.00  0.00    -0.744 OA
ENDBRANCH  53  54
ENDBRANCH  25  48
BRANCH  37  58
ATOM     58  C   UNL A   1      47.856  26.692  30.423  1.00  0.00    -0.014 A 
ATOM     59  C   UNL A   1      48.240  26.060  31.621  1.00  0.00     0.010 A 
ATOM     60  C   UNL A   1      48.849  27.078  29.505  1.00  0.00     0.010 A 
ATOM     61  C   UNL A   1      49.590  25.864  31.920  1.00  0.00     0.020 A 
ATOM     62  C   UNL A   1      50.200  26.859  29.789  1.00  0.00     0.020 A 
ATOM     63  C   UNL A   1      50.564  26.281  31.008  1.00  0.00     0.054 A 
BRANCH  63  64
ATOM     64  S   UNL A   1      52.314  26.072  31.439  1.00  0.00     0.124 S 
ATOM     65  O   UNL A   1      52.533  27.167  32.379  1.00  0.00    -0.237 OA
ATOM     66  O   UNL A   1      52.346  24.731  32.017  1.00  0.00    -0.237 OA
ATOM     67  O   UNL A   1      53.001  26.204  30.156  1.00  0.00    -0.744 OA
ENDBRANCH  63  64
ENDBRANCH  37  58
ENDBRANCH  11  12
ENDBRANCH   4   6
ENDBRANCH   1   2
BRANCH   1  68
ATOM     68  C   UNL A   1      32.757  28.078  26.029  1.00  0.00     0.042 C 
BRANCH  68  69
ATOM     69  C   UNL A   1      33.824  28.298  24.951  1.00  0.00     0.118 C 
BRANCH  69  70
ATOM     70  N   UNL A   1      34.152  27.065  24.242  1.00  0.00    -0.351 N 
ATOM     71  C   UNL A   1      33.597  26.338  23.237  1.00  0.00     0.278 C 
ATOM     72  H   UNL A   1      34.984  26.658  24.576  1.00  0.00     0.163 HD
ATOM     73  O   UNL A   1      34.159  25.249  23.026  1.00  0.00    -0.268 OA
BRANCH  71  74
ATOM     74  C   UNL A   1      32.388  26.717  22.336  1.00  0.00     0.277 C 
ATOM     75  C   UNL A   1      31.522  25.454  22.002  1.00  0.00     0.109 C 
ATOM     76  N   UNL A   1      31.632  27.928  22.725  1.00  0.00    -0.327 N 
ATOM     77  C   UNL A   1      30.601  25.207  23.158  1.00  0.00    -0.024 C 
ATOM     78  C   UNL A   1      30.198  27.653  22.934  1.00  0.00     0.243 C 
ATOM     79  H   UNL A   1      31.727  28.626  21.986  1.00  0.00     0.347 HD
ATOM     80  H   UNL A   1      32.015  28.264  23.609  1.00  0.00     0.347 HD
ATOM     81  C   UNL A   1      30.767  24.248  24.058  1.00  0.00     0.002 A 
ATOM     82  C   UNL A   1      29.838  26.366  23.736  1.00  0.00     0.196 C 
ATOM     83  C   UNL A   1      31.425  22.984  24.035  1.00  0.00     0.010 A 
ATOM     84  C   UNL A   1      30.595  25.040  25.298  1.00  0.00     0.066 A 
ATOM     85  N   UNL A   1      30.168  26.274  25.189  1.00  0.00    -0.270 NA
ATOM     86  C   UNL A   1      31.831  22.446  25.193  1.00  0.00     0.001 A 
ATOM     87  C   UNL A   1      31.091  24.376  26.533  1.00  0.00     0.028 A 
ATOM     88  C   UNL A   1      31.676  23.166  26.445  1.00  0.00     0.002 A 
BRANCH  78  89
ATOM     89  C   UNL A   1      29.397  28.917  23.186  1.00  0.00     0.012 A 
ATOM     90  C   UNL A   1      29.935  30.062  23.778  1.00  0.00     0.010 A 
ATOM     91  C   UNL A   1      28.054  28.960  22.749  1.00  0.00     0.010 A 
ATOM     92  C   UNL A   1      29.154  31.217  23.915  1.00  0.00     0.001 A 
ATOM     93  C   UNL A   1      27.274  30.105  22.896  1.00  0.00     0.001 A 
ATOM     94  C   UNL A   1      27.829  31.238  23.476  1.00  0.00     0.000 A 
ENDBRANCH  78  89
ENDBRANCH  71  74
ENDBRANCH  69  70
ENDBRANCH  68  69
ENDBRANCH   1  68
TORSDOF 14
ENDMDL
