MODEL 1
REMARK VINA RESULT:     -13.1      0.000      0.000
REMARK SMILES O=C(NCCCNC(=O)[C@H]1CC[C@@H]2CCCC[C@H]2N1C(=O)Cn1cnnn1)c1ccc(-c2c3nc(c(-c4ccc(S(=O)(=O)[O-])cc4)c4ccc([nH]4)c(-c4ccc(S(=O)(=O)[O-])cc4)c4nc(c(-c5ccc(S(=O)(=O)[O-])cc5)c5ccc2[nH]5)C=C4)C=C3)cc1
REMARK SMILES IDX 5 1 4 2 3 3 1 4 2 5 28 7 29 8 87 9 30 10 86 11 31 12 32 13
REMARK SMILES IDX 33 14 80 15 34 16 85 17 79 18 81 19 35 20 84 21 78 22 77 23
REMARK SMILES IDX 36 25 66 26 47 27 65 28 48 29 51 30 64 31 82 32 49 33 50 34
REMARK SMILES IDX 63 36 83 37 52 38 37 39 38 40 46 41 39 42 45 43 40 44 41 45
REMARK SMILES IDX 42 46 43 47 44 48 67 49 68 50 76 51 69 52 75 53 70 54 71 55
REMARK SMILES IDX 72 56 73 57 74 58 53 59 54 60 62 61 55 62 61 63 56 64 57 65
REMARK SMILES IDX 58 66 59 67 60 68 6 69 7 70 8 71 9 73 10 74 11 75 19 76
REMARK SMILES IDX 12 77 18 78 13 79 17 80 14 81 16 82 15 83 20 84 21 85 22 86
REMARK SMILES IDX 23 87 24 88 27 89 25 90 26 91
REMARK H PARENT 3 6 81 24 51 35 7 72
REMARK Flexibility Score: inf
ROOT
ATOM      1  C   UNL A   1      36.157  21.287  24.673  1.00  0.00     0.042 C 
ENDROOT
BRANCH   1   2
ATOM      2  C   UNL A   1      37.463  22.059  24.843  1.00  0.00     0.118 C 
BRANCH   2   3
ATOM      3  N   UNL A   1      38.483  21.342  25.584  1.00  0.00    -0.352 N 
ATOM      4  O   UNL A   1      40.122  20.746  26.929  1.00  0.00    -0.269 OA
ATOM      5  C   UNL A   1      39.455  21.684  26.483  1.00  0.00     0.251 C 
ATOM      6  H   UNL A   1      38.473  20.376  25.393  1.00  0.00     0.163 HD
BRANCH   5   7
ATOM      7  C   UNL A   1      39.785  23.068  26.925  1.00  0.00     0.039 A 
ATOM      8  C   UNL A   1      38.912  24.158  26.919  1.00  0.00     0.014 A 
ATOM      9  C   UNL A   1      41.082  23.252  27.444  1.00  0.00     0.014 A 
ATOM     10  C   UNL A   1      39.335  25.403  27.394  1.00  0.00     0.010 A 
ATOM     11  C   UNL A   1      41.504  24.488  27.929  1.00  0.00     0.010 A 
ATOM     12  C   UNL A   1      40.630  25.572  27.898  1.00  0.00    -0.014 A 
BRANCH  12  13
ATOM     13  C   UNL A   1      40.964  26.831  28.572  1.00  0.00     0.031 A 
ATOM     14  C   UNL A   1      42.166  27.536  28.027  1.00  0.00     0.074 A 
ATOM     15  C   UNL A   1      40.180  27.457  29.475  1.00  0.00     0.049 A 
ATOM     16  N   UNL A   1      43.263  27.849  28.638  1.00  0.00    -0.248 NA
ATOM     17  C   UNL A   1      42.172  27.860  26.591  1.00  0.00     0.031 C 
ATOM     18  C   UNL A   1      38.820  27.099  29.881  1.00  0.00     0.029 A 
ATOM     19  N   UNL A   1      40.403  28.631  30.139  1.00  0.00    -0.354 N 
ATOM     20  C   UNL A   1      44.030  28.565  27.719  1.00  0.00     0.074 A 
ATOM     21  C   UNL A   1      43.369  28.429  26.446  1.00  0.00     0.031 C 
ATOM     22  C   UNL A   1      38.263  28.143  30.540  1.00  0.00     0.029 A 
ATOM     23  C   UNL A   1      39.264  29.183  30.716  1.00  0.00     0.049 A 
ATOM     24  H   UNL A   1      41.291  29.049  30.204  1.00  0.00     0.167 HD
ATOM     25  C   UNL A   1      45.057  29.381  28.094  1.00  0.00     0.031 A 
ATOM     26  C   UNL A   1      39.133  30.426  31.246  1.00  0.00     0.031 A 
ATOM     27  C   UNL A   1      45.479  29.134  29.445  1.00  0.00     0.049 A 
ATOM     28  C   UNL A   1      40.492  30.934  31.546  1.00  0.00     0.074 A 
ATOM     29  C   UNL A   1      45.993  28.047  30.124  1.00  0.00     0.029 A 
ATOM     30  N   UNL A   1      45.065  30.020  30.408  1.00  0.00    -0.354 N 
ATOM     31  N   UNL A   1      41.263  30.442  32.473  1.00  0.00    -0.248 NA
ATOM     32  C   UNL A   1      41.161  31.753  30.549  1.00  0.00     0.031 C 
ATOM     33  C   UNL A   1      45.422  28.126  31.427  1.00  0.00     0.029 A 
ATOM     34  C   UNL A   1      44.640  29.282  31.481  1.00  0.00     0.049 A 
ATOM     35  H   UNL A   1      45.071  31.002  30.341  1.00  0.00     0.167 HD
ATOM     36  C   UNL A   1      42.544  30.525  31.951  1.00  0.00     0.074 A 
ATOM     37  C   UNL A   1      42.431  31.438  30.816  1.00  0.00     0.031 C 
ATOM     38  C   UNL A   1      43.517  29.642  32.321  1.00  0.00     0.031 A 
BRANCH  25  39
ATOM     39  C   UNL A   1      45.448  30.642  27.360  1.00  0.00    -0.014 A 
ATOM     40  C   UNL A   1      46.799  30.839  27.001  1.00  0.00     0.010 A 
ATOM     41  C   UNL A   1      44.593  31.760  27.258  1.00  0.00     0.010 A 
ATOM     42  C   UNL A   1      47.280  32.103  26.633  1.00  0.00     0.020 A 
ATOM     43  C   UNL A   1      45.054  33.014  26.848  1.00  0.00     0.020 A 
ATOM     44  C   UNL A   1      46.404  33.187  26.574  1.00  0.00     0.054 A 
BRANCH  44  45
ATOM     45  S   UNL A   1      47.055  34.837  26.210  1.00  0.00     0.124 S 
ATOM     46  O   UNL A   1      45.907  35.478  25.578  1.00  0.00    -0.237 OA
ATOM     47  O   UNL A   1      47.407  35.331  27.537  1.00  0.00    -0.237 OA
ATOM     48  O   UNL A   1      48.189  34.569  25.328  1.00  0.00    -0.744 OA
ENDBRANCH  44  45
ENDBRANCH  25  39
BRANCH  26  49
ATOM     49  C   UNL A   1      37.944  31.316  31.251  1.00  0.00    -0.014 A 
ATOM     50  C   UNL A   1      36.723  30.895  31.814  1.00  0.00     0.010 A 
ATOM     51  C   UNL A   1      38.090  32.687  30.963  1.00  0.00     0.010 A 
ATOM     52  C   UNL A   1      35.715  31.822  32.140  1.00  0.00     0.020 A 
ATOM     53  C   UNL A   1      37.089  33.615  31.276  1.00  0.00     0.020 A 
ATOM     54  C   UNL A   1      35.916  33.181  31.888  1.00  0.00     0.054 A 
BRANCH  54  55
ATOM     55  S   UNL A   1      34.699  34.393  32.487  1.00  0.00     0.124 S 
ATOM     56  O   UNL A   1      33.739  33.548  33.191  1.00  0.00    -0.237 OA
ATOM     57  O   UNL A   1      35.509  35.268  33.330  1.00  0.00    -0.237 OA
ATOM     58  O   UNL A   1      34.198  35.011  31.261  1.00  0.00    -0.744 OA
ENDBRANCH  54  55
ENDBRANCH  26  49
BRANCH  38  59
ATOM     59  C   UNL A   1      43.295  28.787  33.546  1.00  0.00    -0.014 A 
ATOM     60  C   UNL A   1      43.699  29.154  34.845  1.00  0.00     0.010 A 
ATOM     61  C   UNL A   1      42.509  27.631  33.393  1.00  0.00     0.010 A 
ATOM     62  C   UNL A   1      43.344  28.372  35.954  1.00  0.00     0.020 A 
ATOM     63  C   UNL A   1      42.134  26.860  34.494  1.00  0.00     0.020 A 
ATOM     64  C   UNL A   1      42.561  27.230  35.770  1.00  0.00     0.054 A 
BRANCH  64  65
ATOM     65  S   UNL A   1      42.048  26.253  37.212  1.00  0.00     0.124 S 
ATOM     66  O   UNL A   1      42.094  24.884  36.699  1.00  0.00    -0.237 OA
ATOM     67  O   UNL A   1      43.070  26.584  38.207  1.00  0.00    -0.237 OA
ATOM     68  O   UNL A   1      40.715  26.753  37.519  1.00  0.00    -0.744 OA
ENDBRANCH  64  65
ENDBRANCH  38  59
ENDBRANCH  12  13
ENDBRANCH   5   7
ENDBRANCH   2   3
ENDBRANCH   1   2
BRANCH   1  69
ATOM     69  C   UNL A   1      35.388  21.098  25.984  1.00  0.00     0.117 C 
BRANCH  69  70
ATOM     70  N   UNL A   1      34.202  20.252  25.838  1.00  0.00    -0.354 N 
ATOM     71  C   UNL A   1      32.883  20.504  25.605  1.00  0.00     0.242 C 
ATOM     72  H   UNL A   1      34.399  19.292  25.927  1.00  0.00     0.163 HD
ATOM     73  O   UNL A   1      32.185  19.504  25.382  1.00  0.00    -0.273 OA
BRANCH  71  74
ATOM     74  C   UNL A   1      32.224  21.919  25.565  1.00  0.00     0.174 C 
ATOM     75  C   UNL A   1      32.715  22.910  26.619  1.00  0.00     0.036 C 
ATOM     76  N   UNL A   1      31.837  22.635  24.289  1.00  0.00    -0.326 N 
ATOM     77  C   UNL A   1      31.677  23.977  26.905  1.00  0.00     0.008 C 
ATOM     78  C   UNL A   1      30.837  23.752  24.522  1.00  0.00     0.089 C 
ATOM     79  C   UNL A   1      31.350  24.729  25.618  1.00  0.00     0.012 C 
ATOM     80  C   UNL A   1      30.359  24.576  23.303  1.00  0.00     0.025 C 
ATOM     81  C   UNL A   1      30.350  25.845  25.948  1.00  0.00     0.006 C 
ATOM     82  C   UNL A   1      29.366  25.681  23.664  1.00  0.00     0.002 C 
ATOM     83  C   UNL A   1      29.946  26.622  24.708  1.00  0.00     0.000 C 
BRANCH  76  84
ATOM     84  C   UNL A   1      32.406  22.442  23.025  1.00  0.00     0.245 C 
ATOM     85  O   UNL A   1      31.978  21.602  22.223  1.00  0.00    -0.273 OA
BRANCH  84  86
ATOM     86  C   UNL A   1      33.669  23.135  22.580  1.00  0.00     0.248 C 
BRANCH  86  87
ATOM     87  N   UNL A   1      33.483  24.373  21.875  1.00  0.00    -0.223 N 
ATOM     88  C   UNL A   1      33.657  25.626  22.372  1.00  0.00     0.246 A 
ATOM     89  N   UNL A   1      33.159  24.441  20.576  1.00  0.00    -0.045 NA
ATOM     90  N   UNL A   1      33.421  26.489  21.412  1.00  0.00    -0.117 NA
ATOM     91  N   UNL A   1      33.120  25.738  20.300  1.00  0.00    -0.024 NA
ENDBRANCH  86  87
ENDBRANCH  84  86
ENDBRANCH  76  84
ENDBRANCH  71  74
ENDBRANCH  69  70
ENDBRANCH   1  69
TORSDOF 16
ENDMDL
MODEL 2
REMARK VINA RESULT:     -12.8      1.243      2.553
REMARK SMILES O=C(NCCCNC(=O)[C@H]1CC[C@@H]2CCCC[C@H]2N1C(=O)Cn1cnnn1)c1ccc(-c2c3nc(c(-c4ccc(S(=O)(=O)[O-])cc4)c4ccc([nH]4)c(-c4ccc(S(=O)(=O)[O-])cc4)c4nc(c(-c5ccc(S(=O)(=O)[O-])cc5)c5ccc2[nH]5)C=C4)C=C3)cc1
REMARK SMILES IDX 5 1 4 2 3 3 1 4 2 5 28 7 29 8 87 9 30 10 86 11 31 12 32 13
REMARK SMILES IDX 33 14 80 15 34 16 85 17 79 18 81 19 35 20 84 21 78 22 77 23
REMARK SMILES IDX 36 25 66 26 47 27 65 28 48 29 51 30 64 31 82 32 49 33 50 34
REMARK SMILES IDX 63 36 83 37 52 38 37 39 38 40 46 41 39 42 45 43 40 44 41 45
REMARK SMILES IDX 42 46 43 47 44 48 67 49 68 50 76 51 69 52 75 53 70 54 71 55
REMARK SMILES IDX 72 56 73 57 74 58 53 59 54 60 62 61 55 62 61 63 56 64 57 65
REMARK SMILES IDX 58 66 59 67 60 68 6 69 7 70 8 71 9 73 10 74 11 75 19 76
REMARK SMILES IDX 12 77 18 78 13 79 17 80 14 81 16 82 15 83 20 84 21 85 22 86
REMARK SMILES IDX 23 87 24 88 27 89 25 90 26 91
REMARK H PARENT 3 6 81 24 51 35 7 72
REMARK Flexibility Score: inf
ROOT
ATOM      1  C   UNL A   1      36.811  22.064  24.208  1.00  0.00     0.042 C 
ENDROOT
BRANCH   1   2
ATOM      2  C   UNL A   1      37.188  21.963  25.683  1.00  0.00     0.118 C 
BRANCH   2   3
ATOM      3  N   UNL A   1      38.468  21.327  25.926  1.00  0.00    -0.352 N 
ATOM      4  O   UNL A   1      40.533  20.843  26.522  1.00  0.00    -0.269 OA
ATOM      5  C   UNL A   1      39.668  21.721  26.451  1.00  0.00     0.251 C 
ATOM      6  H   UNL A   1      38.475  20.383  25.645  1.00  0.00     0.163 HD
BRANCH   5   7
ATOM      7  C   UNL A   1      40.012  23.099  26.898  1.00  0.00     0.039 A 
ATOM      8  C   UNL A   1      39.300  24.260  26.591  1.00  0.00     0.014 A 
ATOM      9  C   UNL A   1      41.128  23.205  27.752  1.00  0.00     0.014 A 
ATOM     10  C   UNL A   1      39.709  25.495  27.103  1.00  0.00     0.010 A 
ATOM     11  C   UNL A   1      41.533  24.432  28.274  1.00  0.00     0.010 A 
ATOM     12  C   UNL A   1      40.826  25.585  27.943  1.00  0.00    -0.014 A 
BRANCH  12  13
ATOM     13  C   UNL A   1      41.097  26.858  28.620  1.00  0.00     0.031 A 
ATOM     14  C   UNL A   1      42.280  27.608  28.097  1.00  0.00     0.074 A 
ATOM     15  C   UNL A   1      40.271  27.454  29.505  1.00  0.00     0.049 A 
ATOM     16  N   UNL A   1      43.352  27.965  28.728  1.00  0.00    -0.248 NA
ATOM     17  C   UNL A   1      42.302  27.929  26.660  1.00  0.00     0.031 C 
ATOM     18  C   UNL A   1      38.919  27.044  29.886  1.00  0.00     0.029 A 
ATOM     19  N   UNL A   1      40.435  28.637  30.171  1.00  0.00    -0.354 N 
ATOM     20  C   UNL A   1      44.109  28.709  27.822  1.00  0.00     0.074 A 
ATOM     21  C   UNL A   1      43.479  28.544  26.537  1.00  0.00     0.031 C 
ATOM     22  C   UNL A   1      38.309  28.066  30.531  1.00  0.00     0.029 A 
ATOM     23  C   UNL A   1      39.264  29.145  30.724  1.00  0.00     0.049 A 
ATOM     24  H   UNL A   1      41.305  29.090  30.252  1.00  0.00     0.167 HD
ATOM     25  C   UNL A   1      45.095  29.565  28.215  1.00  0.00     0.031 A 
ATOM     26  C   UNL A   1      39.074  30.384  31.247  1.00  0.00     0.031 A 
ATOM     27  C   UNL A   1      45.500  29.337  29.574  1.00  0.00     0.049 A 
ATOM     28  C   UNL A   1      40.406  30.945  31.572  1.00  0.00     0.074 A 
ATOM     29  C   UNL A   1      46.043  28.273  30.266  1.00  0.00     0.029 A 
ATOM     30  N   UNL A   1      45.032  30.209  30.527  1.00  0.00    -0.354 N 
ATOM     31  N   UNL A   1      41.178  30.485  32.515  1.00  0.00    -0.248 NA
ATOM     32  C   UNL A   1      41.062  31.788  30.586  1.00  0.00     0.031 C 
ATOM     33  C   UNL A   1      45.443  28.332  31.558  1.00  0.00     0.029 A 
ATOM     34  C   UNL A   1      44.616  29.456  31.593  1.00  0.00     0.049 A 
ATOM     35  H   UNL A   1      45.002  31.190  30.457  1.00  0.00     0.167 HD
ATOM     36  C   UNL A   1      42.465  30.618  32.018  1.00  0.00     0.074 A 
ATOM     37  C   UNL A   1      42.338  31.523  30.879  1.00  0.00     0.031 C 
ATOM     38  C   UNL A   1      43.464  29.774  32.410  1.00  0.00     0.031 A 
BRANCH  25  39
ATOM     39  C   UNL A   1      45.451  30.839  27.484  1.00  0.00    -0.014 A 
ATOM     40  C   UNL A   1      46.771  31.020  27.020  1.00  0.00     0.010 A 
ATOM     41  C   UNL A   1      44.615  31.975  27.485  1.00  0.00     0.010 A 
ATOM     42  C   UNL A   1      47.247  32.285  26.647  1.00  0.00     0.020 A 
ATOM     43  C   UNL A   1      45.067  33.232  27.071  1.00  0.00     0.020 A 
ATOM     44  C   UNL A   1      46.393  33.386  26.691  1.00  0.00     0.054 A 
BRANCH  44  45
ATOM     45  S   UNL A   1      47.046  35.033  26.318  1.00  0.00     0.124 S 
ATOM     46  O   UNL A   1      47.767  35.355  27.546  1.00  0.00    -0.237 OA
ATOM     47  O   UNL A   1      47.874  34.780  25.143  1.00  0.00    -0.237 OA
ATOM     48  O   UNL A   1      45.844  35.828  26.069  1.00  0.00    -0.744 OA
ENDBRANCH  44  45
ENDBRANCH  25  39
BRANCH  26  49
ATOM     49  C   UNL A   1      37.851  31.226  31.227  1.00  0.00    -0.014 A 
ATOM     50  C   UNL A   1      36.778  30.972  32.104  1.00  0.00     0.010 A 
ATOM     51  C   UNL A   1      37.858  32.458  30.545  1.00  0.00     0.010 A 
ATOM     52  C   UNL A   1      35.788  31.944  32.341  1.00  0.00     0.020 A 
ATOM     53  C   UNL A   1      36.872  33.428  30.768  1.00  0.00     0.020 A 
ATOM     54  C   UNL A   1      35.855  33.176  31.686  1.00  0.00     0.054 A 
BRANCH  54  55
ATOM     55  S   UNL A   1      34.690  34.496  32.139  1.00  0.00     0.124 S 
ATOM     56  O   UNL A   1      35.541  35.422  32.880  1.00  0.00    -0.237 OA
ATOM     57  O   UNL A   1      34.223  34.969  30.839  1.00  0.00    -0.237 OA
ATOM     58  O   UNL A   1      33.681  33.804  32.940  1.00  0.00    -0.744 OA
ENDBRANCH  54  55
ENDBRANCH  26  49
BRANCH  38  59
ATOM     59  C   UNL A   1      43.252  28.914  33.633  1.00  0.00    -0.014 A 
ATOM     60  C   UNL A   1      43.300  29.400  34.954  1.00  0.00     0.010 A 
ATOM     61  C   UNL A   1      42.837  27.586  33.425  1.00  0.00     0.010 A 
ATOM     62  C   UNL A   1      42.964  28.572  36.036  1.00  0.00     0.020 A 
ATOM     63  C   UNL A   1      42.481  26.762  34.494  1.00  0.00     0.020 A 
ATOM     64  C   UNL A   1      42.554  27.257  35.796  1.00  0.00     0.054 A 
BRANCH  64  65
ATOM     65  S   UNL A   1      42.058  26.205  37.190  1.00  0.00     0.124 S 
ATOM     66  O   UNL A   1      43.124  26.445  38.162  1.00  0.00    -0.237 OA
ATOM     67  O   UNL A   1      40.747  26.747  37.553  1.00  0.00    -0.237 OA
ATOM     68  O   UNL A   1      42.026  24.864  36.625  1.00  0.00    -0.744 OA
ENDBRANCH  64  65
ENDBRANCH  38  59
ENDBRANCH  12  13
ENDBRANCH   5   7
ENDBRANCH   2   3
ENDBRANCH   1   2
BRANCH   1  69
ATOM     69  C   UNL A   1      36.069  23.357  23.858  1.00  0.00     0.117 C 
BRANCH  69  70
ATOM     70  N   UNL A   1      34.799  23.123  23.166  1.00  0.00    -0.354 N 
ATOM     71  C   UNL A   1      33.682  23.875  22.959  1.00  0.00     0.242 C 
ATOM     72  H   UNL A   1      34.740  22.227  22.762  1.00  0.00     0.163 HD
ATOM     73  O   UNL A   1      32.855  23.388  22.174  1.00  0.00    -0.273 OA
BRANCH  71  74
ATOM     74  C   UNL A   1      33.401  25.274  23.593  1.00  0.00     0.174 C 
ATOM     75  C   UNL A   1      33.271  26.435  22.609  1.00  0.00     0.036 C 
ATOM     76  N   UNL A   1      32.521  25.490  24.805  1.00  0.00    -0.326 N 
ATOM     77  C   UNL A   1      33.593  27.761  23.268  1.00  0.00     0.008 C 
ATOM     78  C   UNL A   1      32.763  26.829  25.476  1.00  0.00     0.089 C 
ATOM     79  C   UNL A   1      32.650  27.989  24.446  1.00  0.00     0.012 C 
ATOM     80  C   UNL A   1      31.923  27.187  26.725  1.00  0.00     0.025 C 
ATOM     81  C   UNL A   1      32.953  29.365  25.052  1.00  0.00     0.006 C 
ATOM     82  C   UNL A   1      32.245  28.565  27.304  1.00  0.00     0.002 C 
ATOM     83  C   UNL A   1      32.076  29.654  26.257  1.00  0.00     0.000 C 
BRANCH  76  84
ATOM     84  C   UNL A   1      31.476  24.660  25.229  1.00  0.00     0.245 C 
ATOM     85  O   UNL A   1      30.315  24.790  24.820  1.00  0.00    -0.273 OA
BRANCH  84  86
ATOM     86  C   UNL A   1      31.637  23.630  26.317  1.00  0.00     0.248 C 
BRANCH  86  87
ATOM     87  N   UNL A   1      32.305  22.418  25.932  1.00  0.00    -0.223 N 
ATOM     88  C   UNL A   1      33.483  21.948  26.422  1.00  0.00     0.246 A 
ATOM     89  N   UNL A   1      31.799  21.543  25.052  1.00  0.00    -0.045 NA
ATOM     90  N   UNL A   1      33.743  20.799  25.843  1.00  0.00    -0.117 NA
ATOM     91  N   UNL A   1      32.684  20.557  25.000  1.00  0.00    -0.024 NA
ENDBRANCH  86  87
ENDBRANCH  84  86
ENDBRANCH  76  84
ENDBRANCH  71  74
ENDBRANCH  69  70
ENDBRANCH   1  69
TORSDOF 16
ENDMDL
MODEL 3
REMARK VINA RESULT:     -12.8      2.870      9.032
REMARK SMILES O=C(NCCCNC(=O)[C@H]1CC[C@@H]2CCCC[C@H]2N1C(=O)Cn1cnnn1)c1ccc(-c2c3nc(c(-c4ccc(S(=O)(=O)[O-])cc4)c4ccc([nH]4)c(-c4ccc(S(=O)(=O)[O-])cc4)c4nc(c(-c5ccc(S(=O)(=O)[O-])cc5)c5ccc2[nH]5)C=C4)C=C3)cc1
REMARK SMILES IDX 5 1 4 2 3 3 1 4 2 5 28 7 29 8 87 9 30 10 86 11 31 12 32 13
REMARK SMILES IDX 33 14 80 15 34 16 85 17 79 18 81 19 35 20 84 21 78 22 77 23
REMARK SMILES IDX 36 25 66 26 47 27 65 28 48 29 51 30 64 31 82 32 49 33 50 34
REMARK SMILES IDX 63 36 83 37 52 38 37 39 38 40 46 41 39 42 45 43 40 44 41 45
REMARK SMILES IDX 42 46 43 47 44 48 67 49 68 50 76 51 69 52 75 53 70 54 71 55
REMARK SMILES IDX 72 56 73 57 74 58 53 59 54 60 62 61 55 62 61 63 56 64 57 65
REMARK SMILES IDX 58 66 59 67 60 68 6 69 7 70 8 71 9 73 10 74 11 75 19 76
REMARK SMILES IDX 12 77 18 78 13 79 17 80 14 81 16 82 15 83 20 84 21 85 22 86
REMARK SMILES IDX 23 87 24 88 27 89 25 90 26 91
REMARK H PARENT 3 6 81 24 51 35 7 72
REMARK Flexibility Score: inf
ROOT
ATOM      1  C   UNL A   1      32.082  28.859  26.619  1.00  0.00     0.042 C 
ENDROOT
BRANCH   1   2
ATOM      2  C   UNL A   1      33.385  29.573  26.271  1.00  0.00     0.118 C 
BRANCH   2   3
ATOM      3  N   UNL A   1      33.567  30.841  26.949  1.00  0.00    -0.352 N 
ATOM      4  O   UNL A   1      34.343  32.571  28.071  1.00  0.00    -0.269 OA
ATOM      5  C   UNL A   1      34.566  31.421  27.680  1.00  0.00     0.251 C 
ATOM      6  H   UNL A   1      32.779  31.427  26.861  1.00  0.00     0.163 HD
BRANCH   5   7
ATOM      7  C   UNL A   1      35.853  30.775  28.061  1.00  0.00     0.039 A 
ATOM      8  C   UNL A   1      36.198  29.442  27.832  1.00  0.00     0.014 A 
ATOM      9  C   UNL A   1      36.812  31.622  28.652  1.00  0.00     0.014 A 
ATOM     10  C   UNL A   1      37.457  28.964  28.209  1.00  0.00     0.010 A 
ATOM     11  C   UNL A   1      38.072  31.153  29.019  1.00  0.00     0.010 A 
ATOM     12  C   UNL A   1      38.396  29.816  28.803  1.00  0.00    -0.014 A 
BRANCH  12  13
ATOM     13  C   UNL A   1      39.766  29.331  28.993  1.00  0.00     0.031 A 
ATOM     14  C   UNL A   1      40.194  29.196  30.420  1.00  0.00     0.074 A 
ATOM     15  C   UNL A   1      40.554  28.837  28.015  1.00  0.00     0.049 A 
ATOM     16  N   UNL A   1      41.173  29.785  31.028  1.00  0.00    -0.248 NA
ATOM     17  C   UNL A   1      39.367  28.355  31.302  1.00  0.00     0.031 C 
ATOM     18  C   UNL A   1      40.193  28.573  26.621  1.00  0.00     0.029 A 
ATOM     19  N   UNL A   1      41.831  28.354  28.101  1.00  0.00    -0.354 N 
ATOM     20  C   UNL A   1      41.202  29.261  32.320  1.00  0.00     0.074 A 
ATOM     21  C   UNL A   1      39.995  28.488  32.470  1.00  0.00     0.031 C 
ATOM     22  C   UNL A   1      41.138  27.783  26.059  1.00  0.00     0.029 A 
ATOM     23  C   UNL A   1      42.227  27.596  27.004  1.00  0.00     0.049 A 
ATOM     24  H   UNL A   1      42.418  28.528  28.871  1.00  0.00     0.167 HD
ATOM     25  C   UNL A   1      42.302  29.339  33.122  1.00  0.00     0.031 A 
ATOM     26  C   UNL A   1      43.338  26.822  26.900  1.00  0.00     0.031 A 
ATOM     27  C   UNL A   1      43.251  30.308  32.647  1.00  0.00     0.049 A 
ATOM     28  C   UNL A   1      44.298  27.270  27.935  1.00  0.00     0.074 A 
ATOM     29  C   UNL A   1      43.226  31.669  32.420  1.00  0.00     0.029 A 
ATOM     30  N   UNL A   1      44.361  29.836  31.991  1.00  0.00    -0.354 N 
ATOM     31  N   UNL A   1      44.901  28.424  27.916  1.00  0.00    -0.248 NA
ATOM     32  C   UNL A   1      44.304  26.586  29.218  1.00  0.00     0.031 C 
ATOM     33  C   UNL A   1      44.028  31.862  31.258  1.00  0.00     0.029 A 
ATOM     34  C   UNL A   1      44.537  30.618  30.880  1.00  0.00     0.049 A 
ATOM     35  H   UNL A   1      44.925  29.078  32.267  1.00  0.00     0.167 HD
ATOM     36  C   UNL A   1      44.984  28.804  29.246  1.00  0.00     0.074 A 
ATOM     37  C   UNL A   1      44.701  27.589  30.005  1.00  0.00     0.031 C 
ATOM     38  C   UNL A   1      45.008  30.122  29.605  1.00  0.00     0.031 A 
BRANCH  25  39
ATOM     39  C   UNL A   1      42.683  28.291  34.142  1.00  0.00    -0.014 A 
ATOM     40  C   UNL A   1      42.780  28.657  35.502  1.00  0.00     0.010 A 
ATOM     41  C   UNL A   1      43.218  27.037  33.781  1.00  0.00     0.010 A 
ATOM     42  C   UNL A   1      43.442  27.844  36.432  1.00  0.00     0.020 A 
ATOM     43  C   UNL A   1      43.839  26.198  34.710  1.00  0.00     0.020 A 
ATOM     44  C   UNL A   1      43.981  26.624  36.023  1.00  0.00     0.054 A 
BRANCH  44  45
ATOM     45  S   UNL A   1      44.933  25.634  37.203  1.00  0.00     0.124 S 
ATOM     46  O   UNL A   1      44.856  24.303  36.609  1.00  0.00    -0.237 OA
ATOM     47  O   UNL A   1      46.244  26.274  37.158  1.00  0.00    -0.237 OA
ATOM     48  O   UNL A   1      44.203  25.805  38.458  1.00  0.00    -0.744 OA
ENDBRANCH  44  45
ENDBRANCH  25  39
BRANCH  26  49
ATOM     49  C   UNL A   1      43.518  25.546  26.162  1.00  0.00    -0.014 A 
ATOM     50  C   UNL A   1      44.704  25.279  25.449  1.00  0.00     0.010 A 
ATOM     51  C   UNL A   1      42.643  24.468  26.398  1.00  0.00     0.010 A 
ATOM     52  C   UNL A   1      45.032  23.970  25.049  1.00  0.00     0.020 A 
ATOM     53  C   UNL A   1      42.957  23.164  25.995  1.00  0.00     0.020 A 
ATOM     54  C   UNL A   1      44.164  22.917  25.346  1.00  0.00     0.054 A 
BRANCH  54  55
ATOM     55  S   UNL A   1      44.680  21.207  25.002  1.00  0.00     0.124 S 
ATOM     56  O   UNL A   1      43.724  20.430  25.785  1.00  0.00    -0.237 OA
ATOM     57  O   UNL A   1      44.534  21.115  23.552  1.00  0.00    -0.237 OA
ATOM     58  O   UNL A   1      46.059  21.161  25.485  1.00  0.00    -0.744 OA
ENDBRANCH  54  55
ENDBRANCH  26  49
BRANCH  38  59
ATOM     59  C   UNL A   1      45.285  31.160  28.543  1.00  0.00    -0.014 A 
ATOM     60  C   UNL A   1      44.302  31.687  27.683  1.00  0.00     0.010 A 
ATOM     61  C   UNL A   1      46.570  31.733  28.521  1.00  0.00     0.010 A 
ATOM     62  C   UNL A   1      44.605  32.742  26.809  1.00  0.00     0.020 A 
ATOM     63  C   UNL A   1      46.873  32.797  27.671  1.00  0.00     0.020 A 
ATOM     64  C   UNL A   1      45.891  33.292  26.812  1.00  0.00     0.054 A 
BRANCH  64  65
ATOM     65  S   UNL A   1      46.265  34.700  25.729  1.00  0.00     0.124 S 
ATOM     66  O   UNL A   1      47.680  34.493  25.419  1.00  0.00    -0.237 OA
ATOM     67  O   UNL A   1      45.344  34.500  24.609  1.00  0.00    -0.237 OA
ATOM     68  O   UNL A   1      45.977  35.865  26.554  1.00  0.00    -0.744 OA
ENDBRANCH  64  65
ENDBRANCH  38  59
ENDBRANCH  12  13
ENDBRANCH   5   7
ENDBRANCH   2   3
ENDBRANCH   1   2
BRANCH   1  69
ATOM     69  C   UNL A   1      32.294  27.465  27.216  1.00  0.00     0.117 C 
BRANCH  69  70
ATOM     70  N   UNL A   1      31.261  26.505  26.818  1.00  0.00    -0.354 N 
ATOM     71  C   UNL A   1      31.287  25.212  26.391  1.00  0.00     0.242 C 
ATOM     72  H   UNL A   1      30.351  26.875  26.870  1.00  0.00     0.163 HD
ATOM     73  O   UNL A   1      30.178  24.665  26.297  1.00  0.00    -0.273 OA
BRANCH  71  74
ATOM     74  C   UNL A   1      32.574  24.392  26.060  1.00  0.00     0.174 C 
ATOM     75  C   UNL A   1      32.906  23.258  27.027  1.00  0.00     0.036 C 
ATOM     76  N   UNL A   1      33.018  24.051  24.653  1.00  0.00    -0.326 N 
ATOM     77  C   UNL A   1      34.385  22.925  27.006  1.00  0.00     0.008 C 
ATOM     78  C   UNL A   1      34.481  23.657  24.580  1.00  0.00     0.089 C 
ATOM     79  C   UNL A   1      34.797  22.521  25.594  1.00  0.00     0.012 C 
ATOM     80  C   UNL A   1      35.070  23.273  23.201  1.00  0.00     0.025 C 
ATOM     81  C   UNL A   1      36.279  22.125  25.615  1.00  0.00     0.006 C 
ATOM     82  C   UNL A   1      36.547  22.881  23.255  1.00  0.00     0.002 C 
ATOM     83  C   UNL A   1      36.777  21.741  24.233  1.00  0.00     0.000 C 
BRANCH  76  84
ATOM     84  C   UNL A   1      32.195  23.945  23.527  1.00  0.00     0.245 C 
ATOM     85  O   UNL A   1      31.977  22.865  22.962  1.00  0.00    -0.273 OA
BRANCH  84  86
ATOM     86  C   UNL A   1      31.614  25.142  22.819  1.00  0.00     0.248 C 
BRANCH  86  87
ATOM     87  N   UNL A   1      32.532  26.217  22.560  1.00  0.00    -0.223 N 
ATOM     88  C   UNL A   1      32.625  27.389  23.243  1.00  0.00     0.246 A 
ATOM     89  N   UNL A   1      33.481  26.166  21.616  1.00  0.00    -0.045 NA
ATOM     90  N   UNL A   1      33.604  28.093  22.725  1.00  0.00    -0.117 NA
ATOM     91  N   UNL A   1      34.131  27.317  21.719  1.00  0.00    -0.024 NA
ENDBRANCH  86  87
ENDBRANCH  84  86
ENDBRANCH  76  84
ENDBRANCH  71  74
ENDBRANCH  69  70
ENDBRANCH   1  69
TORSDOF 16
ENDMDL
