MODEL 1
REMARK VINA RESULT:     -11.5      0.000      0.000
REMARK SMILES O=C(NCCCNC(=O)c1csc(S(=O)(=O)Nc2ccc(F)cc2)c1)c1ccc(-c2c3nc(c(-c4ccc(S(=O)(=O)[O-])cc4)c4ccc([nH]4)c(-c4ccc(S(=O)(=O)[O-])cc4)c4nc(c(-c5ccc(S(=O)(=O)[O-])cc5)c5ccc2[nH]5)C=C4)C=C3)cc1
REMARK SMILES IDX 5 1 4 2 3 3 1 4 2 5 26 7 27 8 85 9 28 10 84 11 29 12 30 13
REMARK SMILES IDX 31 14 78 15 32 16 83 17 77 18 79 19 33 20 82 21 76 22 75 23
REMARK SMILES IDX 34 25 64 26 45 27 63 28 46 29 49 30 62 31 80 32 47 33 48 34
REMARK SMILES IDX 61 36 81 37 50 38 35 39 36 40 44 41 37 42 43 43 38 44 39 45
REMARK SMILES IDX 40 46 41 47 42 48 65 49 66 50 74 51 67 52 73 53 68 54 69 55
REMARK SMILES IDX 70 56 71 57 72 58 51 59 52 60 60 61 53 62 59 63 54 64 55 65
REMARK SMILES IDX 56 66 57 67 58 68 6 69 7 70 8 71 9 73 10 74 11 75 25 76
REMARK SMILES IDX 12 77 13 78 14 79 15 80 16 81 17 82 18 84 19 85 24 86 20 87
REMARK SMILES IDX 23 88 21 89 22 90
REMARK H PARENT 3 6 79 24 49 35 7 72 17 83
REMARK Flexibility Score: inf
ROOT
ATOM      1  C   UNL A   1      34.225  31.241  27.589  1.00  0.00     0.042 C 
ENDROOT
BRANCH   1   2
ATOM      2  C   UNL A   1      35.554  31.545  28.274  1.00  0.00     0.118 C 
BRANCH   2   3
ATOM      3  N   UNL A   1      35.535  31.261  29.702  1.00  0.00    -0.352 N 
ATOM      4  O   UNL A   1      36.065  30.317  31.659  1.00  0.00    -0.269 OA
ATOM      5  C   UNL A   1      36.415  30.587  30.512  1.00  0.00     0.251 C 
ATOM      6  H   UNL A   1      34.747  31.618  30.172  1.00  0.00     0.163 HD
BRANCH   5   7
ATOM      7  C   UNL A   1      37.756  30.171  30.037  1.00  0.00     0.039 A 
ATOM      8  C   UNL A   1      38.081  30.151  28.680  1.00  0.00     0.014 A 
ATOM      9  C   UNL A   1      38.743  29.873  30.985  1.00  0.00     0.014 A 
ATOM     10  C   UNL A   1      39.336  29.705  28.269  1.00  0.00     0.010 A 
ATOM     11  C   UNL A   1      40.029  29.505  30.574  1.00  0.00     0.010 A 
ATOM     12  C   UNL A   1      40.330  29.390  29.209  1.00  0.00    -0.014 A 
BRANCH  12  13
ATOM     13  C   UNL A   1      41.687  29.003  28.741  1.00  0.00     0.031 A 
ATOM     14  C   UNL A   1      42.824  29.989  28.752  1.00  0.00     0.074 A 
ATOM     15  C   UNL A   1      41.900  27.736  28.334  1.00  0.00     0.049 A 
ATOM     16  N   UNL A   1      44.077  29.798  28.425  1.00  0.00    -0.248 NA
ATOM     17  C   UNL A   1      42.519  31.362  29.181  1.00  0.00     0.031 C 
ATOM     18  C   UNL A   1      40.877  26.688  28.265  1.00  0.00     0.029 A 
ATOM     19  N   UNL A   1      43.047  27.105  27.924  1.00  0.00    -0.354 N 
ATOM     20  C   UNL A   1      44.708  31.026  28.592  1.00  0.00     0.074 A 
ATOM     21  C   UNL A   1      43.694  31.961  29.029  1.00  0.00     0.031 C 
ATOM     22  C   UNL A   1      41.453  25.535  27.894  1.00  0.00     0.029 A 
ATOM     23  C   UNL A   1      42.871  25.769  27.645  1.00  0.00     0.049 A 
ATOM     24  H   UNL A   1      43.914  27.564  27.840  1.00  0.00     0.167 HD
ATOM     25  C   UNL A   1      46.012  31.344  28.407  1.00  0.00     0.031 A 
ATOM     26  C   UNL A   1      43.746  24.835  27.230  1.00  0.00     0.031 A 
ATOM     27  C   UNL A   1      47.022  30.414  27.973  1.00  0.00     0.049 A 
ATOM     28  C   UNL A   1      45.181  25.219  27.013  1.00  0.00     0.074 A 
ATOM     29  C   UNL A   1      48.375  30.640  27.779  1.00  0.00     0.029 A 
ATOM     30  N   UNL A   1      46.793  29.082  27.664  1.00  0.00    -0.354 N 
ATOM     31  N   UNL A   1      45.758  26.380  27.203  1.00  0.00    -0.248 NA
ATOM     32  C   UNL A   1      46.082  24.165  26.528  1.00  0.00     0.031 C 
ATOM     33  C   UNL A   1      48.956  29.455  27.315  1.00  0.00     0.029 A 
ATOM     34  C   UNL A   1      47.974  28.479  27.263  1.00  0.00     0.049 A 
ATOM     35  H   UNL A   1      45.920  28.631  27.721  1.00  0.00     0.167 HD
ATOM     36  C   UNL A   1      47.094  26.196  26.867  1.00  0.00     0.074 A 
ATOM     37  C   UNL A   1      47.242  24.806  26.484  1.00  0.00     0.031 C 
ATOM     38  C   UNL A   1      48.105  27.099  26.874  1.00  0.00     0.031 A 
BRANCH  25  39
ATOM     39  C   UNL A   1      46.422  32.771  28.654  1.00  0.00    -0.014 A 
ATOM     40  C   UNL A   1      46.877  33.187  29.918  1.00  0.00     0.010 A 
ATOM     41  C   UNL A   1      46.396  33.699  27.596  1.00  0.00     0.010 A 
ATOM     42  C   UNL A   1      47.264  34.513  30.130  1.00  0.00     0.020 A 
ATOM     43  C   UNL A   1      46.803  35.021  27.798  1.00  0.00     0.020 A 
ATOM     44  C   UNL A   1      47.219  35.424  29.069  1.00  0.00     0.054 A 
BRANCH  44  45
ATOM     45  S   UNL A   1      47.744  37.135  29.364  1.00  0.00     0.124 S 
ATOM     46  O   UNL A   1      47.502  37.279  30.798  1.00  0.00    -0.237 OA
ATOM     47  O   UNL A   1      49.149  37.116  28.965  1.00  0.00    -0.237 OA
ATOM     48  O   UNL A   1      46.865  37.921  28.502  1.00  0.00    -0.744 OA
ENDBRANCH  44  45
ENDBRANCH  25  39
BRANCH  26  49
ATOM     49  C   UNL A   1      43.279  23.444  26.993  1.00  0.00    -0.014 A 
ATOM     50  C   UNL A   1      43.009  22.994  25.690  1.00  0.00     0.010 A 
ATOM     51  C   UNL A   1      43.142  22.550  28.071  1.00  0.00     0.010 A 
ATOM     52  C   UNL A   1      42.602  21.676  25.468  1.00  0.00     0.020 A 
ATOM     53  C   UNL A   1      42.759  21.225  27.851  1.00  0.00     0.020 A 
ATOM     54  C   UNL A   1      42.483  20.798  26.551  1.00  0.00     0.054 A 
BRANCH  54  55
ATOM     55  S   UNL A   1      42.024  19.070  26.237  1.00  0.00     0.124 S 
ATOM     56  O   UNL A   1      42.987  18.683  25.212  1.00  0.00    -0.237 OA
ATOM     57  O   UNL A   1      42.207  18.450  27.547  1.00  0.00    -0.237 OA
ATOM     58  O   UNL A   1      40.635  19.164  25.792  1.00  0.00    -0.744 OA
ENDBRANCH  54  55
ENDBRANCH  26  49
BRANCH  38  59
ATOM     59  C   UNL A   1      49.465  26.604  26.468  1.00  0.00    -0.014 A 
ATOM     60  C   UNL A   1      49.935  26.775  25.154  1.00  0.00     0.010 A 
ATOM     61  C   UNL A   1      50.299  25.994  27.423  1.00  0.00     0.010 A 
ATOM     62  C   UNL A   1      51.203  26.317  24.793  1.00  0.00     0.020 A 
ATOM     63  C   UNL A   1      51.577  25.554  27.071  1.00  0.00     0.020 A 
ATOM     64  C   UNL A   1      52.015  25.705  25.754  1.00  0.00     0.054 A 
BRANCH  64  65
ATOM     65  S   UNL A   1      53.674  25.148  25.274  1.00  0.00     0.124 S 
ATOM     66  O   UNL A   1      53.812  25.724  23.939  1.00  0.00    -0.237 OA
ATOM     67  O   UNL A   1      54.525  25.739  26.304  1.00  0.00    -0.237 OA
ATOM     68  O   UNL A   1      53.574  23.691  25.318  1.00  0.00    -0.744 OA
ENDBRANCH  64  65
ENDBRANCH  38  59
ENDBRANCH  12  13
ENDBRANCH   5   7
ENDBRANCH   2   3
ENDBRANCH   1   2
BRANCH   1  69
ATOM     69  C   UNL A   1      34.105  29.829  27.024  1.00  0.00     0.118 C 
BRANCH  69  70
ATOM     70  N   UNL A   1      33.048  29.046  27.646  1.00  0.00    -0.352 N 
ATOM     71  C   UNL A   1      32.073  28.247  27.107  1.00  0.00     0.252 C 
ATOM     72  H   UNL A   1      33.029  29.099  28.628  1.00  0.00     0.163 HD
ATOM     73  O   UNL A   1      31.191  27.818  27.851  1.00  0.00    -0.269 OA
BRANCH  71  74
ATOM     74  C   UNL A   1      32.042  27.983  25.674  1.00  0.00     0.051 A 
ATOM     75  C   UNL A   1      31.510  28.800  24.697  1.00  0.00     0.080 A 
ATOM     76  C   UNL A   1      32.682  26.854  25.062  1.00  0.00     0.048 A 
ATOM     77  S   UNL A   1      31.548  28.084  23.145  1.00  0.00    -0.130 S 
ATOM     78  C   UNL A   1      32.348  26.684  23.732  1.00  0.00     0.141 A 
BRANCH  78  79
ATOM     79  S   UNL A   1      32.655  25.412  22.523  1.00  0.00     0.271 S 
ATOM     80  O   UNL A   1      32.505  26.035  21.230  1.00  0.00    -0.200 OA
ATOM     81  O   UNL A   1      33.922  24.827  22.928  1.00  0.00    -0.200 OA
BRANCH  79  82
ATOM     82  N   UNL A   1      31.539  24.134  22.555  1.00  0.00    -0.279 N 
ATOM     83  H   UNL A   1      30.708  24.196  22.030  1.00  0.00     0.180 HD
BRANCH  82  84
ATOM     84  C   UNL A   1      31.798  22.979  23.337  1.00  0.00     0.049 A 
ATOM     85  C   UNL A   1      32.248  21.816  22.705  1.00  0.00     0.030 A 
ATOM     86  C   UNL A   1      31.550  22.988  24.713  1.00  0.00     0.030 A 
ATOM     87  C   UNL A   1      32.437  20.650  23.450  1.00  0.00     0.041 A 
ATOM     88  C   UNL A   1      31.751  21.823  25.456  1.00  0.00     0.041 A 
ATOM     89  C   UNL A   1      32.186  20.665  24.818  1.00  0.00     0.123 A 
ATOM     90  F   UNL A   1      32.357  19.545  25.531  1.00  0.00    -0.207 F 
ENDBRANCH  82  84
ENDBRANCH  79  82
ENDBRANCH  78  79
ENDBRANCH  71  74
ENDBRANCH  69  70
ENDBRANCH   1  69
TORSDOF 16
ENDMDL
MODEL 2
REMARK VINA RESULT:     -11.5      1.839      2.407
REMARK SMILES O=C(NCCCNC(=O)c1csc(S(=O)(=O)Nc2ccc(F)cc2)c1)c1ccc(-c2c3nc(c(-c4ccc(S(=O)(=O)[O-])cc4)c4ccc([nH]4)c(-c4ccc(S(=O)(=O)[O-])cc4)c4nc(c(-c5ccc(S(=O)(=O)[O-])cc5)c5ccc2[nH]5)C=C4)C=C3)cc1
REMARK SMILES IDX 5 1 4 2 3 3 1 4 2 5 26 7 27 8 85 9 28 10 84 11 29 12 30 13
REMARK SMILES IDX 31 14 78 15 32 16 83 17 77 18 79 19 33 20 82 21 76 22 75 23
REMARK SMILES IDX 34 25 64 26 45 27 63 28 46 29 49 30 62 31 80 32 47 33 48 34
REMARK SMILES IDX 61 36 81 37 50 38 35 39 36 40 44 41 37 42 43 43 38 44 39 45
REMARK SMILES IDX 40 46 41 47 42 48 65 49 66 50 74 51 67 52 73 53 68 54 69 55
REMARK SMILES IDX 70 56 71 57 72 58 51 59 52 60 60 61 53 62 59 63 54 64 55 65
REMARK SMILES IDX 56 66 57 67 58 68 6 69 7 70 8 71 9 73 10 74 11 75 25 76
REMARK SMILES IDX 12 77 13 78 14 79 15 80 16 81 17 82 18 84 19 85 24 86 20 87
REMARK SMILES IDX 23 88 21 89 22 90
REMARK H PARENT 3 6 79 24 49 35 7 72 17 83
REMARK Flexibility Score: inf
ROOT
ATOM      1  C   UNL A   1      33.935  29.636  27.261  1.00  0.00     0.042 C 
ENDROOT
BRANCH   1   2
ATOM      2  C   UNL A   1      35.315  30.077  27.738  1.00  0.00     0.118 C 
BRANCH   2   3
ATOM      3  N   UNL A   1      35.380  30.280  29.179  1.00  0.00    -0.352 N 
ATOM      4  O   UNL A   1      36.115  30.129  31.286  1.00  0.00    -0.269 OA
ATOM      5  C   UNL A   1      36.384  30.059  30.089  1.00  0.00     0.251 C 
ATOM      6  H   UNL A   1      34.553  30.640  29.572  1.00  0.00     0.163 HD
BRANCH   5   7
ATOM      7  C   UNL A   1      37.766  29.731  29.666  1.00  0.00     0.039 A 
ATOM      8  C   UNL A   1      38.714  29.243  30.566  1.00  0.00     0.014 A 
ATOM      9  C   UNL A   1      38.098  29.837  28.309  1.00  0.00     0.014 A 
ATOM     10  C   UNL A   1      40.018  28.994  30.143  1.00  0.00     0.010 A 
ATOM     11  C   UNL A   1      39.385  29.507  27.869  1.00  0.00     0.010 A 
ATOM     12  C   UNL A   1      40.367  29.110  28.787  1.00  0.00    -0.014 A 
BRANCH  12  13
ATOM     13  C   UNL A   1      41.742  28.752  28.351  1.00  0.00     0.031 A 
ATOM     14  C   UNL A   1      42.853  29.768  28.370  1.00  0.00     0.074 A 
ATOM     15  C   UNL A   1      41.997  27.486  27.967  1.00  0.00     0.049 A 
ATOM     16  N   UNL A   1      44.117  29.606  28.070  1.00  0.00    -0.248 NA
ATOM     17  C   UNL A   1      42.504  31.139  28.772  1.00  0.00     0.031 C 
ATOM     18  C   UNL A   1      41.003  26.411  27.894  1.00  0.00     0.029 A 
ATOM     19  N   UNL A   1      43.168  26.879  27.589  1.00  0.00    -0.354 N 
ATOM     20  C   UNL A   1      44.713  30.852  28.231  1.00  0.00     0.074 A 
ATOM     21  C   UNL A   1      43.665  31.767  28.634  1.00  0.00     0.031 C 
ATOM     22  C   UNL A   1      41.616  25.268  27.551  1.00  0.00     0.029 A 
ATOM     23  C   UNL A   1      43.032  25.536  27.326  1.00  0.00     0.049 A 
ATOM     24  H   UNL A   1      44.024  27.360  27.514  1.00  0.00     0.167 HD
ATOM     25  C   UNL A   1      46.011  31.202  28.066  1.00  0.00     0.031 A 
ATOM     26  C   UNL A   1      43.939  24.620  26.942  1.00  0.00     0.031 A 
ATOM     27  C   UNL A   1      47.053  30.293  27.666  1.00  0.00     0.049 A 
ATOM     28  C   UNL A   1      45.368  25.038  26.747  1.00  0.00     0.074 A 
ATOM     29  C   UNL A   1      48.403  30.552  27.495  1.00  0.00     0.029 A 
ATOM     30  N   UNL A   1      46.865  28.951  27.373  1.00  0.00    -0.354 N 
ATOM     31  N   UNL A   1      45.910  26.217  26.931  1.00  0.00    -0.248 NA
ATOM     32  C   UNL A   1      46.305  24.001  26.295  1.00  0.00     0.031 C 
ATOM     33  C   UNL A   1      49.024  29.377  27.060  1.00  0.00     0.029 A 
ATOM     34  C   UNL A   1      48.069  28.374  27.004  1.00  0.00     0.049 A 
ATOM     35  H   UNL A   1      46.003  28.478  27.419  1.00  0.00     0.167 HD
ATOM     36  C   UNL A   1      47.257  26.063  26.624  1.00  0.00     0.074 A 
ATOM     37  C   UNL A   1      47.449  24.672  26.264  1.00  0.00     0.031 C 
ATOM     38  C   UNL A   1      48.244  26.992  26.637  1.00  0.00     0.031 A 
BRANCH  25  39
ATOM     39  C   UNL A   1      46.378  32.643  28.300  1.00  0.00    -0.014 A 
ATOM     40  C   UNL A   1      46.794  33.089  29.567  1.00  0.00     0.010 A 
ATOM     41  C   UNL A   1      46.352  33.554  27.228  1.00  0.00     0.010 A 
ATOM     42  C   UNL A   1      47.143  34.428  29.768  1.00  0.00     0.020 A 
ATOM     43  C   UNL A   1      46.721  34.889  27.419  1.00  0.00     0.020 A 
ATOM     44  C   UNL A   1      47.098  35.321  28.692  1.00  0.00     0.054 A 
BRANCH  44  45
ATOM     45  S   UNL A   1      47.571  37.050  28.972  1.00  0.00     0.124 S 
ATOM     46  O   UNL A   1      47.433  37.619  27.634  1.00  0.00    -0.237 OA
ATOM     47  O   UNL A   1      46.584  37.501  29.950  1.00  0.00    -0.237 OA
ATOM     48  O   UNL A   1      48.941  36.958  29.472  1.00  0.00    -0.744 OA
ENDBRANCH  44  45
ENDBRANCH  25  39
BRANCH  26  49
ATOM     49  C   UNL A   1      43.514  23.213  26.717  1.00  0.00    -0.014 A 
ATOM     50  C   UNL A   1      43.673  22.613  25.456  1.00  0.00     0.010 A 
ATOM     51  C   UNL A   1      42.983  22.455  27.776  1.00  0.00     0.010 A 
ATOM     52  C   UNL A   1      43.302  21.280  25.257  1.00  0.00     0.020 A 
ATOM     53  C   UNL A   1      42.634  21.116  27.588  1.00  0.00     0.020 A 
ATOM     54  C   UNL A   1      42.788  20.539  26.326  1.00  0.00     0.054 A 
BRANCH  54  55
ATOM     55  S   UNL A   1      42.380  18.789  26.069  1.00  0.00     0.124 S 
ATOM     56  O   UNL A   1      43.310  18.415  25.009  1.00  0.00    -0.237 OA
ATOM     57  O   UNL A   1      42.645  18.204  27.381  1.00  0.00    -0.237 OA
ATOM     58  O   UNL A   1      40.970  18.823  25.686  1.00  0.00    -0.744 OA
ENDBRANCH  54  55
ENDBRANCH  26  49
BRANCH  38  59
ATOM     59  C   UNL A   1      49.624  26.528  26.265  1.00  0.00    -0.014 A 
ATOM     60  C   UNL A   1      50.136  26.744  24.973  1.00  0.00     0.010 A 
ATOM     61  C   UNL A   1      50.433  25.902  27.230  1.00  0.00     0.010 A 
ATOM     62  C   UNL A   1      51.423  26.313  24.644  1.00  0.00     0.020 A 
ATOM     63  C   UNL A   1      51.729  25.489  26.911  1.00  0.00     0.020 A 
ATOM     64  C   UNL A   1      52.210  25.684  25.615  1.00  0.00     0.054 A 
BRANCH  64  65
ATOM     65  S   UNL A   1      53.892  25.164  25.177  1.00  0.00     0.124 S 
ATOM     66  O   UNL A   1      54.656  25.593  26.346  1.00  0.00    -0.237 OA
ATOM     67  O   UNL A   1      53.752  23.718  25.014  1.00  0.00    -0.237 OA
ATOM     68  O   UNL A   1      54.170  25.898  23.945  1.00  0.00    -0.744 OA
ENDBRANCH  64  65
ENDBRANCH  38  59
ENDBRANCH  12  13
ENDBRANCH   5   7
ENDBRANCH   2   3
ENDBRANCH   1   2
BRANCH   1  69
ATOM     69  C   UNL A   1      33.947  28.590  26.150  1.00  0.00     0.118 C 
BRANCH  69  70
ATOM     70  N   UNL A   1      33.530  29.114  24.858  1.00  0.00    -0.352 N 
ATOM     71  C   UNL A   1      33.010  28.494  23.751  1.00  0.00     0.252 C 
ATOM     72  H   UNL A   1      33.638  30.088  24.763  1.00  0.00     0.163 HD
ATOM     73  O   UNL A   1      32.888  29.150  22.718  1.00  0.00    -0.269 OA
BRANCH  71  74
ATOM     74  C   UNL A   1      32.690  27.073  23.783  1.00  0.00     0.051 A 
ATOM     75  C   UNL A   1      31.435  26.513  23.920  1.00  0.00     0.080 A 
ATOM     76  C   UNL A   1      33.657  26.037  23.555  1.00  0.00     0.048 A 
ATOM     77  S   UNL A   1      31.483  24.809  24.042  1.00  0.00    -0.130 S 
ATOM     78  C   UNL A   1      33.186  24.770  23.841  1.00  0.00     0.141 A 
BRANCH  78  79
ATOM     79  S   UNL A   1      33.934  23.156  23.935  1.00  0.00     0.271 S 
ATOM     80  O   UNL A   1      34.007  22.824  25.338  1.00  0.00    -0.200 OA
ATOM     81  O   UNL A   1      33.158  22.343  23.015  1.00  0.00    -0.200 OA
BRANCH  79  82
ATOM     82  N   UNL A   1      35.529  23.090  23.359  1.00  0.00    -0.279 N 
ATOM     83  H   UNL A   1      35.716  23.284  22.412  1.00  0.00     0.180 HD
BRANCH  82  84
ATOM     84  C   UNL A   1      36.592  22.756  24.237  1.00  0.00     0.049 A 
ATOM     85  C   UNL A   1      37.052  21.436  24.279  1.00  0.00     0.030 A 
ATOM     86  C   UNL A   1      37.131  23.723  25.091  1.00  0.00     0.030 A 
ATOM     87  C   UNL A   1      38.046  21.077  25.191  1.00  0.00     0.041 A 
ATOM     88  C   UNL A   1      38.134  23.362  25.994  1.00  0.00     0.041 A 
ATOM     89  C   UNL A   1      38.577  22.042  26.040  1.00  0.00     0.123 A 
ATOM     90  F   UNL A   1      39.524  21.697  26.921  1.00  0.00    -0.207 F 
ENDBRANCH  82  84
ENDBRANCH  79  82
ENDBRANCH  78  79
ENDBRANCH  71  74
ENDBRANCH  69  70
ENDBRANCH   1  69
TORSDOF 16
ENDMDL
MODEL 3
REMARK VINA RESULT:     -11.4      3.962     10.017
REMARK SMILES O=C(NCCCNC(=O)c1csc(S(=O)(=O)Nc2ccc(F)cc2)c1)c1ccc(-c2c3nc(c(-c4ccc(S(=O)(=O)[O-])cc4)c4ccc([nH]4)c(-c4ccc(S(=O)(=O)[O-])cc4)c4nc(c(-c5ccc(S(=O)(=O)[O-])cc5)c5ccc2[nH]5)C=C4)C=C3)cc1
REMARK SMILES IDX 5 1 4 2 3 3 1 4 2 5 26 7 27 8 85 9 28 10 84 11 29 12 30 13
REMARK SMILES IDX 31 14 78 15 32 16 83 17 77 18 79 19 33 20 82 21 76 22 75 23
REMARK SMILES IDX 34 25 64 26 45 27 63 28 46 29 49 30 62 31 80 32 47 33 48 34
REMARK SMILES IDX 61 36 81 37 50 38 35 39 36 40 44 41 37 42 43 43 38 44 39 45
REMARK SMILES IDX 40 46 41 47 42 48 65 49 66 50 74 51 67 52 73 53 68 54 69 55
REMARK SMILES IDX 70 56 71 57 72 58 51 59 52 60 60 61 53 62 59 63 54 64 55 65
REMARK SMILES IDX 56 66 57 67 58 68 6 69 7 70 8 71 9 73 10 74 11 75 25 76
REMARK SMILES IDX 12 77 13 78 14 79 15 80 16 81 17 82 18 84 19 85 24 86 20 87
REMARK SMILES IDX 23 88 21 89 22 90
REMARK H PARENT 3 6 79 24 49 35 7 72 17 83
REMARK Flexibility Score: inf
ROOT
ATOM      1  C   UNL A   1      34.855  23.111  26.691  1.00  0.00     0.042 C 
ENDROOT
BRANCH   1   2
ATOM      2  C   UNL A   1      36.029  23.653  25.882  1.00  0.00     0.118 C 
BRANCH   2   3
ATOM      3  N   UNL A   1      37.158  22.734  25.833  1.00  0.00    -0.352 N 
ATOM      4  O   UNL A   1      39.276  22.014  25.810  1.00  0.00    -0.269 OA
ATOM      5  C   UNL A   1      38.488  22.905  26.124  1.00  0.00     0.251 C 
ATOM      6  H   UNL A   1      36.924  21.825  25.537  1.00  0.00     0.163 HD
BRANCH   5   7
ATOM      7  C   UNL A   1      38.994  24.128  26.791  1.00  0.00     0.039 A 
ATOM      8  C   UNL A   1      39.729  25.092  26.099  1.00  0.00     0.014 A 
ATOM      9  C   UNL A   1      38.651  24.356  28.130  1.00  0.00     0.014 A 
ATOM     10  C   UNL A   1      40.231  26.205  26.772  1.00  0.00     0.010 A 
ATOM     11  C   UNL A   1      39.085  25.515  28.783  1.00  0.00     0.010 A 
ATOM     12  C   UNL A   1      39.905  26.437  28.118  1.00  0.00    -0.014 A 
BRANCH  12  13
ATOM     13  C   UNL A   1      40.382  27.678  28.784  1.00  0.00     0.031 A 
ATOM     14  C   UNL A   1      41.803  27.804  29.267  1.00  0.00     0.074 A 
ATOM     15  C   UNL A   1      39.531  28.713  28.922  1.00  0.00     0.049 A 
ATOM     16  N   UNL A   1      42.391  28.834  29.822  1.00  0.00    -0.248 NA
ATOM     17  C   UNL A   1      42.672  26.629  29.112  1.00  0.00     0.031 C 
ATOM     18  C   UNL A   1      38.126  28.712  28.504  1.00  0.00     0.029 A 
ATOM     19  N   UNL A   1      39.725  29.975  29.426  1.00  0.00    -0.354 N 
ATOM     20  C   UNL A   1      43.693  28.429  30.097  1.00  0.00     0.074 A 
ATOM     21  C   UNL A   1      43.801  27.051  29.668  1.00  0.00     0.031 C 
ATOM     22  C   UNL A   1      37.602  29.928  28.719  1.00  0.00     0.029 A 
ATOM     23  C   UNL A   1      38.613  30.779  29.337  1.00  0.00     0.049 A 
ATOM     24  H   UNL A   1      40.578  30.275  29.814  1.00  0.00     0.167 HD
ATOM     25  C   UNL A   1      44.706  29.141  30.648  1.00  0.00     0.031 A 
ATOM     26  C   UNL A   1      38.420  32.057  29.713  1.00  0.00     0.031 A 
ATOM     27  C   UNL A   1      44.598  30.512  31.074  1.00  0.00     0.049 A 
ATOM     28  C   UNL A   1      39.553  32.816  30.340  1.00  0.00     0.074 A 
ATOM     29  C   UNL A   1      45.578  31.322  31.623  1.00  0.00     0.029 A 
ATOM     30  N   UNL A   1      43.444  31.277  31.001  1.00  0.00    -0.354 N 
ATOM     31  N   UNL A   1      40.782  32.419  30.566  1.00  0.00    -0.248 NA
ATOM     32  C   UNL A   1      39.273  34.195  30.760  1.00  0.00     0.031 C 
ATOM     33  C   UNL A   1      45.006  32.563  31.919  1.00  0.00     0.029 A 
ATOM     34  C   UNL A   1      43.682  32.542  31.512  1.00  0.00     0.049 A 
ATOM     35  H   UNL A   1      42.582  30.966  30.640  1.00  0.00     0.167 HD
ATOM     36  C   UNL A   1      41.426  33.504  31.149  1.00  0.00     0.074 A 
ATOM     37  C   UNL A   1      40.456  34.579  31.221  1.00  0.00     0.031 C 
ATOM     38  C   UNL A   1      42.705  33.598  31.587  1.00  0.00     0.031 A 
BRANCH  25  39
ATOM     39  C   UNL A   1      46.023  28.438  30.843  1.00  0.00    -0.014 A 
ATOM     40  C   UNL A   1      46.285  27.701  32.011  1.00  0.00     0.010 A 
ATOM     41  C   UNL A   1      46.992  28.476  29.824  1.00  0.00     0.010 A 
ATOM     42  C   UNL A   1      47.509  27.044  32.174  1.00  0.00     0.020 A 
ATOM     43  C   UNL A   1      48.209  27.803  29.973  1.00  0.00     0.020 A 
ATOM     44  C   UNL A   1      48.466  27.105  31.155  1.00  0.00     0.054 A 
BRANCH  44  45
ATOM     45  S   UNL A   1      50.039  26.230  31.382  1.00  0.00     0.124 S 
ATOM     46  O   UNL A   1      50.379  25.867  30.008  1.00  0.00    -0.237 OA
ATOM     47  O   UNL A   1      50.891  27.250  31.989  1.00  0.00    -0.237 OA
ATOM     48  O   UNL A   1      49.692  25.112  32.255  1.00  0.00    -0.744 OA
ENDBRANCH  44  45
ENDBRANCH  25  39
BRANCH  26  49
ATOM     49  C   UNL A   1      37.093  32.693  29.504  1.00  0.00    -0.014 A 
ATOM     50  C   UNL A   1      36.142  32.716  30.537  1.00  0.00     0.010 A 
ATOM     51  C   UNL A   1      36.791  33.315  28.278  1.00  0.00     0.010 A 
ATOM     52  C   UNL A   1      34.908  33.344  30.347  1.00  0.00     0.020 A 
ATOM     53  C   UNL A   1      35.569  33.964  28.092  1.00  0.00     0.020 A 
ATOM     54  C   UNL A   1      34.631  33.968  29.126  1.00  0.00     0.054 A 
BRANCH  54  55
ATOM     55  S   UNL A   1      33.053  34.841  28.921  1.00  0.00     0.124 S 
ATOM     56  O   UNL A   1      32.339  33.964  28.000  1.00  0.00    -0.237 OA
ATOM     57  O   UNL A   1      32.534  34.885  30.287  1.00  0.00    -0.237 OA
ATOM     58  O   UNL A   1      33.451  36.137  28.375  1.00  0.00    -0.744 OA
ENDBRANCH  54  55
ENDBRANCH  26  49
BRANCH  38  59
ATOM     59  C   UNL A   1      43.132  34.916  32.170  1.00  0.00    -0.014 A 
ATOM     60  C   UNL A   1      43.745  35.897  31.370  1.00  0.00     0.010 A 
ATOM     61  C   UNL A   1      42.883  35.191  33.527  1.00  0.00     0.010 A 
ATOM     62  C   UNL A   1      44.130  37.119  31.925  1.00  0.00     0.020 A 
ATOM     63  C   UNL A   1      43.247  36.421  34.080  1.00  0.00     0.020 A 
ATOM     64  C   UNL A   1      43.882  37.372  33.278  1.00  0.00     0.054 A 
BRANCH  64  65
ATOM     65  S   UNL A   1      44.358  38.980  33.971  1.00  0.00     0.124 S 
ATOM     66  O   UNL A   1      44.840  38.608  35.298  1.00  0.00    -0.237 OA
ATOM     67  O   UNL A   1      45.383  39.444  33.038  1.00  0.00    -0.237 OA
ATOM     68  O   UNL A   1      43.114  39.745  33.950  1.00  0.00    -0.744 OA
ENDBRANCH  64  65
ENDBRANCH  38  59
ENDBRANCH  12  13
ENDBRANCH   5   7
ENDBRANCH   2   3
ENDBRANCH   1   2
BRANCH   1  69
ATOM     69  C   UNL A   1      34.378  21.723  26.274  1.00  0.00     0.118 C 
BRANCH  69  70
ATOM     70  N   UNL A   1      32.935  21.559  26.356  1.00  0.00    -0.352 N 
ATOM     71  C   UNL A   1      31.926  21.967  25.522  1.00  0.00     0.252 C 
ATOM     72  H   UNL A   1      32.628  21.067  27.152  1.00  0.00     0.163 HD
ATOM     73  O   UNL A   1      30.764  21.839  25.906  1.00  0.00    -0.269 OA
BRANCH  71  74
ATOM     74  C   UNL A   1      32.232  22.609  24.251  1.00  0.00     0.051 A 
ATOM     75  C   UNL A   1      32.777  22.009  23.134  1.00  0.00     0.080 A 
ATOM     76  C   UNL A   1      31.891  23.970  23.948  1.00  0.00     0.048 A 
ATOM     77  S   UNL A   1      33.108  23.124  21.881  1.00  0.00    -0.130 S 
ATOM     78  C   UNL A   1      32.459  24.434  22.778  1.00  0.00     0.141 A 
BRANCH  78  79
ATOM     79  S   UNL A   1      32.562  26.029  21.990  1.00  0.00     0.271 S 
ATOM     80  O   UNL A   1      33.278  25.826  20.754  1.00  0.00    -0.200 OA
ATOM     81  O   UNL A   1      31.195  26.521  21.990  1.00  0.00    -0.200 OA
BRANCH  79  82
ATOM     82  N   UNL A   1      33.456  27.181  22.860  1.00  0.00    -0.279 N 
ATOM     83  H   UNL A   1      34.316  27.503  22.506  1.00  0.00     0.180 HD
BRANCH  82  84
ATOM     84  C   UNL A   1      32.966  27.679  24.095  1.00  0.00     0.049 A 
ATOM     85  C   UNL A   1      33.352  27.051  25.284  1.00  0.00     0.030 A 
ATOM     86  C   UNL A   1      32.065  28.748  24.116  1.00  0.00     0.030 A 
ATOM     87  C   UNL A   1      32.820  27.485  26.500  1.00  0.00     0.041 A 
ATOM     88  C   UNL A   1      31.545  29.185  25.337  1.00  0.00     0.041 A 
ATOM     89  C   UNL A   1      31.922  28.546  26.515  1.00  0.00     0.123 A 
ATOM     90  F   UNL A   1      31.405  28.955  27.680  1.00  0.00    -0.207 F 
ENDBRANCH  82  84
ENDBRANCH  79  82
ENDBRANCH  78  79
ENDBRANCH  71  74
ENDBRANCH  69  70
ENDBRANCH   1  69
TORSDOF 16
ENDMDL
