MODEL 1
REMARK VINA RESULT:     -12.8      0.000      0.000
REMARK SMILES O=C1NC(=O)/C(=C/c2ccc(OCc3cn(-c4ccc(C(=O)NCCCNC(=O)c5ccc(-c6c7nc(c(-c8ccc(S(=O)(=O)[O-])cc8)c8ccc([nH]8)c(-c8ccc(S(=O)(=O)[O-])cc8)c8nc(c(-c9ccc(S(=O)(=O)[O-])cc9)c9ccc6[nH]9)C=C8)C=C7)cc5)cc4)nn3)cc2)S1
REMARK SMILES IDX 24 1 23 2 21 3 22 4 20 6 17 7 18 8 91 9 19 10 90 11 16 12
REMARK SMILES IDX 14 13 15 14 93 15 92 16 13 17 12 18 11 19 8 20 9 21 95 22
REMARK SMILES IDX 10 23 94 24 7 25 1 26 2 27 3 28 96 29 4 30 6 32 5 33 25 34
REMARK SMILES IDX 26 35 27 36 28 37 29 39 30 40 31 41 89 42 32 43 88 44 33 45
REMARK SMILES IDX 34 46 35 47 82 48 36 49 87 50 81 51 83 52 37 53 86 54 80 55
REMARK SMILES IDX 79 56 38 58 68 59 49 60 67 61 50 62 53 63 66 64 84 65 51 66
REMARK SMILES IDX 52 67 65 69 85 70 54 71 39 72 40 73 48 74 41 75 47 76 42 77
REMARK SMILES IDX 43 78 44 79 45 80 46 81 69 82 70 83 78 84 71 85 77 86 72 87
REMARK SMILES IDX 73 88 74 89 75 90 76 91 55 92 56 93 64 94 57 95 63 96 58 97
REMARK SMILES IDX 59 98 60 99 61 100 62 101
REMARK H PARENT 23 5 3 31 27 38 83 57 53 68
REMARK Flexibility Score: inf
ROOT
ATOM      1  C   UNL A   1      42.787  19.083  25.906  1.00  0.00     0.118 C 
ENDROOT
BRANCH   1   2
ATOM      2  N   UNL A   1      43.024  20.180  26.832  1.00  0.00    -0.352 N 
ATOM      3  C   UNL A   1      42.239  21.240  27.219  1.00  0.00     0.251 C 
ATOM      4  O   UNL A   1      42.671  21.983  28.098  1.00  0.00    -0.269 OA
ATOM      5  H   UNL A   1      43.910  20.160  27.259  1.00  0.00     0.163 HD
BRANCH   3   6
ATOM      6  C   UNL A   1      40.873  21.474  26.674  1.00  0.00     0.039 A 
ATOM      7  C   UNL A   1      38.228  21.963  25.908  1.00  0.00     0.066 A 
ATOM      8  C   UNL A   1      39.005  23.008  26.420  1.00  0.00     0.029 A 
ATOM      9  C   UNL A   1      38.785  20.706  25.697  1.00  0.00     0.029 A 
ATOM     10  C   UNL A   1      40.315  22.751  26.832  1.00  0.00     0.016 A 
ATOM     11  C   UNL A   1      40.118  20.496  26.022  1.00  0.00     0.016 A 
BRANCH   7  12
ATOM     12  N   UNL A   1      36.881  22.175  25.579  1.00  0.00    -0.220 N 
ATOM     13  C   UNL A   1      34.793  21.965  25.000  1.00  0.00     0.120 A 
ATOM     14  C   UNL A   1      35.916  21.231  25.310  1.00  0.00     0.144 A 
ATOM     15  N   UNL A   1      35.096  23.293  25.135  1.00  0.00    -0.131 NA
ATOM     16  N   UNL A   1      36.351  23.409  25.526  1.00  0.00    -0.062 NA
BRANCH  13  17
ATOM     17  C   UNL A   1      33.396  21.532  24.697  1.00  0.00     0.289 C 
BRANCH  17  18
ATOM     18  O   UNL A   1      32.966  21.700  23.335  1.00  0.00    -0.487 OA
BRANCH  18  19
ATOM     19  C   UNL A   1      32.351  22.872  22.983  1.00  0.00     0.119 A 
ATOM     20  C   UNL A   1      31.458  25.471  22.391  1.00  0.00    -0.024 A 
ATOM     21  C   UNL A   1      32.635  24.985  21.818  1.00  0.00     0.012 A 
ATOM     22  C   UNL A   1      30.684  24.615  23.178  1.00  0.00     0.012 A 
ATOM     23  C   UNL A   1      33.083  23.694  22.123  1.00  0.00     0.047 A 
ATOM     24  C   UNL A   1      31.111  23.311  23.435  1.00  0.00     0.047 A 
BRANCH  20  25
ATOM     25  C   UNL A   1      31.015  26.847  22.158  1.00  0.00     0.029 C 
ATOM     26  O   UNL A   1      31.614  30.135  25.931  1.00  0.00    -0.261 OA
ATOM     27  C   UNL A   1      31.371  29.518  24.899  1.00  0.00     0.290 C 
ATOM     28  N   UNL A   1      30.726  30.017  23.821  1.00  0.00    -0.282 N 
ATOM     29  S   UNL A   1      31.811  27.849  24.613  1.00  0.00    -0.022 SA
ATOM     30  C   UNL A   1      30.537  29.197  22.748  1.00  0.00     0.265 C 
ATOM     31  H   UNL A   1      30.403  30.947  23.810  1.00  0.00     0.174 HD
ATOM     32  C   UNL A   1      31.104  27.853  23.039  1.00  0.00     0.083 C 
ATOM     33  O   UNL A   1      29.971  29.516  21.717  1.00  0.00    -0.268 OA
ENDBRANCH  20  25
ENDBRANCH  18  19
ENDBRANCH  17  18
ENDBRANCH  13  17
ENDBRANCH   7  12
ENDBRANCH   3   6
ENDBRANCH   1   2
BRANCH   1  34
ATOM     34  C   UNL A   1      44.039  18.751  25.078  1.00  0.00     0.042 C 
BRANCH  34  35
ATOM     35  C   UNL A   1      45.009  19.909  25.053  1.00  0.00     0.118 C 
BRANCH  35  36
ATOM     36  N   UNL A   1      44.955  20.663  23.789  1.00  0.00    -0.352 N 
ATOM     37  C   UNL A   1      44.537  21.971  23.579  1.00  0.00     0.251 C 
ATOM     38  H   UNL A   1      45.254  20.176  22.989  1.00  0.00     0.163 HD
ATOM     39  O   UNL A   1      44.215  22.356  22.461  1.00  0.00    -0.269 OA
BRANCH  37  40
ATOM     40  C   UNL A   1      44.511  22.879  24.736  1.00  0.00     0.039 A 
ATOM     41  C   UNL A   1      45.551  23.034  25.655  1.00  0.00     0.014 A 
ATOM     42  C   UNL A   1      43.395  23.689  24.806  1.00  0.00     0.014 A 
ATOM     43  C   UNL A   1      45.417  24.032  26.620  1.00  0.00     0.010 A 
ATOM     44  C   UNL A   1      43.541  24.902  25.381  1.00  0.00     0.010 A 
ATOM     45  C   UNL A   1      44.374  24.955  26.472  1.00  0.00    -0.014 A 
BRANCH  45  46
ATOM     46  C   UNL A   1      44.083  26.050  27.375  1.00  0.00     0.031 A 
ATOM     47  C   UNL A   1      44.990  27.202  27.211  1.00  0.00     0.074 A 
ATOM     48  C   UNL A   1      42.911  26.125  28.053  1.00  0.00     0.049 A 
ATOM     49  N   UNL A   1      45.967  27.532  27.984  1.00  0.00    -0.248 NA
ATOM     50  C   UNL A   1      44.946  27.951  25.944  1.00  0.00     0.031 C 
ATOM     51  C   UNL A   1      41.737  25.233  28.017  1.00  0.00     0.029 A 
ATOM     52  N   UNL A   1      42.470  27.124  28.849  1.00  0.00    -0.354 N 
ATOM     53  C   UNL A   1      46.493  28.693  27.437  1.00  0.00     0.074 A 
ATOM     54  C   UNL A   1      46.002  28.754  26.084  1.00  0.00     0.031 C 
ATOM     55  C   UNL A   1      40.663  25.871  28.539  1.00  0.00     0.029 A 
ATOM     56  C   UNL A   1      41.103  27.134  29.100  1.00  0.00     0.049 A 
ATOM     57  H   UNL A   1      43.077  27.802  29.227  1.00  0.00     0.167 HD
ATOM     58  C   UNL A   1      47.049  29.655  28.224  1.00  0.00     0.031 A 
ATOM     59  C   UNL A   1      40.402  28.143  29.686  1.00  0.00     0.031 A 
ATOM     60  C   UNL A   1      47.212  29.197  29.584  1.00  0.00     0.049 A 
ATOM     61  C   UNL A   1      41.403  28.968  30.422  1.00  0.00     0.074 A 
ATOM     62  C   UNL A   1      47.874  28.135  30.172  1.00  0.00     0.029 A 
ATOM     63  N   UNL A   1      46.254  29.593  30.494  1.00  0.00    -0.354 N 
ATOM     64  N   UNL A   1      42.098  28.506  31.429  1.00  0.00    -0.248 NA
ATOM     65  C   UNL A   1      42.012  30.084  29.709  1.00  0.00     0.031 C 
ATOM     66  C   UNL A   1      46.952  27.627  31.137  1.00  0.00     0.029 A 
ATOM     67  C   UNL A   1      45.833  28.464  31.156  1.00  0.00     0.049 A 
ATOM     68  H   UNL A   1      45.932  30.510  30.640  1.00  0.00     0.167 HD
ATOM     69  C   UNL A   1      43.393  28.965  31.216  1.00  0.00     0.074 A 
ATOM     70  C   UNL A   1      43.262  29.991  30.177  1.00  0.00     0.031 C 
ATOM     71  C   UNL A   1      44.486  28.270  31.658  1.00  0.00     0.031 A 
BRANCH  58  72
ATOM     72  C   UNL A   1      47.052  31.120  27.879  1.00  0.00    -0.014 A 
ATOM     73  C   UNL A   1      45.861  31.852  28.045  1.00  0.00     0.010 A 
ATOM     74  C   UNL A   1      48.093  31.735  27.156  1.00  0.00     0.010 A 
ATOM     75  C   UNL A   1      45.700  33.112  27.459  1.00  0.00     0.020 A 
ATOM     76  C   UNL A   1      47.959  33.010  26.604  1.00  0.00     0.020 A 
ATOM     77  C   UNL A   1      46.749  33.677  26.732  1.00  0.00     0.054 A 
BRANCH  77  78
ATOM     78  S   UNL A   1      46.492  35.259  25.896  1.00  0.00     0.124 S 
ATOM     79  O   UNL A   1      47.789  35.905  26.073  1.00  0.00    -0.237 OA
ATOM     80  O   UNL A   1      46.173  34.838  24.535  1.00  0.00    -0.237 OA
ATOM     81  O   UNL A   1      45.384  35.860  26.634  1.00  0.00    -0.744 OA
ENDBRANCH  77  78
ENDBRANCH  58  72
BRANCH  59  82
ATOM     82  C   UNL A   1      39.048  28.642  29.303  1.00  0.00    -0.014 A 
ATOM     83  C   UNL A   1      38.022  28.803  30.255  1.00  0.00     0.010 A 
ATOM     84  C   UNL A   1      38.848  29.231  28.037  1.00  0.00     0.010 A 
ATOM     85  C   UNL A   1      36.874  29.573  29.970  1.00  0.00     0.020 A 
ATOM     86  C   UNL A   1      37.709  29.997  27.744  1.00  0.00     0.020 A 
ATOM     87  C   UNL A   1      36.738  30.186  28.721  1.00  0.00     0.054 A 
BRANCH  87  88
ATOM     88  S   UNL A   1      35.354  31.332  28.423  1.00  0.00     0.124 S 
ATOM     89  O   UNL A   1      35.968  32.353  27.580  1.00  0.00    -0.237 OA
ATOM     90  O   UNL A   1      34.370  30.478  27.764  1.00  0.00    -0.237 OA
ATOM     91  O   UNL A   1      34.981  31.778  29.764  1.00  0.00    -0.744 OA
ENDBRANCH  87  88
ENDBRANCH  59  82
BRANCH  71  92
ATOM     92  C   UNL A   1      44.279  27.072  32.565  1.00  0.00    -0.014 A 
ATOM     93  C   UNL A   1      44.274  25.733  32.121  1.00  0.00     0.010 A 
ATOM     94  C   UNL A   1      44.273  27.308  33.950  1.00  0.00     0.010 A 
ATOM     95  C   UNL A   1      44.235  24.667  33.037  1.00  0.00     0.020 A 
ATOM     96  C   UNL A   1      44.252  26.254  34.868  1.00  0.00     0.020 A 
ATOM     97  C   UNL A   1      44.221  24.937  34.409  1.00  0.00     0.054 A 
BRANCH  97  98
ATOM     98  S   UNL A   1      44.195  23.564  35.597  1.00  0.00     0.124 S 
ATOM     99  O   UNL A   1      45.414  23.789  36.370  1.00  0.00    -0.237 OA
ATOM    100  O   UNL A   1      42.943  23.781  36.319  1.00  0.00    -0.237 OA
ATOM    101  O   UNL A   1      44.213  22.370  34.752  1.00  0.00    -0.744 OA
ENDBRANCH  97  98
ENDBRANCH  71  92
ENDBRANCH  45  46
ENDBRANCH  37  40
ENDBRANCH  35  36
ENDBRANCH  34  35
ENDBRANCH   1  34
TORSDOF 18
ENDMDL
MODEL 2
REMARK VINA RESULT:     -11.8      2.961      4.082
REMARK SMILES O=C1NC(=O)/C(=C/c2ccc(OCc3cn(-c4ccc(C(=O)NCCCNC(=O)c5ccc(-c6c7nc(c(-c8ccc(S(=O)(=O)[O-])cc8)c8ccc([nH]8)c(-c8ccc(S(=O)(=O)[O-])cc8)c8nc(c(-c9ccc(S(=O)(=O)[O-])cc9)c9ccc6[nH]9)C=C8)C=C7)cc5)cc4)nn3)cc2)S1
REMARK SMILES IDX 24 1 23 2 21 3 22 4 20 6 17 7 18 8 91 9 19 10 90 11 16 12
REMARK SMILES IDX 14 13 15 14 93 15 92 16 13 17 12 18 11 19 8 20 9 21 95 22
REMARK SMILES IDX 10 23 94 24 7 25 1 26 2 27 3 28 96 29 4 30 6 32 5 33 25 34
REMARK SMILES IDX 26 35 27 36 28 37 29 39 30 40 31 41 89 42 32 43 88 44 33 45
REMARK SMILES IDX 34 46 35 47 82 48 36 49 87 50 81 51 83 52 37 53 86 54 80 55
REMARK SMILES IDX 79 56 38 58 68 59 49 60 67 61 50 62 53 63 66 64 84 65 51 66
REMARK SMILES IDX 52 67 65 69 85 70 54 71 39 72 40 73 48 74 41 75 47 76 42 77
REMARK SMILES IDX 43 78 44 79 45 80 46 81 69 82 70 83 78 84 71 85 77 86 72 87
REMARK SMILES IDX 73 88 74 89 75 90 76 91 55 92 56 93 64 94 57 95 63 96 58 97
REMARK SMILES IDX 59 98 60 99 61 100 62 101
REMARK H PARENT 23 5 3 31 27 38 83 57 53 68
REMARK Flexibility Score: inf
ROOT
ATOM      1  C   UNL A   1      44.161  22.264  25.848  1.00  0.00     0.118 C 
ENDROOT
BRANCH   1   2
ATOM      2  N   UNL A   1      43.839  22.362  27.263  1.00  0.00    -0.352 N 
ATOM      3  C   UNL A   1      42.639  22.424  27.930  1.00  0.00     0.251 C 
ATOM      4  O   UNL A   1      42.663  22.419  29.159  1.00  0.00    -0.269 OA
ATOM      5  H   UNL A   1      44.627  22.390  27.853  1.00  0.00     0.163 HD
BRANCH   3   6
ATOM      6  C   UNL A   1      41.325  22.423  27.228  1.00  0.00     0.039 A 
ATOM      7  C   UNL A   1      38.745  22.482  26.151  1.00  0.00     0.066 A 
ATOM      8  C   UNL A   1      39.323  23.664  26.629  1.00  0.00     0.029 A 
ATOM      9  C   UNL A   1      39.473  21.298  26.128  1.00  0.00     0.029 A 
ATOM     10  C   UNL A   1      40.599  23.623  27.196  1.00  0.00     0.016 A 
ATOM     11  C   UNL A   1      40.776  21.299  26.607  1.00  0.00     0.016 A 
BRANCH   7  12
ATOM     12  N   UNL A   1      37.428  22.482  25.668  1.00  0.00    -0.220 N 
ATOM     13  C   UNL A   1      35.394  22.997  25.088  1.00  0.00     0.120 A 
ATOM     14  C   UNL A   1      36.560  23.546  25.573  1.00  0.00     0.144 A 
ATOM     15  N   UNL A   1      35.606  21.663  24.866  1.00  0.00    -0.131 NA
ATOM     16  N   UNL A   1      36.852  21.368  25.182  1.00  0.00    -0.062 NA
BRANCH  13  17
ATOM     17  C   UNL A   1      34.106  23.638  24.688  1.00  0.00     0.289 C 
BRANCH  17  18
ATOM     18  O   UNL A   1      34.188  25.012  24.271  1.00  0.00    -0.487 OA
BRANCH  18  19
ATOM     19  C   UNL A   1      33.031  25.667  23.945  1.00  0.00     0.119 A 
ATOM     20  C   UNL A   1      30.514  26.889  23.670  1.00  0.00    -0.024 A 
ATOM     21  C   UNL A   1      31.342  27.219  24.746  1.00  0.00     0.012 A 
ATOM     22  C   UNL A   1      30.996  26.023  22.686  1.00  0.00     0.012 A 
ATOM     23  C   UNL A   1      32.591  26.602  24.886  1.00  0.00     0.047 A 
ATOM     24  C   UNL A   1      32.263  25.452  22.805  1.00  0.00     0.047 A 
BRANCH  20  25
ATOM     25  C   UNL A   1      29.169  27.455  23.549  1.00  0.00     0.029 C 
ATOM     26  O   UNL A   1      28.709  31.790  21.018  1.00  0.00    -0.261 OA
ATOM     27  C   UNL A   1      28.588  30.756  21.667  1.00  0.00     0.290 C 
ATOM     28  N   UNL A   1      27.441  30.314  22.231  1.00  0.00    -0.282 N 
ATOM     29  S   UNL A   1      29.887  29.634  22.000  1.00  0.00    -0.022 SA
ATOM     30  C   UNL A   1      27.475  29.139  22.922  1.00  0.00     0.265 C 
ATOM     31  H   UNL A   1      26.604  30.827  22.145  1.00  0.00     0.174 HD
ATOM     32  C   UNL A   1      28.857  28.589  22.908  1.00  0.00     0.083 C 
ATOM     33  O   UNL A   1      26.519  28.629  23.479  1.00  0.00    -0.268 OA
ENDBRANCH  20  25
ENDBRANCH  18  19
ENDBRANCH  17  18
ENDBRANCH  13  17
ENDBRANCH   7  12
ENDBRANCH   3   6
ENDBRANCH   1   2
BRANCH   1  34
ATOM     34  C   UNL A   1      43.614  23.460  25.052  1.00  0.00     0.042 C 
BRANCH  34  35
ATOM     35  C   UNL A   1      43.923  24.770  25.739  1.00  0.00     0.118 C 
BRANCH  35  36
ATOM     36  N   UNL A   1      45.132  25.417  25.202  1.00  0.00    -0.352 N 
ATOM     37  C   UNL A   1      45.378  26.771  25.012  1.00  0.00     0.251 C 
ATOM     38  H   UNL A   1      45.862  24.810  24.944  1.00  0.00     0.163 HD
ATOM     39  O   UNL A   1      46.261  27.149  24.251  1.00  0.00    -0.269 OA
BRANCH  37  40
ATOM     40  C   UNL A   1      44.558  27.731  25.767  1.00  0.00     0.039 A 
ATOM     41  C   UNL A   1      43.220  28.027  25.496  1.00  0.00     0.014 A 
ATOM     42  C   UNL A   1      45.177  28.270  26.876  1.00  0.00     0.014 A 
ATOM     43  C   UNL A   1      42.550  28.864  26.387  1.00  0.00     0.010 A 
ATOM     44  C   UNL A   1      44.394  28.617  27.920  1.00  0.00     0.010 A 
ATOM     45  C   UNL A   1      43.177  29.169  27.602  1.00  0.00    -0.014 A 
BRANCH  45  46
ATOM     46  C   UNL A   1      42.635  30.020  28.641  1.00  0.00     0.031 A 
ATOM     47  C   UNL A   1      43.420  31.250  28.863  1.00  0.00     0.074 A 
ATOM     48  C   UNL A   1      41.374  29.855  29.113  1.00  0.00     0.049 A 
ATOM     49  N   UNL A   1      44.228  31.485  29.838  1.00  0.00    -0.248 NA
ATOM     50  C   UNL A   1      43.479  32.245  27.779  1.00  0.00     0.031 C 
ATOM     51  C   UNL A   1      40.327  28.901  28.706  1.00  0.00     0.029 A 
ATOM     52  N   UNL A   1      40.710  30.624  30.006  1.00  0.00    -0.354 N 
ATOM     53  C   UNL A   1      44.695  32.774  29.627  1.00  0.00     0.074 A 
ATOM     54  C   UNL A   1      44.406  33.082  28.249  1.00  0.00     0.031 C 
ATOM     55  C   UNL A   1      39.122  29.325  29.156  1.00  0.00     0.029 A 
ATOM     56  C   UNL A   1      39.329  30.471  30.020  1.00  0.00     0.049 A 
ATOM     57  H   UNL A   1      41.174  31.252  30.606  1.00  0.00     0.167 HD
ATOM     58  C   UNL A   1      45.016  33.588  30.670  1.00  0.00     0.031 A 
ATOM     59  C   UNL A   1      38.439  31.273  30.667  1.00  0.00     0.031 A 
ATOM     60  C   UNL A   1      45.027  32.866  31.920  1.00  0.00     0.049 A 
ATOM     61  C   UNL A   1      39.221  32.000  31.709  1.00  0.00     0.074 A 
ATOM     62  C   UNL A   1      45.710  31.760  32.390  1.00  0.00     0.029 A 
ATOM     63  N   UNL A   1      43.906  32.981  32.716  1.00  0.00    -0.354 N 
ATOM     64  N   UNL A   1      39.807  31.392  32.707  1.00  0.00    -0.248 NA
ATOM     65  C   UNL A   1      39.798  33.287  31.342  1.00  0.00     0.031 C 
ATOM     66  C   UNL A   1      44.719  30.986  33.067  1.00  0.00     0.029 A 
ATOM     67  C   UNL A   1      43.523  31.707  33.063  1.00  0.00     0.049 A 
ATOM     68  H   UNL A   1      43.464  33.818  32.985  1.00  0.00     0.167 HD
ATOM     69  C   UNL A   1      41.059  31.987  32.809  1.00  0.00     0.074 A 
ATOM     70  C   UNL A   1      40.968  33.197  31.986  1.00  0.00     0.031 C 
ATOM     71  C   UNL A   1      42.146  31.305  33.283  1.00  0.00     0.031 A 
BRANCH  58  72
ATOM     72  C   UNL A   1      44.904  35.088  30.626  1.00  0.00    -0.014 A 
ATOM     73  C   UNL A   1      43.674  35.660  30.249  1.00  0.00     0.010 A 
ATOM     74  C   UNL A   1      46.023  35.942  30.682  1.00  0.00     0.010 A 
ATOM     75  C   UNL A   1      43.586  37.008  29.884  1.00  0.00     0.020 A 
ATOM     76  C   UNL A   1      45.938  37.298  30.363  1.00  0.00     0.020 A 
ATOM     77  C   UNL A   1      44.724  37.814  29.933  1.00  0.00     0.054 A 
BRANCH  77  78
ATOM     78  S   UNL A   1      44.617  39.526  29.362  1.00  0.00     0.124 S 
ATOM     79  O   UNL A   1      44.293  39.351  27.949  1.00  0.00    -0.237 OA
ATOM     80  O   UNL A   1      43.546  40.062  30.197  1.00  0.00    -0.237 OA
ATOM     81  O   UNL A   1      45.947  40.064  29.640  1.00  0.00    -0.744 OA
ENDBRANCH  77  78
ENDBRANCH  58  72
BRANCH  59  82
ATOM     82  C   UNL A   1      37.110  31.732  30.168  1.00  0.00    -0.014 A 
ATOM     83  C   UNL A   1      36.121  32.226  31.042  1.00  0.00     0.010 A 
ATOM     84  C   UNL A   1      36.913  31.948  28.788  1.00  0.00     0.010 A 
ATOM     85  C   UNL A   1      35.016  32.958  30.558  1.00  0.00     0.020 A 
ATOM     86  C   UNL A   1      35.817  32.673  28.297  1.00  0.00     0.020 A 
ATOM     87  C   UNL A   1      34.885  33.197  29.187  1.00  0.00     0.054 A 
BRANCH  87  88
ATOM     88  S   UNL A   1      33.567  34.301  28.584  1.00  0.00     0.124 S 
ATOM     89  O   UNL A   1      34.325  35.409  28.009  1.00  0.00    -0.237 OA
ATOM     90  O   UNL A   1      32.859  33.458  27.626  1.00  0.00    -0.237 OA
ATOM     91  O   UNL A   1      32.812  34.628  29.791  1.00  0.00    -0.744 OA
ENDBRANCH  87  88
ENDBRANCH  59  82
BRANCH  71  92
ATOM     92  C   UNL A   1      41.944  29.929  33.888  1.00  0.00    -0.014 A 
ATOM     93  C   UNL A   1      42.080  28.720  33.173  1.00  0.00     0.010 A 
ATOM     94  C   UNL A   1      41.791  29.856  35.283  1.00  0.00     0.010 A 
ATOM     95  C   UNL A   1      42.034  27.479  33.833  1.00  0.00     0.020 A 
ATOM     96  C   UNL A   1      41.761  28.627  35.949  1.00  0.00     0.020 A 
ATOM     97  C   UNL A   1      41.871  27.442  35.221  1.00  0.00     0.054 A 
BRANCH  97  98
ATOM     98  S   UNL A   1      41.835  25.844  36.083  1.00  0.00     0.124 S 
ATOM     99  O   UNL A   1      40.440  25.435  35.935  1.00  0.00    -0.237 OA
ATOM    100  O   UNL A   1      42.806  25.048  35.336  1.00  0.00    -0.237 OA
ATOM    101  O   UNL A   1      42.238  26.175  37.450  1.00  0.00    -0.744 OA
ENDBRANCH  97  98
ENDBRANCH  71  92
ENDBRANCH  45  46
ENDBRANCH  37  40
ENDBRANCH  35  36
ENDBRANCH  34  35
ENDBRANCH   1  34
TORSDOF 18
ENDMDL
MODEL 3
REMARK VINA RESULT:     -11.5      2.807      9.719
REMARK SMILES O=C1NC(=O)/C(=C/c2ccc(OCc3cn(-c4ccc(C(=O)NCCCNC(=O)c5ccc(-c6c7nc(c(-c8ccc(S(=O)(=O)[O-])cc8)c8ccc([nH]8)c(-c8ccc(S(=O)(=O)[O-])cc8)c8nc(c(-c9ccc(S(=O)(=O)[O-])cc9)c9ccc6[nH]9)C=C8)C=C7)cc5)cc4)nn3)cc2)S1
REMARK SMILES IDX 24 1 23 2 21 3 22 4 20 6 17 7 18 8 91 9 19 10 90 11 16 12
REMARK SMILES IDX 14 13 15 14 93 15 92 16 13 17 12 18 11 19 8 20 9 21 95 22
REMARK SMILES IDX 10 23 94 24 7 25 1 26 2 27 3 28 96 29 4 30 6 32 5 33 25 34
REMARK SMILES IDX 26 35 27 36 28 37 29 39 30 40 31 41 89 42 32 43 88 44 33 45
REMARK SMILES IDX 34 46 35 47 82 48 36 49 87 50 81 51 83 52 37 53 86 54 80 55
REMARK SMILES IDX 79 56 38 58 68 59 49 60 67 61 50 62 53 63 66 64 84 65 51 66
REMARK SMILES IDX 52 67 65 69 85 70 54 71 39 72 40 73 48 74 41 75 47 76 42 77
REMARK SMILES IDX 43 78 44 79 45 80 46 81 69 82 70 83 78 84 71 85 77 86 72 87
REMARK SMILES IDX 73 88 74 89 75 90 76 91 55 92 56 93 64 94 57 95 63 96 58 97
REMARK SMILES IDX 59 98 60 99 61 100 62 101
REMARK H PARENT 23 5 3 31 27 38 83 57 53 68
REMARK Flexibility Score: inf
ROOT
ATOM      1  C   UNL A   1      35.876  31.341  31.268  1.00  0.00     0.118 C 
ENDROOT
BRANCH   1   2
ATOM      2  N   UNL A   1      36.999  31.256  30.347  1.00  0.00    -0.352 N 
ATOM      3  C   UNL A   1      37.069  30.941  29.011  1.00  0.00     0.251 C 
ATOM      4  O   UNL A   1      38.162  31.031  28.456  1.00  0.00    -0.269 OA
ATOM      5  H   UNL A   1      37.870  31.462  30.756  1.00  0.00     0.163 HD
BRANCH   3   6
ATOM      6  C   UNL A   1      35.871  30.572  28.205  1.00  0.00     0.039 A 
ATOM      7  C   UNL A   1      33.792  29.853  26.479  1.00  0.00     0.066 A 
ATOM      8  C   UNL A   1      34.778  28.914  26.804  1.00  0.00     0.029 A 
ATOM      9  C   UNL A   1      33.790  31.109  27.073  1.00  0.00     0.029 A 
ATOM     10  C   UNL A   1      35.833  29.289  27.640  1.00  0.00     0.016 A 
ATOM     11  C   UNL A   1      34.793  31.429  27.977  1.00  0.00     0.016 A 
BRANCH   7  12
ATOM     12  N   UNL A   1      32.779  29.529  25.564  1.00  0.00    -0.220 N 
ATOM     13  C   UNL A   1      31.628  28.955  23.808  1.00  0.00     0.120 A 
ATOM     14  C   UNL A   1      32.918  29.056  24.279  1.00  0.00     0.144 A 
ATOM     15  N   UNL A   1      30.773  29.315  24.814  1.00  0.00    -0.131 NA
ATOM     16  N   UNL A   1      31.477  29.623  25.886  1.00  0.00    -0.062 NA
BRANCH  13  17
ATOM     17  C   UNL A   1      31.099  28.427  22.515  1.00  0.00     0.289 C 
BRANCH  17  18
ATOM     18  O   UNL A   1      30.339  27.208  22.597  1.00  0.00    -0.487 OA
BRANCH  18  19
ATOM     19  C   UNL A   1      31.011  26.029  22.770  1.00  0.00     0.119 A 
ATOM     20  C   UNL A   1      32.458  23.742  23.533  1.00  0.00    -0.024 A 
ATOM     21  C   UNL A   1      31.313  24.118  24.240  1.00  0.00     0.012 A 
ATOM     22  C   UNL A   1      32.812  24.457  22.387  1.00  0.00     0.012 A 
ATOM     23  C   UNL A   1      30.601  25.263  23.864  1.00  0.00     0.047 A 
ATOM     24  C   UNL A   1      32.066  25.567  21.988  1.00  0.00     0.047 A 
BRANCH  20  25
ATOM     25  C   UNL A   1      33.269  22.600  23.960  1.00  0.00     0.029 C 
ATOM     26  O   UNL A   1      37.739  23.603  26.063  1.00  0.00    -0.261 OA
ATOM     27  C   UNL A   1      36.713  23.133  25.582  1.00  0.00     0.290 C 
ATOM     28  N   UNL A   1      36.464  21.816  25.403  1.00  0.00    -0.282 N 
ATOM     29  S   UNL A   1      35.354  24.080  25.021  1.00  0.00    -0.022 SA
ATOM     30  C   UNL A   1      35.268  21.457  24.854  1.00  0.00     0.265 C 
ATOM     31  H   UNL A   1      37.126  21.135  25.662  1.00  0.00     0.174 HD
ATOM     32  C   UNL A   1      34.473  22.675  24.544  1.00  0.00     0.083 C 
ATOM     33  O   UNL A   1      34.916  20.311  24.636  1.00  0.00    -0.268 OA
ENDBRANCH  20  25
ENDBRANCH  18  19
ENDBRANCH  17  18
ENDBRANCH  13  17
ENDBRANCH   7  12
ENDBRANCH   3   6
ENDBRANCH   1   2
BRANCH   1  34
ATOM     34  C   UNL A   1      35.849  32.683  32.017  1.00  0.00     0.042 C 
BRANCH  34  35
ATOM     35  C   UNL A   1      37.218  33.056  32.534  1.00  0.00     0.118 C 
BRANCH  35  36
ATOM     36  N   UNL A   1      37.323  32.923  33.997  1.00  0.00    -0.352 N 
ATOM     37  C   UNL A   1      37.785  31.841  34.737  1.00  0.00     0.251 C 
ATOM     38  H   UNL A   1      37.027  33.702  34.519  1.00  0.00     0.163 HD
ATOM     39  O   UNL A   1      37.500  31.723  35.923  1.00  0.00    -0.269 OA
BRANCH  37  40
ATOM     40  C   UNL A   1      38.639  30.856  34.056  1.00  0.00     0.039 A 
ATOM     41  C   UNL A   1      38.175  29.721  33.387  1.00  0.00     0.014 A 
ATOM     42  C   UNL A   1      39.978  31.186  34.017  1.00  0.00     0.014 A 
ATOM     43  C   UNL A   1      39.107  28.959  32.683  1.00  0.00     0.010 A 
ATOM     44  C   UNL A   1      40.698  30.750  32.959  1.00  0.00     0.010 A 
ATOM     45  C   UNL A   1      40.389  29.493  32.499  1.00  0.00    -0.014 A 
BRANCH  45  46
ATOM     46  C   UNL A   1      41.479  28.845  31.800  1.00  0.00     0.031 A 
ATOM     47  C   UNL A   1      42.571  28.408  32.691  1.00  0.00     0.074 A 
ATOM     48  C   UNL A   1      41.348  28.405  30.524  1.00  0.00     0.049 A 
ATOM     49  N   UNL A   1      43.717  28.975  32.845  1.00  0.00    -0.248 NA
ATOM     50  C   UNL A   1      42.287  27.348  33.674  1.00  0.00     0.031 C 
ATOM     51  C   UNL A   1      40.177  28.427  29.629  1.00  0.00     0.029 A 
ATOM     52  N   UNL A   1      42.241  27.707  29.786  1.00  0.00    -0.354 N 
ATOM     53  C   UNL A   1      44.401  28.182  33.754  1.00  0.00     0.074 A 
ATOM     54  C   UNL A   1      43.405  27.367  34.403  1.00  0.00     0.031 C 
ATOM     55  C   UNL A   1      40.364  27.558  28.608  1.00  0.00     0.029 A 
ATOM     56  C   UNL A   1      41.722  27.052  28.676  1.00  0.00     0.049 A 
ATOM     57  H   UNL A   1      43.197  27.666  30.020  1.00  0.00     0.167 HD
ATOM     58  C   UNL A   1      45.755  28.050  33.697  1.00  0.00     0.031 A 
ATOM     59  C   UNL A   1      42.369  26.129  27.914  1.00  0.00     0.031 A 
ATOM     60  C   UNL A   1      46.339  28.988  32.768  1.00  0.00     0.049 A 
ATOM     61  C   UNL A   1      43.825  26.323  28.178  1.00  0.00     0.074 A 
ATOM     62  C   UNL A   1      46.327  30.366  32.651  1.00  0.00     0.029 A 
ATOM     63  N   UNL A   1      46.656  28.508  31.514  1.00  0.00    -0.354 N 
ATOM     64  N   UNL A   1      44.460  27.421  27.863  1.00  0.00    -0.248 NA
ATOM     65  C   UNL A   1      44.423  25.547  29.256  1.00  0.00     0.031 C 
ATOM     66  C   UNL A   1      46.113  30.607  31.260  1.00  0.00     0.029 A 
ATOM     67  C   UNL A   1      46.112  29.377  30.598  1.00  0.00     0.049 A 
ATOM     68  H   UNL A   1      47.173  27.696  31.314  1.00  0.00     0.167 HD
ATOM     69  C   UNL A   1      45.268  27.699  28.961  1.00  0.00     0.074 A 
ATOM     70  C   UNL A   1      45.253  26.468  29.759  1.00  0.00     0.031 C 
ATOM     71  C   UNL A   1      45.619  28.979  29.293  1.00  0.00     0.031 A 
BRANCH  58  72
ATOM     72  C   UNL A   1      46.496  26.819  34.146  1.00  0.00    -0.014 A 
ATOM     73  C   UNL A   1      46.432  25.665  33.342  1.00  0.00     0.010 A 
ATOM     74  C   UNL A   1      47.026  26.673  35.443  1.00  0.00     0.010 A 
ATOM     75  C   UNL A   1      46.820  24.417  33.838  1.00  0.00     0.020 A 
ATOM     76  C   UNL A   1      47.457  25.441  35.934  1.00  0.00     0.020 A 
ATOM     77  C   UNL A   1      47.320  24.312  35.137  1.00  0.00     0.054 A 
BRANCH  77  78
ATOM     78  S   UNL A   1      47.722  22.679  35.800  1.00  0.00     0.124 S 
ATOM     79  O   UNL A   1      48.976  22.380  35.117  1.00  0.00    -0.237 OA
ATOM     80  O   UNL A   1      47.826  22.946  37.231  1.00  0.00    -0.237 OA
ATOM     81  O   UNL A   1      46.579  21.859  35.405  1.00  0.00    -0.744 OA
ENDBRANCH  77  78
ENDBRANCH  58  72
BRANCH  59  82
ATOM     82  C   UNL A   1      41.799  24.877  27.334  1.00  0.00    -0.014 A 
ATOM     83  C   UNL A   1      42.444  24.182  26.292  1.00  0.00     0.010 A 
ATOM     84  C   UNL A   1      40.754  24.206  28.004  1.00  0.00     0.010 A 
ATOM     85  C   UNL A   1      42.098  22.851  25.976  1.00  0.00     0.020 A 
ATOM     86  C   UNL A   1      40.402  22.883  27.695  1.00  0.00     0.020 A 
ATOM     87  C   UNL A   1      41.092  22.202  26.698  1.00  0.00     0.054 A 
BRANCH  87  88
ATOM     88  S   UNL A   1      40.779  20.429  26.419  1.00  0.00     0.124 S 
ATOM     89  O   UNL A   1      41.911  20.040  25.583  1.00  0.00    -0.237 OA
ATOM     90  O   UNL A   1      40.781  19.888  27.774  1.00  0.00    -0.237 OA
ATOM     91  O   UNL A   1      39.480  20.410  25.750  1.00  0.00    -0.744 OA
ENDBRANCH  87  88
ENDBRANCH  59  82
BRANCH  71  92
ATOM     92  C   UNL A   1      45.279  30.107  28.338  1.00  0.00    -0.014 A 
ATOM     93  C   UNL A   1      44.056  30.810  28.343  1.00  0.00     0.010 A 
ATOM     94  C   UNL A   1      46.315  30.592  27.522  1.00  0.00     0.010 A 
ATOM     95  C   UNL A   1      43.871  31.946  27.535  1.00  0.00     0.020 A 
ATOM     96  C   UNL A   1      46.145  31.730  26.729  1.00  0.00     0.020 A 
ATOM     97  C   UNL A   1      44.920  32.397  26.729  1.00  0.00     0.054 A 
BRANCH  97  98
ATOM     98  S   UNL A   1      44.694  33.877  25.701  1.00  0.00     0.124 S 
ATOM     99  O   UNL A   1      43.767  33.412  24.673  1.00  0.00    -0.237 OA
ATOM    100  O   UNL A   1      44.150  34.850  26.645  1.00  0.00    -0.237 OA
ATOM    101  O   UNL A   1      46.044  34.179  25.223  1.00  0.00    -0.744 OA
ENDBRANCH  97  98
ENDBRANCH  71  92
ENDBRANCH  45  46
ENDBRANCH  37  40
ENDBRANCH  35  36
ENDBRANCH  34  35
ENDBRANCH   1  34
TORSDOF 18
ENDMDL
