MODEL 1
REMARK VINA RESULT:     -13.7      0.000      0.000
REMARK SMILES C[C@H]1CCc2sc3ncn4nc(/C=C\C(=O)NCCCNC(=O)c5ccc(-c6c7nc(c(-c8ccc(S(=O)(=O)[O-])cc8)c8ccc([nH]8)c(-c8ccc(S(=O)(=O)[O-])cc8)c8nc(c(-c9ccc(S(=O)(=O)[O-])cc9)c9ccc6[nH]9)C=C8)C=C7)cc5)nc4c3c2C1
REMARK SMILES IDX 20 1 19 2 18 3 17 4 15 5 16 6 14 8 13 9 12 10 1 11 2 12 3 13
REMARK SMILES IDX 88 14 4 15 87 16 5 17 86 18 6 19 7 20 85 21 8 22 10 23 84 24
REMARK SMILES IDX 9 25 11 26 21 27 22 28 23 30 24 31 25 32 83 33 26 34 82 35
REMARK SMILES IDX 27 36 28 37 29 38 76 39 30 40 81 41 75 42 77 43 31 44 80 45
REMARK SMILES IDX 74 46 73 47 32 49 62 50 43 51 61 52 44 53 47 54 60 55 78 56
REMARK SMILES IDX 45 57 46 58 59 60 79 61 48 62 33 63 34 64 42 65 35 66 41 67
REMARK SMILES IDX 36 68 37 69 38 70 39 71 40 72 63 73 64 74 72 75 65 76 71 77
REMARK SMILES IDX 66 78 67 79 68 80 69 81 70 82 49 83 50 84 58 85 51 86 57 87
REMARK SMILES IDX 52 88 53 89 54 90 55 91 56 92
REMARK H PARENT 17 7 21 29 77 48 47 59
REMARK Flexibility Score: inf
ROOT
ATOM      1  C   UNL A   1      38.002  22.669  25.336  1.00  0.00     0.118 C 
ENDROOT
BRANCH   1   2
ATOM      2  C   UNL A   1      36.939  21.847  24.596  1.00  0.00     0.042 C 
BRANCH   2   3
ATOM      3  C   UNL A   1      36.081  21.024  25.536  1.00  0.00     0.118 C 
BRANCH   3   4
ATOM      4  N   UNL A   1      35.491  19.804  25.028  1.00  0.00    -0.352 N 
ATOM      5  C   UNL A   1      34.186  19.505  24.779  1.00  0.00     0.244 C 
ATOM      6  O   UNL A   1      33.907  18.514  24.102  1.00  0.00    -0.270 OA
ATOM      7  H   UNL A   1      36.130  19.081  24.833  1.00  0.00     0.163 HD
BRANCH   5   8
ATOM      8  C   UNL A   1      33.079  20.210  25.463  1.00  0.00     0.075 C 
ATOM      9  C   UNL A   1      32.606  21.462  25.363  1.00  0.00     0.057 C 
BRANCH   9  10
ATOM     10  C   UNL A   1      33.077  22.554  24.578  1.00  0.00     0.175 A 
ATOM     11  C   UNL A   1      34.298  28.770  27.416  1.00  0.00     0.008 C 
ATOM     12  C   UNL A   1      32.871  28.407  27.026  1.00  0.00    -0.009 C 
ATOM     13  C   UNL A   1      32.240  29.535  26.193  1.00  0.00     0.009 C 
ATOM     14  C   UNL A   1      32.812  27.030  26.322  1.00  0.00     0.041 C 
ATOM     15  C   UNL A   1      32.754  29.656  24.757  1.00  0.00     0.047 C 
ATOM     16  C   UNL A   1      33.084  27.110  24.846  1.00  0.00    -0.020 A 
ATOM     17  C   UNL A   1      33.037  28.313  24.160  1.00  0.00     0.011 A 
ATOM     18  C   UNL A   1      33.290  26.049  23.921  1.00  0.00     0.060 A 
ATOM     19  S   UNL A   1      33.320  28.151  22.483  1.00  0.00    -0.120 S 
ATOM     20  C   UNL A   1      33.338  26.448  22.589  1.00  0.00     0.129 A 
ATOM     21  C   UNL A   1      33.327  24.581  24.087  1.00  0.00     0.168 A 
ATOM     22  N   UNL A   1      33.344  25.656  21.464  1.00  0.00    -0.225 NA
ATOM     23  N   UNL A   1      33.275  23.828  22.951  1.00  0.00    -0.201 N 
ATOM     24  N   UNL A   1      33.264  23.803  25.141  1.00  0.00    -0.207 NA
ATOM     25  C   UNL A   1      33.256  24.369  21.667  1.00  0.00     0.227 A 
ATOM     26  N   UNL A   1      33.132  22.520  23.234  1.00  0.00    -0.145 NA
ENDBRANCH   9  10
ENDBRANCH   5   8
ENDBRANCH   3   4
ENDBRANCH   2   3
ENDBRANCH   1   2
BRANCH   1  27
ATOM     27  N   UNL A   1      38.633  21.992  26.488  1.00  0.00    -0.352 N 
ATOM     28  C   UNL A   1      39.784  22.352  27.182  1.00  0.00     0.251 C 
ATOM     29  H   UNL A   1      38.179  21.179  26.807  1.00  0.00     0.163 HD
ATOM     30  O   UNL A   1      40.478  21.478  27.706  1.00  0.00    -0.269 OA
BRANCH  28  31
ATOM     31  C   UNL A   1      40.168  23.775  27.278  1.00  0.00     0.039 A 
ATOM     32  C   UNL A   1      39.309  24.838  26.984  1.00  0.00     0.014 A 
ATOM     33  C   UNL A   1      41.439  24.035  27.764  1.00  0.00     0.014 A 
ATOM     34  C   UNL A   1      39.687  26.130  27.360  1.00  0.00     0.010 A 
ATOM     35  C   UNL A   1      41.731  25.247  28.314  1.00  0.00     0.010 A 
ATOM     36  C   UNL A   1      40.874  26.309  28.090  1.00  0.00    -0.014 A 
BRANCH  36  37
ATOM     37  C   UNL A   1      41.086  27.465  28.948  1.00  0.00     0.031 A 
ATOM     38  C   UNL A   1      42.117  28.371  28.372  1.00  0.00     0.074 A 
ATOM     39  C   UNL A   1      40.210  27.891  29.882  1.00  0.00     0.049 A 
ATOM     40  N   UNL A   1      43.350  28.473  28.741  1.00  0.00    -0.248 NA
ATOM     41  C   UNL A   1      41.828  29.031  27.082  1.00  0.00     0.031 C 
ATOM     42  C   UNL A   1      38.920  27.319  30.278  1.00  0.00     0.029 A 
ATOM     43  N   UNL A   1      40.240  29.048  30.586  1.00  0.00    -0.354 N 
ATOM     44  C   UNL A   1      43.913  29.411  27.889  1.00  0.00     0.074 A 
ATOM     45  C   UNL A   1      43.039  29.483  26.746  1.00  0.00     0.031 C 
ATOM     46  C   UNL A   1      38.199  28.246  30.951  1.00  0.00     0.029 A 
ATOM     47  C   UNL A   1      39.034  29.412  31.172  1.00  0.00     0.049 A 
ATOM     48  H   UNL A   1      41.056  29.592  30.675  1.00  0.00     0.167 HD
ATOM     49  C   UNL A   1      44.868  30.282  28.321  1.00  0.00     0.031 A 
ATOM     50  C   UNL A   1      38.750  30.609  31.750  1.00  0.00     0.031 A 
ATOM     51  C   UNL A   1      45.303  29.951  29.658  1.00  0.00     0.049 A 
ATOM     52  C   UNL A   1      40.062  31.247  32.061  1.00  0.00     0.074 A 
ATOM     53  C   UNL A   1      45.864  28.832  30.242  1.00  0.00     0.029 A 
ATOM     54  N   UNL A   1      44.725  30.670  30.685  1.00  0.00    -0.354 N 
ATOM     55  N   UNL A   1      40.919  30.734  32.904  1.00  0.00    -0.248 NA
ATOM     56  C   UNL A   1      40.640  32.139  31.064  1.00  0.00     0.031 C 
ATOM     57  C   UNL A   1      45.176  28.688  31.483  1.00  0.00     0.029 A 
ATOM     58  C   UNL A   1      44.312  29.775  31.641  1.00  0.00     0.049 A 
ATOM     59  H   UNL A   1      44.627  31.649  30.725  1.00  0.00     0.167 HD
ATOM     60  C   UNL A   1      42.158  30.870  32.290  1.00  0.00     0.074 A 
ATOM     61  C   UNL A   1      41.935  31.827  31.203  1.00  0.00     0.031 C 
ATOM     62  C   UNL A   1      43.168  29.973  32.514  1.00  0.00     0.031 A 
BRANCH  49  63
ATOM     63  C   UNL A   1      45.090  31.652  27.736  1.00  0.00    -0.014 A 
ATOM     64  C   UNL A   1      46.345  31.947  27.170  1.00  0.00     0.010 A 
ATOM     65  C   UNL A   1      44.209  32.734  27.943  1.00  0.00     0.010 A 
ATOM     66  C   UNL A   1      46.720  33.265  26.887  1.00  0.00     0.020 A 
ATOM     67  C   UNL A   1      44.555  34.046  27.622  1.00  0.00     0.020 A 
ATOM     68  C   UNL A   1      45.825  34.307  27.129  1.00  0.00     0.054 A 
BRANCH  68  69
ATOM     69  S   UNL A   1      46.356  36.014  26.862  1.00  0.00     0.124 S 
ATOM     70  O   UNL A   1      45.079  36.705  26.708  1.00  0.00    -0.237 OA
ATOM     71  O   UNL A   1      47.092  36.303  28.090  1.00  0.00    -0.237 OA
ATOM     72  O   UNL A   1      47.174  35.933  25.654  1.00  0.00    -0.744 OA
ENDBRANCH  68  69
ENDBRANCH  49  63
BRANCH  50  73
ATOM     73  C   UNL A   1      37.456  31.345  31.734  1.00  0.00    -0.014 A 
ATOM     74  C   UNL A   1      36.630  31.422  32.872  1.00  0.00     0.010 A 
ATOM     75  C   UNL A   1      37.150  32.202  30.654  1.00  0.00     0.010 A 
ATOM     76  C   UNL A   1      35.575  32.356  32.945  1.00  0.00     0.020 A 
ATOM     77  C   UNL A   1      36.101  33.130  30.718  1.00  0.00     0.020 A 
ATOM     78  C   UNL A   1      35.331  33.220  31.874  1.00  0.00     0.054 A 
BRANCH  78  79
ATOM     79  S   UNL A   1      34.080  34.531  32.037  1.00  0.00     0.124 S 
ATOM     80  O   UNL A   1      34.870  35.662  32.514  1.00  0.00    -0.237 OA
ATOM     81  O   UNL A   1      33.565  34.648  30.676  1.00  0.00    -0.237 OA
ATOM     82  O   UNL A   1      33.132  33.985  33.008  1.00  0.00    -0.744 OA
ENDBRANCH  78  79
ENDBRANCH  50  73
BRANCH  62  83
ATOM     83  C   UNL A   1      42.996  28.946  33.617  1.00  0.00    -0.014 A 
ATOM     84  C   UNL A   1      43.530  29.085  34.915  1.00  0.00     0.010 A 
ATOM     85  C   UNL A   1      42.099  27.890  33.382  1.00  0.00     0.010 A 
ATOM     86  C   UNL A   1      43.192  28.183  35.937  1.00  0.00     0.020 A 
ATOM     87  C   UNL A   1      41.744  26.999  34.398  1.00  0.00     0.020 A 
ATOM     88  C   UNL A   1      42.298  27.144  35.670  1.00  0.00     0.054 A 
BRANCH  88  89
ATOM     89  S   UNL A   1      41.829  26.000  37.000  1.00  0.00     0.124 S 
ATOM     90  O   UNL A   1      41.898  24.700  36.340  1.00  0.00    -0.237 OA
ATOM     91  O   UNL A   1      42.852  26.245  38.014  1.00  0.00    -0.237 OA
ATOM     92  O   UNL A   1      40.483  26.432  37.373  1.00  0.00    -0.744 OA
ENDBRANCH  88  89
ENDBRANCH  62  83
ENDBRANCH  36  37
ENDBRANCH  28  31
ENDBRANCH   1  27
TORSDOF 14
ENDMDL
MODEL 2
REMARK VINA RESULT:     -13.6      3.213      8.342
REMARK SMILES C[C@H]1CCc2sc3ncn4nc(/C=C\C(=O)NCCCNC(=O)c5ccc(-c6c7nc(c(-c8ccc(S(=O)(=O)[O-])cc8)c8ccc([nH]8)c(-c8ccc(S(=O)(=O)[O-])cc8)c8nc(c(-c9ccc(S(=O)(=O)[O-])cc9)c9ccc6[nH]9)C=C8)C=C7)cc5)nc4c3c2C1
REMARK SMILES IDX 20 1 19 2 18 3 17 4 15 5 16 6 14 8 13 9 12 10 1 11 2 12 3 13
REMARK SMILES IDX 88 14 4 15 87 16 5 17 86 18 6 19 7 20 85 21 8 22 10 23 84 24
REMARK SMILES IDX 9 25 11 26 21 27 22 28 23 30 24 31 25 32 83 33 26 34 82 35
REMARK SMILES IDX 27 36 28 37 29 38 76 39 30 40 81 41 75 42 77 43 31 44 80 45
REMARK SMILES IDX 74 46 73 47 32 49 62 50 43 51 61 52 44 53 47 54 60 55 78 56
REMARK SMILES IDX 45 57 46 58 59 60 79 61 48 62 33 63 34 64 42 65 35 66 41 67
REMARK SMILES IDX 36 68 37 69 38 70 39 71 40 72 63 73 64 74 72 75 65 76 71 77
REMARK SMILES IDX 66 78 67 79 68 80 69 81 70 82 49 83 50 84 58 85 51 86 57 87
REMARK SMILES IDX 52 88 53 89 54 90 55 91 56 92
REMARK H PARENT 17 7 21 29 77 48 47 59
REMARK Flexibility Score: inf
ROOT
ATOM      1  C   UNL A   1      33.302  30.624  27.330  1.00  0.00     0.118 C 
ENDROOT
BRANCH   1   2
ATOM      2  C   UNL A   1      32.376  29.580  26.694  1.00  0.00     0.042 C 
BRANCH   2   3
ATOM      3  C   UNL A   1      32.285  29.723  25.187  1.00  0.00     0.118 C 
BRANCH   3   4
ATOM      4  N   UNL A   1      31.069  30.271  24.626  1.00  0.00    -0.352 N 
ATOM      5  C   UNL A   1      30.230  29.752  23.688  1.00  0.00     0.244 C 
ATOM      6  O   UNL A   1      29.111  30.243  23.534  1.00  0.00    -0.270 OA
ATOM      7  H   UNL A   1      30.809  31.154  24.977  1.00  0.00     0.163 HD
BRANCH   5   8
ATOM      8  C   UNL A   1      30.688  28.748  22.701  1.00  0.00     0.075 C 
ATOM      9  C   UNL A   1      31.134  27.489  22.833  1.00  0.00     0.057 C 
BRANCH   9  10
ATOM     10  C   UNL A   1      31.363  26.722  24.012  1.00  0.00     0.175 A 
ATOM     11  C   UNL A   1      37.511  23.739  25.232  1.00  0.00     0.008 C 
ATOM     12  C   UNL A   1      36.519  23.032  24.318  1.00  0.00    -0.009 C 
ATOM     13  C   UNL A   1      36.353  21.563  24.743  1.00  0.00     0.009 C 
ATOM     14  C   UNL A   1      35.175  23.796  24.246  1.00  0.00     0.041 C 
ATOM     15  C   UNL A   1      35.551  21.338  26.026  1.00  0.00     0.047 C 
ATOM     16  C   UNL A   1      34.236  23.444  25.366  1.00  0.00    -0.020 A 
ATOM     17  C   UNL A   1      34.424  22.315  26.148  1.00  0.00     0.011 A 
ATOM     18  C   UNL A   1      33.007  24.066  25.724  1.00  0.00     0.060 A 
ATOM     19  S   UNL A   1      33.200  22.087  27.317  1.00  0.00    -0.120 S 
ATOM     20  C   UNL A   1      32.284  23.389  26.701  1.00  0.00     0.129 A 
ATOM     21  C   UNL A   1      32.280  25.223  25.163  1.00  0.00     0.168 A 
ATOM     22  N   UNL A   1      30.997  23.629  27.126  1.00  0.00    -0.225 NA
ATOM     23  N   UNL A   1      30.988  25.397  25.566  1.00  0.00    -0.201 N 
ATOM     24  N   UNL A   1      32.573  26.086  24.220  1.00  0.00    -0.207 NA
ATOM     25  C   UNL A   1      30.360  24.590  26.512  1.00  0.00     0.227 A 
ATOM     26  N   UNL A   1      30.378  26.365  24.857  1.00  0.00    -0.145 NA
ENDBRANCH   9  10
ENDBRANCH   5   8
ENDBRANCH   3   4
ENDBRANCH   2   3
ENDBRANCH   1   2
BRANCH   1  27
ATOM     27  N   UNL A   1      32.887  32.030  27.149  1.00  0.00    -0.352 N 
ATOM     28  C   UNL A   1      33.161  33.127  27.959  1.00  0.00     0.251 C 
ATOM     29  H   UNL A   1      32.344  32.215  26.348  1.00  0.00     0.163 HD
ATOM     30  O   UNL A   1      32.354  34.058  28.019  1.00  0.00    -0.269 OA
BRANCH  28  31
ATOM     31  C   UNL A   1      34.410  33.164  28.746  1.00  0.00     0.039 A 
ATOM     32  C   UNL A   1      34.554  32.585  30.011  1.00  0.00     0.014 A 
ATOM     33  C   UNL A   1      35.504  33.750  28.132  1.00  0.00     0.014 A 
ATOM     34  C   UNL A   1      35.838  32.450  30.545  1.00  0.00     0.010 A 
ATOM     35  C   UNL A   1      36.768  33.446  28.542  1.00  0.00     0.010 A 
ATOM     36  C   UNL A   1      36.945  32.823  29.764  1.00  0.00    -0.014 A 
BRANCH  36  37
ATOM     37  C   UNL A   1      38.270  32.263  29.985  1.00  0.00     0.031 A 
ATOM     38  C   UNL A   1      38.335  30.852  29.517  1.00  0.00     0.074 A 
ATOM     39  C   UNL A   1      39.385  32.998  30.176  1.00  0.00     0.049 A 
ATOM     40  N   UNL A   1      38.289  29.791  30.250  1.00  0.00    -0.248 NA
ATOM     41  C   UNL A   1      38.157  30.583  28.075  1.00  0.00     0.031 C 
ATOM     42  C   UNL A   1      39.540  34.455  30.244  1.00  0.00     0.029 A 
ATOM     43  N   UNL A   1      40.670  32.571  30.203  1.00  0.00    -0.354 N 
ATOM     44  C   UNL A   1      38.345  28.727  29.362  1.00  0.00     0.074 A 
ATOM     45  C   UNL A   1      37.969  29.262  28.079  1.00  0.00     0.031 C 
ATOM     46  C   UNL A   1      40.839  34.783  30.056  1.00  0.00     0.029 A 
ATOM     47  C   UNL A   1      41.625  33.564  30.017  1.00  0.00     0.049 A 
ATOM     48  H   UNL A   1      40.910  31.627  30.344  1.00  0.00     0.167 HD
ATOM     49  C   UNL A   1      38.998  27.572  29.676  1.00  0.00     0.031 A 
ATOM     50  C   UNL A   1      42.954  33.371  29.802  1.00  0.00     0.031 A 
ATOM     51  C   UNL A   1      39.413  27.572  31.059  1.00  0.00     0.049 A 
ATOM     52  C   UNL A   1      43.259  31.989  30.270  1.00  0.00     0.074 A 
ATOM     53  C   UNL A   1      38.751  27.688  32.266  1.00  0.00     0.029 A 
ATOM     54  N   UNL A   1      40.722  27.930  31.305  1.00  0.00    -0.354 N 
ATOM     55  N   UNL A   1      43.129  31.616  31.516  1.00  0.00    -0.248 NA
ATOM     56  C   UNL A   1      43.190  30.907  29.296  1.00  0.00     0.031 C 
ATOM     57  C   UNL A   1      39.562  28.569  33.041  1.00  0.00     0.029 A 
ATOM     58  C   UNL A   1      40.719  28.862  32.315  1.00  0.00     0.049 A 
ATOM     59  H   UNL A   1      41.517  27.580  30.841  1.00  0.00     0.167 HD
ATOM     60  C   UNL A   1      42.528  30.364  31.460  1.00  0.00     0.074 A 
ATOM     61  C   UNL A   1      42.678  29.939  30.066  1.00  0.00     0.031 C 
ATOM     62  C   UNL A   1      41.699  29.924  32.457  1.00  0.00     0.031 A 
BRANCH  49  63
ATOM     63  C   UNL A   1      39.633  26.658  28.662  1.00  0.00    -0.014 A 
ATOM     64  C   UNL A   1      39.177  25.328  28.575  1.00  0.00     0.010 A 
ATOM     65  C   UNL A   1      40.820  26.975  27.970  1.00  0.00     0.010 A 
ATOM     66  C   UNL A   1      39.909  24.355  27.885  1.00  0.00     0.020 A 
ATOM     67  C   UNL A   1      41.533  26.023  27.242  1.00  0.00     0.020 A 
ATOM     68  C   UNL A   1      41.090  24.710  27.234  1.00  0.00     0.054 A 
BRANCH  68  69
ATOM     69  S   UNL A   1      42.084  23.426  26.437  1.00  0.00     0.124 S 
ATOM     70  O   UNL A   1      41.071  22.431  26.098  1.00  0.00    -0.237 OA
ATOM     71  O   UNL A   1      42.670  24.146  25.311  1.00  0.00    -0.237 OA
ATOM     72  O   UNL A   1      43.028  23.029  27.479  1.00  0.00    -0.744 OA
ENDBRANCH  68  69
ENDBRANCH  49  63
BRANCH  50  73
ATOM     73  C   UNL A   1      43.860  34.168  28.931  1.00  0.00    -0.014 A 
ATOM     74  C   UNL A   1      44.982  34.846  29.447  1.00  0.00     0.010 A 
ATOM     75  C   UNL A   1      43.767  34.051  27.527  1.00  0.00     0.010 A 
ATOM     76  C   UNL A   1      45.992  35.338  28.595  1.00  0.00     0.020 A 
ATOM     77  C   UNL A   1      44.766  34.540  26.673  1.00  0.00     0.020 A 
ATOM     78  C   UNL A   1      45.888  35.162  27.213  1.00  0.00     0.054 A 
BRANCH  78  79
ATOM     79  S   UNL A   1      47.270  35.649  26.132  1.00  0.00     0.124 S 
ATOM     80  O   UNL A   1      47.180  34.673  25.051  1.00  0.00    -0.237 OA
ATOM     81  O   UNL A   1      46.924  37.021  25.777  1.00  0.00    -0.237 OA
ATOM     82  O   UNL A   1      48.444  35.513  26.993  1.00  0.00    -0.744 OA
ENDBRANCH  78  79
ENDBRANCH  50  73
BRANCH  62  83
ATOM     83  C   UNL A   1      41.615  30.729  33.740  1.00  0.00    -0.014 A 
ATOM     84  C   UNL A   1      40.678  31.760  33.965  1.00  0.00     0.010 A 
ATOM     85  C   UNL A   1      42.393  30.295  34.827  1.00  0.00     0.010 A 
ATOM     86  C   UNL A   1      40.541  32.349  35.233  1.00  0.00     0.020 A 
ATOM     87  C   UNL A   1      42.251  30.864  36.095  1.00  0.00     0.020 A 
ATOM     88  C   UNL A   1      41.331  31.894  36.292  1.00  0.00     0.054 A 
BRANCH  88  89
ATOM     89  S   UNL A   1      41.127  32.627  37.941  1.00  0.00     0.124 S 
ATOM     90  O   UNL A   1      41.605  33.992  37.742  1.00  0.00    -0.237 OA
ATOM     91  O   UNL A   1      39.692  32.492  38.181  1.00  0.00    -0.237 OA
ATOM     92  O   UNL A   1      41.972  31.797  38.799  1.00  0.00    -0.744 OA
ENDBRANCH  88  89
ENDBRANCH  62  83
ENDBRANCH  36  37
ENDBRANCH  28  31
ENDBRANCH   1  27
TORSDOF 14
ENDMDL
MODEL 3
REMARK VINA RESULT:     -13.5      2.633      3.979
REMARK SMILES C[C@H]1CCc2sc3ncn4nc(/C=C\C(=O)NCCCNC(=O)c5ccc(-c6c7nc(c(-c8ccc(S(=O)(=O)[O-])cc8)c8ccc([nH]8)c(-c8ccc(S(=O)(=O)[O-])cc8)c8nc(c(-c9ccc(S(=O)(=O)[O-])cc9)c9ccc6[nH]9)C=C8)C=C7)cc5)nc4c3c2C1
REMARK SMILES IDX 20 1 19 2 18 3 17 4 15 5 16 6 14 8 13 9 12 10 1 11 2 12 3 13
REMARK SMILES IDX 88 14 4 15 87 16 5 17 86 18 6 19 7 20 85 21 8 22 10 23 84 24
REMARK SMILES IDX 9 25 11 26 21 27 22 28 23 30 24 31 25 32 83 33 26 34 82 35
REMARK SMILES IDX 27 36 28 37 29 38 76 39 30 40 81 41 75 42 77 43 31 44 80 45
REMARK SMILES IDX 74 46 73 47 32 49 62 50 43 51 61 52 44 53 47 54 60 55 78 56
REMARK SMILES IDX 45 57 46 58 59 60 79 61 48 62 33 63 34 64 42 65 35 66 41 67
REMARK SMILES IDX 36 68 37 69 38 70 39 71 40 72 63 73 64 74 72 75 65 76 71 77
REMARK SMILES IDX 66 78 67 79 68 80 69 81 70 82 49 83 50 84 58 85 51 86 57 87
REMARK SMILES IDX 52 88 53 89 54 90 55 91 56 92
REMARK H PARENT 17 7 21 29 77 48 47 59
REMARK Flexibility Score: inf
ROOT
ATOM      1  C   UNL A   1      42.184  20.176  26.845  1.00  0.00     0.118 C 
ENDROOT
BRANCH   1   2
ATOM      2  C   UNL A   1      40.888  20.536  26.108  1.00  0.00     0.042 C 
BRANCH   2   3
ATOM      3  C   UNL A   1      40.049  21.548  26.865  1.00  0.00     0.118 C 
BRANCH   3   4
ATOM      4  N   UNL A   1      39.278  22.504  26.100  1.00  0.00    -0.352 N 
ATOM      5  C   UNL A   1      38.047  22.376  25.534  1.00  0.00     0.244 C 
ATOM      6  O   UNL A   1      37.445  23.381  25.151  1.00  0.00    -0.270 OA
ATOM      7  H   UNL A   1      39.708  23.380  25.971  1.00  0.00     0.163 HD
BRANCH   5   8
ATOM      8  C   UNL A   1      37.488  21.054  25.168  1.00  0.00     0.075 C 
ATOM      9  C   UNL A   1      36.229  20.598  25.083  1.00  0.00     0.057 C 
BRANCH   9  10
ATOM     10  C   UNL A   1      34.999  21.253  25.382  1.00  0.00     0.175 A 
ATOM     11  C   UNL A   1      32.247  25.906  21.028  1.00  0.00     0.008 C 
ATOM     12  C   UNL A   1      33.339  26.355  21.990  1.00  0.00    -0.009 C 
ATOM     13  C   UNL A   1      32.906  27.629  22.734  1.00  0.00     0.009 C 
ATOM     14  C   UNL A   1      33.756  25.210  22.943  1.00  0.00     0.041 C 
ATOM     15  C   UNL A   1      31.840  27.428  23.813  1.00  0.00     0.047 C 
ATOM     16  C   UNL A   1      32.876  25.103  24.157  1.00  0.00    -0.020 A 
ATOM     17  C   UNL A   1      32.027  26.131  24.535  1.00  0.00     0.011 A 
ATOM     18  C   UNL A   1      32.842  24.078  25.144  1.00  0.00     0.060 A 
ATOM     19  S   UNL A   1      31.170  25.810  25.978  1.00  0.00    -0.120 S 
ATOM     20  C   UNL A   1      32.037  24.363  26.241  1.00  0.00     0.129 A 
ATOM     21  C   UNL A   1      33.605  22.822  25.296  1.00  0.00     0.168 A 
ATOM     22  N   UNL A   1      31.937  23.669  27.426  1.00  0.00    -0.225 NA
ATOM     23  N   UNL A   1      33.525  22.191  26.503  1.00  0.00    -0.201 N 
ATOM     24  N   UNL A   1      34.487  22.218  24.535  1.00  0.00    -0.207 NA
ATOM     25  C   UNL A   1      32.722  22.633  27.552  1.00  0.00     0.227 A 
ATOM     26  N   UNL A   1      34.396  21.168  26.582  1.00  0.00    -0.145 NA
ENDBRANCH   9  10
ENDBRANCH   5   8
ENDBRANCH   3   4
ENDBRANCH   2   3
ENDBRANCH   1   2
BRANCH   1  27
ATOM     27  N   UNL A   1      43.305  19.755  25.980  1.00  0.00    -0.352 N 
ATOM     28  C   UNL A   1      44.042  20.519  25.081  1.00  0.00     0.251 C 
ATOM     29  H   UNL A   1      43.565  18.808  26.050  1.00  0.00     0.163 HD
ATOM     30  O   UNL A   1      44.526  19.984  24.080  1.00  0.00    -0.269 OA
BRANCH  28  31
ATOM     31  C   UNL A   1      44.230  21.963  25.326  1.00  0.00     0.039 A 
ATOM     32  C   UNL A   1      43.449  22.964  24.741  1.00  0.00     0.014 A 
ATOM     33  C   UNL A   1      45.199  22.305  26.255  1.00  0.00     0.014 A 
ATOM     34  C   UNL A   1      43.540  24.265  25.242  1.00  0.00     0.010 A 
ATOM     35  C   UNL A   1      45.153  23.513  26.885  1.00  0.00     0.010 A 
ATOM     36  C   UNL A   1      44.347  24.510  26.366  1.00  0.00    -0.014 A 
BRANCH  36  37
ATOM     37  C   UNL A   1      44.117  25.641  27.251  1.00  0.00     0.031 A 
ATOM     38  C   UNL A   1      45.045  26.762  26.932  1.00  0.00     0.074 A 
ATOM     39  C   UNL A   1      42.984  25.839  27.956  1.00  0.00     0.049 A 
ATOM     40  N   UNL A   1      46.113  27.088  27.578  1.00  0.00    -0.248 NA
ATOM     41  C   UNL A   1      44.929  27.413  25.611  1.00  0.00     0.031 C 
ATOM     42  C   UNL A   1      41.783  25.003  28.040  1.00  0.00     0.029 A 
ATOM     43  N   UNL A   1      42.615  26.943  28.648  1.00  0.00    -0.354 N 
ATOM     44  C   UNL A   1      46.651  28.160  26.880  1.00  0.00     0.074 A 
ATOM     45  C   UNL A   1      46.065  28.112  25.566  1.00  0.00     0.031 C 
ATOM     46  C   UNL A   1      40.753  25.735  28.528  1.00  0.00     0.029 A 
ATOM     47  C   UNL A   1      41.260  27.031  28.938  1.00  0.00     0.049 A 
ATOM     48  H   UNL A   1      43.261  27.633  28.925  1.00  0.00     0.167 HD
ATOM     49  C   UNL A   1      47.284  29.181  27.524  1.00  0.00     0.031 A 
ATOM     50  C   UNL A   1      40.612  28.119  29.436  1.00  0.00     0.031 A 
ATOM     51  C   UNL A   1      47.462  28.878  28.925  1.00  0.00     0.049 A 
ATOM     52  C   UNL A   1      41.660  28.989  30.044  1.00  0.00     0.074 A 
ATOM     53  C   UNL A   1      48.092  27.866  29.622  1.00  0.00     0.029 A 
ATOM     54  N   UNL A   1      46.531  29.417  29.790  1.00  0.00    -0.354 N 
ATOM     55  N   UNL A   1      42.389  28.616  31.063  1.00  0.00    -0.248 NA
ATOM     56  C   UNL A   1      42.256  30.025  29.210  1.00  0.00     0.031 C 
ATOM     57  C   UNL A   1      47.184  27.528  30.670  1.00  0.00     0.029 A 
ATOM     58  C   UNL A   1      46.103  28.413  30.623  1.00  0.00     0.049 A 
ATOM     59  H   UNL A   1      46.229  30.354  29.807  1.00  0.00     0.167 HD
ATOM     60  C   UNL A   1      43.681  29.025  30.754  1.00  0.00     0.074 A 
ATOM     61  C   UNL A   1      43.520  29.970  29.646  1.00  0.00     0.031 C 
ATOM     62  C   UNL A   1      44.774  28.337  31.206  1.00  0.00     0.031 A 
BRANCH  49  63
ATOM     63  C   UNL A   1      47.348  30.594  27.008  1.00  0.00    -0.014 A 
ATOM     64  C   UNL A   1      48.580  31.275  27.060  1.00  0.00     0.010 A 
ATOM     65  C   UNL A   1      46.204  31.362  26.710  1.00  0.00     0.010 A 
ATOM     66  C   UNL A   1      48.650  32.661  26.886  1.00  0.00     0.020 A 
ATOM     67  C   UNL A   1      46.268  32.738  26.489  1.00  0.00     0.020 A 
ATOM     68  C   UNL A   1      47.488  33.384  26.614  1.00  0.00     0.054 A 
BRANCH  68  69
ATOM     69  S   UNL A   1      47.571  35.186  26.498  1.00  0.00     0.124 S 
ATOM     70  O   UNL A   1      48.894  35.388  25.915  1.00  0.00    -0.237 OA
ATOM     71  O   UNL A   1      46.439  35.491  25.629  1.00  0.00    -0.237 OA
ATOM     72  O   UNL A   1      47.424  35.625  27.884  1.00  0.00    -0.744 OA
ENDBRANCH  68  69
ENDBRANCH  49  63
BRANCH  50  73
ATOM     73  C   UNL A   1      39.234  28.583  29.119  1.00  0.00    -0.014 A 
ATOM     74  C   UNL A   1      38.228  28.651  30.103  1.00  0.00     0.010 A 
ATOM     75  C   UNL A   1      38.972  29.213  27.883  1.00  0.00     0.010 A 
ATOM     76  C   UNL A   1      37.033  29.365  29.875  1.00  0.00     0.020 A 
ATOM     77  C   UNL A   1      37.785  29.922  27.648  1.00  0.00     0.020 A 
ATOM     78  C   UNL A   1      36.829  30.015  28.655  1.00  0.00     0.054 A 
BRANCH  78  79
ATOM     79  S   UNL A   1      35.364  31.071  28.426  1.00  0.00     0.124 S 
ATOM     80  O   UNL A   1      34.387  30.137  27.874  1.00  0.00    -0.237 OA
ATOM     81  O   UNL A   1      35.097  31.539  29.782  1.00  0.00    -0.237 OA
ATOM     82  O   UNL A   1      35.826  32.103  27.499  1.00  0.00    -0.744 OA
ENDBRANCH  78  79
ENDBRANCH  50  73
BRANCH  62  83
ATOM     83  C   UNL A   1      44.570  27.244  32.237  1.00  0.00    -0.014 A 
ATOM     84  C   UNL A   1      44.384  27.484  33.615  1.00  0.00     0.010 A 
ATOM     85  C   UNL A   1      44.370  25.936  31.762  1.00  0.00     0.010 A 
ATOM     86  C   UNL A   1      44.030  26.443  34.490  1.00  0.00     0.020 A 
ATOM     87  C   UNL A   1      44.000  24.899  32.623  1.00  0.00     0.020 A 
ATOM     88  C   UNL A   1      43.839  25.154  33.985  1.00  0.00     0.054 A 
BRANCH  88  89
ATOM     89  S   UNL A   1      43.344  23.816  35.107  1.00  0.00     0.124 S 
ATOM     90  O   UNL A   1      41.895  23.987  35.184  1.00  0.00    -0.237 OA
ATOM     91  O   UNL A   1      43.798  22.618  34.405  1.00  0.00    -0.237 OA
ATOM     92  O   UNL A   1      44.066  24.111  36.343  1.00  0.00    -0.744 OA
ENDBRANCH  88  89
ENDBRANCH  62  83
ENDBRANCH  36  37
ENDBRANCH  28  31
ENDBRANCH   1  27
TORSDOF 14
ENDMDL
