MODEL 1
REMARK VINA RESULT:      -9.7      0.000      0.000
REMARK SMILES O=C(CCS(=O)(=O)Nc1ccc(-c2ccccc2)cc1)NCCCNC(=O)c1ccc(-c2c3nc(c(-c4ccc(S(=O)(=O)[O-])cc4)c4ccc([nH]4)c(-c4ccc(S(=O)(=O)[O-])cc4)c4nc(c(-c5ccc(S(=O)(=O)[O-])cc5)c5ccc2[nH]5)C=C4)C=C3)cc1
REMARK SMILES IDX 22 1 21 2 1 3 2 4 3 6 4 7 5 8 6 9 7 10 8 11 9 13 10 14 20 15
REMARK SMILES IDX 11 16 19 17 12 18 13 19 14 20 18 21 15 22 17 23 16 24 23 25
REMARK SMILES IDX 24 26 25 27 26 28 27 30 28 31 29 32 87 33 30 34 86 35 31 36
REMARK SMILES IDX 32 37 33 38 80 39 34 40 85 41 79 42 81 43 35 44 84 45 78 46
REMARK SMILES IDX 77 47 36 49 66 50 47 51 65 52 48 53 51 54 64 55 82 56 49 57
REMARK SMILES IDX 50 58 63 60 83 61 52 62 37 63 38 64 46 65 39 66 45 67 40 68
REMARK SMILES IDX 41 69 42 70 43 71 44 72 67 73 68 74 76 75 69 76 75 77 70 78
REMARK SMILES IDX 71 79 72 80 73 81 74 82 53 83 54 84 62 85 55 86 61 87 56 88
REMARK SMILES IDX 57 89 58 90 59 91 60 92
REMARK H PARENT 21 5 8 12 25 29 81 48 51 59
REMARK Flexibility Score: inf
ROOT
ATOM      1  C   UNL A   1      33.343  34.665  28.463  1.00  0.00     0.117 C 
ENDROOT
BRANCH   1   2
ATOM      2  N   UNL A   1      33.414  34.763  29.907  1.00  0.00    -0.356 N 
ATOM      3  O   UNL A   1      32.485  36.852  30.138  1.00  0.00    -0.275 OA
ATOM      4  C   UNL A   1      32.871  35.796  30.627  1.00  0.00     0.221 C 
ATOM      5  H   UNL A   1      33.878  34.048  30.398  1.00  0.00     0.163 HD
BRANCH   4   6
ATOM      6  C   UNL A   1      32.750  35.528  32.114  1.00  0.00     0.118 C 
BRANCH   6   7
ATOM      7  C   UNL A   1      34.055  35.287  32.869  1.00  0.00     0.170 C 
BRANCH   7   8
ATOM      8  S   UNL A   1      34.895  33.734  32.528  1.00  0.00     0.233 S 
ATOM      9  O   UNL A   1      33.918  32.723  32.164  1.00  0.00    -0.207 OA
ATOM     10  O   UNL A   1      35.955  34.035  31.590  1.00  0.00    -0.207 OA
BRANCH   8  11
ATOM     11  N   UNL A   1      35.705  33.205  33.905  1.00  0.00    -0.284 N 
ATOM     12  H   UNL A   1      35.324  33.458  34.776  1.00  0.00     0.180 HD
BRANCH  11  13
ATOM     13  C   UNL A   1      36.902  32.418  33.915  1.00  0.00     0.049 A 
ATOM     14  C   UNL A   1      37.936  32.720  34.815  1.00  0.00     0.027 A 
ATOM     15  C   UNL A   1      37.005  31.243  33.184  1.00  0.00     0.027 A 
ATOM     16  C   UNL A   1      39.093  31.914  34.884  1.00  0.00     0.011 A 
ATOM     17  C   UNL A   1      38.165  30.470  33.216  1.00  0.00     0.011 A 
ATOM     18  C   UNL A   1      39.230  30.794  34.056  1.00  0.00    -0.018 A 
BRANCH  18  19
ATOM     19  C   UNL A   1      40.398  29.912  34.049  1.00  0.00    -0.018 A 
ATOM     20  C   UNL A   1      40.363  28.704  33.337  1.00  0.00     0.009 A 
ATOM     21  C   UNL A   1      41.621  30.336  34.591  1.00  0.00     0.009 A 
ATOM     22  C   UNL A   1      41.526  27.955  33.146  1.00  0.00     0.001 A 
ATOM     23  C   UNL A   1      42.784  29.584  34.405  1.00  0.00     0.001 A 
ATOM     24  C   UNL A   1      42.737  28.399  33.673  1.00  0.00     0.000 A 
ENDBRANCH  18  19
ENDBRANCH  11  13
ENDBRANCH   8  11
ENDBRANCH   7   8
ENDBRANCH   6   7
ENDBRANCH   4   6
ENDBRANCH   1   2
BRANCH   1  25
ATOM     25  C   UNL A   1      32.975  33.287  27.949  1.00  0.00     0.042 C 
BRANCH  25  26
ATOM     26  C   UNL A   1      33.994  32.189  28.227  1.00  0.00     0.118 C 
BRANCH  26  27
ATOM     27  N   UNL A   1      33.633  30.857  27.753  1.00  0.00    -0.352 N 
ATOM     28  C   UNL A   1      34.408  29.712  27.740  1.00  0.00     0.251 C 
ATOM     29  H   UNL A   1      32.721  30.761  27.397  1.00  0.00     0.163 HD
ATOM     30  O   UNL A   1      33.962  28.662  27.287  1.00  0.00    -0.269 OA
BRANCH  28  31
ATOM     31  C   UNL A   1      35.810  29.786  28.219  1.00  0.00     0.039 A 
ATOM     32  C   UNL A   1      36.101  29.436  29.539  1.00  0.00     0.014 A 
ATOM     33  C   UNL A   1      36.847  30.073  27.329  1.00  0.00     0.014 A 
ATOM     34  C   UNL A   1      37.432  29.246  29.925  1.00  0.00     0.010 A 
ATOM     35  C   UNL A   1      38.156  29.764  27.680  1.00  0.00     0.010 A 
ATOM     36  C   UNL A   1      38.467  29.336  28.980  1.00  0.00    -0.014 A 
BRANCH  36  37
ATOM     37  C   UNL A   1      39.873  28.971  29.316  1.00  0.00     0.031 A 
ATOM     38  C   UNL A   1      40.772  29.975  29.990  1.00  0.00     0.074 A 
ATOM     39  C   UNL A   1      40.369  27.771  28.944  1.00  0.00     0.049 A 
ATOM     40  N   UNL A   1      42.041  29.874  30.292  1.00  0.00    -0.248 NA
ATOM     41  C   UNL A   1      40.177  31.275  30.341  1.00  0.00     0.031 C 
ATOM     42  C   UNL A   1      39.627  26.725  28.236  1.00  0.00     0.029 A 
ATOM     43  N   UNL A   1      41.622  27.229  29.105  1.00  0.00    -0.354 N 
ATOM     44  C   UNL A   1      42.396  31.099  30.845  1.00  0.00     0.074 A 
ATOM     45  C   UNL A   1      41.229  31.949  30.778  1.00  0.00     0.031 C 
ATOM     46  C   UNL A   1      40.424  25.658  28.060  1.00  0.00     0.029 A 
ATOM     47  C   UNL A   1      41.748  25.957  28.594  1.00  0.00     0.049 A 
ATOM     48  H   UNL A   1      42.362  27.707  29.546  1.00  0.00     0.167 HD
ATOM     49  C   UNL A   1      43.579  31.479  31.387  1.00  0.00     0.031 A 
ATOM     50  C   UNL A   1      42.808  25.124  28.551  1.00  0.00     0.031 A 
ATOM     51  C   UNL A   1      44.735  30.628  31.470  1.00  0.00     0.049 A 
ATOM     52  C   UNL A   1      44.116  25.571  29.150  1.00  0.00     0.074 A 
ATOM     53  C   UNL A   1      45.960  30.899  32.055  1.00  0.00     0.029 A 
ATOM     54  N   UNL A   1      44.813  29.344  30.953  1.00  0.00    -0.354 N 
ATOM     55  N   UNL A   1      44.408  26.708  29.734  1.00  0.00    -0.248 NA
ATOM     56  C   UNL A   1      45.233  24.617  29.095  1.00  0.00     0.031 C 
ATOM     57  C   UNL A   1      46.798  29.802  31.839  1.00  0.00     0.029 A 
ATOM     58  C   UNL A   1      46.074  28.819  31.183  1.00  0.00     0.049 A 
ATOM     59  H   UNL A   1      44.081  28.875  30.492  1.00  0.00     0.167 HD
ATOM     60  C   UNL A   1      45.732  26.593  30.147  1.00  0.00     0.074 A 
ATOM     61  C   UNL A   1      46.179  25.272  29.755  1.00  0.00     0.031 C 
ATOM     62  C   UNL A   1      46.504  27.499  30.796  1.00  0.00     0.031 A 
BRANCH  49  63
ATOM     63  C   UNL A   1      43.678  32.881  31.933  1.00  0.00    -0.014 A 
ATOM     64  C   UNL A   1      43.385  33.160  33.281  1.00  0.00     0.010 A 
ATOM     65  C   UNL A   1      44.108  33.927  31.097  1.00  0.00     0.010 A 
ATOM     66  C   UNL A   1      43.477  34.465  33.770  1.00  0.00     0.020 A 
ATOM     67  C   UNL A   1      44.233  35.229  31.591  1.00  0.00     0.020 A 
ATOM     68  C   UNL A   1      43.900  35.492  32.921  1.00  0.00     0.054 A 
BRANCH  68  69
ATOM     69  S   UNL A   1      44.034  37.171  33.592  1.00  0.00     0.124 S 
ATOM     70  O   UNL A   1      44.084  37.978  32.374  1.00  0.00    -0.237 OA
ATOM     71  O   UNL A   1      42.810  37.299  34.379  1.00  0.00    -0.237 OA
ATOM     72  O   UNL A   1      45.271  37.139  34.367  1.00  0.00    -0.744 OA
ENDBRANCH  68  69
ENDBRANCH  49  63
BRANCH  50  73
ATOM     73  C   UNL A   1      42.676  23.774  27.931  1.00  0.00    -0.014 A 
ATOM     74  C   UNL A   1      42.224  22.679  28.690  1.00  0.00     0.010 A 
ATOM     75  C   UNL A   1      42.998  23.576  26.576  1.00  0.00     0.010 A 
ATOM     76  C   UNL A   1      42.117  21.409  28.113  1.00  0.00     0.020 A 
ATOM     77  C   UNL A   1      42.862  22.314  25.987  1.00  0.00     0.020 A 
ATOM     78  C   UNL A   1      42.433  21.236  26.762  1.00  0.00     0.054 A 
BRANCH  78  79
ATOM     79  S   UNL A   1      42.239  19.591  26.024  1.00  0.00     0.124 S 
ATOM     80  O   UNL A   1      43.124  19.668  24.867  1.00  0.00    -0.237 OA
ATOM     81  O   UNL A   1      42.680  18.708  27.101  1.00  0.00    -0.237 OA
ATOM     82  O   UNL A   1      40.811  19.520  25.716  1.00  0.00    -0.744 OA
ENDBRANCH  78  79
ENDBRANCH  50  73
BRANCH  62  83
ATOM     83  C   UNL A   1      47.902  27.085  31.176  1.00  0.00    -0.014 A 
ATOM     84  C   UNL A   1      48.983  27.245  30.291  1.00  0.00     0.010 A 
ATOM     85  C   UNL A   1      48.146  26.596  32.473  1.00  0.00     0.010 A 
ATOM     86  C   UNL A   1      50.277  26.899  30.690  1.00  0.00     0.020 A 
ATOM     87  C   UNL A   1      49.442  26.280  32.885  1.00  0.00     0.020 A 
ATOM     88  C   UNL A   1      50.499  26.423  31.986  1.00  0.00     0.054 A 
BRANCH  88  89
ATOM     89  S   UNL A   1      52.197  26.038  32.495  1.00  0.00     0.124 S 
ATOM     90  O   UNL A   1      52.963  27.066  31.799  1.00  0.00    -0.237 OA
ATOM     91  O   UNL A   1      52.133  26.176  33.949  1.00  0.00    -0.237 OA
ATOM     92  O   UNL A   1      52.403  24.674  32.014  1.00  0.00    -0.744 OA
ENDBRANCH  88  89
ENDBRANCH  62  83
ENDBRANCH  36  37
ENDBRANCH  28  31
ENDBRANCH  26  27
ENDBRANCH  25  26
ENDBRANCH   1  25
TORSDOF 18
ENDMDL
MODEL 2
REMARK VINA RESULT:      -9.5      4.664     11.308
REMARK SMILES O=C(CCS(=O)(=O)Nc1ccc(-c2ccccc2)cc1)NCCCNC(=O)c1ccc(-c2c3nc(c(-c4ccc(S(=O)(=O)[O-])cc4)c4ccc([nH]4)c(-c4ccc(S(=O)(=O)[O-])cc4)c4nc(c(-c5ccc(S(=O)(=O)[O-])cc5)c5ccc2[nH]5)C=C4)C=C3)cc1
REMARK SMILES IDX 22 1 21 2 1 3 2 4 3 6 4 7 5 8 6 9 7 10 8 11 9 13 10 14 20 15
REMARK SMILES IDX 11 16 19 17 12 18 13 19 14 20 18 21 15 22 17 23 16 24 23 25
REMARK SMILES IDX 24 26 25 27 26 28 27 30 28 31 29 32 87 33 30 34 86 35 31 36
REMARK SMILES IDX 32 37 33 38 80 39 34 40 85 41 79 42 81 43 35 44 84 45 78 46
REMARK SMILES IDX 77 47 36 49 66 50 47 51 65 52 48 53 51 54 64 55 82 56 49 57
REMARK SMILES IDX 50 58 63 60 83 61 52 62 37 63 38 64 46 65 39 66 45 67 40 68
REMARK SMILES IDX 41 69 42 70 43 71 44 72 67 73 68 74 76 75 69 76 75 77 70 78
REMARK SMILES IDX 71 79 72 80 73 81 74 82 53 83 54 84 62 85 55 86 61 87 56 88
REMARK SMILES IDX 57 89 58 90 59 91 60 92
REMARK H PARENT 21 5 8 12 25 29 81 48 51 59
REMARK Flexibility Score: inf
ROOT
ATOM      1  C   UNL A   1      35.090  23.398  23.720  1.00  0.00     0.117 C 
ENDROOT
BRANCH   1   2
ATOM      2  N   UNL A   1      34.721  24.770  24.009  1.00  0.00    -0.356 N 
ATOM      3  O   UNL A   1      33.727  25.270  21.999  1.00  0.00    -0.275 OA
ATOM      4  C   UNL A   1      33.968  25.549  23.169  1.00  0.00     0.221 C 
ATOM      5  H   UNL A   1      35.030  25.164  24.856  1.00  0.00     0.163 HD
BRANCH   4   6
ATOM      6  C   UNL A   1      33.411  26.804  23.810  1.00  0.00     0.118 C 
BRANCH   6   7
ATOM      7  C   UNL A   1      31.928  26.780  24.172  1.00  0.00     0.170 C 
BRANCH   7   8
ATOM      8  S   UNL A   1      31.474  25.778  25.595  1.00  0.00     0.233 S 
ATOM      9  O   UNL A   1      32.676  25.293  26.251  1.00  0.00    -0.207 OA
ATOM     10  O   UNL A   1      30.537  26.563  26.370  1.00  0.00    -0.207 OA
BRANCH   8  11
ATOM     11  N   UNL A   1      30.577  24.445  25.097  1.00  0.00    -0.284 N 
ATOM     12  H   UNL A   1      29.605  24.565  25.005  1.00  0.00     0.180 HD
BRANCH  11  13
ATOM     13  C   UNL A   1      31.111  23.150  24.794  1.00  0.00     0.049 A 
ATOM     14  C   UNL A   1      31.537  22.851  23.490  1.00  0.00     0.027 A 
ATOM     15  C   UNL A   1      31.391  22.228  25.792  1.00  0.00     0.027 A 
ATOM     16  C   UNL A   1      32.125  21.603  23.190  1.00  0.00     0.011 A 
ATOM     17  C   UNL A   1      31.930  20.978  25.492  1.00  0.00     0.011 A 
ATOM     18  C   UNL A   1      32.297  20.639  24.191  1.00  0.00    -0.018 A 
BRANCH  18  19
ATOM     19  C   UNL A   1      32.884  19.317  23.969  1.00  0.00    -0.018 A 
ATOM     20  C   UNL A   1      32.385  18.487  22.954  1.00  0.00     0.009 A 
ATOM     21  C   UNL A   1      34.059  18.931  24.633  1.00  0.00     0.009 A 
ATOM     22  C   UNL A   1      33.059  17.319  22.591  1.00  0.00     0.001 A 
ATOM     23  C   UNL A   1      34.731  17.760  24.274  1.00  0.00     0.001 A 
ATOM     24  C   UNL A   1      34.236  16.960  23.246  1.00  0.00     0.000 A 
ENDBRANCH  18  19
ENDBRANCH  11  13
ENDBRANCH   8  11
ENDBRANCH   7   8
ENDBRANCH   6   7
ENDBRANCH   4   6
ENDBRANCH   1   2
BRANCH   1  25
ATOM     25  C   UNL A   1      36.570  23.107  23.865  1.00  0.00     0.042 C 
BRANCH  25  26
ATOM     26  C   UNL A   1      37.108  23.135  25.290  1.00  0.00     0.118 C 
BRANCH  26  27
ATOM     27  N   UNL A   1      38.344  22.392  25.514  1.00  0.00    -0.352 N 
ATOM     28  C   UNL A   1      39.476  22.795  26.199  1.00  0.00     0.251 C 
ATOM     29  H   UNL A   1      38.376  21.487  25.129  1.00  0.00     0.163 HD
ATOM     30  O   UNL A   1      40.450  22.053  26.285  1.00  0.00    -0.269 OA
BRANCH  28  31
ATOM     31  C   UNL A   1      39.522  24.163  26.771  1.00  0.00     0.039 A 
ATOM     32  C   UNL A   1      39.047  24.379  28.067  1.00  0.00     0.014 A 
ATOM     33  C   UNL A   1      40.152  25.198  26.078  1.00  0.00     0.014 A 
ATOM     34  C   UNL A   1      39.324  25.589  28.710  1.00  0.00     0.010 A 
ATOM     35  C   UNL A   1      40.532  26.348  26.760  1.00  0.00     0.010 A 
ATOM     36  C   UNL A   1      40.133  26.556  28.090  1.00  0.00    -0.014 A 
BRANCH  36  37
ATOM     37  C   UNL A   1      40.591  27.778  28.811  1.00  0.00     0.031 A 
ATOM     38  C   UNL A   1      41.958  27.812  29.445  1.00  0.00     0.074 A 
ATOM     39  C   UNL A   1      39.754  28.826  28.968  1.00  0.00     0.049 A 
ATOM     40  N   UNL A   1      42.504  28.749  30.177  1.00  0.00    -0.248 NA
ATOM     41  C   UNL A   1      42.809  26.625  29.262  1.00  0.00     0.031 C 
ATOM     42  C   UNL A   1      38.384  28.906  28.454  1.00  0.00     0.029 A 
ATOM     43  N   UNL A   1      39.930  30.027  29.613  1.00  0.00    -0.354 N 
ATOM     44  C   UNL A   1      43.748  28.255  30.556  1.00  0.00     0.074 A 
ATOM     45  C   UNL A   1      43.849  26.913  30.030  1.00  0.00     0.031 C 
ATOM     46  C   UNL A   1      37.861  30.103  28.769  1.00  0.00     0.029 A 
ATOM     47  C   UNL A   1      38.834  30.859  29.550  1.00  0.00     0.049 A 
ATOM     48  H   UNL A   1      40.763  30.271  30.078  1.00  0.00     0.167 HD
ATOM     49  C   UNL A   1      44.732  28.870  31.256  1.00  0.00     0.031 A 
ATOM     50  C   UNL A   1      38.629  32.088  30.066  1.00  0.00     0.031 A 
ATOM     51  C   UNL A   1      44.639  30.211  31.765  1.00  0.00     0.049 A 
ATOM     52  C   UNL A   1      39.732  32.748  30.850  1.00  0.00     0.074 A 
ATOM     53  C   UNL A   1      45.604  30.945  32.433  1.00  0.00     0.029 A 
ATOM     54  N   UNL A   1      43.517  31.021  31.666  1.00  0.00    -0.354 N 
ATOM     55  N   UNL A   1      40.928  32.290  31.133  1.00  0.00    -0.248 NA
ATOM     56  C   UNL A   1      39.463  34.095  31.373  1.00  0.00     0.031 C 
ATOM     57  C   UNL A   1      45.046  32.175  32.791  1.00  0.00     0.029 A 
ATOM     58  C   UNL A   1      43.758  32.237  32.283  1.00  0.00     0.049 A 
ATOM     59  H   UNL A   1      42.676  30.769  31.221  1.00  0.00     0.167 HD
ATOM     60  C   UNL A   1      41.566  33.307  31.837  1.00  0.00     0.074 A 
ATOM     61  C   UNL A   1      40.628  34.406  31.926  1.00  0.00     0.031 C 
ATOM     62  C   UNL A   1      42.818  33.327  32.357  1.00  0.00     0.031 A 
BRANCH  49  63
ATOM     63  C   UNL A   1      45.997  28.091  31.512  1.00  0.00    -0.014 A 
ATOM     64  C   UNL A   1      46.090  27.188  32.587  1.00  0.00     0.010 A 
ATOM     65  C   UNL A   1      47.093  28.233  30.644  1.00  0.00     0.010 A 
ATOM     66  C   UNL A   1      47.271  26.478  32.815  1.00  0.00     0.020 A 
ATOM     67  C   UNL A   1      48.266  27.499  30.848  1.00  0.00     0.020 A 
ATOM     68  C   UNL A   1      48.352  26.638  31.944  1.00  0.00     0.054 A 
BRANCH  68  69
ATOM     69  S   UNL A   1      49.862  25.683  32.250  1.00  0.00     0.124 S 
ATOM     70  O   UNL A   1      50.133  25.116  30.930  1.00  0.00    -0.237 OA
ATOM     71  O   UNL A   1      50.803  26.707  32.697  1.00  0.00    -0.237 OA
ATOM     72  O   UNL A   1      49.464  24.718  33.271  1.00  0.00    -0.744 OA
ENDBRANCH  68  69
ENDBRANCH  49  63
BRANCH  50  73
ATOM     73  C   UNL A   1      37.329  32.785  29.846  1.00  0.00    -0.014 A 
ATOM     74  C   UNL A   1      36.312  32.727  30.817  1.00  0.00     0.010 A 
ATOM     75  C   UNL A   1      37.099  33.513  28.665  1.00  0.00     0.010 A 
ATOM     76  C   UNL A   1      35.086  33.366  30.603  1.00  0.00     0.020 A 
ATOM     77  C   UNL A   1      35.886  34.180  28.461  1.00  0.00     0.020 A 
ATOM     78  C   UNL A   1      34.883  34.093  29.426  1.00  0.00     0.054 A 
BRANCH  78  79
ATOM     79  S   UNL A   1      33.303  34.954  29.193  1.00  0.00     0.124 S 
ATOM     80  O   UNL A   1      33.736  36.261  28.710  1.00  0.00    -0.237 OA
ATOM     81  O   UNL A   1      32.626  34.109  28.212  1.00  0.00    -0.237 OA
ATOM     82  O   UNL A   1      32.709  34.945  30.529  1.00  0.00    -0.744 OA
ENDBRANCH  78  79
ENDBRANCH  50  73
BRANCH  62  83
ATOM     83  C   UNL A   1      43.278  34.595  33.029  1.00  0.00    -0.014 A 
ATOM     84  C   UNL A   1      43.861  35.645  32.299  1.00  0.00     0.010 A 
ATOM     85  C   UNL A   1      43.050  34.764  34.408  1.00  0.00     0.010 A 
ATOM     86  C   UNL A   1      44.230  36.831  32.941  1.00  0.00     0.020 A 
ATOM     87  C   UNL A   1      43.388  35.959  35.046  1.00  0.00     0.020 A 
ATOM     88  C   UNL A   1      43.988  36.981  34.310  1.00  0.00     0.054 A 
BRANCH  88  89
ATOM     89  S   UNL A   1      44.423  38.552  35.106  1.00  0.00     0.124 S 
ATOM     90  O   UNL A   1      45.846  38.662  34.803  1.00  0.00    -0.237 OA
ATOM     91  O   UNL A   1      43.557  39.508  34.419  1.00  0.00    -0.237 OA
ATOM     92  O   UNL A   1      44.101  38.329  36.513  1.00  0.00    -0.744 OA
ENDBRANCH  88  89
ENDBRANCH  62  83
ENDBRANCH  36  37
ENDBRANCH  28  31
ENDBRANCH  26  27
ENDBRANCH  25  26
ENDBRANCH   1  25
TORSDOF 18
ENDMDL
MODEL 3
REMARK VINA RESULT:      -9.2      3.494      9.123
REMARK SMILES O=C(CCS(=O)(=O)Nc1ccc(-c2ccccc2)cc1)NCCCNC(=O)c1ccc(-c2c3nc(c(-c4ccc(S(=O)(=O)[O-])cc4)c4ccc([nH]4)c(-c4ccc(S(=O)(=O)[O-])cc4)c4nc(c(-c5ccc(S(=O)(=O)[O-])cc5)c5ccc2[nH]5)C=C4)C=C3)cc1
REMARK SMILES IDX 22 1 21 2 1 3 2 4 3 6 4 7 5 8 6 9 7 10 8 11 9 13 10 14 20 15
REMARK SMILES IDX 11 16 19 17 12 18 13 19 14 20 18 21 15 22 17 23 16 24 23 25
REMARK SMILES IDX 24 26 25 27 26 28 27 30 28 31 29 32 87 33 30 34 86 35 31 36
REMARK SMILES IDX 32 37 33 38 80 39 34 40 85 41 79 42 81 43 35 44 84 45 78 46
REMARK SMILES IDX 77 47 36 49 66 50 47 51 65 52 48 53 51 54 64 55 82 56 49 57
REMARK SMILES IDX 50 58 63 60 83 61 52 62 37 63 38 64 46 65 39 66 45 67 40 68
REMARK SMILES IDX 41 69 42 70 43 71 44 72 67 73 68 74 76 75 69 76 75 77 70 78
REMARK SMILES IDX 71 79 72 80 73 81 74 82 53 83 54 84 62 85 55 86 61 87 56 88
REMARK SMILES IDX 57 89 58 90 59 91 60 92
REMARK H PARENT 21 5 8 12 25 29 81 48 51 59
REMARK Flexibility Score: inf
ROOT
ATOM      1  C   UNL A   1      34.822  34.237  28.449  1.00  0.00     0.117 C 
ENDROOT
BRANCH   1   2
ATOM      2  N   UNL A   1      34.808  34.693  29.824  1.00  0.00    -0.356 N 
ATOM      3  O   UNL A   1      32.538  34.978  30.050  1.00  0.00    -0.275 OA
ATOM      4  C   UNL A   1      33.660  34.911  30.542  1.00  0.00     0.221 C 
ATOM      5  H   UNL A   1      35.671  34.857  30.268  1.00  0.00     0.163 HD
BRANCH   4   6
ATOM      6  C   UNL A   1      33.870  35.038  32.038  1.00  0.00     0.118 C 
BRANCH   6   7
ATOM      7  C   UNL A   1      35.288  35.370  32.498  1.00  0.00     0.170 C 
BRANCH   7   8
ATOM      8  S   UNL A   1      36.169  34.061  33.362  1.00  0.00     0.233 S 
ATOM      9  O   UNL A   1      37.101  34.647  34.310  1.00  0.00    -0.207 OA
ATOM     10  O   UNL A   1      35.165  33.147  33.860  1.00  0.00    -0.207 OA
BRANCH   8  11
ATOM     11  N   UNL A   1      37.052  33.142  32.264  1.00  0.00    -0.284 N 
ATOM     12  H   UNL A   1      36.737  32.226  32.088  1.00  0.00     0.180 HD
BRANCH  11  13
ATOM     13  C   UNL A   1      38.223  33.580  31.563  1.00  0.00     0.049 A 
ATOM     14  C   UNL A   1      38.115  34.081  30.257  1.00  0.00     0.027 A 
ATOM     15  C   UNL A   1      39.450  33.696  32.201  1.00  0.00     0.027 A 
ATOM     16  C   UNL A   1      39.250  34.577  29.578  1.00  0.00     0.011 A 
ATOM     17  C   UNL A   1      40.580  34.143  31.519  1.00  0.00     0.011 A 
ATOM     18  C   UNL A   1      40.504  34.582  30.198  1.00  0.00    -0.018 A 
BRANCH  18  19
ATOM     19  C   UNL A   1      41.734  35.064  29.566  1.00  0.00    -0.018 A 
ATOM     20  C   UNL A   1      41.736  35.421  28.210  1.00  0.00     0.009 A 
ATOM     21  C   UNL A   1      42.871  35.351  30.337  1.00  0.00     0.009 A 
ATOM     22  C   UNL A   1      42.833  36.074  27.645  1.00  0.00     0.001 A 
ATOM     23  C   UNL A   1      43.972  36.000  29.771  1.00  0.00     0.001 A 
ATOM     24  C   UNL A   1      43.947  36.371  28.428  1.00  0.00     0.000 A 
ENDBRANCH  18  19
ENDBRANCH  11  13
ENDBRANCH   8  11
ENDBRANCH   7   8
ENDBRANCH   6   7
ENDBRANCH   4   6
ENDBRANCH   1   2
BRANCH   1  25
ATOM     25  C   UNL A   1      34.529  32.760  28.280  1.00  0.00     0.042 C 
BRANCH  25  26
ATOM     26  C   UNL A   1      35.711  31.825  28.501  1.00  0.00     0.118 C 
BRANCH  26  27
ATOM     27  N   UNL A   1      35.566  30.868  29.593  1.00  0.00    -0.352 N 
ATOM     28  C   UNL A   1      36.546  30.108  30.205  1.00  0.00     0.251 C 
ATOM     29  H   UNL A   1      34.652  30.748  29.939  1.00  0.00     0.163 HD
ATOM     30  O   UNL A   1      36.257  29.327  31.107  1.00  0.00    -0.269 OA
BRANCH  28  31
ATOM     31  C   UNL A   1      37.941  30.201  29.710  1.00  0.00     0.039 A 
ATOM     32  C   UNL A   1      38.982  30.369  30.627  1.00  0.00     0.014 A 
ATOM     33  C   UNL A   1      38.228  29.988  28.361  1.00  0.00     0.014 A 
ATOM     34  C   UNL A   1      40.304  30.192  30.209  1.00  0.00     0.010 A 
ATOM     35  C   UNL A   1      39.530  29.692  27.976  1.00  0.00     0.010 A 
ATOM     36  C   UNL A   1      40.587  29.778  28.896  1.00  0.00    -0.014 A 
BRANCH  36  37
ATOM     37  C   UNL A   1      41.966  29.414  28.466  1.00  0.00     0.031 A 
ATOM     38  C   UNL A   1      42.279  27.998  28.056  1.00  0.00     0.074 A 
ATOM     39  C   UNL A   1      42.958  30.329  28.521  1.00  0.00     0.049 A 
ATOM     40  N   UNL A   1      43.430  27.469  27.726  1.00  0.00    -0.248 NA
ATOM     41  C   UNL A   1      41.159  27.042  28.047  1.00  0.00     0.031 C 
ATOM     42  C   UNL A   1      42.809  31.722  28.952  1.00  0.00     0.029 A 
ATOM     43  N   UNL A   1      44.295  30.224  28.217  1.00  0.00    -0.354 N 
ATOM     44  C   UNL A   1      43.174  26.122  27.493  1.00  0.00     0.074 A 
ATOM     45  C   UNL A   1      41.776  25.901  27.783  1.00  0.00     0.031 C 
ATOM     46  C   UNL A   1      43.993  32.348  28.848  1.00  0.00     0.029 A 
ATOM     47  C   UNL A   1      44.999  31.394  28.393  1.00  0.00     0.049 A 
ATOM     48  H   UNL A   1      44.711  29.389  27.903  1.00  0.00     0.167 HD
ATOM     49  C   UNL A   1      44.018  25.159  27.052  1.00  0.00     0.031 A 
ATOM     50  C   UNL A   1      46.307  31.672  28.216  1.00  0.00     0.031 A 
ATOM     51  C   UNL A   1      45.406  25.382  26.748  1.00  0.00     0.049 A 
ATOM     52  C   UNL A   1      47.229  30.583  27.735  1.00  0.00     0.074 A 
ATOM     53  C   UNL A   1      46.328  24.485  26.237  1.00  0.00     0.029 A 
ATOM     54  N   UNL A   1      46.072  26.585  26.926  1.00  0.00    -0.354 N 
ATOM     55  N   UNL A   1      46.950  29.333  27.452  1.00  0.00    -0.248 NA
ATOM     56  C   UNL A   1      48.640  30.944  27.539  1.00  0.00     0.031 C 
ATOM     57  C   UNL A   1      47.567  25.129  26.164  1.00  0.00     0.029 A 
ATOM     58  C   UNL A   1      47.400  26.447  26.560  1.00  0.00     0.049 A 
ATOM     59  H   UNL A   1      45.662  27.414  27.262  1.00  0.00     0.167 HD
ATOM     60  C   UNL A   1      48.142  28.769  27.010  1.00  0.00     0.074 A 
ATOM     61  C   UNL A   1      49.142  29.816  27.054  1.00  0.00     0.031 C 
ATOM     62  C   UNL A   1      48.384  27.499  26.600  1.00  0.00     0.031 A 
BRANCH  49  63
ATOM     63  C   UNL A   1      43.459  23.770  26.874  1.00  0.00    -0.014 A 
ATOM     64  C   UNL A   1      43.139  23.272  25.597  1.00  0.00     0.010 A 
ATOM     65  C   UNL A   1      43.288  22.936  27.993  1.00  0.00     0.010 A 
ATOM     66  C   UNL A   1      42.617  21.986  25.449  1.00  0.00     0.020 A 
ATOM     67  C   UNL A   1      42.797  21.636  27.846  1.00  0.00     0.020 A 
ATOM     68  C   UNL A   1      42.448  21.175  26.574  1.00  0.00     0.054 A 
BRANCH  68  69
ATOM     69  S   UNL A   1      41.792  19.500  26.348  1.00  0.00     0.124 S 
ATOM     70  O   UNL A   1      42.514  19.053  25.158  1.00  0.00    -0.237 OA
ATOM     71  O   UNL A   1      42.168  18.839  27.595  1.00  0.00    -0.237 OA
ATOM     72  O   UNL A   1      40.359  19.709  26.163  1.00  0.00    -0.744 OA
ENDBRANCH  68  69
ENDBRANCH  49  63
BRANCH  50  73
ATOM     73  C   UNL A   1      46.823  33.046  28.479  1.00  0.00    -0.014 A 
ATOM     74  C   UNL A   1      47.258  33.413  29.766  1.00  0.00     0.010 A 
ATOM     75  C   UNL A   1      46.887  33.996  27.444  1.00  0.00     0.010 A 
ATOM     76  C   UNL A   1      47.725  34.708  30.017  1.00  0.00     0.020 A 
ATOM     77  C   UNL A   1      47.384  35.282  27.683  1.00  0.00     0.020 A 
ATOM     78  C   UNL A   1      47.790  35.633  28.971  1.00  0.00     0.054 A 
BRANCH  78  79
ATOM     79  S   UNL A   1      48.446  37.290  29.310  1.00  0.00     0.124 S 
ATOM     80  O   UNL A   1      49.417  37.024  30.366  1.00  0.00    -0.237 OA
ATOM     81  O   UNL A   1      49.006  37.678  28.018  1.00  0.00    -0.237 OA
ATOM     82  O   UNL A   1      47.265  38.048  29.721  1.00  0.00    -0.744 OA
ENDBRANCH  78  79
ENDBRANCH  50  73
BRANCH  62  83
ATOM     83  C   UNL A   1      49.772  27.171  26.115  1.00  0.00    -0.014 A 
ATOM     84  C   UNL A   1      50.778  26.742  26.999  1.00  0.00     0.010 A 
ATOM     85  C   UNL A   1      50.050  27.224  24.737  1.00  0.00     0.010 A 
ATOM     86  C   UNL A   1      52.042  26.395  26.513  1.00  0.00     0.020 A 
ATOM     87  C   UNL A   1      51.301  26.848  24.245  1.00  0.00     0.020 A 
ATOM     88  C   UNL A   1      52.294  26.447  25.139  1.00  0.00     0.054 A 
BRANCH  88  89
ATOM     89  S   UNL A   1      53.925  25.935  24.531  1.00  0.00     0.124 S 
ATOM     90  O   UNL A   1      54.822  26.739  25.354  1.00  0.00    -0.237 OA
ATOM     91  O   UNL A   1      53.933  24.500  24.806  1.00  0.00    -0.237 OA
ATOM     92  O   UNL A   1      53.894  26.291  23.114  1.00  0.00    -0.744 OA
ENDBRANCH  88  89
ENDBRANCH  62  83
ENDBRANCH  36  37
ENDBRANCH  28  31
ENDBRANCH  26  27
ENDBRANCH  25  26
ENDBRANCH   1  25
TORSDOF 18
ENDMDL
