MODEL 1
REMARK VINA RESULT:     -11.8      0.000      0.000
REMARK SMILES O=C(NCCCNC(=O)c1ccc2c(=O)n(CCC[NH+]3CCOCC3)c(=O)[nH]c2c1)c1ccc(-c2c3nc(c(-c4ccc(S(=O)(=O)[O-])cc4)c4ccc([nH]4)c(-c4ccc(S(=O)(=O)[O-])cc4)c4nc(c(-c5ccc(S(=O)(=O)[O-])cc5)c5ccc2[nH]5)C=C4)C=C3)cc1
REMARK SMILES IDX 5 1 4 2 3 3 1 4 2 5 31 7 32 8 90 9 33 10 89 11 34 12 35 13
REMARK SMILES IDX 36 14 83 15 37 16 88 17 82 18 84 19 38 20 87 21 81 22 80 23
REMARK SMILES IDX 39 25 69 26 50 27 68 28 51 29 54 30 67 31 85 32 52 33 53 34
REMARK SMILES IDX 66 36 86 37 55 38 40 39 41 40 49 41 42 42 48 43 43 44 44 45
REMARK SMILES IDX 45 46 46 47 47 48 70 49 71 50 79 51 72 52 78 53 73 54 74 55
REMARK SMILES IDX 75 56 76 57 77 58 56 59 57 60 65 61 58 62 64 63 59 64 60 65
REMARK SMILES IDX 61 66 62 67 63 68 6 69 7 70 8 71 9 73 10 74 11 75 30 76
REMARK SMILES IDX 12 77 29 78 13 79 28 80 14 81 26 82 15 84 16 85 27 86 17 87
REMARK SMILES IDX 18 88 19 89 20 90 21 91 25 92 22 94 24 95 23 96
REMARK H PARENT 3 6 84 24 54 35 7 72 28 83 20 93
REMARK Flexibility Score: inf
ROOT
ATOM      1  C   UNL A   1      33.153  28.827  24.723  1.00  0.00     0.042 C 
ENDROOT
BRANCH   1   2
ATOM      2  C   UNL A   1      34.025  28.960  25.959  1.00  0.00     0.118 C 
BRANCH   2   3
ATOM      3  N   UNL A   1      33.732  30.159  26.732  1.00  0.00    -0.352 N 
ATOM      4  O   UNL A   1      33.918  31.689  28.360  1.00  0.00    -0.269 OA
ATOM      5  C   UNL A   1      34.438  30.764  27.740  1.00  0.00     0.251 C 
ATOM      6  H   UNL A   1      32.890  30.609  26.491  1.00  0.00     0.163 HD
BRANCH   5   7
ATOM      7  C   UNL A   1      35.800  30.307  28.094  1.00  0.00     0.039 A 
ATOM      8  C   UNL A   1      36.007  29.708  29.340  1.00  0.00     0.014 A 
ATOM      9  C   UNL A   1      36.881  30.493  27.228  1.00  0.00     0.014 A 
ATOM     10  C   UNL A   1      37.283  29.264  29.694  1.00  0.00     0.010 A 
ATOM     11  C   UNL A   1      38.123  29.951  27.533  1.00  0.00     0.010 A 
ATOM     12  C   UNL A   1      38.348  29.360  28.783  1.00  0.00    -0.014 A 
BRANCH  12  13
ATOM     13  C   UNL A   1      39.713  28.901  29.142  1.00  0.00     0.031 A 
ATOM     14  C   UNL A   1      40.619  29.790  29.953  1.00  0.00     0.074 A 
ATOM     15  C   UNL A   1      40.149  27.698  28.719  1.00  0.00     0.049 A 
ATOM     16  N   UNL A   1      41.847  29.572  30.347  1.00  0.00    -0.248 NA
ATOM     17  C   UNL A   1      40.088  31.106  30.348  1.00  0.00     0.031 C 
ATOM     18  C   UNL A   1      39.384  26.765  27.891  1.00  0.00     0.029 A 
ATOM     19  N   UNL A   1      41.338  27.049  28.939  1.00  0.00    -0.354 N 
ATOM     20  C   UNL A   1      42.231  30.720  31.031  1.00  0.00     0.074 A 
ATOM     21  C   UNL A   1      41.141  31.662  30.926  1.00  0.00     0.031 C 
ATOM     22  C   UNL A   1      40.101  25.644  27.717  1.00  0.00     0.029 A 
ATOM     23  C   UNL A   1      41.392  25.792  28.385  1.00  0.00     0.049 A 
ATOM     24  H   UNL A   1      42.084  27.446  29.446  1.00  0.00     0.167 HD
ATOM     25  C   UNL A   1      43.371  30.955  31.723  1.00  0.00     0.031 A 
ATOM     26  C   UNL A   1      42.359  24.855  28.421  1.00  0.00     0.031 A 
ATOM     27  C   UNL A   1      44.444  30.006  31.843  1.00  0.00     0.049 A 
ATOM     28  C   UNL A   1      43.617  25.131  29.196  1.00  0.00     0.074 A 
ATOM     29  C   UNL A   1      45.629  30.136  32.546  1.00  0.00     0.029 A 
ATOM     30  N   UNL A   1      44.461  28.748  31.260  1.00  0.00    -0.354 N 
ATOM     31  N   UNL A   1      43.949  26.210  29.863  1.00  0.00    -0.248 NA
ATOM     32  C   UNL A   1      44.622  24.061  29.236  1.00  0.00     0.031 C 
ATOM     33  C   UNL A   1      46.384  28.977  32.346  1.00  0.00     0.029 A 
ATOM     34  C   UNL A   1      45.641  28.096  31.575  1.00  0.00     0.049 A 
ATOM     35  H   UNL A   1      43.739  28.372  30.706  1.00  0.00     0.167 HD
ATOM     36  C   UNL A   1      45.201  25.950  30.408  1.00  0.00     0.074 A 
ATOM     37  C   UNL A   1      45.552  24.599  30.018  1.00  0.00     0.031 C 
ATOM     38  C   UNL A   1      45.989  26.759  31.159  1.00  0.00     0.031 A 
BRANCH  25  39
ATOM     39  C   UNL A   1      43.497  32.277  32.436  1.00  0.00    -0.014 A 
ATOM     40  C   UNL A   1      44.070  33.383  31.785  1.00  0.00     0.010 A 
ATOM     41  C   UNL A   1      43.103  32.407  33.782  1.00  0.00     0.010 A 
ATOM     42  C   UNL A   1      44.262  34.588  32.467  1.00  0.00     0.020 A 
ATOM     43  C   UNL A   1      43.261  33.619  34.457  1.00  0.00     0.020 A 
ATOM     44  C   UNL A   1      43.859  34.696  33.802  1.00  0.00     0.054 A 
BRANCH  44  45
ATOM     45  S   UNL A   1      44.107  36.269  34.672  1.00  0.00     0.124 S 
ATOM     46  O   UNL A   1      44.301  35.830  36.050  1.00  0.00    -0.237 OA
ATOM     47  O   UNL A   1      45.287  36.818  34.010  1.00  0.00    -0.237 OA
ATOM     48  O   UNL A   1      42.866  36.999  34.415  1.00  0.00    -0.744 OA
ENDBRANCH  44  45
ENDBRANCH  25  39
BRANCH  26  49
ATOM     49  C   UNL A   1      42.120  23.550  27.745  1.00  0.00    -0.014 A 
ATOM     50  C   UNL A   1      41.412  22.526  28.401  1.00  0.00     0.010 A 
ATOM     51  C   UNL A   1      42.705  23.284  26.494  1.00  0.00     0.010 A 
ATOM     52  C   UNL A   1      41.352  21.242  27.853  1.00  0.00     0.020 A 
ATOM     53  C   UNL A   1      42.622  22.008  25.929  1.00  0.00     0.020 A 
ATOM     54  C   UNL A   1      41.977  20.987  26.630  1.00  0.00     0.054 A 
BRANCH  54  55
ATOM     55  S   UNL A   1      41.970  19.291  25.985  1.00  0.00     0.124 S 
ATOM     56  O   UNL A   1      42.871  19.403  24.841  1.00  0.00    -0.237 OA
ATOM     57  O   UNL A   1      42.479  18.516  27.113  1.00  0.00    -0.237 OA
ATOM     58  O   UNL A   1      40.566  19.056  25.654  1.00  0.00    -0.744 OA
ENDBRANCH  54  55
ENDBRANCH  26  49
BRANCH  38  59
ATOM     59  C   UNL A   1      47.330  26.228  31.594  1.00  0.00    -0.014 A 
ATOM     60  C   UNL A   1      48.423  26.266  30.708  1.00  0.00     0.010 A 
ATOM     61  C   UNL A   1      47.482  25.598  32.841  1.00  0.00     0.010 A 
ATOM     62  C   UNL A   1      49.635  25.662  31.050  1.00  0.00     0.020 A 
ATOM     63  C   UNL A   1      48.703  25.020  33.201  1.00  0.00     0.020 A 
ATOM     64  C   UNL A   1      49.765  25.037  32.293  1.00  0.00     0.054 A 
BRANCH  64  65
ATOM     65  S   UNL A   1      51.346  24.258  32.722  1.00  0.00     0.124 S 
ATOM     66  O   UNL A   1      51.140  22.882  32.280  1.00  0.00    -0.237 OA
ATOM     67  O   UNL A   1      52.310  25.033  31.945  1.00  0.00    -0.237 OA
ATOM     68  O   UNL A   1      51.435  24.442  34.170  1.00  0.00    -0.744 OA
ENDBRANCH  64  65
ENDBRANCH  38  59
ENDBRANCH  12  13
ENDBRANCH   5   7
ENDBRANCH   2   3
ENDBRANCH   1   2
BRANCH   1  69
ATOM     69  C   UNL A   1      31.744  29.366  24.907  1.00  0.00     0.118 C 
BRANCH  69  70
ATOM     70  N   UNL A   1      31.062  29.649  23.646  1.00  0.00    -0.352 N 
ATOM     71  C   UNL A   1      30.461  28.783  22.759  1.00  0.00     0.251 C 
ATOM     72  H   UNL A   1      31.028  30.600  23.393  1.00  0.00     0.163 HD
ATOM     73  O   UNL A   1      30.041  29.170  21.673  1.00  0.00    -0.269 OA
BRANCH  71  74
ATOM     74  C   UNL A   1      30.379  27.355  23.114  1.00  0.00     0.041 A 
ATOM     75  C   UNL A   1      29.381  26.921  23.996  1.00  0.00     0.015 A 
ATOM     76  C   UNL A   1      31.390  26.489  22.680  1.00  0.00     0.040 A 
ATOM     77  C   UNL A   1      29.554  25.720  24.666  1.00  0.00     0.017 A 
ATOM     78  C   UNL A   1      31.498  25.246  23.294  1.00  0.00     0.056 A 
ATOM     79  C   UNL A   1      30.658  24.926  24.351  1.00  0.00     0.064 A 
ATOM     80  N   UNL A   1      32.441  24.309  22.889  1.00  0.00    -0.307 N 
ATOM     81  C   UNL A   1      31.043  23.798  25.205  1.00  0.00     0.264 A 
ATOM     82  C   UNL A   1      32.562  23.066  23.455  1.00  0.00     0.328 A 
ATOM     83  H   UNL A   1      33.055  24.550  22.157  1.00  0.00     0.171 HD
ATOM     84  O   UNL A   1      30.707  23.867  26.383  1.00  0.00    -0.268 OA
ATOM     85  N   UNL A   1      31.837  22.827  24.622  1.00  0.00    -0.260 N 
ATOM     86  O   UNL A   1      33.306  22.241  22.924  1.00  0.00    -0.248 OA
BRANCH  85  87
ATOM     87  C   UNL A   1      32.031  21.510  25.232  1.00  0.00     0.137 C 
BRANCH  87  88
ATOM     88  C   UNL A   1      33.248  21.189  26.122  1.00  0.00     0.083 C 
BRANCH  88  89
ATOM     89  C   UNL A   1      33.996  22.344  26.821  1.00  0.00     0.264 C 
BRANCH  89  90
ATOM     90  N   UNL A   1      35.394  22.421  26.432  1.00  0.00    -0.331 N 
ATOM     91  C   UNL A   1      35.847  21.341  25.551  1.00  0.00     0.291 C 
ATOM     92  C   UNL A   1      35.792  23.712  25.855  1.00  0.00     0.291 C 
ATOM     93  H   UNL A   1      35.866  22.311  27.328  1.00  0.00     0.348 HD
ATOM     94  C   UNL A   1      37.380  21.399  25.498  1.00  0.00     0.221 C 
ATOM     95  C   UNL A   1      37.327  23.746  25.766  1.00  0.00     0.221 C 
ATOM     96  O   UNL A   1      37.834  22.658  24.974  1.00  0.00    -0.370 OA
ENDBRANCH  89  90
ENDBRANCH  88  89
ENDBRANCH  87  88
ENDBRANCH  85  87
ENDBRANCH  71  74
ENDBRANCH  69  70
ENDBRANCH   1  69
TORSDOF 17
ENDMDL
MODEL 2
REMARK VINA RESULT:     -11.5      4.127     10.533
REMARK SMILES O=C(NCCCNC(=O)c1ccc2c(=O)n(CCC[NH+]3CCOCC3)c(=O)[nH]c2c1)c1ccc(-c2c3nc(c(-c4ccc(S(=O)(=O)[O-])cc4)c4ccc([nH]4)c(-c4ccc(S(=O)(=O)[O-])cc4)c4nc(c(-c5ccc(S(=O)(=O)[O-])cc5)c5ccc2[nH]5)C=C4)C=C3)cc1
REMARK SMILES IDX 5 1 4 2 3 3 1 4 2 5 31 7 32 8 90 9 33 10 89 11 34 12 35 13
REMARK SMILES IDX 36 14 83 15 37 16 88 17 82 18 84 19 38 20 87 21 81 22 80 23
REMARK SMILES IDX 39 25 69 26 50 27 68 28 51 29 54 30 67 31 85 32 52 33 53 34
REMARK SMILES IDX 66 36 86 37 55 38 40 39 41 40 49 41 42 42 48 43 43 44 44 45
REMARK SMILES IDX 45 46 46 47 47 48 70 49 71 50 79 51 72 52 78 53 73 54 74 55
REMARK SMILES IDX 75 56 76 57 77 58 56 59 57 60 65 61 58 62 64 63 59 64 60 65
REMARK SMILES IDX 61 66 62 67 63 68 6 69 7 70 8 71 9 73 10 74 11 75 30 76
REMARK SMILES IDX 12 77 29 78 13 79 28 80 14 81 26 82 15 84 16 85 27 86 17 87
REMARK SMILES IDX 18 88 19 89 20 90 21 91 25 92 22 94 24 95 23 96
REMARK H PARENT 3 6 84 24 54 35 7 72 28 83 20 93
REMARK Flexibility Score: inf
ROOT
ATOM      1  C   UNL A   1      37.716  23.893  25.931  1.00  0.00     0.042 C 
ENDROOT
BRANCH   1   2
ATOM      2  C   UNL A   1      38.993  23.682  26.726  1.00  0.00     0.118 C 
BRANCH   2   3
ATOM      3  N   UNL A   1      40.186  24.090  25.999  1.00  0.00    -0.352 N 
ATOM      4  O   UNL A   1      41.865  25.411  25.320  1.00  0.00    -0.269 OA
ATOM      5  C   UNL A   1      40.995  25.188  26.158  1.00  0.00     0.251 C 
ATOM      6  H   UNL A   1      40.457  23.480  25.276  1.00  0.00     0.163 HD
BRANCH   5   7
ATOM      7  C   UNL A   1      40.818  26.102  27.308  1.00  0.00     0.039 A 
ATOM      8  C   UNL A   1      41.573  27.276  27.356  1.00  0.00     0.014 A 
ATOM      9  C   UNL A   1      39.943  25.798  28.354  1.00  0.00     0.014 A 
ATOM     10  C   UNL A   1      41.419  28.157  28.430  1.00  0.00     0.010 A 
ATOM     11  C   UNL A   1      39.708  26.725  29.361  1.00  0.00     0.010 A 
ATOM     12  C   UNL A   1      40.467  27.900  29.429  1.00  0.00    -0.014 A 
BRANCH  12  13
ATOM     13  C   UNL A   1      40.293  28.819  30.583  1.00  0.00     0.031 A 
ATOM     14  C   UNL A   1      41.189  28.697  31.787  1.00  0.00     0.074 A 
ATOM     15  C   UNL A   1      39.316  29.746  30.560  1.00  0.00     0.049 A 
ATOM     16  N   UNL A   1      41.179  29.393  32.894  1.00  0.00    -0.248 NA
ATOM     17  C   UNL A   1      42.212  27.636  31.757  1.00  0.00     0.031 C 
ATOM     18  C   UNL A   1      38.355  29.935  29.471  1.00  0.00     0.029 A 
ATOM     19  N   UNL A   1      38.977  30.713  31.474  1.00  0.00    -0.354 N 
ATOM     20  C   UNL A   1      42.186  28.854  33.687  1.00  0.00     0.074 A 
ATOM     21  C   UNL A   1      42.730  27.723  32.972  1.00  0.00     0.031 C 
ATOM     22  C   UNL A   1      37.571  30.986  29.757  1.00  0.00     0.029 A 
ATOM     23  C   UNL A   1      37.943  31.521  31.064  1.00  0.00     0.049 A 
ATOM     24  H   UNL A   1      39.431  30.817  32.342  1.00  0.00     0.167 HD
ATOM     25  C   UNL A   1      42.649  29.287  34.883  1.00  0.00     0.031 A 
ATOM     26  C   UNL A   1      37.367  32.583  31.661  1.00  0.00     0.031 A 
ATOM     27  C   UNL A   1      42.119  30.427  35.581  1.00  0.00     0.049 A 
ATOM     28  C   UNL A   1      37.895  33.053  32.987  1.00  0.00     0.074 A 
ATOM     29  C   UNL A   1      42.537  30.966  36.785  1.00  0.00     0.029 A 
ATOM     30  N   UNL A   1      41.068  31.214  35.134  1.00  0.00    -0.354 N 
ATOM     31  N   UNL A   1      38.870  32.549  33.707  1.00  0.00    -0.248 NA
ATOM     32  C   UNL A   1      37.258  34.238  33.575  1.00  0.00     0.031 C 
ATOM     33  C   UNL A   1      41.706  32.046  37.091  1.00  0.00     0.029 A 
ATOM     34  C   UNL A   1      40.813  32.224  36.046  1.00  0.00     0.049 A 
ATOM     35  H   UNL A   1      40.576  31.075  34.292  1.00  0.00     0.167 HD
ATOM     36  C   UNL A   1      38.968  33.359  34.832  1.00  0.00     0.074 A 
ATOM     37  C   UNL A   1      37.974  34.403  34.682  1.00  0.00     0.031 C 
ATOM     38  C   UNL A   1      39.803  33.244  35.896  1.00  0.00     0.031 A 
BRANCH  25  39
ATOM     39  C   UNL A   1      43.811  28.547  35.494  1.00  0.00    -0.014 A 
ATOM     40  C   UNL A   1      43.586  27.492  36.394  1.00  0.00     0.010 A 
ATOM     41  C   UNL A   1      45.135  28.942  35.222  1.00  0.00     0.010 A 
ATOM     42  C   UNL A   1      44.660  26.854  37.023  1.00  0.00     0.020 A 
ATOM     43  C   UNL A   1      46.212  28.286  35.823  1.00  0.00     0.020 A 
ATOM     44  C   UNL A   1      45.967  27.259  36.736  1.00  0.00     0.054 A 
BRANCH  44  45
ATOM     45  S   UNL A   1      47.350  26.418  37.555  1.00  0.00     0.124 S 
ATOM     46  O   UNL A   1      48.427  26.581  36.584  1.00  0.00    -0.237 OA
ATOM     47  O   UNL A   1      47.495  27.174  38.795  1.00  0.00    -0.237 OA
ATOM     48  O   UNL A   1      46.862  25.050  37.726  1.00  0.00    -0.744 OA
ENDBRANCH  44  45
ENDBRANCH  25  39
BRANCH  26  49
ATOM     49  C   UNL A   1      36.269  33.296  30.952  1.00  0.00    -0.014 A 
ATOM     50  C   UNL A   1      36.526  33.995  29.758  1.00  0.00     0.010 A 
ATOM     51  C   UNL A   1      34.991  33.383  31.533  1.00  0.00     0.010 A 
ATOM     52  C   UNL A   1      35.551  34.821  29.195  1.00  0.00     0.020 A 
ATOM     53  C   UNL A   1      34.003  34.187  30.958  1.00  0.00     0.020 A 
ATOM     54  C   UNL A   1      34.301  34.928  29.812  1.00  0.00     0.054 A 
BRANCH  54  55
ATOM     55  S   UNL A   1      33.083  36.081  29.120  1.00  0.00     0.124 S 
ATOM     56  O   UNL A   1      33.934  36.992  28.359  1.00  0.00    -0.237 OA
ATOM     57  O   UNL A   1      32.230  35.204  28.322  1.00  0.00    -0.237 OA
ATOM     58  O   UNL A   1      32.447  36.658  30.301  1.00  0.00    -0.744 OA
ENDBRANCH  54  55
ENDBRANCH  26  49
BRANCH  38  59
ATOM     59  C   UNL A   1      39.670  34.252  37.007  1.00  0.00    -0.014 A 
ATOM     60  C   UNL A   1      40.350  35.481  36.926  1.00  0.00     0.010 A 
ATOM     61  C   UNL A   1      38.957  33.941  38.177  1.00  0.00     0.010 A 
ATOM     62  C   UNL A   1      40.340  36.370  38.003  1.00  0.00     0.020 A 
ATOM     63  C   UNL A   1      38.918  34.842  39.246  1.00  0.00     0.020 A 
ATOM     64  C   UNL A   1      39.629  36.041  39.160  1.00  0.00     0.054 A 
BRANCH  64  65
ATOM     65  S   UNL A   1      39.626  37.206  40.550  1.00  0.00     0.124 S 
ATOM     66  O   UNL A   1      38.522  36.709  41.364  1.00  0.00    -0.237 OA
ATOM     67  O   UNL A   1      40.959  37.033  41.120  1.00  0.00    -0.237 OA
ATOM     68  O   UNL A   1      39.396  38.501  39.909  1.00  0.00    -0.744 OA
ENDBRANCH  64  65
ENDBRANCH  38  59
ENDBRANCH  12  13
ENDBRANCH   5   7
ENDBRANCH   2   3
ENDBRANCH   1   2
BRANCH   1  69
ATOM     69  C   UNL A   1      37.192  22.631  25.267  1.00  0.00     0.118 C 
BRANCH  69  70
ATOM     70  N   UNL A   1      36.315  21.843  26.128  1.00  0.00    -0.352 N 
ATOM     71  C   UNL A   1      34.969  21.995  26.387  1.00  0.00     0.251 C 
ATOM     72  H   UNL A   1      36.749  21.093  26.595  1.00  0.00     0.163 HD
ATOM     73  O   UNL A   1      34.403  21.322  27.242  1.00  0.00    -0.269 OA
BRANCH  71  74
ATOM     74  C   UNL A   1      34.223  23.031  25.650  1.00  0.00     0.041 A 
ATOM     75  C   UNL A   1      33.750  22.752  24.362  1.00  0.00     0.015 A 
ATOM     76  C   UNL A   1      34.133  24.317  26.194  1.00  0.00     0.040 A 
ATOM     77  C   UNL A   1      33.455  23.808  23.514  1.00  0.00     0.017 A 
ATOM     78  C   UNL A   1      33.744  25.357  25.358  1.00  0.00     0.056 A 
ATOM     79  C   UNL A   1      33.523  25.111  24.011  1.00  0.00     0.064 A 
ATOM     80  N   UNL A   1      33.581  26.655  25.830  1.00  0.00    -0.307 N 
ATOM     81  C   UNL A   1      33.495  26.265  23.106  1.00  0.00     0.264 A 
ATOM     82  C   UNL A   1      33.177  27.701  25.041  1.00  0.00     0.328 A 
ATOM     83  H   UNL A   1      33.766  26.832  26.782  1.00  0.00     0.171 HD
ATOM     84  O   UNL A   1      33.889  26.069  21.961  1.00  0.00    -0.268 OA
ATOM     85  N   UNL A   1      33.131  27.477  23.665  1.00  0.00    -0.260 N 
ATOM     86  O   UNL A   1      32.894  28.774  25.575  1.00  0.00    -0.248 OA
BRANCH  85  87
ATOM     87  C   UNL A   1      32.750  28.629  22.847  1.00  0.00     0.137 C 
BRANCH  87  88
ATOM     88  C   UNL A   1      31.311  28.831  22.334  1.00  0.00     0.083 C 
BRANCH  88  89
ATOM     89  C   UNL A   1      30.258  29.458  23.273  1.00  0.00     0.264 C 
BRANCH  89  90
ATOM     90  N   UNL A   1      29.624  30.632  22.697  1.00  0.00    -0.331 N 
ATOM     91  C   UNL A   1      28.559  30.345  21.733  1.00  0.00     0.291 C 
ATOM     92  C   UNL A   1      29.131  31.599  23.687  1.00  0.00     0.291 C 
ATOM     93  H   UNL A   1      30.398  31.059  22.190  1.00  0.00     0.348 HD
ATOM     94  C   UNL A   1      28.225  31.657  21.008  1.00  0.00     0.221 C 
ATOM     95  C   UNL A   1      28.760  32.896  22.948  1.00  0.00     0.221 C 
ATOM     96  O   UNL A   1      27.770  32.659  21.932  1.00  0.00    -0.370 OA
ENDBRANCH  89  90
ENDBRANCH  88  89
ENDBRANCH  87  88
ENDBRANCH  85  87
ENDBRANCH  71  74
ENDBRANCH  69  70
ENDBRANCH   1  69
TORSDOF 17
ENDMDL
MODEL 3
REMARK VINA RESULT:     -11.4      3.886      5.288
REMARK SMILES O=C(NCCCNC(=O)c1ccc2c(=O)n(CCC[NH+]3CCOCC3)c(=O)[nH]c2c1)c1ccc(-c2c3nc(c(-c4ccc(S(=O)(=O)[O-])cc4)c4ccc([nH]4)c(-c4ccc(S(=O)(=O)[O-])cc4)c4nc(c(-c5ccc(S(=O)(=O)[O-])cc5)c5ccc2[nH]5)C=C4)C=C3)cc1
REMARK SMILES IDX 5 1 4 2 3 3 1 4 2 5 31 7 32 8 90 9 33 10 89 11 34 12 35 13
REMARK SMILES IDX 36 14 83 15 37 16 88 17 82 18 84 19 38 20 87 21 81 22 80 23
REMARK SMILES IDX 39 25 69 26 50 27 68 28 51 29 54 30 67 31 85 32 52 33 53 34
REMARK SMILES IDX 66 36 86 37 55 38 40 39 41 40 49 41 42 42 48 43 43 44 44 45
REMARK SMILES IDX 45 46 46 47 47 48 70 49 71 50 79 51 72 52 78 53 73 54 74 55
REMARK SMILES IDX 75 56 76 57 77 58 56 59 57 60 65 61 58 62 64 63 59 64 60 65
REMARK SMILES IDX 61 66 62 67 63 68 6 69 7 70 8 71 9 73 10 74 11 75 30 76
REMARK SMILES IDX 12 77 29 78 13 79 28 80 14 81 26 82 15 84 16 85 27 86 17 87
REMARK SMILES IDX 18 88 19 89 20 90 21 91 25 92 22 94 24 95 23 96
REMARK H PARENT 3 6 84 24 54 35 7 72 28 83 20 93
REMARK Flexibility Score: inf
ROOT
ATOM      1  C   UNL A   1      31.596  32.257  26.701  1.00  0.00     0.042 C 
ENDROOT
BRANCH   1   2
ATOM      2  C   UNL A   1      32.894  32.818  27.255  1.00  0.00     0.118 C 
BRANCH   2   3
ATOM      3  N   UNL A   1      32.756  34.182  27.747  1.00  0.00    -0.352 N 
ATOM      4  O   UNL A   1      33.007  35.943  29.111  1.00  0.00    -0.269 OA
ATOM      5  C   UNL A   1      33.400  34.829  28.771  1.00  0.00     0.251 C 
ATOM      6  H   UNL A   1      32.094  34.729  27.266  1.00  0.00     0.163 HD
BRANCH   5   7
ATOM      7  C   UNL A   1      34.539  34.197  29.472  1.00  0.00     0.039 A 
ATOM      8  C   UNL A   1      35.835  34.450  29.013  1.00  0.00     0.014 A 
ATOM      9  C   UNL A   1      34.343  33.333  30.552  1.00  0.00     0.014 A 
ATOM     10  C   UNL A   1      36.927  33.868  29.663  1.00  0.00     0.010 A 
ATOM     11  C   UNL A   1      35.432  32.846  31.265  1.00  0.00     0.010 A 
ATOM     12  C   UNL A   1      36.736  33.080  30.809  1.00  0.00    -0.014 A 
BRANCH  12  13
ATOM     13  C   UNL A   1      37.882  32.447  31.510  1.00  0.00     0.031 A 
ATOM     14  C   UNL A   1      38.355  32.996  32.830  1.00  0.00     0.074 A 
ATOM     15  C   UNL A   1      38.513  31.397  30.950  1.00  0.00     0.049 A 
ATOM     16  N   UNL A   1      39.347  32.592  33.580  1.00  0.00    -0.248 NA
ATOM     17  C   UNL A   1      37.641  34.170  33.363  1.00  0.00     0.031 C 
ATOM     18  C   UNL A   1      38.177  30.801  29.656  1.00  0.00     0.029 A 
ATOM     19  N   UNL A   1      39.559  30.634  31.405  1.00  0.00    -0.354 N 
ATOM     20  C   UNL A   1      39.375  33.460  34.666  1.00  0.00     0.074 A 
ATOM     21  C   UNL A   1      38.359  34.461  34.437  1.00  0.00     0.031 C 
ATOM     22  C   UNL A   1      38.966  29.737  29.446  1.00  0.00     0.029 A 
ATOM     23  C   UNL A   1      39.890  29.596  30.568  1.00  0.00     0.049 A 
ATOM     24  H   UNL A   1      40.030  30.815  32.252  1.00  0.00     0.167 HD
ATOM     25  C   UNL A   1      40.147  33.405  35.777  1.00  0.00     0.031 A 
ATOM     26  C   UNL A   1      40.820  28.628  30.691  1.00  0.00     0.031 A 
ATOM     27  C   UNL A   1      41.142  32.394  36.012  1.00  0.00     0.049 A 
ATOM     28  C   UNL A   1      41.666  28.580  31.932  1.00  0.00     0.074 A 
ATOM     29  C   UNL A   1      41.957  32.233  37.119  1.00  0.00     0.029 A 
ATOM     30  N   UNL A   1      41.451  31.365  35.135  1.00  0.00    -0.354 N 
ATOM     31  N   UNL A   1      41.656  29.391  32.964  1.00  0.00    -0.248 NA
ATOM     32  C   UNL A   1      42.636  27.482  32.035  1.00  0.00     0.031 C 
ATOM     33  C   UNL A   1      42.793  31.137  36.889  1.00  0.00     0.029 A 
ATOM     34  C   UNL A   1      42.453  30.574  35.669  1.00  0.00     0.049 A 
ATOM     35  H   UNL A   1      41.019  31.218  34.262  1.00  0.00     0.167 HD
ATOM     36  C   UNL A   1      42.614  28.900  33.843  1.00  0.00     0.074 A 
ATOM     37  C   UNL A   1      43.163  27.704  33.235  1.00  0.00     0.031 C 
ATOM     38  C   UNL A   1      43.008  29.399  35.041  1.00  0.00     0.031 A 
BRANCH  25  39
ATOM     39  C   UNL A   1      39.916  34.447  36.842  1.00  0.00    -0.014 A 
ATOM     40  C   UNL A   1      40.672  35.631  36.851  1.00  0.00     0.010 A 
ATOM     41  C   UNL A   1      38.988  34.222  37.877  1.00  0.00     0.010 A 
ATOM     42  C   UNL A   1      40.518  36.565  37.881  1.00  0.00     0.020 A 
ATOM     43  C   UNL A   1      38.806  35.167  38.889  1.00  0.00     0.020 A 
ATOM     44  C   UNL A   1      39.586  36.324  38.896  1.00  0.00     0.054 A 
BRANCH  44  45
ATOM     45  S   UNL A   1      39.392  37.547  40.221  1.00  0.00     0.124 S 
ATOM     46  O   UNL A   1      38.480  38.512  39.616  1.00  0.00    -0.237 OA
ATOM     47  O   UNL A   1      38.839  36.751  41.314  1.00  0.00    -0.237 OA
ATOM     48  O   UNL A   1      40.755  38.027  40.443  1.00  0.00    -0.744 OA
ENDBRANCH  44  45
ENDBRANCH  25  39
BRANCH  26  49
ATOM     49  C   UNL A   1      40.931  27.599  29.621  1.00  0.00    -0.014 A 
ATOM     50  C   UNL A   1      39.837  26.771  29.311  1.00  0.00     0.010 A 
ATOM     51  C   UNL A   1      42.168  27.361  28.995  1.00  0.00     0.010 A 
ATOM     52  C   UNL A   1      39.992  25.682  28.450  1.00  0.00     0.020 A 
ATOM     53  C   UNL A   1      42.320  26.289  28.110  1.00  0.00     0.020 A 
ATOM     54  C   UNL A   1      41.241  25.436  27.872  1.00  0.00     0.054 A 
BRANCH  54  55
ATOM     55  S   UNL A   1      41.445  23.962  26.834  1.00  0.00     0.124 S 
ATOM     56  O   UNL A   1      40.061  23.648  26.487  1.00  0.00    -0.237 OA
ATOM     57  O   UNL A   1      42.272  24.455  25.737  1.00  0.00    -0.237 OA
ATOM     58  O   UNL A   1      42.099  23.004  27.722  1.00  0.00    -0.744 OA
ENDBRANCH  54  55
ENDBRANCH  26  49
BRANCH  38  59
ATOM     59  C   UNL A   1      44.106  28.676  35.777  1.00  0.00    -0.014 A 
ATOM     60  C   UNL A   1      43.785  27.687  36.724  1.00  0.00     0.010 A 
ATOM     61  C   UNL A   1      45.451  29.051  35.608  1.00  0.00     0.010 A 
ATOM     62  C   UNL A   1      44.784  27.101  37.505  1.00  0.00     0.020 A 
ATOM     63  C   UNL A   1      46.457  28.444  36.365  1.00  0.00     0.020 A 
ATOM     64  C   UNL A   1      46.114  27.489  37.325  1.00  0.00     0.054 A 
BRANCH  64  65
ATOM     65  S   UNL A   1      47.399  26.719  38.347  1.00  0.00     0.124 S 
ATOM     66  O   UNL A   1      46.632  26.232  39.490  1.00  0.00    -0.237 OA
ATOM     67  O   UNL A   1      47.940  25.688  37.465  1.00  0.00    -0.237 OA
ATOM     68  O   UNL A   1      48.314  27.823  38.634  1.00  0.00    -0.744 OA
ENDBRANCH  64  65
ENDBRANCH  38  59
ENDBRANCH  12  13
ENDBRANCH   5   7
ENDBRANCH   2   3
ENDBRANCH   1   2
BRANCH   1  69
ATOM     69  C   UNL A   1      31.687  30.798  26.287  1.00  0.00     0.118 C 
BRANCH  69  70
ATOM     70  N   UNL A   1      31.047  30.519  25.004  1.00  0.00    -0.352 N 
ATOM     71  C   UNL A   1      31.078  29.373  24.237  1.00  0.00     0.251 C 
ATOM     72  H   UNL A   1      30.516  31.258  24.630  1.00  0.00     0.163 HD
ATOM     73  O   UNL A   1      30.589  29.343  23.113  1.00  0.00    -0.269 OA
BRANCH  71  74
ATOM     74  C   UNL A   1      31.768  28.186  24.774  1.00  0.00     0.041 A 
ATOM     75  C   UNL A   1      33.094  27.935  24.401  1.00  0.00     0.015 A 
ATOM     76  C   UNL A   1      31.037  27.257  25.524  1.00  0.00     0.040 A 
ATOM     77  C   UNL A   1      33.594  26.648  24.526  1.00  0.00     0.017 A 
ATOM     78  C   UNL A   1      31.588  25.997  25.725  1.00  0.00     0.056 A 
ATOM     79  C   UNL A   1      32.798  25.672  25.130  1.00  0.00     0.064 A 
ATOM     80  N   UNL A   1      30.950  25.034  26.499  1.00  0.00    -0.307 N 
ATOM     81  C   UNL A   1      33.151  24.252  25.042  1.00  0.00     0.264 A 
ATOM     82  C   UNL A   1      31.473  23.789  26.738  1.00  0.00     0.328 A 
ATOM     83  H   UNL A   1      30.076  25.258  26.897  1.00  0.00     0.171 HD
ATOM     84  O   UNL A   1      33.830  23.917  24.077  1.00  0.00    -0.268 OA
ATOM     85  N   UNL A   1      32.593  23.419  25.996  1.00  0.00    -0.260 N 
ATOM     86  O   UNL A   1      30.926  23.065  27.570  1.00  0.00    -0.248 OA
BRANCH  85  87
ATOM     87  C   UNL A   1      33.093  22.063  26.234  1.00  0.00     0.137 C 
BRANCH  87  88
ATOM     88  C   UNL A   1      32.741  20.884  25.307  1.00  0.00     0.083 C 
BRANCH  88  89
ATOM     89  C   UNL A   1      32.914  19.440  25.826  1.00  0.00     0.264 C 
BRANCH  89  90
ATOM     90  N   UNL A   1      32.969  18.463  24.751  1.00  0.00    -0.331 N 
ATOM     91  C   UNL A   1      32.551  18.967  23.441  1.00  0.00     0.291 C 
ATOM     92  C   UNL A   1      34.266  17.785  24.616  1.00  0.00     0.291 C 
ATOM     93  H   UNL A   1      32.280  17.778  25.057  1.00  0.00     0.348 HD
ATOM     94  C   UNL A   1      32.372  17.756  22.514  1.00  0.00     0.221 C 
ATOM     95  C   UNL A   1      34.089  16.599  23.654  1.00  0.00     0.221 C 
ATOM     96  O   UNL A   1      33.602  17.027  22.370  1.00  0.00    -0.370 OA
ENDBRANCH  89  90
ENDBRANCH  88  89
ENDBRANCH  87  88
ENDBRANCH  85  87
ENDBRANCH  71  74
ENDBRANCH  69  70
ENDBRANCH   1  69
TORSDOF 17
ENDMDL
