MODEL 1
REMARK VINA RESULT:     -12.4      0.000      0.000
REMARK SMILES Cc1cnn([C@H]2CC[C@@]([NH3+])(C(=O)NCCCNC(=O)c3ccc(-c4c5nc(c(-c6ccc(S(=O)(=O)[O-])cc6)c6ccc([nH]6)c(-c6ccc(S(=O)(=O)[O-])cc6)c6nc(c(-c7ccc(S(=O)(=O)[O-])cc7)c7ccc4[nH]7)C=C6)C=C5)cc3)C2)c1
REMARK SMILES IDX 16 1 15 2 14 3 13 4 11 5 12 6 9 8 6 9 7 10 80 11 8 12 5 13
REMARK SMILES IDX 1 14 2 15 3 16 81 17 4 18 10 19 17 23 18 24 19 26 20 27
REMARK SMILES IDX 21 28 79 29 22 30 78 31 23 32 24 33 25 34 72 35 26 36 77 37
REMARK SMILES IDX 71 38 73 39 27 40 76 41 70 42 69 43 28 45 58 46 39 47 57 48
REMARK SMILES IDX 40 49 43 50 56 51 74 52 41 53 42 54 55 56 75 57 44 58 29 59
REMARK SMILES IDX 30 60 38 61 31 62 37 63 32 64 33 65 34 66 35 67 36 68 59 69
REMARK SMILES IDX 60 70 68 71 61 72 67 73 62 74 63 75 64 76 65 77 66 78 45 79
REMARK SMILES IDX 46 80 54 81 47 82 53 83 48 84 49 85 50 86 51 87 52 88
REMARK H PARENT 13 7 10 20 10 21 10 22 17 25 73 44 43 55
REMARK Flexibility Score: inf
ROOT
ATOM      1  C   UNL A   1      38.033  22.477  25.684  1.00  0.00     0.118 C 
ENDROOT
BRANCH   1   2
ATOM      2  C   UNL A   1      37.221  21.657  24.697  1.00  0.00     0.042 C 
BRANCH   2   3
ATOM      3  C   UNL A   1      36.128  20.811  25.357  1.00  0.00     0.118 C 
BRANCH   3   4
ATOM      4  N   UNL A   1      35.452  21.480  26.461  1.00  0.00    -0.351 N 
ATOM      5  C   UNL A   1      34.118  21.684  26.692  1.00  0.00     0.281 C 
ATOM      6  O   UNL A   1      33.794  22.099  27.807  1.00  0.00    -0.268 OA
ATOM      7  H   UNL A   1      36.050  21.843  27.154  1.00  0.00     0.163 HD
BRANCH   5   8
ATOM      8  C   UNL A   1      33.050  21.328  25.612  1.00  0.00     0.176 C 
ATOM      9  C   UNL A   1      31.811  23.366  24.985  1.00  0.00     0.114 C 
ATOM     10  C   UNL A   1      32.762  23.015  23.834  1.00  0.00     0.034 C 
ATOM     11  C   UNL A   1      31.721  22.080  25.818  1.00  0.00     0.106 C 
ATOM     12  C   UNL A   1      33.495  21.728  24.204  1.00  0.00     0.081 C 
BRANCH   9  13
ATOM     13  N   UNL A   1      32.141  24.616  25.649  1.00  0.00    -0.269 N 
ATOM     14  C   UNL A   1      31.659  27.964  27.040  1.00  0.00     0.048 C 
ATOM     15  C   UNL A   1      32.078  26.665  26.465  1.00  0.00    -0.013 A 
ATOM     16  C   UNL A   1      33.374  26.291  26.057  1.00  0.00     0.138 A 
ATOM     17  C   UNL A   1      31.306  25.556  26.184  1.00  0.00     0.112 A 
ATOM     18  N   UNL A   1      33.411  25.066  25.532  1.00  0.00    -0.181 NA
ENDBRANCH   9  13
BRANCH   8  19
ATOM     19  N   UNL A   1      32.787  19.871  25.712  1.00  0.00    -0.345 N 
ATOM     20  H   UNL A   1      33.594  19.408  26.131  1.00  0.00     0.345 HD
ATOM     21  H   UNL A   1      32.624  19.490  24.780  1.00  0.00     0.345 HD
ATOM     22  H   UNL A   1      31.964  19.713  26.293  1.00  0.00     0.345 HD
ENDBRANCH   8  19
ENDBRANCH   5   8
ENDBRANCH   3   4
ENDBRANCH   2   3
ENDBRANCH   1   2
BRANCH   1  23
ATOM     23  N   UNL A   1      38.958  21.675  26.480  1.00  0.00    -0.352 N 
ATOM     24  C   UNL A   1      40.112  22.102  27.116  1.00  0.00     0.251 C 
ATOM     25  H   UNL A   1      38.736  20.720  26.576  1.00  0.00     0.163 HD
ATOM     26  O   UNL A   1      40.977  21.303  27.431  1.00  0.00    -0.269 OA
BRANCH  24  27
ATOM     27  C   UNL A   1      40.275  23.545  27.393  1.00  0.00     0.039 A 
ATOM     28  C   UNL A   1      39.210  24.433  27.234  1.00  0.00     0.014 A 
ATOM     29  C   UNL A   1      41.510  23.998  27.854  1.00  0.00     0.014 A 
ATOM     30  C   UNL A   1      39.380  25.758  27.632  1.00  0.00     0.010 A 
ATOM     31  C   UNL A   1      41.627  25.258  28.391  1.00  0.00     0.010 A 
ATOM     32  C   UNL A   1      40.583  26.160  28.246  1.00  0.00    -0.014 A 
BRANCH  32  33
ATOM     33  C   UNL A   1      40.694  27.475  28.872  1.00  0.00     0.031 A 
ATOM     34  C   UNL A   1      41.762  28.321  28.284  1.00  0.00     0.074 A 
ATOM     35  C   UNL A   1      39.830  27.986  29.779  1.00  0.00     0.049 A 
ATOM     36  N   UNL A   1      42.935  28.529  28.779  1.00  0.00    -0.248 NA
ATOM     37  C   UNL A   1      41.590  28.838  26.916  1.00  0.00     0.031 C 
ATOM     38  C   UNL A   1      38.567  27.415  30.260  1.00  0.00     0.029 A 
ATOM     39  N   UNL A   1      39.866  29.193  30.409  1.00  0.00    -0.354 N 
ATOM     40  C   UNL A   1      43.550  29.427  27.920  1.00  0.00     0.074 A 
ATOM     41  C   UNL A   1      42.781  29.401  26.700  1.00  0.00     0.031 C 
ATOM     42  C   UNL A   1      37.859  28.363  30.918  1.00  0.00     0.029 A 
ATOM     43  C   UNL A   1      38.690  29.543  31.068  1.00  0.00     0.049 A 
ATOM     44  H   UNL A   1      40.663  29.773  30.400  1.00  0.00     0.167 HD
ATOM     45  C   UNL A   1      44.449  30.336  28.391  1.00  0.00     0.031 A 
ATOM     46  C   UNL A   1      38.420  30.716  31.697  1.00  0.00     0.031 A 
ATOM     47  C   UNL A   1      44.881  30.008  29.730  1.00  0.00     0.049 A 
ATOM     48  C   UNL A   1      39.725  31.322  32.048  1.00  0.00     0.074 A 
ATOM     49  C   UNL A   1      45.456  28.902  30.326  1.00  0.00     0.029 A 
ATOM     50  N   UNL A   1      44.328  30.744  30.754  1.00  0.00    -0.354 N 
ATOM     51  N   UNL A   1      40.544  30.802  32.918  1.00  0.00    -0.248 NA
ATOM     52  C   UNL A   1      40.320  32.263  31.115  1.00  0.00     0.031 C 
ATOM     53  C   UNL A   1      44.807  28.786  31.591  1.00  0.00     0.029 A 
ATOM     54  C   UNL A   1      43.946  29.874  31.743  1.00  0.00     0.049 A 
ATOM     55  H   UNL A   1      44.225  31.723  30.772  1.00  0.00     0.167 HD
ATOM     56  C   UNL A   1      41.801  30.975  32.361  1.00  0.00     0.074 A 
ATOM     57  C   UNL A   1      41.611  31.976  31.312  1.00  0.00     0.031 C 
ATOM     58  C   UNL A   1      42.812  30.093  32.618  1.00  0.00     0.031 A 
BRANCH  45  59
ATOM     59  C   UNL A   1      44.579  31.732  27.832  1.00  0.00    -0.014 A 
ATOM     60  C   UNL A   1      45.742  32.070  27.110  1.00  0.00     0.010 A 
ATOM     61  C   UNL A   1      43.738  32.795  28.222  1.00  0.00     0.010 A 
ATOM     62  C   UNL A   1      46.067  33.407  26.842  1.00  0.00     0.020 A 
ATOM     63  C   UNL A   1      44.029  34.125  27.921  1.00  0.00     0.020 A 
ATOM     64  C   UNL A   1      45.208  34.425  27.256  1.00  0.00     0.054 A 
BRANCH  64  65
ATOM     65  S   UNL A   1      45.664  36.149  26.957  1.00  0.00     0.124 S 
ATOM     66  O   UNL A   1      46.434  36.045  25.721  1.00  0.00    -0.237 OA
ATOM     67  O   UNL A   1      44.359  36.795  26.840  1.00  0.00    -0.237 OA
ATOM     68  O   UNL A   1      46.429  36.512  28.146  1.00  0.00    -0.744 OA
ENDBRANCH  64  65
ENDBRANCH  45  59
BRANCH  46  69
ATOM     69  C   UNL A   1      37.149  31.479  31.777  1.00  0.00    -0.014 A 
ATOM     70  C   UNL A   1      36.614  31.859  33.025  1.00  0.00     0.010 A 
ATOM     71  C   UNL A   1      36.635  32.110  30.627  1.00  0.00     0.010 A 
ATOM     72  C   UNL A   1      35.667  32.893  33.125  1.00  0.00     0.020 A 
ATOM     73  C   UNL A   1      35.687  33.137  30.718  1.00  0.00     0.020 A 
ATOM     74  C   UNL A   1      35.229  33.546  31.970  1.00  0.00     0.054 A 
BRANCH  74  75
ATOM     75  S   UNL A   1      34.166  35.016  32.121  1.00  0.00     0.124 S 
ATOM     76  O   UNL A   1      33.930  35.373  30.724  1.00  0.00    -0.237 OA
ATOM     77  O   UNL A   1      33.008  34.500  32.844  1.00  0.00    -0.237 OA
ATOM     78  O   UNL A   1      34.991  35.961  32.871  1.00  0.00    -0.744 OA
ENDBRANCH  74  75
ENDBRANCH  46  69
BRANCH  58  79
ATOM     79  C   UNL A   1      42.661  29.144  33.789  1.00  0.00    -0.014 A 
ATOM     80  C   UNL A   1      43.127  29.394  35.096  1.00  0.00     0.010 A 
ATOM     81  C   UNL A   1      41.915  27.972  33.564  1.00  0.00     0.010 A 
ATOM     82  C   UNL A   1      42.896  28.471  36.130  1.00  0.00     0.020 A 
ATOM     83  C   UNL A   1      41.662  27.062  34.590  1.00  0.00     0.020 A 
ATOM     84  C   UNL A   1      42.169  27.305  35.866  1.00  0.00     0.054 A 
BRANCH  84  85
ATOM     85  S   UNL A   1      41.873  26.106  37.196  1.00  0.00     0.124 S 
ATOM     86  O   UNL A   1      41.944  24.828  36.494  1.00  0.00    -0.237 OA
ATOM     87  O   UNL A   1      42.968  26.374  38.126  1.00  0.00    -0.237 OA
ATOM     88  O   UNL A   1      40.546  26.460  37.698  1.00  0.00    -0.744 OA
ENDBRANCH  84  85
ENDBRANCH  58  79
ENDBRANCH  32  33
ENDBRANCH  24  27
ENDBRANCH   1  23
TORSDOF 15
ENDMDL
MODEL 2
REMARK VINA RESULT:     -12.4      1.060      2.446
REMARK SMILES Cc1cnn([C@H]2CC[C@@]([NH3+])(C(=O)NCCCNC(=O)c3ccc(-c4c5nc(c(-c6ccc(S(=O)(=O)[O-])cc6)c6ccc([nH]6)c(-c6ccc(S(=O)(=O)[O-])cc6)c6nc(c(-c7ccc(S(=O)(=O)[O-])cc7)c7ccc4[nH]7)C=C6)C=C5)cc3)C2)c1
REMARK SMILES IDX 16 1 15 2 14 3 13 4 11 5 12 6 9 8 6 9 7 10 80 11 8 12 5 13
REMARK SMILES IDX 1 14 2 15 3 16 81 17 4 18 10 19 17 23 18 24 19 26 20 27
REMARK SMILES IDX 21 28 79 29 22 30 78 31 23 32 24 33 25 34 72 35 26 36 77 37
REMARK SMILES IDX 71 38 73 39 27 40 76 41 70 42 69 43 28 45 58 46 39 47 57 48
REMARK SMILES IDX 40 49 43 50 56 51 74 52 41 53 42 54 55 56 75 57 44 58 29 59
REMARK SMILES IDX 30 60 38 61 31 62 37 63 32 64 33 65 34 66 35 67 36 68 59 69
REMARK SMILES IDX 60 70 68 71 61 72 67 73 62 74 63 75 64 76 65 77 66 78 45 79
REMARK SMILES IDX 46 80 54 81 47 82 53 83 48 84 49 85 50 86 51 87 52 88
REMARK H PARENT 13 7 10 20 10 21 10 22 17 25 73 44 43 55
REMARK Flexibility Score: inf
ROOT
ATOM      1  C   UNL A   1      38.647  21.907  26.138  1.00  0.00     0.118 C 
ENDROOT
BRANCH   1   2
ATOM      2  C   UNL A   1      37.777  21.962  24.895  1.00  0.00     0.042 C 
BRANCH   2   3
ATOM      3  C   UNL A   1      36.522  21.089  24.987  1.00  0.00     0.118 C 
BRANCH   3   4
ATOM      4  N   UNL A   1      35.812  21.210  26.255  1.00  0.00    -0.351 N 
ATOM      5  C   UNL A   1      34.712  21.952  26.588  1.00  0.00     0.281 C 
ATOM      6  O   UNL A   1      34.182  21.720  27.677  1.00  0.00    -0.268 OA
ATOM      7  H   UNL A   1      36.183  20.670  26.989  1.00  0.00     0.163 HD
BRANCH   5   8
ATOM      8  C   UNL A   1      34.109  22.992  25.593  1.00  0.00     0.176 C 
ATOM      9  C   UNL A   1      32.594  21.842  24.025  1.00  0.00     0.114 C 
ATOM     10  C   UNL A   1      31.737  22.635  25.020  1.00  0.00     0.034 C 
ATOM     11  C   UNL A   1      33.998  22.448  24.156  1.00  0.00     0.106 C 
ATOM     12  C   UNL A   1      32.677  23.383  25.961  1.00  0.00     0.081 C 
BRANCH   9  13
ATOM     13  N   UNL A   1      32.432  20.402  24.139  1.00  0.00    -0.269 N 
ATOM     14  C   UNL A   1      32.755  17.039  25.540  1.00  0.00     0.048 C 
ATOM     15  C   UNL A   1      32.587  18.293  24.771  1.00  0.00    -0.013 A 
ATOM     16  C   UNL A   1      32.377  18.423  23.384  1.00  0.00     0.138 A 
ATOM     17  C   UNL A   1      32.618  19.596  25.227  1.00  0.00     0.112 A 
ATOM     18  N   UNL A   1      32.316  19.696  22.992  1.00  0.00    -0.181 NA
ENDBRANCH   9  13
BRANCH   8  19
ATOM     19  N   UNL A   1      35.014  24.169  25.582  1.00  0.00    -0.345 N 
ATOM     20  H   UNL A   1      35.468  24.258  26.491  1.00  0.00     0.345 HD
ATOM     21  H   UNL A   1      34.473  25.012  25.388  1.00  0.00     0.345 HD
ATOM     22  H   UNL A   1      35.723  24.047  24.858  1.00  0.00     0.345 HD
ENDBRANCH   8  19
ENDBRANCH   5   8
ENDBRANCH   3   4
ENDBRANCH   2   3
ENDBRANCH   1   2
BRANCH   1  23
ATOM     23  N   UNL A   1      40.052  21.630  25.850  1.00  0.00    -0.352 N 
ATOM     24  C   UNL A   1      41.126  22.496  25.979  1.00  0.00     0.251 C 
ATOM     25  H   UNL A   1      40.260  20.724  25.526  1.00  0.00     0.163 HD
ATOM     26  O   UNL A   1      42.165  22.287  25.377  1.00  0.00    -0.269 OA
BRANCH  24  27
ATOM     27  C   UNL A   1      40.978  23.681  26.850  1.00  0.00     0.039 A 
ATOM     28  C   UNL A   1      41.724  23.811  28.022  1.00  0.00     0.014 A 
ATOM     29  C   UNL A   1      40.100  24.690  26.456  1.00  0.00     0.014 A 
ATOM     30  C   UNL A   1      41.642  25.005  28.737  1.00  0.00     0.010 A 
ATOM     31  C   UNL A   1      40.140  25.920  27.069  1.00  0.00     0.010 A 
ATOM     32  C   UNL A   1      40.875  26.074  28.237  1.00  0.00    -0.014 A 
BRANCH  32  33
ATOM     33  C   UNL A   1      40.959  27.399  28.848  1.00  0.00     0.031 A 
ATOM     34  C   UNL A   1      42.028  28.250  28.269  1.00  0.00     0.074 A 
ATOM     35  C   UNL A   1      40.072  27.910  29.731  1.00  0.00     0.049 A 
ATOM     36  N   UNL A   1      43.189  28.477  28.784  1.00  0.00    -0.248 NA
ATOM     37  C   UNL A   1      41.876  28.747  26.892  1.00  0.00     0.031 C 
ATOM     38  C   UNL A   1      38.806  27.332  30.196  1.00  0.00     0.029 A 
ATOM     39  N   UNL A   1      40.082  29.126  30.346  1.00  0.00    -0.354 N 
ATOM     40  C   UNL A   1      43.810  29.372  27.925  1.00  0.00     0.074 A 
ATOM     41  C   UNL A   1      43.066  29.321  26.691  1.00  0.00     0.031 C 
ATOM     42  C   UNL A   1      38.075  28.279  30.828  1.00  0.00     0.029 A 
ATOM     43  C   UNL A   1      38.889  29.471  30.978  1.00  0.00     0.049 A 
ATOM     44  H   UNL A   1      40.872  29.715  30.345  1.00  0.00     0.167 HD
ATOM     45  C   UNL A   1      44.689  30.296  28.402  1.00  0.00     0.031 A 
ATOM     46  C   UNL A   1      38.594  30.648  31.587  1.00  0.00     0.031 A 
ATOM     47  C   UNL A   1      45.099  29.991  29.753  1.00  0.00     0.049 A 
ATOM     48  C   UNL A   1      39.885  31.274  31.954  1.00  0.00     0.074 A 
ATOM     49  C   UNL A   1      45.675  28.899  30.374  1.00  0.00     0.029 A 
ATOM     50  N   UNL A   1      44.518  30.733  30.756  1.00  0.00    -0.354 N 
ATOM     51  N   UNL A   1      40.693  30.774  32.846  1.00  0.00    -0.248 NA
ATOM     52  C   UNL A   1      40.487  32.210  31.021  1.00  0.00     0.031 C 
ATOM     53  C   UNL A   1      45.004  28.792  31.628  1.00  0.00     0.029 A 
ATOM     54  C   UNL A   1      44.127  29.872  31.749  1.00  0.00     0.049 A 
ATOM     55  H   UNL A   1      44.403  31.711  30.760  1.00  0.00     0.167 HD
ATOM     56  C   UNL A   1      41.958  30.955  32.312  1.00  0.00     0.074 A 
ATOM     57  C   UNL A   1      41.777  31.940  31.246  1.00  0.00     0.031 C 
ATOM     58  C   UNL A   1      42.974  30.088  32.599  1.00  0.00     0.031 A 
BRANCH  45  59
ATOM     59  C   UNL A   1      44.815  31.687  27.827  1.00  0.00    -0.014 A 
ATOM     60  C   UNL A   1      46.032  32.069  27.228  1.00  0.00     0.010 A 
ATOM     61  C   UNL A   1      43.886  32.714  28.098  1.00  0.00     0.010 A 
ATOM     62  C   UNL A   1      46.322  33.415  26.966  1.00  0.00     0.020 A 
ATOM     63  C   UNL A   1      44.145  34.051  27.799  1.00  0.00     0.020 A 
ATOM     64  C   UNL A   1      45.375  34.397  27.259  1.00  0.00     0.054 A 
BRANCH  64  65
ATOM     65  S   UNL A   1      45.780  36.135  26.971  1.00  0.00     0.124 S 
ATOM     66  O   UNL A   1      46.559  36.061  25.739  1.00  0.00    -0.237 OA
ATOM     67  O   UNL A   1      44.456  36.741  26.849  1.00  0.00    -0.237 OA
ATOM     68  O   UNL A   1      46.526  36.516  28.167  1.00  0.00    -0.744 OA
ENDBRANCH  64  65
ENDBRANCH  45  59
BRANCH  46  69
ATOM     69  C   UNL A   1      37.313  31.397  31.632  1.00  0.00    -0.014 A 
ATOM     70  C   UNL A   1      36.645  31.609  32.856  1.00  0.00     0.010 A 
ATOM     71  C   UNL A   1      36.916  32.177  30.528  1.00  0.00     0.010 A 
ATOM     72  C   UNL A   1      35.682  32.623  32.992  1.00  0.00     0.020 A 
ATOM     73  C   UNL A   1      35.951  33.186  30.655  1.00  0.00     0.020 A 
ATOM     74  C   UNL A   1      35.360  33.425  31.894  1.00  0.00     0.054 A 
BRANCH  74  75
ATOM     75  S   UNL A   1      34.271  34.865  32.125  1.00  0.00     0.124 S 
ATOM     76  O   UNL A   1      35.115  35.773  32.897  1.00  0.00    -0.237 OA
ATOM     77  O   UNL A   1      33.991  35.277  30.753  1.00  0.00    -0.237 OA
ATOM     78  O   UNL A   1      33.126  34.317  32.850  1.00  0.00    -0.744 OA
ENDBRANCH  74  75
ENDBRANCH  46  69
BRANCH  58  79
ATOM     79  C   UNL A   1      42.812  29.153  33.779  1.00  0.00    -0.014 A 
ATOM     80  C   UNL A   1      43.238  29.430  35.094  1.00  0.00     0.010 A 
ATOM     81  C   UNL A   1      42.096  27.963  33.551  1.00  0.00     0.010 A 
ATOM     82  C   UNL A   1      42.998  28.516  36.135  1.00  0.00     0.020 A 
ATOM     83  C   UNL A   1      41.834  27.062  34.583  1.00  0.00     0.020 A 
ATOM     84  C   UNL A   1      42.302  27.333  35.869  1.00  0.00     0.054 A 
BRANCH  84  85
ATOM     85  S   UNL A   1      41.996  26.146  37.208  1.00  0.00     0.124 S 
ATOM     86  O   UNL A   1      40.632  26.472  37.616  1.00  0.00    -0.237 OA
ATOM     87  O   UNL A   1      42.162  24.855  36.544  1.00  0.00    -0.237 OA
ATOM     88  O   UNL A   1      43.026  26.461  38.197  1.00  0.00    -0.744 OA
ENDBRANCH  84  85
ENDBRANCH  58  79
ENDBRANCH  32  33
ENDBRANCH  24  27
ENDBRANCH   1  23
TORSDOF 15
ENDMDL
MODEL 3
REMARK VINA RESULT:     -12.3      3.214      9.738
REMARK SMILES Cc1cnn([C@H]2CC[C@@]([NH3+])(C(=O)NCCCNC(=O)c3ccc(-c4c5nc(c(-c6ccc(S(=O)(=O)[O-])cc6)c6ccc([nH]6)c(-c6ccc(S(=O)(=O)[O-])cc6)c6nc(c(-c7ccc(S(=O)(=O)[O-])cc7)c7ccc4[nH]7)C=C6)C=C5)cc3)C2)c1
REMARK SMILES IDX 16 1 15 2 14 3 13 4 11 5 12 6 9 8 6 9 7 10 80 11 8 12 5 13
REMARK SMILES IDX 1 14 2 15 3 16 81 17 4 18 10 19 17 23 18 24 19 26 20 27
REMARK SMILES IDX 21 28 79 29 22 30 78 31 23 32 24 33 25 34 72 35 26 36 77 37
REMARK SMILES IDX 71 38 73 39 27 40 76 41 70 42 69 43 28 45 58 46 39 47 57 48
REMARK SMILES IDX 40 49 43 50 56 51 74 52 41 53 42 54 55 56 75 57 44 58 29 59
REMARK SMILES IDX 30 60 38 61 31 62 37 63 32 64 33 65 34 66 35 67 36 68 59 69
REMARK SMILES IDX 60 70 68 71 61 72 67 73 62 74 63 75 64 76 65 77 66 78 45 79
REMARK SMILES IDX 46 80 54 81 47 82 53 83 48 84 49 85 50 86 51 87 52 88
REMARK H PARENT 13 7 10 20 10 21 10 22 17 25 73 44 43 55
REMARK Flexibility Score: inf
ROOT
ATOM      1  C   UNL A   1      33.802  30.818  27.217  1.00  0.00     0.118 C 
ENDROOT
BRANCH   1   2
ATOM      2  C   UNL A   1      32.459  30.158  26.962  1.00  0.00     0.042 C 
BRANCH   2   3
ATOM      3  C   UNL A   1      32.057  30.138  25.484  1.00  0.00     0.118 C 
BRANCH   3   4
ATOM      4  N   UNL A   1      33.080  29.586  24.604  1.00  0.00    -0.351 N 
ATOM      5  C   UNL A   1      32.965  28.970  23.387  1.00  0.00     0.281 C 
ATOM      6  O   UNL A   1      34.003  28.778  22.750  1.00  0.00    -0.268 OA
ATOM      7  H   UNL A   1      34.002  29.671  24.937  1.00  0.00     0.163 HD
BRANCH   5   8
ATOM      8  C   UNL A   1      31.567  28.600  22.800  1.00  0.00     0.176 C 
ATOM      9  C   UNL A   1      31.277  26.153  22.860  1.00  0.00     0.114 C 
ATOM     10  C   UNL A   1      30.400  26.764  23.962  1.00  0.00     0.034 C 
ATOM     11  C   UNL A   1      31.604  27.329  21.931  1.00  0.00     0.106 C 
ATOM     12  C   UNL A   1      30.547  28.281  23.893  1.00  0.00     0.081 C 
BRANCH   9  13
ATOM     13  N   UNL A   1      32.362  25.332  23.372  1.00  0.00    -0.269 N 
ATOM     14  C   UNL A   1      35.236  24.379  25.423  1.00  0.00     0.048 C 
ATOM     15  C   UNL A   1      34.150  24.607  24.443  1.00  0.00    -0.013 A 
ATOM     16  C   UNL A   1      33.998  23.998  23.181  1.00  0.00     0.138 A 
ATOM     17  C   UNL A   1      33.073  25.466  24.531  1.00  0.00     0.112 A 
ATOM     18  N   UNL A   1      32.937  24.457  22.516  1.00  0.00    -0.181 NA
ENDBRANCH   9  13
BRANCH   8  19
ATOM     19  N   UNL A   1      31.128  29.737  21.953  1.00  0.00    -0.345 N 
ATOM     20  H   UNL A   1      30.511  30.344  22.492  1.00  0.00     0.345 HD
ATOM     21  H   UNL A   1      30.628  29.381  21.138  1.00  0.00     0.345 HD
ATOM     22  H   UNL A   1      31.944  30.268  21.646  1.00  0.00     0.345 HD
ENDBRANCH   8  19
ENDBRANCH   5   8
ENDBRANCH   3   4
ENDBRANCH   2   3
ENDBRANCH   1   2
BRANCH   1  23
ATOM     23  N   UNL A   1      33.773  31.784  28.313  1.00  0.00    -0.352 N 
ATOM     24  C   UNL A   1      34.698  31.929  29.333  1.00  0.00     0.251 C 
ATOM     25  H   UNL A   1      33.008  32.404  28.328  1.00  0.00     0.163 HD
ATOM     26  O   UNL A   1      34.395  32.499  30.367  1.00  0.00    -0.269 OA
BRANCH  24  27
ATOM     27  C   UNL A   1      36.053  31.368  29.146  1.00  0.00     0.039 A 
ATOM     28  C   UNL A   1      37.191  32.157  29.321  1.00  0.00     0.014 A 
ATOM     29  C   UNL A   1      36.174  30.017  28.824  1.00  0.00     0.014 A 
ATOM     30  C   UNL A   1      38.443  31.548  29.259  1.00  0.00     0.010 A 
ATOM     31  C   UNL A   1      37.393  29.389  28.920  1.00  0.00     0.010 A 
ATOM     32  C   UNL A   1      38.539  30.153  29.094  1.00  0.00    -0.014 A 
BRANCH  32  33
ATOM     33  C   UNL A   1      39.822  29.472  29.255  1.00  0.00     0.031 A 
ATOM     34  C   UNL A   1      40.149  29.152  30.667  1.00  0.00     0.074 A 
ATOM     35  C   UNL A   1      40.592  29.006  28.246  1.00  0.00     0.049 A 
ATOM     36  N   UNL A   1      40.955  29.806  31.434  1.00  0.00    -0.248 NA
ATOM     37  C   UNL A   1      39.362  28.122  31.364  1.00  0.00     0.031 C 
ATOM     38  C   UNL A   1      40.296  28.974  26.809  1.00  0.00     0.029 A 
ATOM     39  N   UNL A   1      41.795  28.370  28.312  1.00  0.00    -0.354 N 
ATOM     40  C   UNL A   1      40.987  29.102  32.628  1.00  0.00     0.074 A 
ATOM     41  C   UNL A   1      39.839  28.230  32.607  1.00  0.00     0.031 C 
ATOM     42  C   UNL A   1      41.174  28.158  26.180  1.00  0.00     0.029 A 
ATOM     43  C   UNL A   1      42.199  27.761  27.126  1.00  0.00     0.049 A 
ATOM     44  H   UNL A   1      42.337  28.343  29.134  1.00  0.00     0.167 HD
ATOM     45  C   UNL A   1      42.117  29.075  33.389  1.00  0.00     0.031 A 
ATOM     46  C   UNL A   1      43.302  26.992  26.933  1.00  0.00     0.031 A 
ATOM     47  C   UNL A   1      43.060  30.087  32.973  1.00  0.00     0.049 A 
ATOM     48  C   UNL A   1      44.267  27.355  27.997  1.00  0.00     0.074 A 
ATOM     49  C   UNL A   1      43.013  31.459  32.819  1.00  0.00     0.029 A 
ATOM     50  N   UNL A   1      44.133  29.658  32.224  1.00  0.00    -0.354 N 
ATOM     51  N   UNL A   1      44.838  28.524  28.074  1.00  0.00    -0.248 NA
ATOM     52  C   UNL A   1      44.263  26.579  29.225  1.00  0.00     0.031 C 
ATOM     53  C   UNL A   1      43.744  31.720  31.622  1.00  0.00     0.029 A 
ATOM     54  C   UNL A   1      44.278  30.515  31.163  1.00  0.00     0.049 A 
ATOM     55  H   UNL A   1      44.697  28.875  32.417  1.00  0.00     0.167 HD
ATOM     56  C   UNL A   1      44.841  28.821  29.428  1.00  0.00     0.074 A 
ATOM     57  C   UNL A   1      44.579  27.545  30.092  1.00  0.00     0.031 C 
ATOM     58  C   UNL A   1      44.781  30.114  29.864  1.00  0.00     0.031 A 
BRANCH  45  59
ATOM     59  C   UNL A   1      42.546  27.865  34.184  1.00  0.00    -0.014 A 
ATOM     60  C   UNL A   1      42.609  27.962  35.589  1.00  0.00     0.010 A 
ATOM     61  C   UNL A   1      43.151  26.736  33.594  1.00  0.00     0.010 A 
ATOM     62  C   UNL A   1      43.288  27.003  36.353  1.00  0.00     0.020 A 
ATOM     63  C   UNL A   1      43.790  25.752  34.348  1.00  0.00     0.020 A 
ATOM     64  C   UNL A   1      43.879  25.907  35.723  1.00  0.00     0.054 A 
BRANCH  64  65
ATOM     65  S   UNL A   1      44.802  24.706  36.710  1.00  0.00     0.124 S 
ATOM     66  O   UNL A   1      44.437  23.447  36.068  1.00  0.00    -0.237 OA
ATOM     67  O   UNL A   1      46.182  25.143  36.513  1.00  0.00    -0.237 OA
ATOM     68  O   UNL A   1      44.280  24.899  38.060  1.00  0.00    -0.744 OA
ENDBRANCH  64  65
ENDBRANCH  45  59
BRANCH  46  69
ATOM     69  C   UNL A   1      43.482  25.789  26.081  1.00  0.00    -0.014 A 
ATOM     70  C   UNL A   1      44.715  25.535  25.446  1.00  0.00     0.010 A 
ATOM     71  C   UNL A   1      42.555  24.732  26.155  1.00  0.00     0.010 A 
ATOM     72  C   UNL A   1      45.042  24.249  24.983  1.00  0.00     0.020 A 
ATOM     73  C   UNL A   1      42.871  23.448  25.689  1.00  0.00     0.020 A 
ATOM     74  C   UNL A   1      44.126  23.205  25.133  1.00  0.00     0.054 A 
BRANCH  74  75
ATOM     75  S   UNL A   1      44.631  21.504  24.724  1.00  0.00     0.124 S 
ATOM     76  O   UNL A   1      43.582  20.708  25.355  1.00  0.00    -0.237 OA
ATOM     77  O   UNL A   1      44.624  21.512  23.264  1.00  0.00    -0.237 OA
ATOM     78  O   UNL A   1      45.954  21.382  25.334  1.00  0.00    -0.744 OA
ENDBRANCH  74  75
ENDBRANCH  46  69
BRANCH  58  79
ATOM     79  C   UNL A   1      45.078  31.224  28.876  1.00  0.00    -0.014 A 
ATOM     80  C   UNL A   1      46.326  31.864  28.732  1.00  0.00     0.010 A 
ATOM     81  C   UNL A   1      44.050  31.565  27.978  1.00  0.00     0.010 A 
ATOM     82  C   UNL A   1      46.517  32.851  27.750  1.00  0.00     0.020 A 
ATOM     83  C   UNL A   1      44.239  32.528  26.987  1.00  0.00     0.020 A 
ATOM     84  C   UNL A   1      45.467  33.181  26.888  1.00  0.00     0.054 A 
BRANCH  84  85
ATOM     85  S   UNL A   1      45.707  34.461  25.623  1.00  0.00     0.124 S 
ATOM     86  O   UNL A   1      47.141  34.381  25.358  1.00  0.00    -0.237 OA
ATOM     87  O   UNL A   1      44.840  34.012  24.536  1.00  0.00    -0.237 OA
ATOM     88  O   UNL A   1      45.271  35.691  26.283  1.00  0.00    -0.744 OA
ENDBRANCH  84  85
ENDBRANCH  58  79
ENDBRANCH  32  33
ENDBRANCH  24  27
ENDBRANCH   1  23
TORSDOF 15
ENDMDL
