MODEL 1
REMARK VINA RESULT:     -11.9      0.000      0.000
REMARK SMILES O=C(CC1(NC(=O)Cc2ccc(F)cc2F)CCCC1)NCCCNC(=O)c1ccc(-c2c3nc(c(-c4ccc(S(=O)(=O)[O-])cc4)c4ccc([nH]4)c(-c4ccc(S(=O)(=O)[O-])cc4)c4nc(c(-c5ccc(S(=O)(=O)[O-])cc5)c5ccc2[nH]5)C=C4)C=C3)cc1
REMARK SMILES IDX 22 1 21 2 1 3 2 4 3 6 4 7 17 8 20 9 18 10 19 11 5 12 6 13
REMARK SMILES IDX 7 15 8 16 9 17 10 18 15 19 11 20 14 21 16 22 12 23 13 24
REMARK SMILES IDX 23 25 24 26 25 27 26 28 27 30 28 31 29 32 87 33 30 34 86 35
REMARK SMILES IDX 31 36 32 37 33 38 80 39 34 40 85 41 79 42 81 43 35 44 84 45
REMARK SMILES IDX 78 46 77 47 36 49 66 50 47 51 65 52 48 53 51 54 64 55 82 56
REMARK SMILES IDX 49 57 50 58 63 60 83 61 52 62 37 63 38 64 46 65 39 66 45 67
REMARK SMILES IDX 40 68 41 69 42 70 43 71 44 72 67 73 68 74 76 75 69 76 75 77
REMARK SMILES IDX 70 78 71 79 72 80 73 81 74 82 53 83 54 84 62 85 55 86 61 87
REMARK SMILES IDX 56 88 57 89 58 90 59 91 60 92
REMARK H PARENT 21 5 5 14 25 29 81 48 51 59
REMARK Flexibility Score: inf
ROOT
ATOM      1  C   UNL A   1      37.210  21.440  24.466  1.00  0.00     0.117 C 
ENDROOT
BRANCH   1   2
ATOM      2  N   UNL A   1      36.031  21.803  25.233  1.00  0.00    -0.356 N 
ATOM      3  O   UNL A   1      36.885  23.769  26.092  1.00  0.00    -0.275 OA
ATOM      4  C   UNL A   1      35.960  22.974  25.970  1.00  0.00     0.222 C 
ATOM      5  H   UNL A   1      35.255  21.196  25.229  1.00  0.00     0.163 HD
BRANCH   4   6
ATOM      6  C   UNL A   1      34.601  23.213  26.607  1.00  0.00     0.128 C 
BRANCH   6   7
ATOM      7  C   UNL A   1      33.637  24.102  25.801  1.00  0.00     0.049 C 
ATOM      8  C   UNL A   1      32.261  24.169  26.508  1.00  0.00     0.029 C 
ATOM      9  C   UNL A   1      34.003  25.605  25.778  1.00  0.00     0.029 C 
ATOM     10  C   UNL A   1      31.572  25.410  25.940  1.00  0.00     0.003 C 
ATOM     11  C   UNL A   1      32.694  26.359  25.531  1.00  0.00     0.003 C 
BRANCH   7  12
ATOM     12  N   UNL A   1      33.378  23.650  24.393  1.00  0.00    -0.350 N 
ATOM     13  C   UNL A   1      32.929  22.554  23.732  1.00  0.00     0.224 C 
ATOM     14  H   UNL A   1      33.601  24.367  23.757  1.00  0.00     0.164 HD
ATOM     15  O   UNL A   1      33.068  22.565  22.503  1.00  0.00    -0.275 OA
BRANCH  13  16
ATOM     16  C   UNL A   1      32.202  21.407  24.391  1.00  0.00     0.138 C 
BRANCH  16  17
ATOM     17  C   UNL A   1      32.629  19.999  24.042  1.00  0.00    -0.003 A 
ATOM     18  C   UNL A   1      33.419  19.298  24.974  1.00  0.00     0.010 A 
ATOM     19  C   UNL A   1      32.318  19.366  22.834  1.00  0.00     0.129 A 
ATOM     20  C   UNL A   1      33.920  18.031  24.672  1.00  0.00     0.040 A 
ATOM     21  C   UNL A   1      32.808  18.102  22.531  1.00  0.00     0.078 A 
ATOM     22  F   UNL A   1      31.582  19.985  21.904  1.00  0.00    -0.207 F 
ATOM     23  C   UNL A   1      33.620  17.452  23.447  1.00  0.00     0.126 A 
ATOM     24  F   UNL A   1      34.145  16.263  23.129  1.00  0.00    -0.207 F 
ENDBRANCH  16  17
ENDBRANCH  13  16
ENDBRANCH   7  12
ENDBRANCH   6   7
ENDBRANCH   4   6
ENDBRANCH   1   2
BRANCH   1  25
ATOM     25  C   UNL A   1      37.950  20.222  25.020  1.00  0.00     0.042 C 
BRANCH  25  26
ATOM     26  C   UNL A   1      39.213  20.513  25.830  1.00  0.00     0.118 C 
BRANCH  26  27
ATOM     27  N   UNL A   1      40.177  19.428  25.866  1.00  0.00    -0.352 N 
ATOM     28  C   UNL A   1      41.523  19.466  26.159  1.00  0.00     0.251 C 
ATOM     29  H   UNL A   1      39.817  18.537  25.649  1.00  0.00     0.163 HD
ATOM     30  O   UNL A   1      42.176  18.431  26.122  1.00  0.00    -0.269 OA
BRANCH  28  31
ATOM     31  C   UNL A   1      42.197  20.753  26.467  1.00  0.00     0.039 A 
ATOM     32  C   UNL A   1      42.673  21.518  25.397  1.00  0.00     0.014 A 
ATOM     33  C   UNL A   1      42.378  21.207  27.776  1.00  0.00     0.014 A 
ATOM     34  C   UNL A   1      43.258  22.765  25.634  1.00  0.00     0.010 A 
ATOM     35  C   UNL A   1      42.927  22.474  28.009  1.00  0.00     0.010 A 
ATOM     36  C   UNL A   1      43.358  23.274  26.939  1.00  0.00    -0.014 A 
BRANCH  36  37
ATOM     37  C   UNL A   1      43.857  24.658  27.172  1.00  0.00     0.031 A 
ATOM     38  C   UNL A   1      45.304  25.014  26.964  1.00  0.00     0.074 A 
ATOM     39  C   UNL A   1      42.998  25.605  27.601  1.00  0.00     0.049 A 
ATOM     40  N   UNL A   1      45.890  26.178  27.091  1.00  0.00    -0.248 NA
ATOM     41  C   UNL A   1      46.211  23.924  26.574  1.00  0.00     0.031 C 
ATOM     42  C   UNL A   1      41.575  25.392  27.880  1.00  0.00     0.029 A 
ATOM     43  N   UNL A   1      43.192  26.937  27.877  1.00  0.00    -0.354 N 
ATOM     44  C   UNL A   1      47.231  25.966  26.796  1.00  0.00     0.074 A 
ATOM     45  C   UNL A   1      47.380  24.549  26.528  1.00  0.00     0.031 C 
ATOM     46  C   UNL A   1      41.023  26.555  28.259  1.00  0.00     0.029 A 
ATOM     47  C   UNL A   1      42.053  27.590  28.285  1.00  0.00     0.049 A 
ATOM     48  H   UNL A   1      44.066  27.382  27.791  1.00  0.00     0.167 HD
ATOM     49  C   UNL A   1      48.244  26.865  26.739  1.00  0.00     0.031 A 
ATOM     50  C   UNL A   1      41.852  28.874  28.641  1.00  0.00     0.031 A 
ATOM     51  C   UNL A   1      48.105  28.272  27.013  1.00  0.00     0.049 A 
ATOM     52  C   UNL A   1      42.999  29.847  28.598  1.00  0.00     0.074 A 
ATOM     53  C   UNL A   1      49.070  29.264  26.927  1.00  0.00     0.029 A 
ATOM     54  N   UNL A   1      46.940  28.889  27.439  1.00  0.00    -0.354 N 
ATOM     55  N   UNL A   1      44.241  29.639  28.238  1.00  0.00    -0.248 NA
ATOM     56  C   UNL A   1      42.710  31.231  28.999  1.00  0.00     0.031 C 
ATOM     57  C   UNL A   1      48.501  30.469  27.353  1.00  0.00     0.029 A 
ATOM     58  C   UNL A   1      47.167  30.240  27.650  1.00  0.00     0.049 A 
ATOM     59  H   UNL A   1      46.076  28.435  27.572  1.00  0.00     0.167 HD
ATOM     60  C   UNL A   1      44.878  30.871  28.347  1.00  0.00     0.074 A 
ATOM     61  C   UNL A   1      43.880  31.822  28.790  1.00  0.00     0.031 C 
ATOM     62  C   UNL A   1      46.174  31.183  28.101  1.00  0.00     0.031 A 
BRANCH  49  63
ATOM     63  C   UNL A   1      49.612  26.350  26.369  1.00  0.00    -0.014 A 
ATOM     64  C   UNL A   1      50.116  26.507  25.065  1.00  0.00     0.010 A 
ATOM     65  C   UNL A   1      50.423  25.749  27.348  1.00  0.00     0.010 A 
ATOM     66  C   UNL A   1      51.390  26.036  24.737  1.00  0.00     0.020 A 
ATOM     67  C   UNL A   1      51.709  25.301  27.031  1.00  0.00     0.020 A 
ATOM     68  C   UNL A   1      52.178  25.431  25.721  1.00  0.00     0.054 A 
BRANCH  68  69
ATOM     69  S   UNL A   1      53.833  24.843  25.273  1.00  0.00     0.124 S 
ATOM     70  O   UNL A   1      54.609  25.198  26.458  1.00  0.00    -0.237 OA
ATOM     71  O   UNL A   1      53.621  23.413  25.068  1.00  0.00    -0.237 OA
ATOM     72  O   UNL A   1      54.157  25.601  24.067  1.00  0.00    -0.744 OA
ENDBRANCH  68  69
ENDBRANCH  49  63
BRANCH  50  73
ATOM     73  C   UNL A   1      40.497  29.321  29.065  1.00  0.00    -0.014 A 
ATOM     74  C   UNL A   1      40.176  29.438  30.429  1.00  0.00     0.010 A 
ATOM     75  C   UNL A   1      39.522  29.641  28.103  1.00  0.00     0.010 A 
ATOM     76  C   UNL A   1      38.899  29.849  30.822  1.00  0.00     0.020 A 
ATOM     77  C   UNL A   1      38.254  30.079  28.493  1.00  0.00     0.020 A 
ATOM     78  C   UNL A   1      37.947  30.169  29.851  1.00  0.00     0.054 A 
BRANCH  78  79
ATOM     79  S   UNL A   1      36.313  30.752  30.384  1.00  0.00     0.124 S 
ATOM     80  O   UNL A   1      35.562  30.733  29.132  1.00  0.00    -0.237 OA
ATOM     81  O   UNL A   1      35.925  29.746  31.371  1.00  0.00    -0.237 OA
ATOM     82  O   UNL A   1      36.586  32.078  30.932  1.00  0.00    -0.744 OA
ENDBRANCH  78  79
ENDBRANCH  50  73
BRANCH  62  83
ATOM     83  C   UNL A   1      46.592  32.619  28.284  1.00  0.00    -0.014 A 
ATOM     84  C   UNL A   1      47.108  33.077  29.509  1.00  0.00     0.010 A 
ATOM     85  C   UNL A   1      46.510  33.513  27.201  1.00  0.00     0.010 A 
ATOM     86  C   UNL A   1      47.508  34.409  29.656  1.00  0.00     0.020 A 
ATOM     87  C   UNL A   1      46.933  34.839  27.335  1.00  0.00     0.020 A 
ATOM     88  C   UNL A   1      47.416  35.282  28.568  1.00  0.00     0.054 A 
BRANCH  88  89
ATOM     89  S   UNL A   1      47.983  36.995  28.771  1.00  0.00     0.124 S 
ATOM     90  O   UNL A   1      48.552  36.968  30.116  1.00  0.00    -0.237 OA
ATOM     91  O   UNL A   1      48.946  37.146  27.684  1.00  0.00    -0.237 OA
ATOM     92  O   UNL A   1      46.761  37.782  28.627  1.00  0.00    -0.744 OA
ENDBRANCH  88  89
ENDBRANCH  62  83
ENDBRANCH  36  37
ENDBRANCH  28  31
ENDBRANCH  26  27
ENDBRANCH  25  26
ENDBRANCH   1  25
TORSDOF 17
ENDMDL
MODEL 2
REMARK VINA RESULT:     -11.9      5.962      8.224
REMARK SMILES O=C(CC1(NC(=O)Cc2ccc(F)cc2F)CCCC1)NCCCNC(=O)c1ccc(-c2c3nc(c(-c4ccc(S(=O)(=O)[O-])cc4)c4ccc([nH]4)c(-c4ccc(S(=O)(=O)[O-])cc4)c4nc(c(-c5ccc(S(=O)(=O)[O-])cc5)c5ccc2[nH]5)C=C4)C=C3)cc1
REMARK SMILES IDX 22 1 21 2 1 3 2 4 3 6 4 7 17 8 20 9 18 10 19 11 5 12 6 13
REMARK SMILES IDX 7 15 8 16 9 17 10 18 15 19 11 20 14 21 16 22 12 23 13 24
REMARK SMILES IDX 23 25 24 26 25 27 26 28 27 30 28 31 29 32 87 33 30 34 86 35
REMARK SMILES IDX 31 36 32 37 33 38 80 39 34 40 85 41 79 42 81 43 35 44 84 45
REMARK SMILES IDX 78 46 77 47 36 49 66 50 47 51 65 52 48 53 51 54 64 55 82 56
REMARK SMILES IDX 49 57 50 58 63 60 83 61 52 62 37 63 38 64 46 65 39 66 45 67
REMARK SMILES IDX 40 68 41 69 42 70 43 71 44 72 67 73 68 74 76 75 69 76 75 77
REMARK SMILES IDX 70 78 71 79 72 80 73 81 74 82 53 83 54 84 62 85 55 86 61 87
REMARK SMILES IDX 56 88 57 89 58 90 59 91 60 92
REMARK H PARENT 21 5 5 14 25 29 81 48 51 59
REMARK Flexibility Score: inf
ROOT
ATOM      1  C   UNL A   1      38.294  22.018  25.624  1.00  0.00     0.117 C 
ENDROOT
BRANCH   1   2
ATOM      2  N   UNL A   1      37.029  22.306  26.276  1.00  0.00    -0.356 N 
ATOM      3  O   UNL A   1      36.262  23.799  24.691  1.00  0.00    -0.275 OA
ATOM      4  C   UNL A   1      36.093  23.166  25.726  1.00  0.00     0.222 C 
ATOM      5  H   UNL A   1      36.830  21.875  27.139  1.00  0.00     0.163 HD
BRANCH   4   6
ATOM      6  C   UNL A   1      34.796  23.242  26.515  1.00  0.00     0.128 C 
BRANCH   6   7
ATOM      7  C   UNL A   1      33.651  24.017  25.838  1.00  0.00     0.049 C 
ATOM      8  C   UNL A   1      32.340  23.836  26.641  1.00  0.00     0.029 C 
ATOM      9  C   UNL A   1      33.788  25.557  25.889  1.00  0.00     0.029 C 
ATOM     10  C   UNL A   1      31.433  24.987  26.205  1.00  0.00     0.003 C 
ATOM     11  C   UNL A   1      32.368  26.116  25.783  1.00  0.00     0.003 C 
BRANCH   7  12
ATOM     12  N   UNL A   1      33.352  23.609  24.425  1.00  0.00    -0.350 N 
ATOM     13  C   UNL A   1      32.942  22.515  23.736  1.00  0.00     0.224 C 
ATOM     14  H   UNL A   1      33.499  24.366  23.812  1.00  0.00     0.164 HD
ATOM     15  O   UNL A   1      33.019  22.587  22.503  1.00  0.00    -0.275 OA
BRANCH  13  16
ATOM     16  C   UNL A   1      32.321  21.296  24.375  1.00  0.00     0.138 C 
BRANCH  16  17
ATOM     17  C   UNL A   1      32.894  19.941  24.028  1.00  0.00    -0.003 A 
ATOM     18  C   UNL A   1      32.213  19.160  23.074  1.00  0.00     0.010 A 
ATOM     19  C   UNL A   1      34.039  19.402  24.624  1.00  0.00     0.129 A 
ATOM     20  C   UNL A   1      32.640  17.865  22.778  1.00  0.00     0.040 A 
ATOM     21  C   UNL A   1      34.473  18.116  24.328  1.00  0.00     0.078 A 
ATOM     22  F   UNL A   1      34.722  20.090  25.546  1.00  0.00    -0.207 F 
ATOM     23  C   UNL A   1      33.760  17.352  23.418  1.00  0.00     0.126 A 
ATOM     24  F   UNL A   1      34.139  16.091  23.181  1.00  0.00    -0.207 F 
ENDBRANCH  16  17
ENDBRANCH  13  16
ENDBRANCH   7  12
ENDBRANCH   6   7
ENDBRANCH   4   6
ENDBRANCH   1   2
BRANCH   1  25
ATOM     25  C   UNL A   1      39.502  22.116  26.557  1.00  0.00     0.042 C 
BRANCH  25  26
ATOM     26  C   UNL A   1      40.012  23.526  26.851  1.00  0.00     0.118 C 
BRANCH  26  27
ATOM     27  N   UNL A   1      41.199  23.912  26.106  1.00  0.00    -0.352 N 
ATOM     28  C   UNL A   1      42.010  25.013  26.269  1.00  0.00     0.251 C 
ATOM     29  H   UNL A   1      41.460  23.297  25.382  1.00  0.00     0.163 HD
ATOM     30  O   UNL A   1      42.968  25.169  25.523  1.00  0.00    -0.269 OA
BRANCH  28  31
ATOM     31  C   UNL A   1      41.706  26.035  27.302  1.00  0.00     0.039 A 
ATOM     32  C   UNL A   1      40.656  25.779  28.190  1.00  0.00     0.014 A 
ATOM     33  C   UNL A   1      42.420  27.232  27.402  1.00  0.00     0.014 A 
ATOM     34  C   UNL A   1      40.373  26.683  29.219  1.00  0.00     0.010 A 
ATOM     35  C   UNL A   1      42.162  28.116  28.457  1.00  0.00     0.010 A 
ATOM     36  C   UNL A   1      41.146  27.843  29.386  1.00  0.00    -0.014 A 
BRANCH  36  37
ATOM     37  C   UNL A   1      40.927  28.731  30.562  1.00  0.00     0.031 A 
ATOM     38  C   UNL A   1      41.762  28.601  31.807  1.00  0.00     0.074 A 
ATOM     39  C   UNL A   1      39.945  29.654  30.517  1.00  0.00     0.049 A 
ATOM     40  N   UNL A   1      41.720  29.317  32.903  1.00  0.00    -0.248 NA
ATOM     41  C   UNL A   1      42.763  27.524  31.831  1.00  0.00     0.031 C 
ATOM     42  C   UNL A   1      39.036  29.867  29.389  1.00  0.00     0.029 A 
ATOM     43  N   UNL A   1      39.547  30.589  31.442  1.00  0.00    -0.354 N 
ATOM     44  C   UNL A   1      42.686  28.783  33.746  1.00  0.00     0.074 A 
ATOM     45  C   UNL A   1      43.268  27.653  33.051  1.00  0.00     0.031 C 
ATOM     46  C   UNL A   1      38.207  30.883  29.677  1.00  0.00     0.029 A 
ATOM     47  C   UNL A   1      38.500  31.374  31.020  1.00  0.00     0.049 A 
ATOM     48  H   UNL A   1      39.972  30.687  32.325  1.00  0.00     0.167 HD
ATOM     49  C   UNL A   1      43.067  29.201  34.978  1.00  0.00     0.031 A 
ATOM     50  C   UNL A   1      37.844  32.376  31.639  1.00  0.00     0.031 A 
ATOM     51  C   UNL A   1      42.487  30.318  35.679  1.00  0.00     0.049 A 
ATOM     52  C   UNL A   1      38.266  32.802  33.019  1.00  0.00     0.074 A 
ATOM     53  C   UNL A   1      42.850  30.843  36.909  1.00  0.00     0.029 A 
ATOM     54  N   UNL A   1      41.419  31.075  35.226  1.00  0.00    -0.354 N 
ATOM     55  N   UNL A   1      39.237  32.334  33.764  1.00  0.00    -0.248 NA
ATOM     56  C   UNL A   1      37.509  33.902  33.635  1.00  0.00     0.031 C 
ATOM     57  C   UNL A   1      41.965  31.880  37.223  1.00  0.00     0.029 A 
ATOM     58  C   UNL A   1      41.088  32.041  36.163  1.00  0.00     0.049 A 
ATOM     59  H   UNL A   1      40.961  30.946  34.363  1.00  0.00     0.167 HD
ATOM     60  C   UNL A   1      39.222  33.097  34.928  1.00  0.00     0.074 A 
ATOM     61  C   UNL A   1      38.157  34.067  34.780  1.00  0.00     0.031 C 
ATOM     62  C   UNL A   1      40.021  32.999  36.018  1.00  0.00     0.031 A 
BRANCH  49  63
ATOM     63  C   UNL A   1      44.171  28.435  35.663  1.00  0.00    -0.014 A 
ATOM     64  C   UNL A   1      45.518  28.808  35.504  1.00  0.00     0.010 A 
ATOM     65  C   UNL A   1      43.854  27.362  36.516  1.00  0.00     0.010 A 
ATOM     66  C   UNL A   1      46.530  28.098  36.153  1.00  0.00     0.020 A 
ATOM     67  C   UNL A   1      44.863  26.666  37.189  1.00  0.00     0.020 A 
ATOM     68  C   UNL A   1      46.197  27.027  36.988  1.00  0.00     0.054 A 
BRANCH  68  69
ATOM     69  S   UNL A   1      47.530  26.132  37.831  1.00  0.00     0.124 S 
ATOM     70  O   UNL A   1      48.709  26.886  37.411  1.00  0.00    -0.237 OA
ATOM     71  O   UNL A   1      47.168  26.269  39.239  1.00  0.00    -0.237 OA
ATOM     72  O   UNL A   1      47.434  24.777  37.294  1.00  0.00    -0.744 OA
ENDBRANCH  68  69
ENDBRANCH  49  63
BRANCH  50  73
ATOM     73  C   UNL A   1      36.716  33.059  30.949  1.00  0.00    -0.014 A 
ATOM     74  C   UNL A   1      35.392  32.876  31.389  1.00  0.00     0.010 A 
ATOM     75  C   UNL A   1      36.961  33.904  29.851  1.00  0.00     0.010 A 
ATOM     76  C   UNL A   1      34.335  33.511  30.732  1.00  0.00     0.020 A 
ATOM     77  C   UNL A   1      35.909  34.562  29.211  1.00  0.00     0.020 A 
ATOM     78  C   UNL A   1      34.601  34.352  29.648  1.00  0.00     0.054 A 
BRANCH  78  79
ATOM     79  S   UNL A   1      33.218  35.209  28.843  1.00  0.00     0.124 S 
ATOM     80  O   UNL A   1      32.415  35.629  29.987  1.00  0.00    -0.237 OA
ATOM     81  O   UNL A   1      33.891  36.282  28.114  1.00  0.00    -0.237 OA
ATOM     82  O   UNL A   1      32.620  34.175  28.002  1.00  0.00    -0.744 OA
ENDBRANCH  78  79
ENDBRANCH  50  73
BRANCH  62  83
ATOM     83  C   UNL A   1      39.793  33.980  37.139  1.00  0.00    -0.014 A 
ATOM     84  C   UNL A   1      38.974  33.656  38.236  1.00  0.00     0.010 A 
ATOM     85  C   UNL A   1      40.444  35.227  37.118  1.00  0.00     0.010 A 
ATOM     86  C   UNL A   1      38.788  34.571  39.276  1.00  0.00     0.020 A 
ATOM     87  C   UNL A   1      40.282  36.135  38.169  1.00  0.00     0.020 A 
ATOM     88  C   UNL A   1      39.443  35.807  39.235  1.00  0.00     0.054 A 
BRANCH  88  89
ATOM     89  S   UNL A   1      39.220  36.960  40.619  1.00  0.00     0.124 S 
ATOM     90  O   UNL A   1      38.621  36.100  41.637  1.00  0.00    -0.237 OA
ATOM     91  O   UNL A   1      40.584  37.402  40.892  1.00  0.00    -0.237 OA
ATOM     92  O   UNL A   1      38.336  37.988  40.073  1.00  0.00    -0.744 OA
ENDBRANCH  88  89
ENDBRANCH  62  83
ENDBRANCH  36  37
ENDBRANCH  28  31
ENDBRANCH  26  27
ENDBRANCH  25  26
ENDBRANCH   1  25
TORSDOF 17
ENDMDL
MODEL 3
REMARK VINA RESULT:     -11.9      6.454      9.014
REMARK SMILES O=C(CC1(NC(=O)Cc2ccc(F)cc2F)CCCC1)NCCCNC(=O)c1ccc(-c2c3nc(c(-c4ccc(S(=O)(=O)[O-])cc4)c4ccc([nH]4)c(-c4ccc(S(=O)(=O)[O-])cc4)c4nc(c(-c5ccc(S(=O)(=O)[O-])cc5)c5ccc2[nH]5)C=C4)C=C3)cc1
REMARK SMILES IDX 22 1 21 2 1 3 2 4 3 6 4 7 17 8 20 9 18 10 19 11 5 12 6 13
REMARK SMILES IDX 7 15 8 16 9 17 10 18 15 19 11 20 14 21 16 22 12 23 13 24
REMARK SMILES IDX 23 25 24 26 25 27 26 28 27 30 28 31 29 32 87 33 30 34 86 35
REMARK SMILES IDX 31 36 32 37 33 38 80 39 34 40 85 41 79 42 81 43 35 44 84 45
REMARK SMILES IDX 78 46 77 47 36 49 66 50 47 51 65 52 48 53 51 54 64 55 82 56
REMARK SMILES IDX 49 57 50 58 63 60 83 61 52 62 37 63 38 64 46 65 39 66 45 67
REMARK SMILES IDX 40 68 41 69 42 70 43 71 44 72 67 73 68 74 76 75 69 76 75 77
REMARK SMILES IDX 70 78 71 79 72 80 73 81 74 82 53 83 54 84 62 85 55 86 61 87
REMARK SMILES IDX 56 88 57 89 58 90 59 91 60 92
REMARK H PARENT 21 5 5 14 25 29 81 48 51 59
REMARK Flexibility Score: inf
ROOT
ATOM      1  C   UNL A   1      38.228  21.693  25.646  1.00  0.00     0.117 C 
ENDROOT
BRANCH   1   2
ATOM      2  N   UNL A   1      37.060  22.499  25.953  1.00  0.00    -0.356 N 
ATOM      3  O   UNL A   1      36.862  23.462  23.864  1.00  0.00    -0.275 OA
ATOM      4  C   UNL A   1      36.450  23.306  25.007  1.00  0.00     0.222 C 
ATOM      5  H   UNL A   1      36.688  22.471  26.865  1.00  0.00     0.163 HD
BRANCH   4   6
ATOM      6  C   UNL A   1      35.181  23.979  25.505  1.00  0.00     0.128 C 
BRANCH   6   7
ATOM      7  C   UNL A   1      33.871  23.479  24.869  1.00  0.00     0.049 C 
ATOM      8  C   UNL A   1      33.543  24.313  23.606  1.00  0.00     0.029 C 
ATOM      9  C   UNL A   1      33.947  22.065  24.247  1.00  0.00     0.029 C 
ATOM     10  C   UNL A   1      32.558  23.464  22.802  1.00  0.00     0.003 C 
ATOM     11  C   UNL A   1      32.864  22.015  23.167  1.00  0.00     0.003 C 
BRANCH   7  12
ATOM     12  N   UNL A   1      32.663  23.548  25.757  1.00  0.00    -0.350 N 
ATOM     13  C   UNL A   1      31.990  24.455  26.508  1.00  0.00     0.224 C 
ATOM     14  H   UNL A   1      32.227  22.667  25.811  1.00  0.00     0.164 HD
ATOM     15  O   UNL A   1      31.116  24.001  27.257  1.00  0.00    -0.275 OA
BRANCH  13  16
ATOM     16  C   UNL A   1      32.178  25.950  26.400  1.00  0.00     0.138 C 
BRANCH  16  17
ATOM     17  C   UNL A   1      31.350  26.700  25.383  1.00  0.00    -0.003 A 
ATOM     18  C   UNL A   1      30.225  26.049  24.838  1.00  0.00     0.010 A 
ATOM     19  C   UNL A   1      31.653  27.986  24.924  1.00  0.00     0.129 A 
ATOM     20  C   UNL A   1      29.473  26.652  23.829  1.00  0.00     0.040 A 
ATOM     21  C   UNL A   1      30.904  28.594  23.925  1.00  0.00     0.078 A 
ATOM     22  F   UNL A   1      32.715  28.650  25.394  1.00  0.00    -0.207 F 
ATOM     23  C   UNL A   1      29.829  27.915  23.374  1.00  0.00     0.126 A 
ATOM     24  F   UNL A   1      29.147  28.473  22.367  1.00  0.00    -0.207 F 
ENDBRANCH  16  17
ENDBRANCH  13  16
ENDBRANCH   7  12
ENDBRANCH   6   7
ENDBRANCH   4   6
ENDBRANCH   1   2
BRANCH   1  25
ATOM     25  C   UNL A   1      39.445  22.023  26.511  1.00  0.00     0.042 C 
BRANCH  25  26
ATOM     26  C   UNL A   1      39.625  23.494  26.886  1.00  0.00     0.118 C 
BRANCH  26  27
ATOM     27  N   UNL A   1      40.312  24.297  25.890  1.00  0.00    -0.352 N 
ATOM     28  C   UNL A   1      40.864  25.553  26.011  1.00  0.00     0.251 C 
ATOM     29  H   UNL A   1      40.394  23.883  25.000  1.00  0.00     0.163 HD
ATOM     30  O   UNL A   1      41.395  26.074  25.039  1.00  0.00    -0.269 OA
BRANCH  28  31
ATOM     31  C   UNL A   1      40.776  26.301  27.291  1.00  0.00     0.039 A 
ATOM     32  C   UNL A   1      41.748  27.272  27.553  1.00  0.00     0.014 A 
ATOM     33  C   UNL A   1      39.772  26.056  28.232  1.00  0.00     0.014 A 
ATOM     34  C   UNL A   1      41.671  28.044  28.716  1.00  0.00     0.010 A 
ATOM     35  C   UNL A   1      39.672  26.858  29.376  1.00  0.00     0.010 A 
ATOM     36  C   UNL A   1      40.612  27.872  29.622  1.00  0.00    -0.014 A 
BRANCH  36  37
ATOM     37  C   UNL A   1      40.460  28.788  30.787  1.00  0.00     0.031 A 
ATOM     38  C   UNL A   1      41.310  28.635  32.019  1.00  0.00     0.074 A 
ATOM     39  C   UNL A   1      39.525  29.759  30.744  1.00  0.00     0.049 A 
ATOM     40  N   UNL A   1      41.325  29.369  33.103  1.00  0.00    -0.248 NA
ATOM     41  C   UNL A   1      42.256  27.509  32.043  1.00  0.00     0.031 C 
ATOM     42  C   UNL A   1      38.607  30.000  29.629  1.00  0.00     0.029 A 
ATOM     43  N   UNL A   1      39.192  30.727  31.661  1.00  0.00    -0.354 N 
ATOM     44  C   UNL A   1      42.278  28.800  33.938  1.00  0.00     0.074 A 
ATOM     45  C   UNL A   1      42.789  27.631  33.251  1.00  0.00     0.031 C 
ATOM     46  C   UNL A   1      37.836  31.061  29.915  1.00  0.00     0.029 A 
ATOM     47  C   UNL A   1      38.178  31.558  31.245  1.00  0.00     0.049 A 
ATOM     48  H   UNL A   1      39.637  30.817  32.534  1.00  0.00     0.167 HD
ATOM     49  C   UNL A   1      42.703  29.217  35.156  1.00  0.00     0.031 A 
ATOM     50  C   UNL A   1      37.586  32.601  31.858  1.00  0.00     0.031 A 
ATOM     51  C   UNL A   1      42.193  30.373  35.849  1.00  0.00     0.049 A 
ATOM     52  C   UNL A   1      38.054  33.027  33.223  1.00  0.00     0.074 A 
ATOM     53  C   UNL A   1      42.604  30.898  37.063  1.00  0.00     0.029 A 
ATOM     54  N   UNL A   1      41.156  31.176  35.402  1.00  0.00    -0.354 N 
ATOM     55  N   UNL A   1      39.014  32.522  33.958  1.00  0.00    -0.248 NA
ATOM     56  C   UNL A   1      37.364  34.172  33.834  1.00  0.00     0.031 C 
ATOM     57  C   UNL A   1      41.779  31.983  37.376  1.00  0.00     0.029 A 
ATOM     58  C   UNL A   1      40.892  32.172  36.329  1.00  0.00     0.049 A 
ATOM     59  H   UNL A   1      40.677  31.057  34.549  1.00  0.00     0.167 HD
ATOM     60  C   UNL A   1      39.059  33.302  35.110  1.00  0.00     0.074 A 
ATOM     61  C   UNL A   1      38.041  34.322  34.965  1.00  0.00     0.031 C 
ATOM     62  C   UNL A   1      39.872  33.181  36.187  1.00  0.00     0.031 A 
BRANCH  49  63
ATOM     63  C   UNL A   1      43.779  28.407  35.833  1.00  0.00    -0.014 A 
ATOM     64  C   UNL A   1      45.140  28.703  35.637  1.00  0.00     0.010 A 
ATOM     65  C   UNL A   1      43.425  27.372  36.718  1.00  0.00     0.010 A 
ATOM     66  C   UNL A   1      46.127  27.952  36.280  1.00  0.00     0.020 A 
ATOM     67  C   UNL A   1      44.409  26.636  37.384  1.00  0.00     0.020 A 
ATOM     68  C   UNL A   1      45.756  26.919  37.146  1.00  0.00     0.054 A 
BRANCH  68  69
ATOM     69  S   UNL A   1      47.058  25.971  37.979  1.00  0.00     0.124 S 
ATOM     70  O   UNL A   1      46.648  24.596  37.708  1.00  0.00    -0.237 OA
ATOM     71  O   UNL A   1      48.268  26.412  37.288  1.00  0.00    -0.237 OA
ATOM     72  O   UNL A   1      46.954  26.389  39.375  1.00  0.00    -0.744 OA
ENDBRANCH  68  69
ENDBRANCH  49  63
BRANCH  50  73
ATOM     73  C   UNL A   1      36.480  33.329  31.177  1.00  0.00    -0.014 A 
ATOM     74  C   UNL A   1      35.240  33.506  31.816  1.00  0.00     0.010 A 
ATOM     75  C   UNL A   1      36.667  33.857  29.887  1.00  0.00     0.010 A 
ATOM     76  C   UNL A   1      34.201  34.182  31.169  1.00  0.00     0.020 A 
ATOM     77  C   UNL A   1      35.640  34.558  29.249  1.00  0.00     0.020 A 
ATOM     78  C   UNL A   1      34.409  34.705  29.890  1.00  0.00     0.054 A 
BRANCH  78  79
ATOM     79  S   UNL A   1      33.065  35.626  29.090  1.00  0.00     0.124 S 
ATOM     80  O   UNL A   1      32.473  34.608  28.227  1.00  0.00    -0.237 OA
ATOM     81  O   UNL A   1      32.249  36.045  30.227  1.00  0.00    -0.237 OA
ATOM     82  O   UNL A   1      33.759  36.709  28.398  1.00  0.00    -0.744 OA
ENDBRANCH  78  79
ENDBRANCH  50  73
BRANCH  62  83
ATOM     83  C   UNL A   1      39.714  34.190  37.295  1.00  0.00    -0.014 A 
ATOM     84  C   UNL A   1      38.997  33.881  38.465  1.00  0.00     0.010 A 
ATOM     85  C   UNL A   1      40.332  35.449  37.186  1.00  0.00     0.010 A 
ATOM     86  C   UNL A   1      38.876  34.822  39.491  1.00  0.00     0.020 A 
ATOM     87  C   UNL A   1      40.236  36.384  38.221  1.00  0.00     0.020 A 
ATOM     88  C   UNL A   1      39.496  36.070  39.362  1.00  0.00     0.054 A 
BRANCH  88  89
ATOM     89  S   UNL A   1      39.362  37.259  40.727  1.00  0.00     0.124 S 
ATOM     90  O   UNL A   1      40.765  37.545  41.019  1.00  0.00    -0.237 OA
ATOM     91  O   UNL A   1      38.609  38.356  40.125  1.00  0.00    -0.237 OA
ATOM     92  O   UNL A   1      38.648  36.516  41.763  1.00  0.00    -0.744 OA
ENDBRANCH  88  89
ENDBRANCH  62  83
ENDBRANCH  36  37
ENDBRANCH  28  31
ENDBRANCH  26  27
ENDBRANCH  25  26
ENDBRANCH   1  25
TORSDOF 17
ENDMDL
