MODEL 1
REMARK VINA RESULT:     -12.5      0.000      0.000
REMARK SMILES CCc1nn(C)c(C[C@@H](C(=O)NCCCNC(=O)c2ccc(-c3c4nc(c(-c5ccc(S(=O)(=O)[O-])cc5)c5ccc([nH]5)c(-c5ccc(S(=O)(=O)[O-])cc5)c5nc(c(-c6ccc(S(=O)(=O)[O-])cc6)c6ccc3[nH]6)C=C5)C=C4)cc2)c2cccc(C)c2)c1Br
REMARK SMILES IDX 14 1 13 2 12 3 10 4 11 5 9 7 8 8 7 9 3 10 4 11 86 12 5 13
REMARK SMILES IDX 87 14 6 15 2 16 1 17 79 18 80 19 85 20 81 21 83 22 82 23
REMARK SMILES IDX 84 24 15 25 16 26 17 27 18 29 19 30 20 31 78 32 21 33 77 34
REMARK SMILES IDX 22 35 23 36 24 37 71 38 25 39 76 40 70 41 72 42 26 43 75 44
REMARK SMILES IDX 69 45 68 46 27 48 57 49 38 50 56 51 39 52 42 53 55 54 73 55
REMARK SMILES IDX 40 56 41 57 54 59 74 60 43 61 28 62 29 63 37 64 30 65 36 66
REMARK SMILES IDX 31 67 32 68 33 69 34 70 35 71 58 72 59 73 67 74 60 75 66 76
REMARK SMILES IDX 61 77 62 78 63 79 64 80 65 81 44 82 45 83 53 84 46 85 52 86
REMARK SMILES IDX 47 87 48 88 49 89 50 90 51 91
REMARK H PARENT 12 6 16 28 72 47 42 58
REMARK Flexibility Score: inf
ROOT
ATOM      1  C   UNL A   1      32.783  29.892  26.237  1.00  0.00     0.042 C 
ENDROOT
BRANCH   1   2
ATOM      2  C   UNL A   1      33.731  29.061  25.358  1.00  0.00     0.117 C 
BRANCH   2   3
ATOM      3  N   UNL A   1      33.445  29.117  23.927  1.00  0.00    -0.355 N 
ATOM      4  C   UNL A   1      32.427  28.639  23.155  1.00  0.00     0.227 C 
ATOM      5  O   UNL A   1      32.515  28.882  21.949  1.00  0.00    -0.274 OA
ATOM      6  H   UNL A   1      34.131  29.601  23.412  1.00  0.00     0.163 HD
BRANCH   4   7
ATOM      7  C   UNL A   1      31.265  27.834  23.746  1.00  0.00     0.114 C 
BRANCH   7   8
ATOM      8  C   UNL A   1      31.047  26.471  23.049  1.00  0.00     0.075 C 
BRANCH   8   9
ATOM      9  C   UNL A   1      32.201  25.546  22.936  1.00  0.00     0.054 A 
ATOM     10  C   UNL A   1      33.833  24.055  23.207  1.00  0.00     0.077 A 
ATOM     11  N   UNL A   1      33.670  24.173  21.881  1.00  0.00    -0.177 NA
ATOM     12  C   UNL A   1      32.915  24.870  23.897  1.00  0.00     0.062 A 
ATOM     13  N   UNL A   1      32.709  25.107  21.735  1.00  0.00    -0.271 N 
ATOM     14  Br  UNL A   1      32.733  25.011  25.756  1.00  0.00    -0.047 Br
ATOM     15  C   UNL A   1      32.433  25.610  20.405  1.00  0.00     0.174 C 
BRANCH  10  16
ATOM     16  C   UNL A   1      34.921  23.183  23.739  1.00  0.00     0.056 C 
ATOM     17  C   UNL A   1      34.385  21.881  24.323  1.00  0.00     0.011 C 
ENDBRANCH  10  16
ENDBRANCH   8   9
ENDBRANCH   7   8
BRANCH   7  18
ATOM     18  C   UNL A   1      29.916  28.576  23.623  1.00  0.00    -0.035 A 
ATOM     19  C   UNL A   1      28.747  27.912  23.236  1.00  0.00     0.004 A 
ATOM     20  C   UNL A   1      29.872  29.982  23.742  1.00  0.00     0.008 A 
ATOM     21  C   UNL A   1      27.602  28.644  22.900  1.00  0.00     0.001 A 
ATOM     22  C   UNL A   1      28.766  30.724  23.323  1.00  0.00    -0.051 A 
ATOM     23  C   UNL A   1      27.622  30.042  22.912  1.00  0.00     0.003 A 
ATOM     24  C   UNL A   1      28.845  32.222  23.256  1.00  0.00     0.044 C 
ENDBRANCH   7  18
ENDBRANCH   4   7
ENDBRANCH   2   3
ENDBRANCH   1   2
BRANCH   1  25
ATOM     25  C   UNL A   1      33.369  30.378  27.546  1.00  0.00     0.118 C 
BRANCH  25  26
ATOM     26  N   UNL A   1      33.595  31.812  27.622  1.00  0.00    -0.352 N 
ATOM     27  C   UNL A   1      34.726  32.496  28.020  1.00  0.00     0.251 C 
ATOM     28  H   UNL A   1      32.834  32.376  27.351  1.00  0.00     0.163 HD
ATOM     29  O   UNL A   1      34.659  33.719  28.169  1.00  0.00    -0.269 OA
BRANCH  27  30
ATOM     30  C   UNL A   1      36.011  31.791  28.262  1.00  0.00     0.039 A 
ATOM     31  C   UNL A   1      36.187  30.464  27.846  1.00  0.00     0.014 A 
ATOM     32  C   UNL A   1      37.041  32.422  28.956  1.00  0.00     0.014 A 
ATOM     33  C   UNL A   1      37.380  29.804  28.147  1.00  0.00     0.010 A 
ATOM     34  C   UNL A   1      38.271  31.841  29.097  1.00  0.00     0.010 A 
ATOM     35  C   UNL A   1      38.407  30.502  28.797  1.00  0.00    -0.014 A 
BRANCH  35  36
ATOM     36  C   UNL A   1      39.681  29.891  29.129  1.00  0.00     0.031 A 
ATOM     37  C   UNL A   1      39.927  29.780  30.582  1.00  0.00     0.074 A 
ATOM     38  C   UNL A   1      40.454  29.257  28.219  1.00  0.00     0.049 A 
ATOM     39  N   UNL A   1      40.717  30.509  31.294  1.00  0.00    -0.248 NA
ATOM     40  C   UNL A   1      39.061  28.887  31.366  1.00  0.00     0.031 C 
ATOM     41  C   UNL A   1      40.158  28.988  26.804  1.00  0.00     0.029 A 
ATOM     42  N   UNL A   1      41.631  28.603  28.403  1.00  0.00    -0.354 N 
ATOM     43  C   UNL A   1      40.645  29.985  32.577  1.00  0.00     0.074 A 
ATOM     44  C   UNL A   1      39.454  29.173  32.609  1.00  0.00     0.031 C 
ATOM     45  C   UNL A   1      41.004  28.044  26.334  1.00  0.00     0.029 A 
ATOM     46  C   UNL A   1      42.007  27.779  27.347  1.00  0.00     0.049 A 
ATOM     47  H   UNL A   1      42.174  28.704  29.218  1.00  0.00     0.167 HD
ATOM     48  C   UNL A   1      41.724  30.015  33.407  1.00  0.00     0.031 A 
ATOM     49  C   UNL A   1      43.061  26.925  27.317  1.00  0.00     0.031 A 
ATOM     50  C   UNL A   1      42.764  30.868  32.882  1.00  0.00     0.049 A 
ATOM     51  C   UNL A   1      44.013  27.384  28.357  1.00  0.00     0.074 A 
ATOM     52  C   UNL A   1      42.858  32.204  32.548  1.00  0.00     0.029 A 
ATOM     53  N   UNL A   1      43.797  30.232  32.230  1.00  0.00    -0.354 N 
ATOM     54  N   UNL A   1      44.634  28.531  28.302  1.00  0.00    -0.248 NA
ATOM     55  C   UNL A   1      43.939  26.782  29.677  1.00  0.00     0.031 C 
ATOM     56  C   UNL A   1      43.672  32.238  31.377  1.00  0.00     0.029 A 
ATOM     57  C   UNL A   1      44.099  30.937  31.095  1.00  0.00     0.049 A 
ATOM     58  H   UNL A   1      44.244  29.407  32.530  1.00  0.00     0.167 HD
ATOM     59  C   UNL A   1      44.630  28.998  29.608  1.00  0.00     0.074 A 
ATOM     60  C   UNL A   1      44.306  27.829  30.423  1.00  0.00     0.031 C 
ATOM     61  C   UNL A   1      44.612  30.339  29.876  1.00  0.00     0.031 A 
BRANCH  48  62
ATOM     62  C   UNL A   1      42.025  28.946  34.432  1.00  0.00    -0.014 A 
ATOM     63  C   UNL A   1      42.453  29.347  35.713  1.00  0.00     0.010 A 
ATOM     64  C   UNL A   1      42.170  27.581  34.109  1.00  0.00     0.010 A 
ATOM     65  C   UNL A   1      43.067  28.444  36.591  1.00  0.00     0.020 A 
ATOM     66  C   UNL A   1      42.738  26.663  34.993  1.00  0.00     0.020 A 
ATOM     67  C   UNL A   1      43.217  27.109  36.215  1.00  0.00     0.054 A 
BRANCH  67  68
ATOM     68  S   UNL A   1      44.104  25.974  37.309  1.00  0.00     0.124 S 
ATOM     69  O   UNL A   1      43.556  26.327  38.614  1.00  0.00    -0.237 OA
ATOM     70  O   UNL A   1      43.711  24.670  36.784  1.00  0.00    -0.237 OA
ATOM     71  O   UNL A   1      45.507  26.327  37.100  1.00  0.00    -0.744 OA
ENDBRANCH  67  68
ENDBRANCH  48  62
BRANCH  49  72
ATOM     72  C   UNL A   1      43.158  25.601  26.655  1.00  0.00    -0.014 A 
ATOM     73  C   UNL A   1      43.678  25.469  25.353  1.00  0.00     0.010 A 
ATOM     74  C   UNL A   1      43.001  24.425  27.417  1.00  0.00     0.010 A 
ATOM     75  C   UNL A   1      44.081  24.216  24.857  1.00  0.00     0.020 A 
ATOM     76  C   UNL A   1      43.396  23.173  26.928  1.00  0.00     0.020 A 
ATOM     77  C   UNL A   1      43.956  23.076  25.657  1.00  0.00     0.054 A 
BRANCH  77  78
ATOM     78  S   UNL A   1      44.636  21.492  25.077  1.00  0.00     0.124 S 
ATOM     79  O   UNL A   1      44.573  21.639  23.626  1.00  0.00    -0.237 OA
ATOM     80  O   UNL A   1      45.977  21.490  25.654  1.00  0.00    -0.237 OA
ATOM     81  O   UNL A   1      43.722  20.498  25.639  1.00  0.00    -0.744 OA
ENDBRANCH  77  78
ENDBRANCH  49  72
BRANCH  61  82
ATOM     82  C   UNL A   1      44.958  31.296  28.753  1.00  0.00    -0.014 A 
ATOM     83  C   UNL A   1      44.048  31.735  27.773  1.00  0.00     0.010 A 
ATOM     84  C   UNL A   1      46.237  31.879  28.785  1.00  0.00     0.010 A 
ATOM     85  C   UNL A   1      44.420  32.711  26.833  1.00  0.00     0.020 A 
ATOM     86  C   UNL A   1      46.608  32.864  27.867  1.00  0.00     0.020 A 
ATOM     87  C   UNL A   1      45.701  33.269  26.887  1.00  0.00     0.054 A 
BRANCH  87  88
ATOM     88  S   UNL A   1      46.173  34.557  25.698  1.00  0.00     0.124 S 
ATOM     89  O   UNL A   1      47.589  34.284  25.476  1.00  0.00    -0.237 OA
ATOM     90  O   UNL A   1      45.294  34.288  24.561  1.00  0.00    -0.237 OA
ATOM     91  O   UNL A   1      45.888  35.806  26.404  1.00  0.00    -0.744 OA
ENDBRANCH  87  88
ENDBRANCH  61  82
ENDBRANCH  35  36
ENDBRANCH  27  30
ENDBRANCH  25  26
ENDBRANCH   1  25
TORSDOF 17
ENDMDL
MODEL 2
REMARK VINA RESULT:     -12.3      1.472      3.621
REMARK SMILES CCc1nn(C)c(C[C@@H](C(=O)NCCCNC(=O)c2ccc(-c3c4nc(c(-c5ccc(S(=O)(=O)[O-])cc5)c5ccc([nH]5)c(-c5ccc(S(=O)(=O)[O-])cc5)c5nc(c(-c6ccc(S(=O)(=O)[O-])cc6)c6ccc3[nH]6)C=C5)C=C4)cc2)c2cccc(C)c2)c1Br
REMARK SMILES IDX 14 1 13 2 12 3 10 4 11 5 9 7 8 8 7 9 3 10 4 11 86 12 5 13
REMARK SMILES IDX 87 14 6 15 2 16 1 17 79 18 80 19 85 20 81 21 83 22 82 23
REMARK SMILES IDX 84 24 15 25 16 26 17 27 18 29 19 30 20 31 78 32 21 33 77 34
REMARK SMILES IDX 22 35 23 36 24 37 71 38 25 39 76 40 70 41 72 42 26 43 75 44
REMARK SMILES IDX 69 45 68 46 27 48 57 49 38 50 56 51 39 52 42 53 55 54 73 55
REMARK SMILES IDX 40 56 41 57 54 59 74 60 43 61 28 62 29 63 37 64 30 65 36 66
REMARK SMILES IDX 31 67 32 68 33 69 34 70 35 71 58 72 59 73 67 74 60 75 66 76
REMARK SMILES IDX 61 77 62 78 63 79 64 80 65 81 44 82 45 83 53 84 46 85 52 86
REMARK SMILES IDX 47 87 48 88 49 89 50 90 51 91
REMARK H PARENT 12 6 16 28 72 47 42 58
REMARK Flexibility Score: inf
ROOT
ATOM      1  C   UNL A   1      32.388  28.544  27.588  1.00  0.00     0.042 C 
ENDROOT
BRANCH   1   2
ATOM      2  C   UNL A   1      31.717  27.698  26.494  1.00  0.00     0.117 C 
BRANCH   2   3
ATOM      3  N   UNL A   1      31.267  26.380  26.930  1.00  0.00    -0.355 N 
ATOM      4  C   UNL A   1      31.487  25.114  26.470  1.00  0.00     0.227 C 
ATOM      5  O   UNL A   1      30.931  24.214  27.105  1.00  0.00    -0.274 OA
ATOM      6  H   UNL A   1      30.682  26.411  27.722  1.00  0.00     0.163 HD
BRANCH   4   7
ATOM      7  C   UNL A   1      32.346  24.835  25.233  1.00  0.00     0.114 C 
BRANCH   7   8
ATOM      8  C   UNL A   1      31.547  24.871  23.909  1.00  0.00     0.075 C 
BRANCH   8   9
ATOM      9  C   UNL A   1      31.230  26.192  23.315  1.00  0.00     0.054 A 
ATOM     10  C   UNL A   1      30.381  28.157  22.698  1.00  0.00     0.077 A 
ATOM     11  N   UNL A   1      31.675  28.197  22.346  1.00  0.00    -0.177 NA
ATOM     12  C   UNL A   1      30.075  26.938  23.332  1.00  0.00     0.062 A 
ATOM     13  N   UNL A   1      32.162  26.988  22.690  1.00  0.00    -0.271 N 
ATOM     14  Br  UNL A   1      28.412  26.437  24.034  1.00  0.00    -0.047 Br
ATOM     15  C   UNL A   1      33.501  26.637  22.262  1.00  0.00     0.174 C 
BRANCH  10  16
ATOM     16  C   UNL A   1      29.488  29.300  22.348  1.00  0.00     0.056 C 
ATOM     17  C   UNL A   1      29.400  30.328  23.470  1.00  0.00     0.011 C 
ENDBRANCH  10  16
ENDBRANCH   8   9
ENDBRANCH   7   8
BRANCH   7  18
ATOM     18  C   UNL A   1      32.998  23.435  25.278  1.00  0.00    -0.035 A 
ATOM     19  C   UNL A   1      34.285  23.243  25.792  1.00  0.00     0.004 A 
ATOM     20  C   UNL A   1      32.366  22.343  24.646  1.00  0.00     0.008 A 
ATOM     21  C   UNL A   1      34.942  22.021  25.602  1.00  0.00     0.001 A 
ATOM     22  C   UNL A   1      33.046  21.153  24.373  1.00  0.00    -0.051 A 
ATOM     23  C   UNL A   1      34.339  20.995  24.868  1.00  0.00     0.003 A 
ATOM     24  C   UNL A   1      32.412  20.106  23.504  1.00  0.00     0.044 C 
ENDBRANCH   7  18
ENDBRANCH   4   7
ENDBRANCH   2   3
ENDBRANCH   1   2
BRANCH   1  25
ATOM     25  C   UNL A   1      33.716  29.166  27.206  1.00  0.00     0.118 C 
BRANCH  25  26
ATOM     26  N   UNL A   1      33.729  30.619  27.187  1.00  0.00    -0.352 N 
ATOM     27  C   UNL A   1      34.714  31.487  27.614  1.00  0.00     0.251 C 
ATOM     28  H   UNL A   1      32.922  31.045  26.817  1.00  0.00     0.163 HD
ATOM     29  O   UNL A   1      34.462  32.694  27.663  1.00  0.00    -0.269 OA
BRANCH  27  30
ATOM     30  C   UNL A   1      36.060  30.996  28.006  1.00  0.00     0.039 A 
ATOM     31  C   UNL A   1      36.911  31.790  28.785  1.00  0.00     0.014 A 
ATOM     32  C   UNL A   1      36.516  29.758  27.556  1.00  0.00     0.014 A 
ATOM     33  C   UNL A   1      38.196  31.331  29.082  1.00  0.00     0.010 A 
ATOM     34  C   UNL A   1      37.700  29.231  27.990  1.00  0.00     0.010 A 
ATOM     35  C   UNL A   1      38.585  30.054  28.654  1.00  0.00    -0.014 A 
BRANCH  35  36
ATOM     36  C   UNL A   1      39.897  29.499  28.936  1.00  0.00     0.031 A 
ATOM     37  C   UNL A   1      40.177  29.338  30.378  1.00  0.00     0.074 A 
ATOM     38  C   UNL A   1      40.685  28.949  27.986  1.00  0.00     0.049 A 
ATOM     39  N   UNL A   1      40.940  30.076  31.109  1.00  0.00    -0.248 NA
ATOM     40  C   UNL A   1      39.375  28.364  31.135  1.00  0.00     0.031 C 
ATOM     41  C   UNL A   1      40.377  28.728  26.565  1.00  0.00     0.029 A 
ATOM     42  N   UNL A   1      41.899  28.353  28.120  1.00  0.00    -0.354 N 
ATOM     43  C   UNL A   1      40.921  29.492  32.368  1.00  0.00     0.074 A 
ATOM     44  C   UNL A   1      39.776  28.616  32.383  1.00  0.00     0.031 C 
ATOM     45  C   UNL A   1      41.263  27.853  26.038  1.00  0.00     0.029 A 
ATOM     46  C   UNL A   1      42.298  27.599  27.021  1.00  0.00     0.049 A 
ATOM     47  H   UNL A   1      42.451  28.448  28.929  1.00  0.00     0.167 HD
ATOM     48  C   UNL A   1      42.012  29.544  33.181  1.00  0.00     0.031 A 
ATOM     49  C   UNL A   1      43.396  26.806  26.934  1.00  0.00     0.031 A 
ATOM     50  C   UNL A   1      42.995  30.475  32.677  1.00  0.00     0.049 A 
ATOM     51  C   UNL A   1      44.341  27.270  27.978  1.00  0.00     0.074 A 
ATOM     52  C   UNL A   1      43.010  31.828  32.403  1.00  0.00     0.029 A 
ATOM     53  N   UNL A   1      44.048  29.926  31.979  1.00  0.00    -0.354 N 
ATOM     54  N   UNL A   1      44.899  28.449  27.965  1.00  0.00    -0.248 NA
ATOM     55  C   UNL A   1      44.326  26.606  29.270  1.00  0.00     0.031 C 
ATOM     56  C   UNL A   1      43.798  31.958  31.221  1.00  0.00     0.029 A 
ATOM     57  C   UNL A   1      44.289  30.696  30.872  1.00  0.00     0.049 A 
ATOM     58  H   UNL A   1      44.544  29.114  32.234  1.00  0.00     0.167 HD
ATOM     59  C   UNL A   1      44.895  28.858  29.291  1.00  0.00     0.074 A 
ATOM     60  C   UNL A   1      44.650  27.638  30.057  1.00  0.00     0.031 C 
ATOM     61  C   UNL A   1      44.810  30.182  29.619  1.00  0.00     0.031 A 
BRANCH  48  62
ATOM     62  C   UNL A   1      42.390  28.449  34.150  1.00  0.00    -0.014 A 
ATOM     63  C   UNL A   1      42.022  28.593  35.503  1.00  0.00     0.010 A 
ATOM     64  C   UNL A   1      43.319  27.431  33.848  1.00  0.00     0.010 A 
ATOM     65  C   UNL A   1      42.613  27.814  36.505  1.00  0.00     0.020 A 
ATOM     66  C   UNL A   1      43.880  26.619  34.834  1.00  0.00     0.020 A 
ATOM     67  C   UNL A   1      43.551  26.841  36.162  1.00  0.00     0.054 A 
BRANCH  67  68
ATOM     68  S   UNL A   1      44.387  25.914  37.469  1.00  0.00     0.124 S 
ATOM     69  O   UNL A   1      43.724  26.421  38.666  1.00  0.00    -0.237 OA
ATOM     70  O   UNL A   1      44.082  24.531  37.110  1.00  0.00    -0.237 OA
ATOM     71  O   UNL A   1      45.789  26.297  37.317  1.00  0.00    -0.744 OA
ENDBRANCH  67  68
ENDBRANCH  48  62
BRANCH  49  72
ATOM     72  C   UNL A   1      43.551  25.520  26.211  1.00  0.00    -0.014 A 
ATOM     73  C   UNL A   1      44.675  25.265  25.402  1.00  0.00     0.010 A 
ATOM     74  C   UNL A   1      42.726  24.426  26.546  1.00  0.00     0.010 A 
ATOM     75  C   UNL A   1      44.993  23.956  24.994  1.00  0.00     0.020 A 
ATOM     76  C   UNL A   1      43.034  23.121  26.139  1.00  0.00     0.020 A 
ATOM     77  C   UNL A   1      44.180  22.888  25.384  1.00  0.00     0.054 A 
BRANCH  77  78
ATOM     78  S   UNL A   1      44.690  21.184  24.999  1.00  0.00     0.124 S 
ATOM     79  O   UNL A   1      43.709  20.392  25.735  1.00  0.00    -0.237 OA
ATOM     80  O   UNL A   1      44.576  21.139  23.544  1.00  0.00    -0.237 OA
ATOM     81  O   UNL A   1      46.057  21.110  25.512  1.00  0.00    -0.744 OA
ENDBRANCH  77  78
ENDBRANCH  49  72
BRANCH  61  82
ATOM     82  C   UNL A   1      45.083  31.205  28.536  1.00  0.00    -0.014 A 
ATOM     83  C   UNL A   1      44.139  31.618  27.576  1.00  0.00     0.010 A 
ATOM     84  C   UNL A   1      46.318  31.875  28.588  1.00  0.00     0.010 A 
ATOM     85  C   UNL A   1      44.436  32.655  26.675  1.00  0.00     0.020 A 
ATOM     86  C   UNL A   1      46.613  32.920  27.710  1.00  0.00     0.020 A 
ATOM     87  C   UNL A   1      45.676  33.300  26.750  1.00  0.00     0.054 A 
BRANCH  87  88
ATOM     88  S   UNL A   1      46.049  34.665  25.612  1.00  0.00     0.124 S 
ATOM     89  O   UNL A   1      45.178  34.380  24.476  1.00  0.00    -0.237 OA
ATOM     90  O   UNL A   1      45.696  35.848  26.395  1.00  0.00    -0.237 OA
ATOM     91  O   UNL A   1      47.480  34.516  25.346  1.00  0.00    -0.744 OA
ENDBRANCH  87  88
ENDBRANCH  61  82
ENDBRANCH  35  36
ENDBRANCH  27  30
ENDBRANCH  25  26
ENDBRANCH   1  25
TORSDOF 17
ENDMDL
MODEL 3
REMARK VINA RESULT:     -12.2      2.947      9.232
REMARK SMILES CCc1nn(C)c(C[C@@H](C(=O)NCCCNC(=O)c2ccc(-c3c4nc(c(-c5ccc(S(=O)(=O)[O-])cc5)c5ccc([nH]5)c(-c5ccc(S(=O)(=O)[O-])cc5)c5nc(c(-c6ccc(S(=O)(=O)[O-])cc6)c6ccc3[nH]6)C=C5)C=C4)cc2)c2cccc(C)c2)c1Br
REMARK SMILES IDX 14 1 13 2 12 3 10 4 11 5 9 7 8 8 7 9 3 10 4 11 86 12 5 13
REMARK SMILES IDX 87 14 6 15 2 16 1 17 79 18 80 19 85 20 81 21 83 22 82 23
REMARK SMILES IDX 84 24 15 25 16 26 17 27 18 29 19 30 20 31 78 32 21 33 77 34
REMARK SMILES IDX 22 35 23 36 24 37 71 38 25 39 76 40 70 41 72 42 26 43 75 44
REMARK SMILES IDX 69 45 68 46 27 48 57 49 38 50 56 51 39 52 42 53 55 54 73 55
REMARK SMILES IDX 40 56 41 57 54 59 74 60 43 61 28 62 29 63 37 64 30 65 36 66
REMARK SMILES IDX 31 67 32 68 33 69 34 70 35 71 58 72 59 73 67 74 60 75 66 76
REMARK SMILES IDX 61 77 62 78 63 79 64 80 65 81 44 82 45 83 53 84 46 85 52 86
REMARK SMILES IDX 47 87 48 88 49 89 50 90 51 91
REMARK H PARENT 12 6 16 28 72 47 42 58
REMARK Flexibility Score: inf
ROOT
ATOM      1  C   UNL A   1      37.441  23.025  24.660  1.00  0.00     0.042 C 
ENDROOT
BRANCH   1   2
ATOM      2  C   UNL A   1      35.992  22.692  24.269  1.00  0.00     0.117 C 
BRANCH   2   3
ATOM      3  N   UNL A   1      35.306  23.740  23.519  1.00  0.00    -0.355 N 
ATOM      4  C   UNL A   1      34.265  24.573  23.812  1.00  0.00     0.227 C 
ATOM      5  O   UNL A   1      33.943  25.355  22.914  1.00  0.00    -0.274 OA
ATOM      6  H   UNL A   1      35.669  23.873  22.614  1.00  0.00     0.163 HD
BRANCH   4   7
ATOM      7  C   UNL A   1      33.532  24.521  25.156  1.00  0.00     0.114 C 
BRANCH   7   8
ATOM      8  C   UNL A   1      32.338  23.539  25.167  1.00  0.00     0.075 C 
BRANCH   8   9
ATOM      9  C   UNL A   1      32.610  22.104  25.427  1.00  0.00     0.054 A 
ATOM     10  C   UNL A   1      33.040  19.919  25.355  1.00  0.00     0.077 A 
ATOM     11  N   UNL A   1      33.358  20.308  26.599  1.00  0.00    -0.177 NA
ATOM     12  C   UNL A   1      32.601  21.015  24.587  1.00  0.00     0.062 A 
ATOM     13  N   UNL A   1      33.055  21.622  26.636  1.00  0.00    -0.271 N 
ATOM     14  Br  UNL A   1      32.087  20.975  22.786  1.00  0.00    -0.047 Br
ATOM     15  C   UNL A   1      33.102  22.304  27.913  1.00  0.00     0.174 C 
BRANCH  10  16
ATOM     16  C   UNL A   1      33.133  18.476  24.990  1.00  0.00     0.056 C 
ATOM     17  C   UNL A   1      34.450  18.137  24.302  1.00  0.00     0.011 C 
ENDBRANCH  10  16
ENDBRANCH   8   9
ENDBRANCH   7   8
BRANCH   7  18
ATOM     18  C   UNL A   1      32.937  25.891  25.552  1.00  0.00    -0.035 A 
ATOM     19  C   UNL A   1      31.633  26.253  25.198  1.00  0.00     0.004 A 
ATOM     20  C   UNL A   1      33.763  26.873  26.140  1.00  0.00     0.008 A 
ATOM     21  C   UNL A   1      31.205  27.577  25.355  1.00  0.00     0.001 A 
ATOM     22  C   UNL A   1      33.376  28.213  26.217  1.00  0.00    -0.051 A 
ATOM     23  C   UNL A   1      32.082  28.557  25.830  1.00  0.00     0.003 A 
ATOM     24  C   UNL A   1      34.365  29.259  26.641  1.00  0.00     0.044 C 
ENDBRANCH   7  18
ENDBRANCH   4   7
ENDBRANCH   2   3
ENDBRANCH   1   2
BRANCH   1  25
ATOM     25  C   UNL A   1      37.914  22.426  25.969  1.00  0.00     0.118 C 
BRANCH  25  26
ATOM     26  N   UNL A   1      39.245  21.842  25.930  1.00  0.00    -0.352 N 
ATOM     27  C   UNL A   1      40.455  22.410  26.276  1.00  0.00     0.251 C 
ATOM     28  H   UNL A   1      39.291  20.912  25.613  1.00  0.00     0.163 HD
ATOM     29  O   UNL A   1      41.495  21.799  26.014  1.00  0.00    -0.269 OA
BRANCH  27  30
ATOM     30  C   UNL A   1      40.524  23.728  26.957  1.00  0.00     0.039 A 
ATOM     31  C   UNL A   1      39.628  24.753  26.624  1.00  0.00     0.014 A 
ATOM     32  C   UNL A   1      41.517  23.982  27.902  1.00  0.00     0.014 A 
ATOM     33  C   UNL A   1      39.759  26.003  27.231  1.00  0.00     0.010 A 
ATOM     34  C   UNL A   1      41.537  25.142  28.625  1.00  0.00     0.010 A 
ATOM     35  C   UNL A   1      40.738  26.189  28.217  1.00  0.00    -0.014 A 
BRANCH  35  36
ATOM     36  C   UNL A   1      40.926  27.453  28.906  1.00  0.00     0.031 A 
ATOM     37  C   UNL A   1      41.985  28.300  28.319  1.00  0.00     0.074 A 
ATOM     38  C   UNL A   1      40.058  27.925  29.829  1.00  0.00     0.049 A 
ATOM     39  N   UNL A   1      43.169  28.499  28.789  1.00  0.00    -0.248 NA
ATOM     40  C   UNL A   1      41.775  28.834  26.965  1.00  0.00     0.031 C 
ATOM     41  C   UNL A   1      38.774  27.344  30.251  1.00  0.00     0.029 A 
ATOM     42  N   UNL A   1      40.085  29.103  30.505  1.00  0.00    -0.354 N 
ATOM     43  C   UNL A   1      43.762  29.404  27.919  1.00  0.00     0.074 A 
ATOM     44  C   UNL A   1      42.968  29.378  26.716  1.00  0.00     0.031 C 
ATOM     45  C   UNL A   1      38.053  28.273  30.920  1.00  0.00     0.029 A 
ATOM     46  C   UNL A   1      38.888  29.439  31.131  1.00  0.00     0.049 A 
ATOM     47  H   UNL A   1      40.886  29.674  30.548  1.00  0.00     0.167 HD
ATOM     48  C   UNL A   1      44.667  30.316  28.368  1.00  0.00     0.031 A 
ATOM     49  C   UNL A   1      38.600  30.605  31.764  1.00  0.00     0.031 A 
ATOM     50  C   UNL A   1      45.086  30.016  29.717  1.00  0.00     0.049 A 
ATOM     51  C   UNL A   1      39.897  31.229  32.119  1.00  0.00     0.074 A 
ATOM     52  C   UNL A   1      45.705  28.949  30.335  1.00  0.00     0.029 A 
ATOM     53  N   UNL A   1      44.474  30.740  30.716  1.00  0.00    -0.354 N 
ATOM     54  N   UNL A   1      40.737  30.701  32.966  1.00  0.00    -0.248 NA
ATOM     55  C   UNL A   1      40.467  32.206  31.207  1.00  0.00     0.031 C 
ATOM     56  C   UNL A   1      45.077  28.843  31.611  1.00  0.00     0.029 A 
ATOM     57  C   UNL A   1      44.162  29.890  31.745  1.00  0.00     0.049 A 
ATOM     58  H   UNL A   1      44.290  31.708  30.694  1.00  0.00     0.167 HD
ATOM     59  C   UNL A   1      41.989  30.931  32.413  1.00  0.00     0.074 A 
ATOM     60  C   UNL A   1      41.768  31.965  31.405  1.00  0.00     0.031 C 
ATOM     61  C   UNL A   1      43.024  30.063  32.628  1.00  0.00     0.031 A 
BRANCH  48  62
ATOM     62  C   UNL A   1      44.824  31.701  27.784  1.00  0.00    -0.014 A 
ATOM     63  C   UNL A   1      46.098  32.097  27.329  1.00  0.00     0.010 A 
ATOM     64  C   UNL A   1      43.852  32.714  27.916  1.00  0.00     0.010 A 
ATOM     65  C   UNL A   1      46.402  33.444  27.098  1.00  0.00     0.020 A 
ATOM     66  C   UNL A   1      44.130  34.053  27.644  1.00  0.00     0.020 A 
ATOM     67  C   UNL A   1      45.415  34.415  27.272  1.00  0.00     0.054 A 
BRANCH  67  68
ATOM     68  S   UNL A   1      45.843  36.160  27.074  1.00  0.00     0.124 S 
ATOM     69  O   UNL A   1      46.652  36.406  28.262  1.00  0.00    -0.237 OA
ATOM     70  O   UNL A   1      46.563  36.159  25.803  1.00  0.00    -0.237 OA
ATOM     71  O   UNL A   1      44.544  36.830  27.048  1.00  0.00    -0.744 OA
ENDBRANCH  67  68
ENDBRANCH  48  62
BRANCH  49  72
ATOM     72  C   UNL A   1      37.306  31.328  31.821  1.00  0.00    -0.014 A 
ATOM     73  C   UNL A   1      36.705  31.657  33.051  1.00  0.00     0.010 A 
ATOM     74  C   UNL A   1      36.802  31.951  30.661  1.00  0.00     0.010 A 
ATOM     75  C   UNL A   1      35.678  32.616  33.122  1.00  0.00     0.020 A 
ATOM     76  C   UNL A   1      35.776  32.903  30.723  1.00  0.00     0.020 A 
ATOM     77  C   UNL A   1      35.233  33.250  31.958  1.00  0.00     0.054 A 
BRANCH  77  78
ATOM     78  S   UNL A   1      34.029  34.608  32.078  1.00  0.00     0.124 S 
ATOM     79  O   UNL A   1      33.050  34.074  33.019  1.00  0.00    -0.237 OA
ATOM     80  O   UNL A   1      34.845  35.714  32.573  1.00  0.00    -0.237 OA
ATOM     81  O   UNL A   1      33.549  34.764  30.705  1.00  0.00    -0.744 OA
ENDBRANCH  77  78
ENDBRANCH  49  72
BRANCH  61  82
ATOM     82  C   UNL A   1      42.891  29.060  33.755  1.00  0.00    -0.014 A 
ATOM     83  C   UNL A   1      43.448  29.225  35.038  1.00  0.00     0.010 A 
ATOM     84  C   UNL A   1      42.042  27.961  33.534  1.00  0.00     0.010 A 
ATOM     85  C   UNL A   1      43.183  28.300  36.061  1.00  0.00     0.020 A 
ATOM     86  C   UNL A   1      41.757  27.048  34.552  1.00  0.00     0.020 A 
ATOM     87  C   UNL A   1      42.337  27.214  35.809  1.00  0.00     0.054 A 
BRANCH  87  88
ATOM     88  S   UNL A   1      41.963  26.037  37.140  1.00  0.00     0.124 S 
ATOM     89  O   UNL A   1      42.192  24.747  36.497  1.00  0.00    -0.237 OA
ATOM     90  O   UNL A   1      42.925  26.403  38.178  1.00  0.00    -0.237 OA
ATOM     91  O   UNL A   1      40.568  26.321  37.475  1.00  0.00    -0.744 OA
ENDBRANCH  87  88
ENDBRANCH  61  82
ENDBRANCH  35  36
ENDBRANCH  27  30
ENDBRANCH  25  26
ENDBRANCH   1  25
TORSDOF 17
ENDMDL
