MODEL 1
REMARK VINA RESULT:      -8.4      0.000      0.000
REMARK SMILES COC(=O)c1ccc([C@H]([NH3+])CC(=O)NCCCNC(=O)c2ccc(-c3c4nc(c(-c5ccc(S(=O)(=O)[O-])cc5)c5ccc([nH]5)c(-c5ccc(S(=O)(=O)[O-])cc5)c5nc(c(-c6ccc(S(=O)(=O)[O-])cc6)c6ccc3[nH]6)C=C5)C=C4)cc2)cc1
REMARK SMILES IDX 15 1 14 2 12 3 13 4 11 6 9 7 8 8 5 9 6 10 82 11 7 12 81 13
REMARK SMILES IDX 3 14 4 15 2 16 1 17 10 18 16 22 17 23 18 24 19 25 20 27
REMARK SMILES IDX 21 28 22 29 80 30 23 31 79 32 24 33 25 34 26 35 73 36 27 37
REMARK SMILES IDX 78 38 72 39 74 40 28 41 77 42 71 43 70 44 29 46 59 47 40 48
REMARK SMILES IDX 58 49 41 50 44 51 57 52 75 53 42 54 43 55 56 57 76 58 45 59
REMARK SMILES IDX 30 60 31 61 39 62 32 63 38 64 33 65 34 66 35 67 36 68 37 69
REMARK SMILES IDX 60 70 61 71 69 72 62 73 68 74 63 75 64 76 65 77 66 78 67 79
REMARK SMILES IDX 46 80 47 81 55 82 48 83 54 84 49 85 50 86 51 87 52 88 53 89
REMARK H PARENT 14 5 10 19 10 20 10 21 18 26 74 45 44 56
REMARK Flexibility Score: inf
ROOT
ATOM      1  C   UNL A   1      34.869  33.275  30.528  1.00  0.00     0.117 C 
ENDROOT
BRANCH   1   2
ATOM      2  N   UNL A   1      35.060  34.336  31.503  1.00  0.00    -0.356 N 
ATOM      3  C   UNL A   1      36.061  34.496  32.418  1.00  0.00     0.226 C 
ATOM      4  O   UNL A   1      35.972  35.415  33.235  1.00  0.00    -0.275 OA
ATOM      5  H   UNL A   1      34.369  35.037  31.505  1.00  0.00     0.163 HD
BRANCH   3   6
ATOM      6  C   UNL A   1      37.280  33.599  32.380  1.00  0.00     0.170 C 
BRANCH   6   7
ATOM      7  C   UNL A   1      37.821  33.226  33.771  1.00  0.00     0.221 C 
BRANCH   7   8
ATOM      8  C   UNL A   1      38.625  31.926  33.715  1.00  0.00     0.010 A 
ATOM      9  C   UNL A   1      40.180  29.565  33.653  1.00  0.00     0.060 A 
ATOM     10  C   UNL A   1      40.719  30.751  34.158  1.00  0.00     0.016 A 
ATOM     11  C   UNL A   1      38.863  29.549  33.189  1.00  0.00     0.016 A 
ATOM     12  C   UNL A   1      39.948  31.917  34.190  1.00  0.00     0.011 A 
ATOM     13  C   UNL A   1      38.098  30.717  33.219  1.00  0.00     0.011 A 
BRANCH   9  14
ATOM     14  C   UNL A   1      41.018  28.343  33.648  1.00  0.00     0.337 C 
ATOM     15  O   UNL A   1      40.602  27.233  33.951  1.00  0.00    -0.246 OA
BRANCH  14  16
ATOM     16  O   UNL A   1      42.290  28.657  33.304  1.00  0.00    -0.465 OA
ATOM     17  C   UNL A   1      43.237  27.610  33.513  1.00  0.00     0.282 C 
ENDBRANCH  14  16
ENDBRANCH   9  14
ENDBRANCH   7   8
BRANCH   7  18
ATOM     18  N   UNL A   1      36.748  33.153  34.761  1.00  0.00    -0.351 N 
ATOM     19  H   UNL A   1      35.892  33.539  34.364  1.00  0.00     0.345 HD
ATOM     20  H   UNL A   1      37.012  33.689  35.588  1.00  0.00     0.345 HD
ATOM     21  H   UNL A   1      36.593  32.179  35.022  1.00  0.00     0.345 HD
ENDBRANCH   7  18
ENDBRANCH   6   7
ENDBRANCH   3   6
ENDBRANCH   1   2
BRANCH   1  22
ATOM     22  C   UNL A   1      34.320  33.803  29.206  1.00  0.00     0.042 C 
BRANCH  22  23
ATOM     23  C   UNL A   1      34.742  32.995  27.994  1.00  0.00     0.118 C 
BRANCH  23  24
ATOM     24  N   UNL A   1      33.948  31.788  27.836  1.00  0.00    -0.352 N 
ATOM     25  C   UNL A   1      34.343  30.473  27.784  1.00  0.00     0.251 C 
ATOM     26  H   UNL A   1      32.978  31.935  27.751  1.00  0.00     0.163 HD
ATOM     27  O   UNL A   1      33.538  29.623  27.411  1.00  0.00    -0.269 OA
BRANCH  25  28
ATOM     28  C   UNL A   1      35.723  30.077  28.152  1.00  0.00     0.039 A 
ATOM     29  C   UNL A   1      36.717  30.116  27.171  1.00  0.00     0.014 A 
ATOM     30  C   UNL A   1      36.041  29.636  29.439  1.00  0.00     0.014 A 
ATOM     31  C   UNL A   1      38.032  29.765  27.494  1.00  0.00     0.010 A 
ATOM     32  C   UNL A   1      37.366  29.384  29.786  1.00  0.00     0.010 A 
ATOM     33  C   UNL A   1      38.375  29.427  28.814  1.00  0.00    -0.014 A 
BRANCH  33  34
ATOM     34  C   UNL A   1      39.776  29.100  29.189  1.00  0.00     0.031 A 
ATOM     35  C   UNL A   1      40.632  30.121  29.892  1.00  0.00     0.074 A 
ATOM     36  C   UNL A   1      40.296  27.902  28.851  1.00  0.00     0.049 A 
ATOM     37  N   UNL A   1      41.885  30.033  30.262  1.00  0.00    -0.248 NA
ATOM     38  C   UNL A   1      40.009  31.419  30.199  1.00  0.00     0.031 C 
ATOM     39  C   UNL A   1      39.584  26.841  28.135  1.00  0.00     0.029 A 
ATOM     40  N   UNL A   1      41.545  27.376  29.064  1.00  0.00    -0.354 N 
ATOM     41  C   UNL A   1      42.201  31.265  30.826  1.00  0.00     0.074 A 
ATOM     42  C   UNL A   1      41.028  32.100  30.699  1.00  0.00     0.031 C 
ATOM     43  C   UNL A   1      40.396  25.781  27.999  1.00  0.00     0.029 A 
ATOM     44  C   UNL A   1      41.699  26.100  28.572  1.00  0.00     0.049 A 
ATOM     45  H   UNL A   1      42.265  27.866  29.525  1.00  0.00     0.167 HD
ATOM     46  C   UNL A   1      43.355  31.659  31.415  1.00  0.00     0.031 A 
ATOM     47  C   UNL A   1      42.768  25.281  28.576  1.00  0.00     0.031 A 
ATOM     48  C   UNL A   1      44.518  30.822  31.545  1.00  0.00     0.049 A 
ATOM     49  C   UNL A   1      44.046  25.746  29.219  1.00  0.00     0.074 A 
ATOM     50  C   UNL A   1      45.718  31.108  32.173  1.00  0.00     0.029 A 
ATOM     51  N   UNL A   1      44.632  29.537  31.033  1.00  0.00    -0.354 N 
ATOM     52  N   UNL A   1      44.303  26.890  29.808  1.00  0.00    -0.248 NA
ATOM     53  C   UNL A   1      45.174  24.807  29.208  1.00  0.00     0.031 C 
ATOM     54  C   UNL A   1      46.578  30.021  31.987  1.00  0.00     0.029 A 
ATOM     55  C   UNL A   1      45.892  29.030  31.305  1.00  0.00     0.049 A 
ATOM     56  H   UNL A   1      43.922  29.058  30.548  1.00  0.00     0.167 HD
ATOM     57  C   UNL A   1      45.613  26.796  30.263  1.00  0.00     0.074 A 
ATOM     58  C   UNL A   1      46.089  25.478  29.895  1.00  0.00     0.031 C 
ATOM     59  C   UNL A   1      46.354  27.717  30.929  1.00  0.00     0.031 A 
BRANCH  46  60
ATOM     60  C   UNL A   1      43.419  33.066  31.955  1.00  0.00    -0.014 A 
ATOM     61  C   UNL A   1      43.149  33.343  33.307  1.00  0.00     0.010 A 
ATOM     62  C   UNL A   1      43.787  34.124  31.103  1.00  0.00     0.010 A 
ATOM     63  C   UNL A   1      43.199  34.654  33.787  1.00  0.00     0.020 A 
ATOM     64  C   UNL A   1      43.871  35.434  31.588  1.00  0.00     0.020 A 
ATOM     65  C   UNL A   1      43.558  35.692  32.923  1.00  0.00     0.054 A 
BRANCH  65  66
ATOM     66  S   UNL A   1      43.629  37.382  33.577  1.00  0.00     0.124 S 
ATOM     67  O   UNL A   1      43.737  38.175  32.355  1.00  0.00    -0.237 OA
ATOM     68  O   UNL A   1      42.360  37.501  34.293  1.00  0.00    -0.237 OA
ATOM     69  O   UNL A   1      44.819  37.378  34.423  1.00  0.00    -0.744 OA
ENDBRANCH  65  66
ENDBRANCH  46  60
BRANCH  47  70
ATOM     70  C   UNL A   1      42.667  23.928  27.961  1.00  0.00    -0.014 A 
ATOM     71  C   UNL A   1      42.146  22.846  28.692  1.00  0.00     0.010 A 
ATOM     72  C   UNL A   1      43.075  23.719  26.630  1.00  0.00     0.010 A 
ATOM     73  C   UNL A   1      42.048  21.578  28.109  1.00  0.00     0.020 A 
ATOM     74  C   UNL A   1      42.951  22.461  26.035  1.00  0.00     0.020 A 
ATOM     75  C   UNL A   1      42.446  21.396  26.782  1.00  0.00     0.054 A 
BRANCH  75  76
ATOM     76  S   UNL A   1      42.253  19.756  26.029  1.00  0.00     0.124 S 
ATOM     77  O   UNL A   1      40.863  19.787  25.585  1.00  0.00    -0.237 OA
ATOM     78  O   UNL A   1      43.259  19.776  24.970  1.00  0.00    -0.237 OA
ATOM     79  O   UNL A   1      42.540  18.839  27.131  1.00  0.00    -0.744 OA
ENDBRANCH  75  76
ENDBRANCH  47  70
BRANCH  59  80
ATOM     80  C   UNL A   1      47.749  27.322  31.339  1.00  0.00    -0.014 A 
ATOM     81  C   UNL A   1      48.000  26.688  32.569  1.00  0.00     0.010 A 
ATOM     82  C   UNL A   1      48.818  27.538  30.450  1.00  0.00     0.010 A 
ATOM     83  C   UNL A   1      49.300  26.309  32.916  1.00  0.00     0.020 A 
ATOM     84  C   UNL A   1      50.113  27.132  30.779  1.00  0.00     0.020 A 
ATOM     85  C   UNL A   1      50.348  26.532  32.018  1.00  0.00     0.054 A 
BRANCH  85  86
ATOM     86  S   UNL A   1      52.017  25.989  32.473  1.00  0.00     0.124 S 
ATOM     87  O   UNL A   1      52.007  24.590  32.056  1.00  0.00    -0.237 OA
ATOM     88  O   UNL A   1      52.868  26.875  31.683  1.00  0.00    -0.237 OA
ATOM     89  O   UNL A   1      52.072  26.208  33.917  1.00  0.00    -0.744 OA
ENDBRANCH  85  86
ENDBRANCH  59  80
ENDBRANCH  33  34
ENDBRANCH  25  28
ENDBRANCH  23  24
ENDBRANCH  22  23
ENDBRANCH   1  22
TORSDOF 18
ENDMDL
MODEL 2
REMARK VINA RESULT:      -8.3      4.133      6.948
REMARK SMILES COC(=O)c1ccc([C@H]([NH3+])CC(=O)NCCCNC(=O)c2ccc(-c3c4nc(c(-c5ccc(S(=O)(=O)[O-])cc5)c5ccc([nH]5)c(-c5ccc(S(=O)(=O)[O-])cc5)c5nc(c(-c6ccc(S(=O)(=O)[O-])cc6)c6ccc3[nH]6)C=C5)C=C4)cc2)cc1
REMARK SMILES IDX 15 1 14 2 12 3 13 4 11 6 9 7 8 8 5 9 6 10 82 11 7 12 81 13
REMARK SMILES IDX 3 14 4 15 2 16 1 17 10 18 16 22 17 23 18 24 19 25 20 27
REMARK SMILES IDX 21 28 22 29 80 30 23 31 79 32 24 33 25 34 26 35 73 36 27 37
REMARK SMILES IDX 78 38 72 39 74 40 28 41 77 42 71 43 70 44 29 46 59 47 40 48
REMARK SMILES IDX 58 49 41 50 44 51 57 52 75 53 42 54 43 55 56 57 76 58 45 59
REMARK SMILES IDX 30 60 31 61 39 62 32 63 38 64 33 65 34 66 35 67 36 68 37 69
REMARK SMILES IDX 60 70 61 71 69 72 62 73 68 74 63 75 64 76 65 77 66 78 67 79
REMARK SMILES IDX 46 80 47 81 55 82 48 83 54 84 49 85 50 86 51 87 52 88 53 89
REMARK H PARENT 14 5 10 19 10 20 10 21 18 26 74 45 44 56
REMARK Flexibility Score: inf
ROOT
ATOM      1  C   UNL A   1      31.735  27.275  25.698  1.00  0.00     0.117 C 
ENDROOT
BRANCH   1   2
ATOM      2  N   UNL A   1      31.455  26.162  26.589  1.00  0.00    -0.356 N 
ATOM      3  C   UNL A   1      31.653  24.826  26.389  1.00  0.00     0.226 C 
ATOM      4  O   UNL A   1      31.238  24.034  27.237  1.00  0.00    -0.275 OA
ATOM      5  H   UNL A   1      31.066  26.405  27.460  1.00  0.00     0.163 HD
BRANCH   3   6
ATOM      6  C   UNL A   1      32.425  24.342  25.179  1.00  0.00     0.170 C 
BRANCH   6   7
ATOM      7  C   UNL A   1      31.538  23.737  24.077  1.00  0.00     0.221 C 
BRANCH   7   8
ATOM      8  C   UNL A   1      31.862  22.256  23.866  1.00  0.00     0.010 A 
ATOM      9  C   UNL A   1      32.462  19.510  23.565  1.00  0.00     0.060 A 
ATOM     10  C   UNL A   1      32.406  20.084  24.838  1.00  0.00     0.016 A 
ATOM     11  C   UNL A   1      32.207  20.299  22.441  1.00  0.00     0.016 A 
ATOM     12  C   UNL A   1      32.107  21.442  24.985  1.00  0.00     0.011 A 
ATOM     13  C   UNL A   1      31.913  21.656  22.593  1.00  0.00     0.011 A 
BRANCH   9  14
ATOM     14  C   UNL A   1      32.766  18.064  23.445  1.00  0.00     0.337 C 
ATOM     15  O   UNL A   1      32.890  17.484  22.375  1.00  0.00    -0.246 OA
BRANCH  14  16
ATOM     16  O   UNL A   1      32.840  17.504  24.676  1.00  0.00    -0.465 OA
ATOM     17  C   UNL A   1      33.180  16.118  24.677  1.00  0.00     0.282 C 
ENDBRANCH  14  16
ENDBRANCH   9  14
ENDBRANCH   7   8
BRANCH   7  18
ATOM     18  N   UNL A   1      31.639  24.493  22.831  1.00  0.00    -0.351 N 
ATOM     19  H   UNL A   1      31.350  25.458  22.994  1.00  0.00     0.345 HD
ATOM     20  H   UNL A   1      31.033  24.071  22.127  1.00  0.00     0.345 HD
ATOM     21  H   UNL A   1      32.604  24.478  22.502  1.00  0.00     0.345 HD
ENDBRANCH   7  18
ENDBRANCH   6   7
ENDBRANCH   3   6
ENDBRANCH   1   2
BRANCH   1  22
ATOM     22  C   UNL A   1      33.171  27.771  25.833  1.00  0.00     0.042 C 
BRANCH  22  23
ATOM     23  C   UNL A   1      33.546  28.206  27.237  1.00  0.00     0.118 C 
BRANCH  23  24
ATOM     24  N   UNL A   1      33.466  29.648  27.403  1.00  0.00    -0.352 N 
ATOM     25  C   UNL A   1      34.370  30.523  27.956  1.00  0.00     0.251 C 
ATOM     26  H   UNL A   1      32.637  30.061  27.070  1.00  0.00     0.163 HD
ATOM     27  O   UNL A   1      34.009  31.669  28.212  1.00  0.00    -0.269 OA
BRANCH  25  28
ATOM     28  C   UNL A   1      35.755  30.096  28.263  1.00  0.00     0.039 A 
ATOM     29  C   UNL A   1      36.713  30.141  27.246  1.00  0.00     0.014 A 
ATOM     30  C   UNL A   1      36.113  29.619  29.527  1.00  0.00     0.014 A 
ATOM     31  C   UNL A   1      38.032  29.760  27.512  1.00  0.00     0.010 A 
ATOM     32  C   UNL A   1      37.445  29.337  29.817  1.00  0.00     0.010 A 
ATOM     33  C   UNL A   1      38.418  29.386  28.810  1.00  0.00    -0.014 A 
BRANCH  33  34
ATOM     34  C   UNL A   1      39.826  29.027  29.123  1.00  0.00     0.031 A 
ATOM     35  C   UNL A   1      40.741  30.035  29.770  1.00  0.00     0.074 A 
ATOM     36  C   UNL A   1      40.298  27.811  28.782  1.00  0.00     0.049 A 
ATOM     37  N   UNL A   1      42.007  29.919  30.082  1.00  0.00    -0.248 NA
ATOM     38  C   UNL A   1      40.167  31.353  30.084  1.00  0.00     0.031 C 
ATOM     39  C   UNL A   1      39.526  26.759  28.116  1.00  0.00     0.029 A 
ATOM     40  N   UNL A   1      41.542  27.254  28.944  1.00  0.00    -0.354 N 
ATOM     41  C   UNL A   1      42.382  31.149  30.611  1.00  0.00     0.074 A 
ATOM     42  C   UNL A   1      41.226  32.014  30.525  1.00  0.00     0.031 C 
ATOM     43  C   UNL A   1      40.302  25.675  27.960  1.00  0.00     0.029 A 
ATOM     44  C   UNL A   1      41.638  25.968  28.467  1.00  0.00     0.049 A 
ATOM     45  H   UNL A   1      42.295  27.731  29.363  1.00  0.00     0.167 HD
ATOM     46  C   UNL A   1      43.573  31.521  31.139  1.00  0.00     0.031 A 
ATOM     47  C   UNL A   1      42.685  25.120  28.434  1.00  0.00     0.031 A 
ATOM     48  C   UNL A   1      44.718  30.655  31.227  1.00  0.00     0.049 A 
ATOM     49  C   UNL A   1      44.003  25.560  29.009  1.00  0.00     0.074 A 
ATOM     50  C   UNL A   1      45.953  30.917  31.794  1.00  0.00     0.029 A 
ATOM     51  N   UNL A   1      44.774  29.360  30.732  1.00  0.00    -0.354 N 
ATOM     52  N   UNL A   1      44.317  26.705  29.566  1.00  0.00    -0.248 NA
ATOM     53  C   UNL A   1      45.105  24.590  28.960  1.00  0.00     0.031 C 
ATOM     54  C   UNL A   1      46.775  29.806  31.586  1.00  0.00     0.029 A 
ATOM     55  C   UNL A   1      46.031  28.823  30.953  1.00  0.00     0.049 A 
ATOM     56  H   UNL A   1      44.029  28.893  30.288  1.00  0.00     0.167 HD
ATOM     57  C   UNL A   1      45.645  26.582  29.962  1.00  0.00     0.074 A 
ATOM     58  C   UNL A   1      46.068  25.246  29.593  1.00  0.00     0.031 C 
ATOM     59  C   UNL A   1      46.440  27.492  30.577  1.00  0.00     0.031 A 
BRANCH  46  60
ATOM     60  C   UNL A   1      43.698  32.934  31.652  1.00  0.00    -0.014 A 
ATOM     61  C   UNL A   1      43.366  33.261  32.979  1.00  0.00     0.010 A 
ATOM     62  C   UNL A   1      44.189  33.943  30.804  1.00  0.00     0.010 A 
ATOM     63  C   UNL A   1      43.475  34.578  33.434  1.00  0.00     0.020 A 
ATOM     64  C   UNL A   1      44.332  35.256  31.265  1.00  0.00     0.020 A 
ATOM     65  C   UNL A   1      43.956  35.568  32.572  1.00  0.00     0.054 A 
BRANCH  65  66
ATOM     66  S   UNL A   1      44.101  37.265  33.195  1.00  0.00     0.124 S 
ATOM     67  O   UNL A   1      43.179  37.251  34.327  1.00  0.00    -0.237 OA
ATOM     68  O   UNL A   1      45.518  37.359  33.540  1.00  0.00    -0.237 OA
ATOM     69  O   UNL A   1      43.683  38.088  32.063  1.00  0.00    -0.744 OA
ENDBRANCH  65  66
ENDBRANCH  46  60
BRANCH  47  70
ATOM     70  C   UNL A   1      42.520  23.760  27.846  1.00  0.00    -0.014 A 
ATOM     71  C   UNL A   1      42.764  23.537  26.479  1.00  0.00     0.010 A 
ATOM     72  C   UNL A   1      42.135  22.677  28.657  1.00  0.00     0.010 A 
ATOM     73  C   UNL A   1      42.614  22.259  25.932  1.00  0.00     0.020 A 
ATOM     74  C   UNL A   1      42.014  21.392  28.120  1.00  0.00     0.020 A 
ATOM     75  C   UNL A   1      42.244  21.193  26.758  1.00  0.00     0.054 A 
BRANCH  75  76
ATOM     76  S   UNL A   1      42.115  19.533  26.037  1.00  0.00     0.124 S 
ATOM     77  O   UNL A   1      40.689  19.441  25.739  1.00  0.00    -0.237 OA
ATOM     78  O   UNL A   1      43.001  19.623  24.880  1.00  0.00    -0.237 OA
ATOM     79  O   UNL A   1      42.590  18.658  27.108  1.00  0.00    -0.744 OA
ENDBRANCH  75  76
ENDBRANCH  47  70
BRANCH  59  80
ATOM     80  C   UNL A   1      47.842  27.066  30.928  1.00  0.00    -0.014 A 
ATOM     81  C   UNL A   1      48.112  26.313  32.084  1.00  0.00     0.010 A 
ATOM     82  C   UNL A   1      48.899  27.378  30.052  1.00  0.00     0.010 A 
ATOM     83  C   UNL A   1      49.417  25.908  32.375  1.00  0.00     0.020 A 
ATOM     84  C   UNL A   1      50.200  26.947  30.322  1.00  0.00     0.020 A 
ATOM     85  C   UNL A   1      50.453  26.227  31.491  1.00  0.00     0.054 A 
BRANCH  85  86
ATOM     86  S   UNL A   1      52.130  25.650  31.869  1.00  0.00     0.124 S 
ATOM     87  O   UNL A   1      52.828  25.895  30.609  1.00  0.00    -0.237 OA
ATOM     88  O   UNL A   1      52.522  26.511  32.982  1.00  0.00    -0.237 OA
ATOM     89  O   UNL A   1      51.944  24.242  32.214  1.00  0.00    -0.744 OA
ENDBRANCH  85  86
ENDBRANCH  59  80
ENDBRANCH  33  34
ENDBRANCH  25  28
ENDBRANCH  23  24
ENDBRANCH  22  23
ENDBRANCH   1  22
TORSDOF 18
ENDMDL
MODEL 3
REMARK VINA RESULT:      -8.1      3.875      7.299
REMARK SMILES COC(=O)c1ccc([C@H]([NH3+])CC(=O)NCCCNC(=O)c2ccc(-c3c4nc(c(-c5ccc(S(=O)(=O)[O-])cc5)c5ccc([nH]5)c(-c5ccc(S(=O)(=O)[O-])cc5)c5nc(c(-c6ccc(S(=O)(=O)[O-])cc6)c6ccc3[nH]6)C=C5)C=C4)cc2)cc1
REMARK SMILES IDX 15 1 14 2 12 3 13 4 11 6 9 7 8 8 5 9 6 10 82 11 7 12 81 13
REMARK SMILES IDX 3 14 4 15 2 16 1 17 10 18 16 22 17 23 18 24 19 25 20 27
REMARK SMILES IDX 21 28 22 29 80 30 23 31 79 32 24 33 25 34 26 35 73 36 27 37
REMARK SMILES IDX 78 38 72 39 74 40 28 41 77 42 71 43 70 44 29 46 59 47 40 48
REMARK SMILES IDX 58 49 41 50 44 51 57 52 75 53 42 54 43 55 56 57 76 58 45 59
REMARK SMILES IDX 30 60 31 61 39 62 32 63 38 64 33 65 34 66 35 67 36 68 37 69
REMARK SMILES IDX 60 70 61 71 69 72 62 73 68 74 63 75 64 76 65 77 66 78 67 79
REMARK SMILES IDX 46 80 47 81 55 82 48 83 54 84 49 85 50 86 51 87 52 88 53 89
REMARK H PARENT 14 5 10 19 10 20 10 21 18 26 74 45 44 56
REMARK Flexibility Score: inf
ROOT
ATOM      1  C   UNL A   1      31.999  28.018  26.554  1.00  0.00     0.117 C 
ENDROOT
BRANCH   1   2
ATOM      2  N   UNL A   1      31.269  26.836  26.980  1.00  0.00    -0.356 N 
ATOM      3  C   UNL A   1      31.181  25.613  26.378  1.00  0.00     0.226 C 
ATOM      4  O   UNL A   1      30.410  24.776  26.852  1.00  0.00    -0.275 OA
ATOM      5  H   UNL A   1      30.765  26.930  27.821  1.00  0.00     0.163 HD
BRANCH   3   6
ATOM      6  C   UNL A   1      32.065  25.281  25.194  1.00  0.00     0.170 C 
BRANCH   6   7
ATOM      7  C   UNL A   1      31.290  25.074  23.881  1.00  0.00     0.221 C 
BRANCH   7   8
ATOM      8  C   UNL A   1      30.585  26.363  23.453  1.00  0.00     0.010 A 
ATOM      9  C   UNL A   1      29.357  28.771  22.623  1.00  0.00     0.060 A 
ATOM     10  C   UNL A   1      30.712  28.545  22.367  1.00  0.00     0.016 A 
ATOM     11  C   UNL A   1      28.608  27.793  23.282  1.00  0.00     0.016 A 
ATOM     12  C   UNL A   1      31.317  27.354  22.776  1.00  0.00     0.011 A 
ATOM     13  C   UNL A   1      29.218  26.605  23.693  1.00  0.00     0.011 A 
BRANCH   9  14
ATOM     14  C   UNL A   1      28.742  30.038  22.162  1.00  0.00     0.337 C 
ATOM     15  O   UNL A   1      28.285  30.201  21.039  1.00  0.00    -0.246 OA
BRANCH  14  16
ATOM     16  O   UNL A   1      28.807  30.967  23.145  1.00  0.00    -0.465 OA
ATOM     17  C   UNL A   1      27.540  31.389  23.647  1.00  0.00     0.282 C 
ENDBRANCH  14  16
ENDBRANCH   9  14
ENDBRANCH   7   8
BRANCH   7  18
ATOM     18  N   UNL A   1      30.355  23.956  23.980  1.00  0.00    -0.351 N 
ATOM     19  H   UNL A   1      30.580  23.260  23.270  1.00  0.00     0.345 HD
ATOM     20  H   UNL A   1      29.404  24.294  23.836  1.00  0.00     0.345 HD
ATOM     21  H   UNL A   1      30.428  23.533  24.906  1.00  0.00     0.345 HD
ENDBRANCH   7  18
ENDBRANCH   6   7
ENDBRANCH   3   6
ENDBRANCH   1   2
BRANCH   1  22
ATOM     22  C   UNL A   1      33.488  27.917  26.868  1.00  0.00     0.042 C 
BRANCH  22  23
ATOM     23  C   UNL A   1      34.331  29.004  26.229  1.00  0.00     0.118 C 
BRANCH  23  24
ATOM     24  N   UNL A   1      33.928  30.333  26.658  1.00  0.00    -0.352 N 
ATOM     25  C   UNL A   1      34.409  31.114  27.681  1.00  0.00     0.251 C 
ATOM     26  H   UNL A   1      33.196  30.736  26.136  1.00  0.00     0.163 HD
ATOM     27  O   UNL A   1      33.774  32.108  28.022  1.00  0.00    -0.269 OA
BRANCH  25  28
ATOM     28  C   UNL A   1      35.666  30.760  28.382  1.00  0.00     0.039 A 
ATOM     29  C   UNL A   1      35.635  29.751  29.349  1.00  0.00     0.014 A 
ATOM     30  C   UNL A   1      36.864  31.433  28.126  1.00  0.00     0.014 A 
ATOM     31  C   UNL A   1      36.810  29.384  30.013  1.00  0.00     0.010 A 
ATOM     32  C   UNL A   1      38.050  31.000  28.713  1.00  0.00     0.010 A 
ATOM     33  C   UNL A   1      38.035  29.983  29.677  1.00  0.00    -0.014 A 
BRANCH  33  34
ATOM     34  C   UNL A   1      39.303  29.572  30.336  1.00  0.00     0.031 A 
ATOM     35  C   UNL A   1      39.790  30.299  31.563  1.00  0.00     0.074 A 
ATOM     36  C   UNL A   1      40.042  28.578  29.804  1.00  0.00     0.049 A 
ATOM     37  N   UNL A   1      40.888  30.111  32.251  1.00  0.00    -0.248 NA
ATOM     38  C   UNL A   1      38.949  31.395  32.069  1.00  0.00     0.031 C 
ATOM     39  C   UNL A   1      39.700  27.821  28.597  1.00  0.00     0.029 A 
ATOM     40  N   UNL A   1      41.236  28.034  30.207  1.00  0.00    -0.354 N 
ATOM     41  C   UNL A   1      40.875  31.073  33.256  1.00  0.00     0.074 A 
ATOM     42  C   UNL A   1      39.692  31.878  33.054  1.00  0.00     0.031 C 
ATOM     43  C   UNL A   1      40.643  26.890  28.380  1.00  0.00     0.029 A 
ATOM     44  C   UNL A   1      41.679  27.014  29.399  1.00  0.00     0.049 A 
ATOM     45  H   UNL A   1      41.729  28.345  31.001  1.00  0.00     0.167 HD
ATOM     46  C   UNL A   1      41.757  31.257  34.267  1.00  0.00     0.031 A 
ATOM     47  C   UNL A   1      42.797  26.265  29.464  1.00  0.00     0.031 A 
ATOM     48  C   UNL A   1      42.931  30.451  34.468  1.00  0.00     0.049 A 
ATOM     49  C   UNL A   1      43.773  26.500  30.585  1.00  0.00     0.074 A 
ATOM     50  C   UNL A   1      43.859  30.521  35.493  1.00  0.00     0.029 A 
ATOM     51  N   UNL A   1      43.345  29.428  33.626  1.00  0.00    -0.354 N 
ATOM     52  N   UNL A   1      43.708  27.370  31.564  1.00  0.00    -0.248 NA
ATOM     53  C   UNL A   1      44.966  25.645  30.616  1.00  0.00     0.031 C 
ATOM     54  C   UNL A   1      44.865  29.584  35.238  1.00  0.00     0.029 A 
ATOM     55  C   UNL A   1      44.528  28.881  34.092  1.00  0.00     0.049 A 
ATOM     56  H   UNL A   1      42.866  29.135  32.817  1.00  0.00     0.167 HD
ATOM     57  C   UNL A   1      44.837  27.147  32.345  1.00  0.00     0.074 A 
ATOM     58  C   UNL A   1      45.558  26.050  31.731  1.00  0.00     0.031 C 
ATOM     59  C   UNL A   1      45.238  27.791  33.469  1.00  0.00     0.031 A 
BRANCH  46  60
ATOM     60  C   UNL A   1      41.490  32.388  35.229  1.00  0.00    -0.014 A 
ATOM     61  C   UNL A   1      42.062  33.660  35.038  1.00  0.00     0.010 A 
ATOM     62  C   UNL A   1      40.626  32.187  36.321  1.00  0.00     0.010 A 
ATOM     63  C   UNL A   1      41.815  34.692  35.946  1.00  0.00     0.020 A 
ATOM     64  C   UNL A   1      40.349  33.228  37.214  1.00  0.00     0.020 A 
ATOM     65  C   UNL A   1      40.961  34.469  37.031  1.00  0.00     0.054 A 
BRANCH  65  66
ATOM     66  S   UNL A   1      40.647  35.833  38.184  1.00  0.00     0.124 S 
ATOM     67  O   UNL A   1      41.992  36.354  38.408  1.00  0.00    -0.237 OA
ATOM     68  O   UNL A   1      39.757  36.702  37.416  1.00  0.00    -0.237 OA
ATOM     69  O   UNL A   1      40.033  35.179  39.337  1.00  0.00    -0.744 OA
ENDBRANCH  65  66
ENDBRANCH  46  60
BRANCH  47  70
ATOM     70  C   UNL A   1      43.045  25.210  28.441  1.00  0.00    -0.014 A 
ATOM     71  C   UNL A   1      42.519  23.916  28.605  1.00  0.00     0.010 A 
ATOM     72  C   UNL A   1      43.792  25.502  27.285  1.00  0.00     0.010 A 
ATOM     73  C   UNL A   1      42.749  22.931  27.639  1.00  0.00     0.020 A 
ATOM     74  C   UNL A   1      43.998  24.529  26.303  1.00  0.00     0.020 A 
ATOM     75  C   UNL A   1      43.483  23.246  26.492  1.00  0.00     0.054 A 
BRANCH  75  76
ATOM     76  S   UNL A   1      43.715  21.967  25.225  1.00  0.00     0.124 S 
ATOM     77  O   UNL A   1      43.470  22.711  23.994  1.00  0.00    -0.237 OA
ATOM     78  O   UNL A   1      45.096  21.549  25.451  1.00  0.00    -0.237 OA
ATOM     79  O   UNL A   1      42.707  20.964  25.564  1.00  0.00    -0.744 OA
ENDBRANCH  75  76
ENDBRANCH  47  70
BRANCH  59  80
ATOM     80  C   UNL A   1      46.498  27.304  34.137  1.00  0.00    -0.014 A 
ATOM     81  C   UNL A   1      47.750  27.874  33.845  1.00  0.00     0.010 A 
ATOM     82  C   UNL A   1      46.417  26.296  35.115  1.00  0.00     0.010 A 
ATOM     83  C   UNL A   1      48.901  27.422  34.495  1.00  0.00     0.020 A 
ATOM     84  C   UNL A   1      47.560  25.864  35.791  1.00  0.00     0.020 A 
ATOM     85  C   UNL A   1      48.798  26.420  35.465  1.00  0.00     0.054 A 
BRANCH  85  86
ATOM     86  S   UNL A   1      50.301  25.884  36.327  1.00  0.00     0.124 S 
ATOM     87  O   UNL A   1      50.111  24.438  36.399  1.00  0.00    -0.237 OA
ATOM     88  O   UNL A   1      51.362  26.334  35.431  1.00  0.00    -0.237 OA
ATOM     89  O   UNL A   1      50.236  26.585  37.608  1.00  0.00    -0.744 OA
ENDBRANCH  85  86
ENDBRANCH  59  80
ENDBRANCH  33  34
ENDBRANCH  25  28
ENDBRANCH  23  24
ENDBRANCH  22  23
ENDBRANCH   1  22
TORSDOF 18
ENDMDL
