MODEL 1
REMARK VINA RESULT:     -10.6      0.000      0.000
REMARK SMILES CCCN(CCC)c1ccc(C(=O)NCCCNC(=O)c2ccc(-c3c4nc(c(-c5ccc(S(=O)(=O)[O-])cc5)c5ccc([nH]5)c(-c5ccc(S(=O)(=O)[O-])cc5)c5nc(c(-c6ccc(S(=O)(=O)[O-])cc6)c6ccc3[nH]6)C=C5)C=C4)cc2)cc1[N+](=O)[O-]
REMARK SMILES IDX 16 1 15 2 14 3 12 4 13 5 11 7 8 8 9 9 82 10 10 11 81 12 4 13
REMARK SMILES IDX 3 14 2 15 1 16 5 17 6 18 7 19 83 20 84 21 85 22 17 23 18 24
REMARK SMILES IDX 19 25 20 27 21 28 22 29 80 30 23 31 79 32 24 33 25 34 26 35
REMARK SMILES IDX 73 36 27 37 78 38 72 39 74 40 28 41 77 42 71 43 70 44 29 46
REMARK SMILES IDX 59 47 40 48 58 49 41 50 44 51 57 52 75 53 42 54 43 55 56 57
REMARK SMILES IDX 76 58 45 59 30 60 31 61 39 62 32 63 38 64 33 65 34 66 35 67
REMARK SMILES IDX 36 68 37 69 60 70 61 71 69 72 62 73 68 74 63 75 64 76 65 77
REMARK SMILES IDX 66 78 67 79 46 80 47 81 55 82 48 83 54 84 49 85 50 86 51 87
REMARK SMILES IDX 52 88 53 89
REMARK H PARENT 14 6 18 26 74 45 44 56
REMARK Flexibility Score: inf
ROOT
ATOM      1  C   UNL A   1      37.712  23.101  25.895  1.00  0.00     0.042 C 
ENDROOT
BRANCH   1   2
ATOM      2  C   UNL A   1      36.220  23.318  26.122  1.00  0.00     0.118 C 
BRANCH   2   3
ATOM      3  N   UNL A   1      35.405  22.326  25.435  1.00  0.00    -0.352 N 
ATOM      4  C   UNL A   1      34.268  22.507  24.692  1.00  0.00     0.251 C 
ATOM      5  O   UNL A   1      33.805  21.588  24.022  1.00  0.00    -0.269 OA
ATOM      6  H   UNL A   1      35.713  21.395  25.517  1.00  0.00     0.163 HD
BRANCH   4   7
ATOM      7  C   UNL A   1      33.613  23.828  24.656  1.00  0.00     0.046 A 
ATOM      8  C   UNL A   1      32.296  26.334  24.636  1.00  0.00     0.116 A 
ATOM      9  C   UNL A   1      31.938  25.328  25.549  1.00  0.00     0.034 A 
ATOM     10  C   UNL A   1      33.329  26.030  23.733  1.00  0.00     0.293 A 
ATOM     11  C   UNL A   1      32.597  24.093  25.575  1.00  0.00     0.016 A 
ATOM     12  C   UNL A   1      34.002  24.802  23.742  1.00  0.00     0.101 A 
BRANCH   8  13
ATOM     13  N   UNL A   1      31.661  27.562  24.691  1.00  0.00    -0.366 N 
BRANCH  13  14
ATOM     14  C   UNL A   1      30.580  27.883  23.756  1.00  0.00     0.116 C 
BRANCH  14  15
ATOM     15  C   UNL A   1      30.518  29.388  23.465  1.00  0.00     0.018 C 
ATOM     16  C   UNL A   1      29.885  29.713  22.120  1.00  0.00     0.006 C 
ENDBRANCH  14  15
ENDBRANCH  13  14
BRANCH  13  17
ATOM     17  C   UNL A   1      31.855  28.390  25.891  1.00  0.00     0.116 C 
BRANCH  17  18
ATOM     18  C   UNL A   1      33.330  28.474  26.307  1.00  0.00     0.018 C 
ATOM     19  C   UNL A   1      33.687  29.802  26.967  1.00  0.00     0.006 C 
ENDBRANCH  17  18
ENDBRANCH  13  17
ENDBRANCH   8  13
BRANCH  10  20
ATOM     20  N   UNL A   1      33.658  26.939  22.652  1.00  0.00     0.065 N 
ATOM     21  O   UNL A   1      33.596  26.471  21.505  1.00  0.00    -0.258 OA
ATOM     22  O   UNL A   1      34.041  28.079  22.945  1.00  0.00    -0.258 OA
ENDBRANCH  10  20
ENDBRANCH   4   7
ENDBRANCH   2   3
ENDBRANCH   1   2
BRANCH   1  23
ATOM     23  C   UNL A   1      38.596  24.110  26.617  1.00  0.00     0.118 C 
BRANCH  23  24
ATOM     24  N   UNL A   1      39.917  24.216  26.019  1.00  0.00    -0.352 N 
ATOM     25  C   UNL A   1      40.913  25.133  26.246  1.00  0.00     0.251 C 
ATOM     26  H   UNL A   1      40.130  23.526  25.349  1.00  0.00     0.163 HD
ATOM     27  O   UNL A   1      41.879  25.171  25.488  1.00  0.00    -0.269 OA
BRANCH  25  28
ATOM     28  C   UNL A   1      40.824  26.077  27.383  1.00  0.00     0.039 A 
ATOM     29  C   UNL A   1      41.617  27.227  27.368  1.00  0.00     0.014 A 
ATOM     30  C   UNL A   1      39.993  25.817  28.477  1.00  0.00     0.014 A 
ATOM     31  C   UNL A   1      41.540  28.138  28.425  1.00  0.00     0.010 A 
ATOM     32  C   UNL A   1      39.861  26.761  29.491  1.00  0.00     0.010 A 
ATOM     33  C   UNL A   1      40.642  27.925  29.482  1.00  0.00    -0.014 A 
BRANCH  33  34
ATOM     34  C   UNL A   1      40.514  28.901  30.594  1.00  0.00     0.031 A 
ATOM     35  C   UNL A   1      41.429  28.817  31.785  1.00  0.00     0.074 A 
ATOM     36  C   UNL A   1      39.536  29.827  30.560  1.00  0.00     0.049 A 
ATOM     37  N   UNL A   1      41.445  29.551  32.869  1.00  0.00    -0.248 NA
ATOM     38  C   UNL A   1      42.445  27.751  31.767  1.00  0.00     0.031 C 
ATOM     39  C   UNL A   1      38.565  29.991  29.477  1.00  0.00     0.029 A 
ATOM     40  N   UNL A   1      39.198  30.803  31.462  1.00  0.00    -0.354 N 
ATOM     41  C   UNL A   1      42.452  29.022  33.669  1.00  0.00     0.074 A 
ATOM     42  C   UNL A   1      42.990  27.877  32.967  1.00  0.00     0.031 C 
ATOM     43  C   UNL A   1      37.764  31.032  29.760  1.00  0.00     0.029 A 
ATOM     44  C   UNL A   1      38.139  31.581  31.060  1.00  0.00     0.049 A 
ATOM     45  H   UNL A   1      39.669  30.935  32.316  1.00  0.00     0.167 HD
ATOM     46  C   UNL A   1      42.898  29.457  34.873  1.00  0.00     0.031 A 
ATOM     47  C   UNL A   1      37.535  32.621  31.667  1.00  0.00     0.031 A 
ATOM     48  C   UNL A   1      42.364  30.600  35.565  1.00  0.00     0.049 A 
ATOM     49  C   UNL A   1      38.039  33.082  33.006  1.00  0.00     0.074 A 
ATOM     50  C   UNL A   1      42.785  31.159  36.759  1.00  0.00     0.029 A 
ATOM     51  N   UNL A   1      41.285  31.354  35.128  1.00  0.00    -0.354 N 
ATOM     52  N   UNL A   1      39.032  32.608  33.720  1.00  0.00    -0.248 NA
ATOM     53  C   UNL A   1      37.345  34.224  33.616  1.00  0.00     0.031 C 
ATOM     54  C   UNL A   1      41.929  32.223  37.068  1.00  0.00     0.029 A 
ATOM     55  C   UNL A   1      41.009  32.360  36.040  1.00  0.00     0.049 A 
ATOM     56  H   UNL A   1      40.789  31.199  34.292  1.00  0.00     0.167 HD
ATOM     57  C   UNL A   1      39.099  33.410  34.854  1.00  0.00     0.074 A 
ATOM     58  C   UNL A   1      38.050  34.404  34.724  1.00  0.00     0.031 C 
ATOM     59  C   UNL A   1      39.955  33.333  35.903  1.00  0.00     0.031 A 
BRANCH  46  60
ATOM     60  C   UNL A   1      44.010  28.668  35.517  1.00  0.00    -0.014 A 
ATOM     61  C   UNL A   1      45.361  28.945  35.235  1.00  0.00     0.010 A 
ATOM     62  C   UNL A   1      43.699  27.622  36.406  1.00  0.00     0.010 A 
ATOM     63  C   UNL A   1      46.374  28.146  35.772  1.00  0.00     0.020 A 
ATOM     64  C   UNL A   1      44.712  26.841  36.968  1.00  0.00     0.020 A 
ATOM     65  C   UNL A   1      46.041  27.090  36.625  1.00  0.00     0.054 A 
BRANCH  65  66
ATOM     66  S   UNL A   1      47.372  26.047  37.282  1.00  0.00     0.124 S 
ATOM     67  O   UNL A   1      47.275  24.865  36.429  1.00  0.00    -0.237 OA
ATOM     68  O   UNL A   1      48.561  26.872  37.078  1.00  0.00    -0.237 OA
ATOM     69  O   UNL A   1      46.993  25.842  38.677  1.00  0.00    -0.744 OA
ENDBRANCH  65  66
ENDBRANCH  46  60
BRANCH  47  70
ATOM     70  C   UNL A   1      36.418  33.322  30.981  1.00  0.00    -0.014 A 
ATOM     71  C   UNL A   1      35.205  33.540  31.656  1.00  0.00     0.010 A 
ATOM     72  C   UNL A   1      36.577  33.824  29.676  1.00  0.00     0.010 A 
ATOM     73  C   UNL A   1      34.170  34.251  31.040  1.00  0.00     0.020 A 
ATOM     74  C   UNL A   1      35.553  34.555  29.067  1.00  0.00     0.020 A 
ATOM     75  C   UNL A   1      34.353  34.760  29.753  1.00  0.00     0.054 A 
BRANCH  75  76
ATOM     76  S   UNL A   1      33.028  35.754  29.010  1.00  0.00     0.124 S 
ATOM     77  O   UNL A   1      32.271  36.175  30.184  1.00  0.00    -0.237 OA
ATOM     78  O   UNL A   1      33.771  36.808  28.325  1.00  0.00    -0.237 OA
ATOM     79  O   UNL A   1      32.346  34.810  28.129  1.00  0.00    -0.744 OA
ENDBRANCH  75  76
ENDBRANCH  47  70
BRANCH  59  80
ATOM     80  C   UNL A   1      39.810  34.368  36.987  1.00  0.00    -0.014 A 
ATOM     81  C   UNL A   1      40.417  35.632  36.874  1.00  0.00     0.010 A 
ATOM     82  C   UNL A   1      39.013  34.087  38.111  1.00  0.00     0.010 A 
ATOM     83  C   UNL A   1      40.252  36.586  37.882  1.00  0.00     0.020 A 
ATOM     84  C   UNL A   1      38.825  35.047  39.109  1.00  0.00     0.020 A 
ATOM     85  C   UNL A   1      39.457  36.287  38.994  1.00  0.00     0.054 A 
BRANCH  85  86
ATOM     86  S   UNL A   1      39.223  37.556  40.268  1.00  0.00     0.124 S 
ATOM     87  O   UNL A   1      38.748  36.766  41.400  1.00  0.00    -0.237 OA
ATOM     88  O   UNL A   1      40.563  38.120  40.411  1.00  0.00    -0.237 OA
ATOM     89  O   UNL A   1      38.235  38.459  39.679  1.00  0.00    -0.744 OA
ENDBRANCH  85  86
ENDBRANCH  59  80
ENDBRANCH  33  34
ENDBRANCH  25  28
ENDBRANCH  23  24
ENDBRANCH   1  23
TORSDOF 19
ENDMDL
MODEL 2
REMARK VINA RESULT:     -10.5      6.139     10.809
REMARK SMILES CCCN(CCC)c1ccc(C(=O)NCCCNC(=O)c2ccc(-c3c4nc(c(-c5ccc(S(=O)(=O)[O-])cc5)c5ccc([nH]5)c(-c5ccc(S(=O)(=O)[O-])cc5)c5nc(c(-c6ccc(S(=O)(=O)[O-])cc6)c6ccc3[nH]6)C=C5)C=C4)cc2)cc1[N+](=O)[O-]
REMARK SMILES IDX 16 1 15 2 14 3 12 4 13 5 11 7 8 8 9 9 82 10 10 11 81 12 4 13
REMARK SMILES IDX 3 14 2 15 1 16 5 17 6 18 7 19 83 20 84 21 85 22 17 23 18 24
REMARK SMILES IDX 19 25 20 27 21 28 22 29 80 30 23 31 79 32 24 33 25 34 26 35
REMARK SMILES IDX 73 36 27 37 78 38 72 39 74 40 28 41 77 42 71 43 70 44 29 46
REMARK SMILES IDX 59 47 40 48 58 49 41 50 44 51 57 52 75 53 42 54 43 55 56 57
REMARK SMILES IDX 76 58 45 59 30 60 31 61 39 62 32 63 38 64 33 65 34 66 35 67
REMARK SMILES IDX 36 68 37 69 60 70 61 71 69 72 62 73 68 74 63 75 64 76 65 77
REMARK SMILES IDX 66 78 67 79 46 80 47 81 55 82 48 83 54 84 49 85 50 86 51 87
REMARK SMILES IDX 52 88 53 89
REMARK H PARENT 14 6 18 26 74 45 44 56
REMARK Flexibility Score: inf
ROOT
ATOM      1  C   UNL A   1      37.731  20.513  24.904  1.00  0.00     0.042 C 
ENDROOT
BRANCH   1   2
ATOM      2  C   UNL A   1      36.389  21.076  25.362  1.00  0.00     0.118 C 
BRANCH   2   3
ATOM      3  N   UNL A   1      35.338  20.070  25.363  1.00  0.00    -0.352 N 
ATOM      4  C   UNL A   1      34.018  20.199  25.016  1.00  0.00     0.251 C 
ATOM      5  O   UNL A   1      33.303  19.209  24.892  1.00  0.00    -0.269 OA
ATOM      6  H   UNL A   1      35.612  19.172  25.655  1.00  0.00     0.163 HD
BRANCH   4   7
ATOM      7  C   UNL A   1      33.455  21.535  24.743  1.00  0.00     0.046 A 
ATOM      8  C   UNL A   1      32.420  24.103  24.153  1.00  0.00     0.116 A 
ATOM      9  C   UNL A   1      33.142  23.369  23.197  1.00  0.00     0.034 A 
ATOM     10  C   UNL A   1      32.248  23.504  25.412  1.00  0.00     0.293 A 
ATOM     11  C   UNL A   1      33.642  22.092  23.478  1.00  0.00     0.016 A 
ATOM     12  C   UNL A   1      32.738  22.228  25.715  1.00  0.00     0.101 A 
BRANCH   8  13
ATOM     13  N   UNL A   1      31.890  25.333  23.809  1.00  0.00    -0.366 N 
BRANCH  13  14
ATOM     14  C   UNL A   1      32.743  26.377  23.235  1.00  0.00     0.116 C 
BRANCH  14  15
ATOM     15  C   UNL A   1      33.691  26.967  24.287  1.00  0.00     0.018 C 
ATOM     16  C   UNL A   1      33.433  28.441  24.565  1.00  0.00     0.006 C 
ENDBRANCH  14  15
ENDBRANCH  13  14
BRANCH  13  17
ATOM     17  C   UNL A   1      30.427  25.457  23.718  1.00  0.00     0.116 C 
BRANCH  17  18
ATOM     18  C   UNL A   1      29.918  26.783  24.301  1.00  0.00     0.018 C 
ATOM     19  C   UNL A   1      29.423  27.752  23.233  1.00  0.00     0.006 C 
ENDBRANCH  17  18
ENDBRANCH  13  17
ENDBRANCH   8  13
BRANCH  10  20
ATOM     20  N   UNL A   1      31.660  24.246  26.511  1.00  0.00     0.065 N 
ATOM     21  O   UNL A   1      32.314  25.214  26.930  1.00  0.00    -0.258 OA
ATOM     22  O   UNL A   1      30.599  23.830  26.995  1.00  0.00    -0.258 OA
ENDBRANCH  10  20
ENDBRANCH   4   7
ENDBRANCH   2   3
ENDBRANCH   1   2
BRANCH   1  23
ATOM     23  C   UNL A   1      38.894  20.881  25.816  1.00  0.00     0.118 C 
BRANCH  23  24
ATOM     24  N   UNL A   1      39.858  19.800  25.947  1.00  0.00    -0.352 N 
ATOM     25  C   UNL A   1      41.220  19.852  26.115  1.00  0.00     0.251 C 
ATOM     26  H   UNL A   1      39.476  18.893  25.909  1.00  0.00     0.163 HD
ATOM     27  O   UNL A   1      41.879  18.822  25.998  1.00  0.00    -0.269 OA
BRANCH  25  28
ATOM     28  C   UNL A   1      41.892  21.134  26.420  1.00  0.00     0.039 A 
ATOM     29  C   UNL A   1      42.153  22.024  25.375  1.00  0.00     0.014 A 
ATOM     30  C   UNL A   1      42.301  21.447  27.721  1.00  0.00     0.014 A 
ATOM     31  C   UNL A   1      42.776  23.246  25.641  1.00  0.00     0.010 A 
ATOM     32  C   UNL A   1      42.853  22.695  27.996  1.00  0.00     0.010 A 
ATOM     33  C   UNL A   1      43.108  23.602  26.958  1.00  0.00    -0.014 A 
BRANCH  33  34
ATOM     34  C   UNL A   1      43.733  24.913  27.269  1.00  0.00     0.031 A 
ATOM     35  C   UNL A   1      42.904  26.030  27.843  1.00  0.00     0.074 A 
ATOM     36  C   UNL A   1      45.033  25.117  26.979  1.00  0.00     0.049 A 
ATOM     37  N   UNL A   1      43.260  27.254  28.140  1.00  0.00    -0.248 NA
ATOM     38  C   UNL A   1      41.482  25.741  28.092  1.00  0.00     0.031 C 
ATOM     39  C   UNL A   1      45.934  24.126  26.392  1.00  0.00     0.029 A 
ATOM     40  N   UNL A   1      45.819  26.229  27.141  1.00  0.00    -0.354 N 
ATOM     41  C   UNL A   1      42.105  27.886  28.587  1.00  0.00     0.074 A 
ATOM     42  C   UNL A   1      41.029  26.924  28.476  1.00  0.00     0.031 C 
ATOM     43  C   UNL A   1      47.161  24.661  26.277  1.00  0.00     0.029 A 
ATOM     44  C   UNL A   1      47.122  26.045  26.743  1.00  0.00     0.049 A 
ATOM     45  H   UNL A   1      45.483  27.080  27.506  1.00  0.00     0.167 HD
ATOM     46  C   UNL A   1      41.954  29.146  29.061  1.00  0.00     0.031 A 
ATOM     47  C   UNL A   1      48.170  26.890  26.754  1.00  0.00     0.031 A 
ATOM     48  C   UNL A   1      43.027  30.098  29.177  1.00  0.00     0.049 A 
ATOM     49  C   UNL A   1      47.980  28.287  27.274  1.00  0.00     0.074 A 
ATOM     50  C   UNL A   1      42.992  31.379  29.699  1.00  0.00     0.029 A 
ATOM     51  N   UNL A   1      44.329  29.874  28.754  1.00  0.00    -0.354 N 
ATOM     52  N   UNL A   1      46.893  28.848  27.750  1.00  0.00    -0.248 NA
ATOM     53  C   UNL A   1      49.159  29.162  27.266  1.00  0.00     0.031 C 
ATOM     54  C   UNL A   1      44.263  31.946  29.549  1.00  0.00     0.029 A 
ATOM     55  C   UNL A   1      45.103  31.000  28.981  1.00  0.00     0.049 A 
ATOM     56  H   UNL A   1      44.657  29.036  28.353  1.00  0.00     0.167 HD
ATOM     57  C   UNL A   1      47.265  30.135  28.122  1.00  0.00     0.074 A 
ATOM     58  C   UNL A   1      48.678  30.265  27.823  1.00  0.00     0.031 C 
ATOM     59  C   UNL A   1      46.505  31.118  28.667  1.00  0.00     0.031 A 
BRANCH  46  60
ATOM     60  C   UNL A   1      40.563  29.564  29.468  1.00  0.00    -0.014 A 
ATOM     61  C   UNL A   1      39.573  29.839  28.506  1.00  0.00     0.010 A 
ATOM     62  C   UNL A   1      40.246  29.698  30.832  1.00  0.00     0.010 A 
ATOM     63  C   UNL A   1      38.317  30.311  28.899  1.00  0.00     0.020 A 
ATOM     64  C   UNL A   1      38.981  30.140  31.229  1.00  0.00     0.020 A 
ATOM     65  C   UNL A   1      38.034  30.471  30.258  1.00  0.00     0.054 A 
BRANCH  65  66
ATOM     66  S   UNL A   1      36.409  31.115  30.741  1.00  0.00     0.124 S 
ATOM     67  O   UNL A   1      36.735  32.482  31.139  1.00  0.00    -0.237 OA
ATOM     68  O   UNL A   1      35.632  30.989  29.510  1.00  0.00    -0.237 OA
ATOM     69  O   UNL A   1      35.996  30.232  31.828  1.00  0.00    -0.744 OA
ENDBRANCH  65  66
ENDBRANCH  46  60
BRANCH  47  70
ATOM     70  C   UNL A   1      49.502  26.412  26.299  1.00  0.00    -0.014 A 
ATOM     71  C   UNL A   1      49.943  26.695  24.995  1.00  0.00     0.010 A 
ATOM     72  C   UNL A   1      50.358  25.724  27.178  1.00  0.00     0.010 A 
ATOM     73  C   UNL A   1      51.217  26.302  24.577  1.00  0.00     0.020 A 
ATOM     74  C   UNL A   1      51.642  25.349  26.770  1.00  0.00     0.020 A 
ATOM     75  C   UNL A   1      52.062  25.638  25.470  1.00  0.00     0.054 A 
BRANCH  75  76
ATOM     76  S   UNL A   1      53.743  25.216  24.931  1.00  0.00     0.124 S 
ATOM     77  O   UNL A   1      53.682  23.760  24.860  1.00  0.00    -0.237 OA
ATOM     78  O   UNL A   1      53.844  25.907  23.648  1.00  0.00    -0.237 OA
ATOM     79  O   UNL A   1      54.588  25.759  25.990  1.00  0.00    -0.744 OA
ENDBRANCH  75  76
ENDBRANCH  47  70
BRANCH  59  80
ATOM     80  C   UNL A   1      47.192  32.416  28.999  1.00  0.00    -0.014 A 
ATOM     81  C   UNL A   1      47.278  33.456  28.057  1.00  0.00     0.010 A 
ATOM     82  C   UNL A   1      47.714  32.613  30.291  1.00  0.00     0.010 A 
ATOM     83  C   UNL A   1      47.901  34.661  28.393  1.00  0.00     0.020 A 
ATOM     84  C   UNL A   1      48.315  33.826  30.638  1.00  0.00     0.020 A 
ATOM     85  C   UNL A   1      48.417  34.838  29.681  1.00  0.00     0.054 A 
BRANCH  85  86
ATOM     86  S   UNL A   1      49.182  36.426  30.107  1.00  0.00     0.124 S 
ATOM     87  O   UNL A   1      50.490  36.009  30.605  1.00  0.00    -0.237 OA
ATOM     88  O   UNL A   1      49.191  37.132  28.828  1.00  0.00    -0.237 OA
ATOM     89  O   UNL A   1      48.281  36.986  31.113  1.00  0.00    -0.744 OA
ENDBRANCH  85  86
ENDBRANCH  59  80
ENDBRANCH  33  34
ENDBRANCH  25  28
ENDBRANCH  23  24
ENDBRANCH   1  23
TORSDOF 19
ENDMDL
MODEL 3
REMARK VINA RESULT:     -10.5      3.372      4.155
REMARK SMILES CCCN(CCC)c1ccc(C(=O)NCCCNC(=O)c2ccc(-c3c4nc(c(-c5ccc(S(=O)(=O)[O-])cc5)c5ccc([nH]5)c(-c5ccc(S(=O)(=O)[O-])cc5)c5nc(c(-c6ccc(S(=O)(=O)[O-])cc6)c6ccc3[nH]6)C=C5)C=C4)cc2)cc1[N+](=O)[O-]
REMARK SMILES IDX 16 1 15 2 14 3 12 4 13 5 11 7 8 8 9 9 82 10 10 11 81 12 4 13
REMARK SMILES IDX 3 14 2 15 1 16 5 17 6 18 7 19 83 20 84 21 85 22 17 23 18 24
REMARK SMILES IDX 19 25 20 27 21 28 22 29 80 30 23 31 79 32 24 33 25 34 26 35
REMARK SMILES IDX 73 36 27 37 78 38 72 39 74 40 28 41 77 42 71 43 70 44 29 46
REMARK SMILES IDX 59 47 40 48 58 49 41 50 44 51 57 52 75 53 42 54 43 55 56 57
REMARK SMILES IDX 76 58 45 59 30 60 31 61 39 62 32 63 38 64 33 65 34 66 35 67
REMARK SMILES IDX 36 68 37 69 60 70 61 71 69 72 62 73 68 74 63 75 64 76 65 77
REMARK SMILES IDX 66 78 67 79 46 80 47 81 55 82 48 83 54 84 49 85 50 86 51 87
REMARK SMILES IDX 52 88 53 89
REMARK H PARENT 14 6 18 26 74 45 44 56
REMARK Flexibility Score: inf
ROOT
ATOM      1  C   UNL A   1      36.485  23.870  24.675  1.00  0.00     0.042 C 
ENDROOT
BRANCH   1   2
ATOM      2  C   UNL A   1      36.097  22.802  23.657  1.00  0.00     0.118 C 
BRANCH   2   3
ATOM      3  N   UNL A   1      35.052  21.919  24.153  1.00  0.00    -0.352 N 
ATOM      4  C   UNL A   1      33.717  22.174  24.331  1.00  0.00     0.251 C 
ATOM      5  O   UNL A   1      32.933  21.263  24.580  1.00  0.00    -0.269 OA
ATOM      6  H   UNL A   1      35.345  21.011  24.395  1.00  0.00     0.163 HD
BRANCH   4   7
ATOM      7  C   UNL A   1      33.203  23.548  24.180  1.00  0.00     0.046 A 
ATOM      8  C   UNL A   1      32.183  26.179  23.963  1.00  0.00     0.116 A 
ATOM      9  C   UNL A   1      32.194  25.499  25.193  1.00  0.00     0.034 A 
ATOM     10  C   UNL A   1      32.692  25.486  22.852  1.00  0.00     0.293 A 
ATOM     11  C   UNL A   1      32.713  24.204  25.309  1.00  0.00     0.016 A 
ATOM     12  C   UNL A   1      33.216  24.191  22.946  1.00  0.00     0.101 A 
BRANCH   8  13
ATOM     13  N   UNL A   1      31.720  27.482  23.910  1.00  0.00    -0.366 N 
BRANCH  13  14
ATOM     14  C   UNL A   1      32.655  28.598  23.750  1.00  0.00     0.116 C 
BRANCH  14  15
ATOM     15  C   UNL A   1      33.868  28.452  24.677  1.00  0.00     0.018 C 
ATOM     16  C   UNL A   1      33.621  29.000  26.076  1.00  0.00     0.006 C 
ENDBRANCH  14  15
ENDBRANCH  13  14
BRANCH  13  17
ATOM     17  C   UNL A   1      30.283  27.699  23.685  1.00  0.00     0.116 C 
BRANCH  17  18
ATOM     18  C   UNL A   1      30.016  28.731  22.580  1.00  0.00     0.018 C 
ATOM     19  C   UNL A   1      28.573  29.225  22.564  1.00  0.00     0.006 C 
ENDBRANCH  17  18
ENDBRANCH  13  17
ENDBRANCH   8  13
BRANCH  10  20
ATOM     20  N   UNL A   1      32.574  26.040  21.517  1.00  0.00     0.065 N 
ATOM     21  O   UNL A   1      33.574  26.626  21.076  1.00  0.00    -0.258 OA
ATOM     22  O   UNL A   1      31.479  25.954  20.944  1.00  0.00    -0.258 OA
ENDBRANCH  10  20
ENDBRANCH   4   7
ENDBRANCH   2   3
ENDBRANCH   1   2
BRANCH   1  23
ATOM     23  C   UNL A   1      36.809  23.312  26.055  1.00  0.00     0.118 C 
BRANCH  23  24
ATOM     24  N   UNL A   1      37.998  22.473  26.047  1.00  0.00    -0.352 N 
ATOM     25  C   UNL A   1      39.302  22.795  26.330  1.00  0.00     0.251 C 
ATOM     26  H   UNL A   1      37.844  21.533  25.801  1.00  0.00     0.163 HD
ATOM     27  O   UNL A   1      40.190  21.989  26.066  1.00  0.00    -0.269 OA
BRANCH  25  28
ATOM     28  C   UNL A   1      39.641  24.102  26.936  1.00  0.00     0.039 A 
ATOM     29  C   UNL A   1      39.485  24.267  28.315  1.00  0.00     0.014 A 
ATOM     30  C   UNL A   1      40.074  25.175  26.150  1.00  0.00     0.014 A 
ATOM     31  C   UNL A   1      39.811  25.488  28.910  1.00  0.00     0.010 A 
ATOM     32  C   UNL A   1      40.469  26.365  26.753  1.00  0.00     0.010 A 
ATOM     33  C   UNL A   1      40.331  26.539  28.137  1.00  0.00    -0.014 A 
BRANCH  33  34
ATOM     34  C   UNL A   1      40.722  27.831  28.756  1.00  0.00     0.031 A 
ATOM     35  C   UNL A   1      42.106  28.014  29.317  1.00  0.00     0.074 A 
ATOM     36  C   UNL A   1      39.814  28.820  28.866  1.00  0.00     0.049 A 
ATOM     37  N   UNL A   1      42.619  29.050  29.930  1.00  0.00    -0.248 NA
ATOM     38  C   UNL A   1      43.027  26.872  29.194  1.00  0.00     0.031 C 
ATOM     39  C   UNL A   1      38.431  28.755  28.391  1.00  0.00     0.029 A 
ATOM     40  N   UNL A   1      39.920  30.073  29.414  1.00  0.00    -0.354 N 
ATOM     41  C   UNL A   1      43.911  28.678  30.286  1.00  0.00     0.074 A 
ATOM     42  C   UNL A   1      44.084  27.305  29.864  1.00  0.00     0.031 C 
ATOM     43  C   UNL A   1      37.828  29.931  28.635  1.00  0.00     0.029 A 
ATOM     44  C   UNL A   1      38.768  30.816  29.318  1.00  0.00     0.049 A 
ATOM     45  H   UNL A   1      40.743  30.409  29.837  1.00  0.00     0.167 HD
ATOM     46  C   UNL A   1      44.870  29.414  30.897  1.00  0.00     0.031 A 
ATOM     47  C   UNL A   1      38.495  32.069  29.730  1.00  0.00     0.031 A 
ATOM     48  C   UNL A   1      44.696  30.782  31.310  1.00  0.00     0.049 A 
ATOM     49  C   UNL A   1      39.570  32.866  30.414  1.00  0.00     0.074 A 
ATOM     50  C   UNL A   1      45.623  31.635  31.882  1.00  0.00     0.029 A 
ATOM     51  N   UNL A   1      43.510  31.493  31.202  1.00  0.00    -0.354 N 
ATOM     52  N   UNL A   1      40.804  32.518  30.689  1.00  0.00    -0.248 NA
ATOM     53  C   UNL A   1      39.216  34.227  30.837  1.00  0.00     0.031 C 
ATOM     54  C   UNL A   1      44.984  32.848  32.164  1.00  0.00     0.029 A 
ATOM     55  C   UNL A   1      43.673  32.769  31.719  1.00  0.00     0.049 A 
ATOM     56  H   UNL A   1      42.675  31.145  30.815  1.00  0.00     0.167 HD
ATOM     57  C   UNL A   1      41.384  33.627  31.294  1.00  0.00     0.074 A 
ATOM     58  C   UNL A   1      40.365  34.659  31.337  1.00  0.00     0.031 C 
ATOM     59  C   UNL A   1      42.647  33.779  31.766  1.00  0.00     0.031 A 
BRANCH  46  60
ATOM     60  C   UNL A   1      46.187  28.733  31.169  1.00  0.00    -0.014 A 
ATOM     61  C   UNL A   1      47.210  28.707  30.202  1.00  0.00     0.010 A 
ATOM     62  C   UNL A   1      46.401  28.095  32.405  1.00  0.00     0.010 A 
ATOM     63  C   UNL A   1      48.389  27.995  30.438  1.00  0.00     0.020 A 
ATOM     64  C   UNL A   1      47.592  27.408  32.655  1.00  0.00     0.020 A 
ATOM     65  C   UNL A   1      48.566  27.338  31.659  1.00  0.00     0.054 A 
BRANCH  65  66
ATOM     66  S   UNL A   1      50.091  26.393  31.928  1.00  0.00     0.124 S 
ATOM     67  O   UNL A   1      49.762  25.112  31.308  1.00  0.00    -0.237 OA
ATOM     68  O   UNL A   1      51.094  27.191  31.226  1.00  0.00    -0.237 OA
ATOM     69  O   UNL A   1      50.228  26.365  33.382  1.00  0.00    -0.744 OA
ENDBRANCH  65  66
ENDBRANCH  46  60
BRANCH  47  70
ATOM     70  C   UNL A   1      37.156  32.655  29.457  1.00  0.00    -0.014 A 
ATOM     71  C   UNL A   1      36.184  32.689  30.472  1.00  0.00     0.010 A 
ATOM     72  C   UNL A   1      36.864  33.230  28.208  1.00  0.00     0.010 A 
ATOM     73  C   UNL A   1      34.943  33.291  30.244  1.00  0.00     0.020 A 
ATOM     74  C   UNL A   1      35.633  33.854  27.984  1.00  0.00     0.020 A 
ATOM     75  C   UNL A   1      34.678  33.877  29.003  1.00  0.00     0.054 A 
BRANCH  75  76
ATOM     76  S   UNL A   1      33.094  34.729  28.761  1.00  0.00     0.124 S 
ATOM     77  O   UNL A   1      32.413  33.842  27.825  1.00  0.00    -0.237 OA
ATOM     78  O   UNL A   1      32.545  34.761  30.115  1.00  0.00    -0.237 OA
ATOM     79  O   UNL A   1      33.484  36.030  28.224  1.00  0.00    -0.744 OA
ENDBRANCH  75  76
ENDBRANCH  47  70
BRANCH  59  80
ATOM     80  C   UNL A   1      43.007  35.119  32.349  1.00  0.00    -0.014 A 
ATOM     81  C   UNL A   1      42.822  35.392  33.717  1.00  0.00     0.010 A 
ATOM     82  C   UNL A   1      43.586  36.101  31.525  1.00  0.00     0.010 A 
ATOM     83  C   UNL A   1      43.184  36.636  34.243  1.00  0.00     0.020 A 
ATOM     84  C   UNL A   1      43.972  37.336  32.053  1.00  0.00     0.020 A 
ATOM     85  C   UNL A   1      43.756  37.600  33.407  1.00  0.00     0.054 A 
BRANCH  85  86
ATOM     86  S   UNL A   1      44.256  39.190  34.121  1.00  0.00     0.124 S 
ATOM     87  O   UNL A   1      44.478  38.838  35.521  1.00  0.00    -0.237 OA
ATOM     88  O   UNL A   1      45.457  39.522  33.358  1.00  0.00    -0.237 OA
ATOM     89  O   UNL A   1      43.107  40.059  33.872  1.00  0.00    -0.744 OA
ENDBRANCH  85  86
ENDBRANCH  59  80
ENDBRANCH  33  34
ENDBRANCH  25  28
ENDBRANCH  23  24
ENDBRANCH   1  23
TORSDOF 19
ENDMDL
