MODEL 1
REMARK VINA RESULT:     -13.4      0.000      0.000
REMARK SMILES CN1C(=O)/C(=C(\SC2=[NH+][C@@H]3N=c4ccccc4=C3N=N2)C(=O)NCCCNC(=O)c2ccc(-c3c4nc(c(-c5ccc(S(=O)(=O)[O-])cc5)c5ccc([nH]5)c(-c5ccc(S(=O)(=O)[O-])cc5)c5nc(c(-c6ccc(S(=O)(=O)[O-])cc6)c6ccc3[nH]6)C=C5)C=C4)cc2)c2ccccc21
REMARK SMILES IDX 25 1 24 2 23 3 21 4 22 5 6 7 1 8 2 9 3 10 95 11 4 12 5 13
REMARK SMILES IDX 90 14 94 15 91 16 93 17 92 18 7 19 8 20 9 21 20 22 10 23
REMARK SMILES IDX 19 25 11 26 18 27 12 28 17 29 13 30 16 31 14 32 15 33 26 34
REMARK SMILES IDX 27 35 28 36 29 38 30 39 31 40 89 41 32 42 88 43 33 44 34 45
REMARK SMILES IDX 35 46 82 47 36 48 87 49 81 50 83 51 37 52 86 53 80 54 79 55
REMARK SMILES IDX 38 57 68 58 49 59 67 60 50 61 53 62 66 63 84 64 51 65 52 66
REMARK SMILES IDX 65 68 85 69 54 70 39 71 40 72 48 73 41 74 47 75 42 76 43 77
REMARK SMILES IDX 44 78 45 79 46 80 69 81 70 82 78 83 71 84 77 85 72 86 73 87
REMARK SMILES IDX 74 88 75 89 76 90 55 91 56 92 64 93 57 94 63 95 58 96 59 97
REMARK SMILES IDX 60 98 61 99 62 100
REMARK H PARENT 23 6 9 24 27 37 83 56 53 67
REMARK Flexibility Score: inf
ROOT
ATOM      1  C   UNL A   1      33.160  28.067  27.368  1.00  0.00     0.042 C 
ENDROOT
BRANCH   1   2
ATOM      2  C   UNL A   1      31.673  27.701  27.393  1.00  0.00     0.118 C 
BRANCH   2   3
ATOM      3  N   UNL A   1      31.516  26.250  27.342  1.00  0.00    -0.351 N 
ATOM      4  C   UNL A   1      31.727  25.263  26.430  1.00  0.00     0.259 C 
ATOM      5  O   UNL A   1      31.010  24.274  26.614  1.00  0.00    -0.269 OA
ATOM      6  H   UNL A   1      31.166  25.892  28.190  1.00  0.00     0.163 HD
BRANCH   4   7
ATOM      7  C   UNL A   1      32.779  25.267  25.336  1.00  0.00     0.098 C 
ATOM      8  C   UNL A   1      34.077  28.003  21.670  1.00  0.00     0.153 C 
ATOM      9  N   UNL A   1      33.180  27.257  22.506  1.00  0.00    -0.311 N 
ATOM     10  C   UNL A   1      33.424  25.991  23.016  1.00  0.00     0.260 C 
ATOM     11  C   UNL A   1      31.874  27.645  22.839  1.00  0.00     0.052 A 
ATOM     12  O   UNL A   1      34.187  25.131  22.586  1.00  0.00    -0.269 OA
ATOM     13  C   UNL A   1      32.456  25.848  24.150  1.00  0.00     0.069 C 
ATOM     14  C   UNL A   1      31.325  26.715  23.735  1.00  0.00     0.012 A 
ATOM     15  C   UNL A   1      31.134  28.672  22.276  1.00  0.00     0.027 A 
ATOM     16  C   UNL A   1      29.957  26.717  23.954  1.00  0.00     0.011 A 
ATOM     17  C   UNL A   1      29.766  28.702  22.544  1.00  0.00     0.002 A 
ATOM     18  C   UNL A   1      29.180  27.717  23.355  1.00  0.00     0.001 A 
BRANCH   7  19
ATOM     19  S   UNL A   1      34.284  24.480  25.711  1.00  0.00     0.011 SA
BRANCH  19  20
ATOM     20  C   UNL A   1      34.216  22.741  25.376  1.00  0.00     0.386 C 
ATOM     21  N   UNL A   1      33.037  22.204  25.304  1.00  0.00    -0.235 N 
ATOM     22  N   UNL A   1      35.400  22.148  25.000  1.00  0.00     0.088 NA
ATOM     23  C   UNL A   1      33.019  20.984  24.504  1.00  0.00     0.348 C 
ATOM     24  H   UNL A   1      32.241  22.580  25.743  1.00  0.00     0.308 HD
ATOM     25  N   UNL A   1      35.464  20.987  24.553  1.00  0.00    -0.033 NA
ATOM     26  N   UNL A   1      32.036  19.959  24.923  1.00  0.00    -0.232 NA
ATOM     27  C   UNL A   1      34.319  20.282  24.505  1.00  0.00     0.165 C 
ATOM     28  C   UNL A   1      32.731  18.858  24.849  1.00  0.00     0.072 A 
ATOM     29  C   UNL A   1      34.173  18.970  24.571  1.00  0.00     0.032 A 
ATOM     30  C   UNL A   1      32.246  17.476  25.076  1.00  0.00     0.029 A 
ATOM     31  C   UNL A   1      35.064  17.857  24.572  1.00  0.00     0.012 A 
ATOM     32  C   UNL A   1      33.123  16.455  25.029  1.00  0.00     0.002 A 
ATOM     33  C   UNL A   1      34.546  16.637  24.778  1.00  0.00     0.001 A 
ENDBRANCH  19  20
ENDBRANCH   7  19
ENDBRANCH   4   7
ENDBRANCH   2   3
ENDBRANCH   1   2
BRANCH   1  34
ATOM     34  C   UNL A   1      33.494  29.192  26.392  1.00  0.00     0.118 C 
BRANCH  34  35
ATOM     35  N   UNL A   1      33.457  30.507  27.019  1.00  0.00    -0.352 N 
ATOM     36  C   UNL A   1      34.354  31.089  27.886  1.00  0.00     0.251 C 
ATOM     37  H   UNL A   1      32.675  31.060  26.790  1.00  0.00     0.163 HD
ATOM     38  O   UNL A   1      34.067  32.139  28.452  1.00  0.00    -0.269 OA
BRANCH  36  39
ATOM     39  C   UNL A   1      35.652  30.431  28.156  1.00  0.00     0.039 A 
ATOM     40  C   UNL A   1      35.872  29.763  29.362  1.00  0.00     0.014 A 
ATOM     41  C   UNL A   1      36.667  30.502  27.197  1.00  0.00     0.014 A 
ATOM     42  C   UNL A   1      37.153  29.323  29.681  1.00  0.00     0.010 A 
ATOM     43  C   UNL A   1      37.935  29.988  27.489  1.00  0.00     0.010 A 
ATOM     44  C   UNL A   1      38.203  29.445  28.755  1.00  0.00    -0.014 A 
BRANCH  44  45
ATOM     45  C   UNL A   1      39.574  29.021  29.147  1.00  0.00     0.031 A 
ATOM     46  C   UNL A   1      40.409  29.880  30.061  1.00  0.00     0.074 A 
ATOM     47  C   UNL A   1      40.039  27.824  28.740  1.00  0.00     0.049 A 
ATOM     48  N   UNL A   1      41.603  29.644  30.545  1.00  0.00    -0.248 NA
ATOM     49  C   UNL A   1      39.835  31.167  30.493  1.00  0.00     0.031 C 
ATOM     50  C   UNL A   1      39.313  26.890  27.877  1.00  0.00     0.029 A 
ATOM     51  N   UNL A   1      41.211  27.168  29.029  1.00  0.00    -0.354 N 
ATOM     52  C   UNL A   1      41.926  30.750  31.323  1.00  0.00     0.074 A 
ATOM     53  C   UNL A   1      40.817  31.674  31.226  1.00  0.00     0.031 C 
ATOM     54  C   UNL A   1      40.022  25.758  27.763  1.00  0.00     0.029 A 
ATOM     55  C   UNL A   1      41.279  25.905  28.492  1.00  0.00     0.049 A 
ATOM     56  H   UNL A   1      41.932  27.565  29.569  1.00  0.00     0.167 HD
ATOM     57  C   UNL A   1      43.039  30.970  32.062  1.00  0.00     0.031 A 
ATOM     58  C   UNL A   1      42.241  24.964  28.570  1.00  0.00     0.031 A 
ATOM     59  C   UNL A   1      44.132  30.041  32.172  1.00  0.00     0.049 A 
ATOM     60  C   UNL A   1      43.486  25.248  29.360  1.00  0.00     0.074 A 
ATOM     61  C   UNL A   1      45.300  30.178  32.904  1.00  0.00     0.029 A 
ATOM     62  N   UNL A   1      44.196  28.807  31.546  1.00  0.00    -0.354 N 
ATOM     63  N   UNL A   1      43.778  26.308  30.072  1.00  0.00    -0.248 NA
ATOM     64  C   UNL A   1      44.533  24.217  29.352  1.00  0.00     0.031 C 
ATOM     65  C   UNL A   1      46.090  29.048  32.683  1.00  0.00     0.029 A 
ATOM     66  C   UNL A   1      45.391  28.181  31.858  1.00  0.00     0.049 A 
ATOM     67  H   UNL A   1      43.495  28.431  30.966  1.00  0.00     0.167 HD
ATOM     68  C   UNL A   1      45.043  26.074  30.599  1.00  0.00     0.074 A 
ATOM     69  C   UNL A   1      45.452  24.762  30.140  1.00  0.00     0.031 C 
ATOM     70  C   UNL A   1      45.794  26.880  31.387  1.00  0.00     0.031 A 
BRANCH  57  71
ATOM     71  C   UNL A   1      43.146  32.267  32.821  1.00  0.00    -0.014 A 
ATOM     72  C   UNL A   1      42.649  32.350  34.134  1.00  0.00     0.010 A 
ATOM     73  C   UNL A   1      43.635  33.429  32.199  1.00  0.00     0.010 A 
ATOM     74  C   UNL A   1      42.618  33.574  34.806  1.00  0.00     0.020 A 
ATOM     75  C   UNL A   1      43.626  34.653  32.876  1.00  0.00     0.020 A 
ATOM     76  C   UNL A   1      43.098  34.722  34.168  1.00  0.00     0.054 A 
BRANCH  76  77
ATOM     77  S   UNL A   1      43.037  36.308  35.047  1.00  0.00     0.124 S 
ATOM     78  O   UNL A   1      43.976  36.090  36.143  1.00  0.00    -0.237 OA
ATOM     79  O   UNL A   1      43.467  37.259  34.025  1.00  0.00    -0.237 OA
ATOM     80  O   UNL A   1      41.633  36.426  35.440  1.00  0.00    -0.744 OA
ENDBRANCH  76  77
ENDBRANCH  57  71
BRANCH  58  81
ATOM     81  C   UNL A   1      42.032  23.660  27.886  1.00  0.00    -0.014 A 
ATOM     82  C   UNL A   1      41.347  22.618  28.538  1.00  0.00     0.010 A 
ATOM     83  C   UNL A   1      42.602  23.420  26.624  1.00  0.00     0.010 A 
ATOM     84  C   UNL A   1      41.288  21.343  27.970  1.00  0.00     0.020 A 
ATOM     85  C   UNL A   1      42.523  22.152  26.041  1.00  0.00     0.020 A 
ATOM     86  C   UNL A   1      41.894  21.113  26.733  1.00  0.00     0.054 A 
BRANCH  86  87
ATOM     87  S   UNL A   1      41.864  19.437  26.040  1.00  0.00     0.124 S 
ATOM     88  O   UNL A   1      42.402  18.648  27.146  1.00  0.00    -0.237 OA
ATOM     89  O   UNL A   1      40.447  19.232  25.752  1.00  0.00    -0.237 OA
ATOM     90  O   UNL A   1      42.727  19.540  24.866  1.00  0.00    -0.744 OA
ENDBRANCH  86  87
ENDBRANCH  58  81
BRANCH  70  91
ATOM     91  C   UNL A   1      47.154  26.392  31.807  1.00  0.00    -0.014 A 
ATOM     92  C   UNL A   1      48.235  26.481  30.913  1.00  0.00     0.010 A 
ATOM     93  C   UNL A   1      47.327  25.725  33.032  1.00  0.00     0.010 A 
ATOM     94  C   UNL A   1      49.459  25.881  31.220  1.00  0.00     0.020 A 
ATOM     95  C   UNL A   1      48.555  25.143  33.354  1.00  0.00     0.020 A 
ATOM     96  C   UNL A   1      49.607  25.203  32.434  1.00  0.00     0.054 A 
BRANCH  96  97
ATOM     97  S   UNL A   1      51.189  24.399  32.804  1.00  0.00     0.124 S 
ATOM     98  O   UNL A   1      51.163  24.325  34.262  1.00  0.00    -0.237 OA
ATOM     99  O   UNL A   1      51.075  23.121  32.107  1.00  0.00    -0.237 OA
ATOM    100  O   UNL A   1      52.178  25.318  32.242  1.00  0.00    -0.744 OA
ENDBRANCH  96  97
ENDBRANCH  70  91
ENDBRANCH  44  45
ENDBRANCH  36  39
ENDBRANCH  34  35
ENDBRANCH   1  34
TORSDOF 15
ENDMDL
MODEL 2
REMARK VINA RESULT:     -13.2      1.361      7.895
REMARK SMILES CN1C(=O)/C(=C(\SC2=[NH+][C@@H]3N=c4ccccc4=C3N=N2)C(=O)NCCCNC(=O)c2ccc(-c3c4nc(c(-c5ccc(S(=O)(=O)[O-])cc5)c5ccc([nH]5)c(-c5ccc(S(=O)(=O)[O-])cc5)c5nc(c(-c6ccc(S(=O)(=O)[O-])cc6)c6ccc3[nH]6)C=C5)C=C4)cc2)c2ccccc21
REMARK SMILES IDX 25 1 24 2 23 3 21 4 22 5 6 7 1 8 2 9 3 10 95 11 4 12 5 13
REMARK SMILES IDX 90 14 94 15 91 16 93 17 92 18 7 19 8 20 9 21 20 22 10 23
REMARK SMILES IDX 19 25 11 26 18 27 12 28 17 29 13 30 16 31 14 32 15 33 26 34
REMARK SMILES IDX 27 35 28 36 29 38 30 39 31 40 89 41 32 42 88 43 33 44 34 45
REMARK SMILES IDX 35 46 82 47 36 48 87 49 81 50 83 51 37 52 86 53 80 54 79 55
REMARK SMILES IDX 38 57 68 58 49 59 67 60 50 61 53 62 66 63 84 64 51 65 52 66
REMARK SMILES IDX 65 68 85 69 54 70 39 71 40 72 48 73 41 74 47 75 42 76 43 77
REMARK SMILES IDX 44 78 45 79 46 80 69 81 70 82 78 83 71 84 77 85 72 86 73 87
REMARK SMILES IDX 74 88 75 89 76 90 55 91 56 92 64 93 57 94 63 95 58 96 59 97
REMARK SMILES IDX 60 98 61 99 62 100
REMARK H PARENT 23 6 9 24 27 37 83 56 53 67
REMARK Flexibility Score: inf
ROOT
ATOM      1  C   UNL A   1      32.674  28.361  26.515  1.00  0.00     0.042 C 
ENDROOT
BRANCH   1   2
ATOM      2  C   UNL A   1      31.396  27.897  27.219  1.00  0.00     0.118 C 
BRANCH   2   3
ATOM      3  N   UNL A   1      31.378  26.439  27.312  1.00  0.00    -0.351 N 
ATOM      4  C   UNL A   1      31.669  25.391  26.494  1.00  0.00     0.259 C 
ATOM      5  O   UNL A   1      31.054  24.363  26.790  1.00  0.00    -0.269 OA
ATOM      6  H   UNL A   1      31.078  26.135  28.199  1.00  0.00     0.163 HD
BRANCH   4   7
ATOM      7  C   UNL A   1      32.698  25.387  25.379  1.00  0.00     0.098 C 
ATOM      8  C   UNL A   1      33.882  28.064  21.631  1.00  0.00     0.153 C 
ATOM      9  N   UNL A   1      33.013  27.322  22.500  1.00  0.00    -0.311 N 
ATOM     10  C   UNL A   1      33.286  26.072  23.031  1.00  0.00     0.260 C 
ATOM     11  C   UNL A   1      31.709  27.700  22.852  1.00  0.00     0.052 A 
ATOM     12  O   UNL A   1      34.052  25.214  22.603  1.00  0.00    -0.269 OA
ATOM     13  C   UNL A   1      32.343  25.939  24.188  1.00  0.00     0.069 C 
ATOM     14  C   UNL A   1      31.191  26.781  23.778  1.00  0.00     0.012 A 
ATOM     15  C   UNL A   1      30.943  28.704  22.283  1.00  0.00     0.027 A 
ATOM     16  C   UNL A   1      29.828  26.768  24.026  1.00  0.00     0.011 A 
ATOM     17  C   UNL A   1      29.581  28.720  22.579  1.00  0.00     0.002 A 
ATOM     18  C   UNL A   1      29.025  27.745  23.422  1.00  0.00     0.001 A 
BRANCH   7  19
ATOM     19  S   UNL A   1      34.222  24.630  25.739  1.00  0.00     0.011 SA
BRANCH  19  20
ATOM     20  C   UNL A   1      34.186  22.890  25.397  1.00  0.00     0.386 C 
ATOM     21  N   UNL A   1      33.017  22.330  25.331  1.00  0.00    -0.235 N 
ATOM     22  N   UNL A   1      35.379  22.322  25.012  1.00  0.00     0.088 NA
ATOM     23  C   UNL A   1      33.019  21.113  24.528  1.00  0.00     0.348 C 
ATOM     24  H   UNL A   1      32.217  22.689  25.776  1.00  0.00     0.308 HD
ATOM     25  N   UNL A   1      35.463  21.164  24.561  1.00  0.00    -0.033 NA
ATOM     26  N   UNL A   1      32.059  20.068  24.949  1.00  0.00    -0.232 NA
ATOM     27  C   UNL A   1      34.332  20.437  24.518  1.00  0.00     0.165 C 
ATOM     28  C   UNL A   1      32.774  18.981  24.867  1.00  0.00     0.072 A 
ATOM     29  C   UNL A   1      34.212  19.122  24.581  1.00  0.00     0.032 A 
ATOM     30  C   UNL A   1      32.318  17.588  25.093  1.00  0.00     0.029 A 
ATOM     31  C   UNL A   1      35.125  18.027  24.572  1.00  0.00     0.012 A 
ATOM     32  C   UNL A   1      33.215  16.585  25.036  1.00  0.00     0.002 A 
ATOM     33  C   UNL A   1      34.632  16.796  24.777  1.00  0.00     0.001 A 
ENDBRANCH  19  20
ENDBRANCH   7  19
ENDBRANCH   4   7
ENDBRANCH   2   3
ENDBRANCH   1   2
BRANCH   1  34
ATOM     34  C   UNL A   1      33.828  28.643  27.474  1.00  0.00     0.118 C 
BRANCH  34  35
ATOM     35  N   UNL A   1      33.850  30.028  27.930  1.00  0.00    -0.352 N 
ATOM     36  C   UNL A   1      34.858  30.729  28.551  1.00  0.00     0.251 C 
ATOM     37  H   UNL A   1      33.021  30.535  27.771  1.00  0.00     0.163 HD
ATOM     38  O   UNL A   1      34.632  31.839  29.023  1.00  0.00    -0.269 OA
BRANCH  36  39
ATOM     39  C   UNL A   1      36.205  30.130  28.675  1.00  0.00     0.039 A 
ATOM     40  C   UNL A   1      36.622  29.563  29.881  1.00  0.00     0.014 A 
ATOM     41  C   UNL A   1      37.069  30.156  27.576  1.00  0.00     0.014 A 
ATOM     42  C   UNL A   1      37.952  29.184  30.040  1.00  0.00     0.010 A 
ATOM     43  C   UNL A   1      38.385  29.702  27.716  1.00  0.00     0.010 A 
ATOM     44  C   UNL A   1      38.852  29.264  28.965  1.00  0.00    -0.014 A 
BRANCH  44  45
ATOM     45  C   UNL A   1      40.281  28.911  29.181  1.00  0.00     0.031 A 
ATOM     46  C   UNL A   1      40.807  27.561  28.766  1.00  0.00     0.074 A 
ATOM     47  C   UNL A   1      41.124  29.836  29.682  1.00  0.00     0.049 A 
ATOM     48  N   UNL A   1      42.032  27.103  28.833  1.00  0.00    -0.248 NA
ATOM     49  C   UNL A   1      39.841  26.603  28.201  1.00  0.00     0.031 C 
ATOM     50  C   UNL A   1      40.739  31.187  30.094  1.00  0.00     0.029 A 
ATOM     51  N   UNL A   1      42.481  29.797  29.891  1.00  0.00    -0.354 N 
ATOM     52  C   UNL A   1      41.982  25.806  28.333  1.00  0.00     0.074 A 
ATOM     53  C   UNL A   1      40.602  25.536  27.993  1.00  0.00     0.031 C 
ATOM     54  C   UNL A   1      41.841  31.869  30.440  1.00  0.00     0.029 A 
ATOM     55  C   UNL A   1      43.002  30.989  30.335  1.00  0.00     0.049 A 
ATOM     56  H   UNL A   1      43.027  28.992  29.738  1.00  0.00     0.167 HD
ATOM     57  C   UNL A   1      42.996  24.925  28.160  1.00  0.00     0.031 A 
ATOM     58  C   UNL A   1      44.269  31.343  30.628  1.00  0.00     0.031 A 
ATOM     59  C   UNL A   1      44.371  25.202  28.482  1.00  0.00     0.049 A 
ATOM     60  C   UNL A   1      45.370  30.336  30.469  1.00  0.00     0.074 A 
ATOM     61  C   UNL A   1      45.468  24.369  28.335  1.00  0.00     0.029 A 
ATOM     62  N   UNL A   1      44.842  26.395  29.005  1.00  0.00    -0.354 N 
ATOM     63  N   UNL A   1      45.297  29.110  30.013  1.00  0.00    -0.248 NA
ATOM     64  C   UNL A   1      46.720  30.752  30.872  1.00  0.00     0.031 C 
ATOM     65  C   UNL A   1      46.594  25.042  28.813  1.00  0.00     0.029 A 
ATOM     66  C   UNL A   1      46.210  26.314  29.206  1.00  0.00     0.049 A 
ATOM     67  H   UNL A   1      44.287  27.184  29.203  1.00  0.00     0.167 HD
ATOM     68  C   UNL A   1      46.591  28.605  30.073  1.00  0.00     0.074 A 
ATOM     69  C   UNL A   1      47.430  29.667  30.590  1.00  0.00     0.031 C 
ATOM     70  C   UNL A   1      47.035  27.372  29.732  1.00  0.00     0.031 A 
BRANCH  57  71
ATOM     71  C   UNL A   1      42.671  23.567  27.595  1.00  0.00    -0.014 A 
ATOM     72  C   UNL A   1      42.296  22.523  28.461  1.00  0.00     0.010 A 
ATOM     73  C   UNL A   1      42.842  23.293  26.227  1.00  0.00     0.010 A 
ATOM     74  C   UNL A   1      42.120  21.226  27.975  1.00  0.00     0.020 A 
ATOM     75  C   UNL A   1      42.645  22.000  25.732  1.00  0.00     0.020 A 
ATOM     76  C   UNL A   1      42.305  20.970  26.614  1.00  0.00     0.054 A 
BRANCH  76  77
ATOM     77  S   UNL A   1      42.088  19.276  25.999  1.00  0.00     0.124 S 
ATOM     78  O   UNL A   1      42.972  19.253  24.838  1.00  0.00    -0.237 OA
ATOM     79  O   UNL A   1      42.517  18.464  27.136  1.00  0.00    -0.237 OA
ATOM     80  O   UNL A   1      40.659  19.203  25.700  1.00  0.00    -0.744 OA
ENDBRANCH  76  77
ENDBRANCH  57  71
BRANCH  58  81
ATOM     81  C   UNL A   1      44.542  32.733  31.081  1.00  0.00    -0.014 A 
ATOM     82  C   UNL A   1      44.402  33.078  32.439  1.00  0.00     0.010 A 
ATOM     83  C   UNL A   1      44.841  33.740  30.147  1.00  0.00     0.010 A 
ATOM     84  C   UNL A   1      44.496  34.410  32.846  1.00  0.00     0.020 A 
ATOM     85  C   UNL A   1      44.961  35.072  30.555  1.00  0.00     0.020 A 
ATOM     86  C   UNL A   1      44.756  35.402  31.898  1.00  0.00     0.054 A 
BRANCH  86  87
ATOM     87  S   UNL A   1      44.812  37.134  32.433  1.00  0.00     0.124 S 
ATOM     88  O   UNL A   1      44.063  37.082  33.687  1.00  0.00    -0.237 OA
ATOM     89  O   UNL A   1      46.244  37.386  32.566  1.00  0.00    -0.237 OA
ATOM     90  O   UNL A   1      44.155  37.848  31.341  1.00  0.00    -0.744 OA
ENDBRANCH  86  87
ENDBRANCH  58  81
BRANCH  70  91
ATOM     91  C   UNL A   1      48.499  27.071  29.914  1.00  0.00    -0.014 A 
ATOM     92  C   UNL A   1      48.965  26.592  31.151  1.00  0.00     0.010 A 
ATOM     93  C   UNL A   1      49.425  27.391  28.906  1.00  0.00     0.010 A 
ATOM     94  C   UNL A   1      50.335  26.470  31.391  1.00  0.00     0.020 A 
ATOM     95  C   UNL A   1      50.795  27.248  29.134  1.00  0.00     0.020 A 
ATOM     96  C   UNL A   1      51.243  26.812  30.385  1.00  0.00     0.054 A 
BRANCH  96  97
ATOM     97  S   UNL A   1      53.020  26.682  30.723  1.00  0.00     0.124 S 
ATOM     98  O   UNL A   1      53.572  26.467  29.389  1.00  0.00    -0.237 OA
ATOM     99  O   UNL A   1      53.330  27.973  31.331  1.00  0.00    -0.237 OA
ATOM    100  O   UNL A   1      53.111  25.539  31.629  1.00  0.00    -0.744 OA
ENDBRANCH  96  97
ENDBRANCH  70  91
ENDBRANCH  44  45
ENDBRANCH  36  39
ENDBRANCH  34  35
ENDBRANCH   1  34
TORSDOF 15
ENDMDL
MODEL 3
REMARK VINA RESULT:     -12.9      2.459      8.673
REMARK SMILES CN1C(=O)/C(=C(\SC2=[NH+][C@@H]3N=c4ccccc4=C3N=N2)C(=O)NCCCNC(=O)c2ccc(-c3c4nc(c(-c5ccc(S(=O)(=O)[O-])cc5)c5ccc([nH]5)c(-c5ccc(S(=O)(=O)[O-])cc5)c5nc(c(-c6ccc(S(=O)(=O)[O-])cc6)c6ccc3[nH]6)C=C5)C=C4)cc2)c2ccccc21
REMARK SMILES IDX 25 1 24 2 23 3 21 4 22 5 6 7 1 8 2 9 3 10 95 11 4 12 5 13
REMARK SMILES IDX 90 14 94 15 91 16 93 17 92 18 7 19 8 20 9 21 20 22 10 23
REMARK SMILES IDX 19 25 11 26 18 27 12 28 17 29 13 30 16 31 14 32 15 33 26 34
REMARK SMILES IDX 27 35 28 36 29 38 30 39 31 40 89 41 32 42 88 43 33 44 34 45
REMARK SMILES IDX 35 46 82 47 36 48 87 49 81 50 83 51 37 52 86 53 80 54 79 55
REMARK SMILES IDX 38 57 68 58 49 59 67 60 50 61 53 62 66 63 84 64 51 65 52 66
REMARK SMILES IDX 65 68 85 69 54 70 39 71 40 72 48 73 41 74 47 75 42 76 43 77
REMARK SMILES IDX 44 78 45 79 46 80 69 81 70 82 78 83 71 84 77 85 72 86 73 87
REMARK SMILES IDX 74 88 75 89 76 90 55 91 56 92 64 93 57 94 63 95 58 96 59 97
REMARK SMILES IDX 60 98 61 99 62 100
REMARK H PARENT 23 6 9 24 27 37 83 56 53 67
REMARK Flexibility Score: inf
ROOT
ATOM      1  C   UNL A   1      35.962  23.354  26.120  1.00  0.00     0.042 C 
ENDROOT
BRANCH   1   2
ATOM      2  C   UNL A   1      34.972  24.507  25.928  1.00  0.00     0.118 C 
BRANCH   2   3
ATOM      3  N   UNL A   1      33.658  24.128  26.442  1.00  0.00    -0.351 N 
ATOM      4  C   UNL A   1      32.366  24.491  26.220  1.00  0.00     0.259 C 
ATOM      5  O   UNL A   1      31.635  24.290  27.194  1.00  0.00    -0.269 OA
ATOM      6  H   UNL A   1      33.726  23.425  27.128  1.00  0.00     0.163 HD
BRANCH   4   7
ATOM      7  C   UNL A   1      31.794  25.005  24.912  1.00  0.00     0.098 C 
ATOM      8  C   UNL A   1      31.541  29.105  22.515  1.00  0.00     0.153 C 
ATOM      9  N   UNL A   1      31.421  28.229  23.646  1.00  0.00    -0.311 N 
ATOM     10  C   UNL A   1      30.872  26.956  23.620  1.00  0.00     0.260 C 
ATOM     11  C   UNL A   1      31.735  28.570  24.970  1.00  0.00     0.052 A 
ATOM     12  O   UNL A   1      30.069  26.490  22.818  1.00  0.00    -0.269 OA
ATOM     13  C   UNL A   1      31.381  26.300  24.868  1.00  0.00     0.069 C 
ATOM     14  C   UNL A   1      31.572  27.445  25.793  1.00  0.00     0.012 A 
ATOM     15  C   UNL A   1      32.001  29.834  25.471  1.00  0.00     0.027 A 
ATOM     16  C   UNL A   1      31.519  27.616  27.167  1.00  0.00     0.011 A 
ATOM     17  C   UNL A   1      32.001  29.990  26.856  1.00  0.00     0.002 A 
ATOM     18  C   UNL A   1      31.736  28.896  27.695  1.00  0.00     0.001 A 
BRANCH   7  19
ATOM     19  S   UNL A   1      31.690  23.855  23.611  1.00  0.00     0.011 SA
BRANCH  19  20
ATOM     20  C   UNL A   1      32.184  22.233  24.130  1.00  0.00     0.386 C 
ATOM     21  N   UNL A   1      33.418  21.898  23.911  1.00  0.00    -0.235 N 
ATOM     22  N   UNL A   1      31.287  21.549  24.919  1.00  0.00     0.088 NA
ATOM     23  C   UNL A   1      33.890  20.857  24.817  1.00  0.00     0.348 C 
ATOM     24  H   UNL A   1      33.975  22.303  23.208  1.00  0.00     0.308 HD
ATOM     25  N   UNL A   1      31.574  20.490  25.509  1.00  0.00    -0.033 NA
ATOM     26  N   UNL A   1      34.900  19.931  24.256  1.00  0.00    -0.232 NA
ATOM     27  C   UNL A   1      32.802  19.982  25.298  1.00  0.00     0.165 C 
ATOM     28  C   UNL A   1      34.479  18.770  24.677  1.00  0.00     0.072 A 
ATOM     29  C   UNL A   1      33.176  18.716  25.360  1.00  0.00     0.032 A 
ATOM     30  C   UNL A   1      35.141  17.456  24.492  1.00  0.00     0.029 A 
ATOM     31  C   UNL A   1      32.551  17.502  25.771  1.00  0.00     0.012 A 
ATOM     32  C   UNL A   1      34.525  16.343  24.933  1.00  0.00     0.002 A 
ATOM     33  C   UNL A   1      33.219  16.354  25.576  1.00  0.00     0.001 A 
ENDBRANCH  19  20
ENDBRANCH   7  19
ENDBRANCH   4   7
ENDBRANCH   2   3
ENDBRANCH   1   2
BRANCH   1  34
ATOM     34  C   UNL A   1      37.071  23.323  25.072  1.00  0.00     0.118 C 
BRANCH  34  35
ATOM     35  N   UNL A   1      38.162  22.429  25.439  1.00  0.00    -0.352 N 
ATOM     36  C   UNL A   1      39.334  22.706  26.106  1.00  0.00     0.251 C 
ATOM     37  H   UNL A   1      38.044  21.489  25.171  1.00  0.00     0.163 HD
ATOM     38  O   UNL A   1      40.219  21.858  26.170  1.00  0.00    -0.269 OA
BRANCH  36  39
ATOM     39  C   UNL A   1      39.537  24.038  26.717  1.00  0.00     0.039 A 
ATOM     40  C   UNL A   1      40.160  25.062  25.999  1.00  0.00     0.014 A 
ATOM     41  C   UNL A   1      39.119  24.258  28.033  1.00  0.00     0.014 A 
ATOM     42  C   UNL A   1      40.519  26.239  26.650  1.00  0.00     0.010 A 
ATOM     43  C   UNL A   1      39.412  25.473  28.661  1.00  0.00     0.010 A 
ATOM     44  C   UNL A   1      40.164  26.451  27.992  1.00  0.00    -0.014 A 
BRANCH  44  45
ATOM     45  C   UNL A   1      40.615  27.691  28.679  1.00  0.00     0.031 A 
ATOM     46  C   UNL A   1      42.060  27.871  29.065  1.00  0.00     0.074 A 
ATOM     47  C   UNL A   1      39.735  28.692  28.885  1.00  0.00     0.049 A 
ATOM     48  N   UNL A   1      42.638  28.905  29.623  1.00  0.00    -0.248 NA
ATOM     49  C   UNL A   1      42.978  26.752  28.790  1.00  0.00     0.031 C 
ATOM     50  C   UNL A   1      38.316  28.648  28.529  1.00  0.00     0.029 A 
ATOM     51  N   UNL A   1      39.910  29.951  29.404  1.00  0.00    -0.354 N 
ATOM     52  C   UNL A   1      43.976  28.559  29.776  1.00  0.00     0.074 A 
ATOM     53  C   UNL A   1      44.123  27.209  29.280  1.00  0.00     0.031 C 
ATOM     54  C   UNL A   1      37.766  29.846  28.775  1.00  0.00     0.029 A 
ATOM     55  C   UNL A   1      38.775  30.724  29.363  1.00  0.00     0.049 A 
ATOM     56  H   UNL A   1      40.767  30.269  29.771  1.00  0.00     0.167 HD
ATOM     57  C   UNL A   1      44.992  29.305  30.271  1.00  0.00     0.031 A 
ATOM     58  C   UNL A   1      38.559  31.996  29.753  1.00  0.00     0.031 A 
ATOM     59  C   UNL A   1      44.847  30.655  30.748  1.00  0.00     0.049 A 
ATOM     60  C   UNL A   1      39.691  32.788  30.340  1.00  0.00     0.074 A 
ATOM     61  C   UNL A   1      45.825  31.490  31.262  1.00  0.00     0.029 A 
ATOM     62  N   UNL A   1      43.661  31.372  30.762  1.00  0.00    -0.354 N 
ATOM     63  N   UNL A   1      40.943  32.434  30.492  1.00  0.00    -0.248 NA
ATOM     64  C   UNL A   1      39.383  34.144  30.815  1.00  0.00     0.031 C 
ATOM     65  C   UNL A   1      45.221  32.694  31.632  1.00  0.00     0.029 A 
ATOM     66  C   UNL A   1      43.878  32.630  31.296  1.00  0.00     0.049 A 
ATOM     67  H   UNL A   1      42.794  31.035  30.439  1.00  0.00     0.167 HD
ATOM     68  C   UNL A   1      41.575  33.523  31.081  1.00  0.00     0.074 A 
ATOM     69  C   UNL A   1      40.572  34.556  31.238  1.00  0.00     0.031 C 
ATOM     70  C   UNL A   1      42.870  33.648  31.459  1.00  0.00     0.031 A 
BRANCH  57  71
ATOM     71  C   UNL A   1      46.365  28.687  30.332  1.00  0.00    -0.014 A 
ATOM     72  C   UNL A   1      47.224  28.788  29.222  1.00  0.00     0.010 A 
ATOM     73  C   UNL A   1      46.763  27.917  31.438  1.00  0.00     0.010 A 
ATOM     74  C   UNL A   1      48.446  28.111  29.207  1.00  0.00     0.020 A 
ATOM     75  C   UNL A   1      47.996  27.257  31.436  1.00  0.00     0.020 A 
ATOM     76  C   UNL A   1      48.820  27.341  30.311  1.00  0.00     0.054 A 
BRANCH  76  77
ATOM     77  S   UNL A   1      50.404  26.455  30.270  1.00  0.00     0.124 S 
ATOM     78  O   UNL A   1      50.662  26.350  28.838  1.00  0.00    -0.237 OA
ATOM     79  O   UNL A   1      51.292  27.350  31.008  1.00  0.00    -0.237 OA
ATOM     80  O   UNL A   1      50.106  25.194  30.947  1.00  0.00    -0.744 OA
ENDBRANCH  76  77
ENDBRANCH  57  71
BRANCH  58  81
ATOM     81  C   UNL A   1      37.206  32.586  29.571  1.00  0.00    -0.014 A 
ATOM     82  C   UNL A   1      36.823  33.114  28.324  1.00  0.00     0.010 A 
ATOM     83  C   UNL A   1      36.334  32.715  30.666  1.00  0.00     0.010 A 
ATOM     84  C   UNL A   1      35.622  33.813  28.187  1.00  0.00     0.020 A 
ATOM     85  C   UNL A   1      35.118  33.392  30.526  1.00  0.00     0.020 A 
ATOM     86  C   UNL A   1      34.786  33.965  29.295  1.00  0.00     0.054 A 
BRANCH  86  87
ATOM     87  S   UNL A   1      33.261  34.931  29.117  1.00  0.00     0.124 S 
ATOM     88  O   UNL A   1      33.778  36.229  28.690  1.00  0.00    -0.237 OA
ATOM     89  O   UNL A   1      32.522  34.184  28.102  1.00  0.00    -0.237 OA
ATOM     90  O   UNL A   1      32.680  34.898  30.457  1.00  0.00    -0.744 OA
ENDBRANCH  86  87
ENDBRANCH  58  81
BRANCH  70  91
ATOM     91  C   UNL A   1      43.300  34.940  32.099  1.00  0.00    -0.014 A 
ATOM     92  C   UNL A   1      43.283  35.064  33.500  1.00  0.00     0.010 A 
ATOM     93  C   UNL A   1      43.588  36.067  31.312  1.00  0.00     0.010 A 
ATOM     94  C   UNL A   1      43.514  36.303  34.103  1.00  0.00     0.020 A 
ATOM     95  C   UNL A   1      43.843  37.303  31.912  1.00  0.00     0.020 A 
ATOM     96  C   UNL A   1      43.779  37.418  33.304  1.00  0.00     0.054 A 
BRANCH  96  97
ATOM     97  S   UNL A   1      44.041  39.027  34.099  1.00  0.00     0.124 S 
ATOM     98  O   UNL A   1      45.420  39.332  33.726  1.00  0.00    -0.237 OA
ATOM     99  O   UNL A   1      43.021  39.867  33.477  1.00  0.00    -0.237 OA
ATOM    100  O   UNL A   1      43.825  38.745  35.516  1.00  0.00    -0.744 OA
ENDBRANCH  96  97
ENDBRANCH  70  91
ENDBRANCH  44  45
ENDBRANCH  36  39
ENDBRANCH  34  35
ENDBRANCH   1  34
TORSDOF 15
ENDMDL
