MODEL 1
REMARK VINA RESULT:     -11.3      0.000      0.000
REMARK SMILES CN(Cc1ncc(C(=O)NCCCNC(=O)c2ccc(-c3c4nc(c(-c5ccc(S(=O)(=O)[O-])cc5)c5ccc([nH]5)c(-c5ccc(S(=O)(=O)[O-])cc5)c5nc(c(-c6ccc(S(=O)(=O)[O-])cc6)c6ccc3[nH]6)C=C5)C=C4)cc2)cn1)S(=O)(=O)c1ccc(Cl)cc1
REMARK SMILES IDX 11 1 10 2 8 3 9 4 7 6 4 7 5 8 78 9 6 10 77 11 3 12 2 13 1 14
REMARK SMILES IDX 79 15 80 16 81 17 82 18 83 19 88 20 84 21 87 22 85 23 86 24
REMARK SMILES IDX 12 25 13 26 14 27 15 28 16 30 17 31 18 32 76 33 19 34 75 35
REMARK SMILES IDX 20 36 21 37 22 38 69 39 23 40 74 41 68 42 70 43 24 44 73 45
REMARK SMILES IDX 67 46 66 47 25 49 55 50 36 51 54 52 37 53 40 54 53 55 71 56
REMARK SMILES IDX 38 57 39 58 52 60 72 61 41 62 26 63 27 64 35 65 28 66 34 67
REMARK SMILES IDX 29 68 30 69 31 70 32 71 33 72 56 73 57 74 65 75 58 76 64 77
REMARK SMILES IDX 59 78 60 79 61 80 62 81 63 82 42 83 43 84 51 85 44 86 50 87
REMARK SMILES IDX 45 88 46 89 47 90 48 91 49 92
REMARK H PARENT 10 5 14 29 70 48 40 59
REMARK Flexibility Score: inf
ROOT
ATOM      1  C   UNL A   1      31.829  29.059  25.101  1.00  0.00     0.118 C 
ENDROOT
BRANCH   1   2
ATOM      2  N   UNL A   1      31.137  29.159  23.830  1.00  0.00    -0.352 N 
ATOM      3  C   UNL A   1      31.134  28.390  22.701  1.00  0.00     0.254 C 
ATOM      4  O   UNL A   1      30.447  28.785  21.758  1.00  0.00    -0.269 OA
ATOM      5  H   UNL A   1      30.547  29.944  23.769  1.00  0.00     0.163 HD
BRANCH   3   6
ATOM      6  C   UNL A   1      31.841  27.104  22.563  1.00  0.00     0.076 A 
ATOM      7  C   UNL A   1      33.054  24.645  22.610  1.00  0.00     0.143 A 
ATOM      8  N   UNL A   1      33.671  25.648  21.954  1.00  0.00    -0.239 NA
ATOM      9  N   UNL A   1      31.839  24.766  23.157  1.00  0.00    -0.239 NA
ATOM     10  C   UNL A   1      33.030  26.845  21.922  1.00  0.00     0.128 A 
ATOM     11  C   UNL A   1      31.270  25.991  23.143  1.00  0.00     0.128 A 
BRANCH   7  12
ATOM     12  C   UNL A   1      33.821  23.342  22.767  1.00  0.00     0.179 C 
BRANCH  12  13
ATOM     13  N   UNL A   1      34.842  23.194  23.850  1.00  0.00    -0.193 NA
ATOM     14  C   UNL A   1      36.170  22.808  23.325  1.00  0.00     0.125 C 
BRANCH  13  15
ATOM     15  S   UNL A   1      34.407  22.380  25.278  1.00  0.00     0.243 S 
ATOM     16  O   UNL A   1      35.468  22.443  26.252  1.00  0.00    -0.207 OA
ATOM     17  O   UNL A   1      33.070  22.820  25.635  1.00  0.00    -0.207 OA
BRANCH  15  18
ATOM     18  C   UNL A   1      34.252  20.681  24.770  1.00  0.00     0.082 A 
ATOM     19  C   UNL A   1      35.337  19.808  24.914  1.00  0.00     0.023 A 
ATOM     20  C   UNL A   1      33.017  20.220  24.306  1.00  0.00     0.023 A 
ATOM     21  C   UNL A   1      35.181  18.461  24.582  1.00  0.00     0.022 A 
ATOM     22  C   UNL A   1      32.869  18.873  23.975  1.00  0.00     0.022 A 
ATOM     23  C   UNL A   1      33.949  17.999  24.118  1.00  0.00     0.041 A 
ATOM     24  Cl  UNL A   1      33.753  16.333  23.732  1.00  0.00    -0.084 Cl
ENDBRANCH  15  18
ENDBRANCH  13  15
ENDBRANCH  12  13
ENDBRANCH   7  12
ENDBRANCH   3   6
ENDBRANCH   1   2
BRANCH   1  25
ATOM     25  C   UNL A   1      33.300  28.702  24.891  1.00  0.00     0.042 C 
BRANCH  25  26
ATOM     26  C   UNL A   1      34.133  28.845  26.165  1.00  0.00     0.118 C 
BRANCH  26  27
ATOM     27  N   UNL A   1      33.894  30.123  26.820  1.00  0.00    -0.352 N 
ATOM     28  C   UNL A   1      34.579  30.724  27.845  1.00  0.00     0.251 C 
ATOM     29  H   UNL A   1      33.126  30.633  26.474  1.00  0.00     0.163 HD
ATOM     30  O   UNL A   1      34.061  31.660  28.448  1.00  0.00    -0.269 OA
BRANCH  28  31
ATOM     31  C   UNL A   1      35.929  30.254  28.219  1.00  0.00     0.039 A 
ATOM     32  C   UNL A   1      36.965  30.360  27.288  1.00  0.00     0.014 A 
ATOM     33  C   UNL A   1      36.160  29.657  29.463  1.00  0.00     0.014 A 
ATOM     34  C   UNL A   1      38.244  29.904  27.619  1.00  0.00     0.010 A 
ATOM     35  C   UNL A   1      37.449  29.266  29.816  1.00  0.00     0.010 A 
ATOM     36  C   UNL A   1      38.499  29.373  28.893  1.00  0.00    -0.014 A 
BRANCH  36  37
ATOM     37  C   UNL A   1      39.857  28.914  29.279  1.00  0.00     0.031 A 
ATOM     38  C   UNL A   1      40.793  29.849  29.996  1.00  0.00     0.074 A 
ATOM     39  C   UNL A   1      40.267  27.682  28.922  1.00  0.00     0.049 A 
ATOM     40  N   UNL A   1      42.038  29.655  30.351  1.00  0.00    -0.248 NA
ATOM     41  C   UNL A   1      40.273  31.183  30.333  1.00  0.00     0.031 C 
ATOM     42  C   UNL A   1      39.463  26.701  28.188  1.00  0.00     0.029 A 
ATOM     43  N   UNL A   1      41.465  27.045  29.121  1.00  0.00    -0.354 N 
ATOM     44  C   UNL A   1      42.457  30.849  30.928  1.00  0.00     0.074 A 
ATOM     45  C   UNL A   1      41.346  31.772  30.840  1.00  0.00     0.031 C 
ATOM     46  C   UNL A   1      40.184  25.581  28.017  1.00  0.00     0.029 A 
ATOM     47  C   UNL A   1      41.510  25.776  28.594  1.00  0.00     0.049 A 
ATOM     48  H   UNL A   1      42.222  27.459  29.596  1.00  0.00     0.167 HD
ATOM     49  C   UNL A   1      43.652  31.144  31.493  1.00  0.00     0.031 A 
ATOM     50  C   UNL A   1      42.508  24.872  28.573  1.00  0.00     0.031 A 
ATOM     51  C   UNL A   1      44.744  30.212  31.596  1.00  0.00     0.049 A 
ATOM     52  C   UNL A   1      43.818  25.214  29.223  1.00  0.00     0.074 A 
ATOM     53  C   UNL A   1      45.971  30.390  32.208  1.00  0.00     0.029 A 
ATOM     54  N   UNL A   1      44.739  28.927  31.073  1.00  0.00    -0.354 N 
ATOM     55  N   UNL A   1      44.174  26.327  29.819  1.00  0.00    -0.248 NA
ATOM     56  C   UNL A   1      44.858  24.176  29.210  1.00  0.00     0.031 C 
ATOM     57  C   UNL A   1      46.726  29.227  32.018  1.00  0.00     0.029 A 
ATOM     58  C   UNL A   1      45.949  28.307  31.333  1.00  0.00     0.049 A 
ATOM     59  H   UNL A   1      43.985  28.517  30.590  1.00  0.00     0.167 HD
ATOM     60  C   UNL A   1      45.471  26.115  30.272  1.00  0.00     0.074 A 
ATOM     61  C   UNL A   1      45.830  24.763  29.893  1.00  0.00     0.031 C 
ATOM     62  C   UNL A   1      46.290  26.962  30.944  1.00  0.00     0.031 A 
BRANCH  49  63
ATOM     63  C   UNL A   1      43.842  32.535  32.038  1.00  0.00    -0.014 A 
ATOM     64  C   UNL A   1      43.554  32.836  33.381  1.00  0.00     0.010 A 
ATOM     65  C   UNL A   1      44.354  33.547  31.205  1.00  0.00     0.010 A 
ATOM     66  C   UNL A   1      43.733  34.133  33.870  1.00  0.00     0.020 A 
ATOM     67  C   UNL A   1      44.561  34.839  31.698  1.00  0.00     0.020 A 
ATOM     68  C   UNL A   1      44.232  35.127  33.024  1.00  0.00     0.054 A 
BRANCH  68  69
ATOM     69  S   UNL A   1      44.476  36.797  33.692  1.00  0.00     0.124 S 
ATOM     70  O   UNL A   1      43.206  37.440  33.360  1.00  0.00    -0.237 OA
ATOM     71  O   UNL A   1      44.700  36.545  35.112  1.00  0.00    -0.237 OA
ATOM     72  O   UNL A   1      45.636  37.296  32.959  1.00  0.00    -0.744 OA
ENDBRANCH  68  69
ENDBRANCH  49  63
BRANCH  50  73
ATOM     73  C   UNL A   1      42.289  23.548  27.931  1.00  0.00    -0.014 A 
ATOM     74  C   UNL A   1      42.534  23.373  26.558  1.00  0.00     0.010 A 
ATOM     75  C   UNL A   1      41.871  22.445  28.698  1.00  0.00     0.010 A 
ATOM     76  C   UNL A   1      42.356  22.123  25.960  1.00  0.00     0.020 A 
ATOM     77  C   UNL A   1      41.717  21.186  28.108  1.00  0.00     0.020 A 
ATOM     78  C   UNL A   1      41.954  21.036  26.740  1.00  0.00     0.054 A 
BRANCH  78  79
ATOM     79  S   UNL A   1      41.799  19.406  25.959  1.00  0.00     0.124 S 
ATOM     80  O   UNL A   1      42.715  19.521  24.829  1.00  0.00    -0.237 OA
ATOM     81  O   UNL A   1      42.222  18.502  27.027  1.00  0.00    -0.237 OA
ATOM     82  O   UNL A   1      40.382  19.326  25.613  1.00  0.00    -0.744 OA
ENDBRANCH  78  79
ENDBRANCH  50  73
BRANCH  62  83
ATOM     83  C   UNL A   1      47.646  26.444  31.336  1.00  0.00    -0.014 A 
ATOM     84  C   UNL A   1      47.852  25.807  32.572  1.00  0.00     0.010 A 
ATOM     85  C   UNL A   1      48.716  26.548  30.428  1.00  0.00     0.010 A 
ATOM     86  C   UNL A   1      49.114  25.308  32.905  1.00  0.00     0.020 A 
ATOM     87  C   UNL A   1      49.972  26.027  30.748  1.00  0.00     0.020 A 
ATOM     88  C   UNL A   1      50.166  25.421  31.991  1.00  0.00     0.054 A 
BRANCH  88  89
ATOM     89  S   UNL A   1      51.783  24.726  32.428  1.00  0.00     0.124 S 
ATOM     90  O   UNL A   1      51.559  23.296  32.237  1.00  0.00    -0.237 OA
ATOM     91  O   UNL A   1      52.676  25.357  31.460  1.00  0.00    -0.237 OA
ATOM     92  O   UNL A   1      51.978  25.147  33.814  1.00  0.00    -0.744 OA
ENDBRANCH  88  89
ENDBRANCH  62  83
ENDBRANCH  36  37
ENDBRANCH  28  31
ENDBRANCH  26  27
ENDBRANCH  25  26
ENDBRANCH   1  25
TORSDOF 17
ENDMDL
MODEL 2
REMARK VINA RESULT:     -11.0      1.565      2.118
REMARK SMILES CN(Cc1ncc(C(=O)NCCCNC(=O)c2ccc(-c3c4nc(c(-c5ccc(S(=O)(=O)[O-])cc5)c5ccc([nH]5)c(-c5ccc(S(=O)(=O)[O-])cc5)c5nc(c(-c6ccc(S(=O)(=O)[O-])cc6)c6ccc3[nH]6)C=C5)C=C4)cc2)cn1)S(=O)(=O)c1ccc(Cl)cc1
REMARK SMILES IDX 11 1 10 2 8 3 9 4 7 6 4 7 5 8 78 9 6 10 77 11 3 12 2 13 1 14
REMARK SMILES IDX 79 15 80 16 81 17 82 18 83 19 88 20 84 21 87 22 85 23 86 24
REMARK SMILES IDX 12 25 13 26 14 27 15 28 16 30 17 31 18 32 76 33 19 34 75 35
REMARK SMILES IDX 20 36 21 37 22 38 69 39 23 40 74 41 68 42 70 43 24 44 73 45
REMARK SMILES IDX 67 46 66 47 25 49 55 50 36 51 54 52 37 53 40 54 53 55 71 56
REMARK SMILES IDX 38 57 39 58 52 60 72 61 41 62 26 63 27 64 35 65 28 66 34 67
REMARK SMILES IDX 29 68 30 69 31 70 32 71 33 72 56 73 57 74 65 75 58 76 64 77
REMARK SMILES IDX 59 78 60 79 61 80 62 81 63 82 42 83 43 84 51 85 44 86 50 87
REMARK SMILES IDX 45 88 46 89 47 90 48 91 49 92
REMARK H PARENT 10 5 14 29 70 48 40 59
REMARK Flexibility Score: inf
ROOT
ATOM      1  C   UNL A   1      33.389  29.254  24.565  1.00  0.00     0.118 C 
ENDROOT
BRANCH   1   2
ATOM      2  N   UNL A   1      32.026  29.571  24.182  1.00  0.00    -0.352 N 
ATOM      3  C   UNL A   1      30.955  28.809  23.810  1.00  0.00     0.254 C 
ATOM      4  O   UNL A   1      29.924  29.409  23.501  1.00  0.00    -0.269 OA
ATOM      5  H   UNL A   1      31.834  30.536  24.193  1.00  0.00     0.163 HD
BRANCH   3   6
ATOM      6  C   UNL A   1      30.935  27.335  23.814  1.00  0.00     0.076 A 
ATOM      7  C   UNL A   1      30.897  24.613  23.496  1.00  0.00     0.143 A 
ATOM      8  N   UNL A   1      30.226  25.143  24.538  1.00  0.00    -0.239 NA
ATOM      9  N   UNL A   1      31.656  25.339  22.667  1.00  0.00    -0.239 NA
ATOM     10  C   UNL A   1      30.291  26.490  24.686  1.00  0.00     0.128 A 
ATOM     11  C   UNL A   1      31.641  26.680  22.828  1.00  0.00     0.128 A 
BRANCH   7  12
ATOM     12  C   UNL A   1      30.724  23.124  23.242  1.00  0.00     0.179 C 
BRANCH  12  13
ATOM     13  N   UNL A   1      31.864  22.183  23.470  1.00  0.00    -0.193 NA
ATOM     14  C   UNL A   1      31.943  21.130  22.434  1.00  0.00     0.125 C 
BRANCH  13  15
ATOM     15  S   UNL A   1      32.151  21.615  25.047  1.00  0.00     0.243 S 
ATOM     16  O   UNL A   1      31.243  22.220  25.988  1.00  0.00    -0.207 OA
ATOM     17  O   UNL A   1      32.256  20.168  24.971  1.00  0.00    -0.207 OA
BRANCH  15  18
ATOM     18  C   UNL A   1      33.784  22.212  25.424  1.00  0.00     0.082 A 
ATOM     19  C   UNL A   1      34.845  21.307  25.555  1.00  0.00     0.023 A 
ATOM     20  C   UNL A   1      34.003  23.590  25.507  1.00  0.00     0.023 A 
ATOM     21  C   UNL A   1      36.136  21.791  25.777  1.00  0.00     0.022 A 
ATOM     22  C   UNL A   1      35.295  24.066  25.730  1.00  0.00     0.022 A 
ATOM     23  C   UNL A   1      36.355  23.167  25.861  1.00  0.00     0.041 A 
ATOM     24  Cl  UNL A   1      37.951  23.762  26.111  1.00  0.00    -0.084 Cl
ENDBRANCH  15  18
ENDBRANCH  13  15
ENDBRANCH  12  13
ENDBRANCH   7  12
ENDBRANCH   3   6
ENDBRANCH   1   2
BRANCH   1  25
ATOM     25  C   UNL A   1      33.428  28.011  25.452  1.00  0.00     0.042 C 
BRANCH  25  26
ATOM     26  C   UNL A   1      33.880  28.315  26.880  1.00  0.00     0.118 C 
BRANCH  26  27
ATOM     27  N   UNL A   1      33.712  29.724  27.206  1.00  0.00    -0.352 N 
ATOM     28  C   UNL A   1      34.507  30.550  27.960  1.00  0.00     0.251 C 
ATOM     29  H   UNL A   1      32.908  30.148  26.828  1.00  0.00     0.163 HD
ATOM     30  O   UNL A   1      34.057  31.621  28.355  1.00  0.00    -0.269 OA
BRANCH  28  31
ATOM     31  C   UNL A   1      35.893  30.156  28.291  1.00  0.00     0.039 A 
ATOM     32  C   UNL A   1      36.864  30.192  27.287  1.00  0.00     0.014 A 
ATOM     33  C   UNL A   1      36.221  29.698  29.570  1.00  0.00     0.014 A 
ATOM     34  C   UNL A   1      38.176  29.807  27.578  1.00  0.00     0.010 A 
ATOM     35  C   UNL A   1      37.541  29.380  29.876  1.00  0.00     0.010 A 
ATOM     36  C   UNL A   1      38.528  29.418  28.880  1.00  0.00    -0.014 A 
BRANCH  36  37
ATOM     37  C   UNL A   1      39.921  29.038  29.220  1.00  0.00     0.031 A 
ATOM     38  C   UNL A   1      40.839  30.039  29.869  1.00  0.00     0.074 A 
ATOM     39  C   UNL A   1      40.377  27.817  28.882  1.00  0.00     0.049 A 
ATOM     40  N   UNL A   1      42.105  29.917  30.176  1.00  0.00    -0.248 NA
ATOM     41  C   UNL A   1      40.268  31.357  30.190  1.00  0.00     0.031 C 
ATOM     42  C   UNL A   1      39.593  26.776  28.211  1.00  0.00     0.029 A 
ATOM     43  N   UNL A   1      41.613  27.246  29.047  1.00  0.00    -0.354 N 
ATOM     44  C   UNL A   1      42.488  31.147  30.700  1.00  0.00     0.074 A 
ATOM     45  C   UNL A   1      41.330  32.012  30.634  1.00  0.00     0.031 C 
ATOM     46  C   UNL A   1      40.362  25.688  28.042  1.00  0.00     0.029 A 
ATOM     47  C   UNL A   1      41.699  25.965  28.556  1.00  0.00     0.049 A 
ATOM     48  H   UNL A   1      42.368  27.710  29.477  1.00  0.00     0.167 HD
ATOM     49  C   UNL A   1      43.689  31.517  31.204  1.00  0.00     0.031 A 
ATOM     50  C   UNL A   1      42.739  25.110  28.518  1.00  0.00     0.031 A 
ATOM     51  C   UNL A   1      44.829  30.643  31.287  1.00  0.00     0.049 A 
ATOM     52  C   UNL A   1      44.057  25.535  29.101  1.00  0.00     0.074 A 
ATOM     53  C   UNL A   1      46.071  30.899  31.842  1.00  0.00     0.029 A 
ATOM     54  N   UNL A   1      44.867  29.344  30.803  1.00  0.00    -0.354 N 
ATOM     55  N   UNL A   1      44.381  26.682  29.650  1.00  0.00    -0.248 NA
ATOM     56  C   UNL A   1      45.145  24.549  29.074  1.00  0.00     0.031 C 
ATOM     57  C   UNL A   1      46.874  29.769  31.653  1.00  0.00     0.029 A 
ATOM     58  C   UNL A   1      46.116  28.792  31.028  1.00  0.00     0.049 A 
ATOM     59  H   UNL A   1      44.115  28.882  30.364  1.00  0.00     0.167 HD
ATOM     60  C   UNL A   1      45.704  26.547  30.053  1.00  0.00     0.074 A 
ATOM     61  C   UNL A   1      46.115  25.203  29.698  1.00  0.00     0.031 C 
ATOM     62  C   UNL A   1      46.507  27.453  30.664  1.00  0.00     0.031 A 
BRANCH  49  63
ATOM     63  C   UNL A   1      43.832  32.932  31.700  1.00  0.00    -0.014 A 
ATOM     64  C   UNL A   1      43.471  33.283  33.014  1.00  0.00     0.010 A 
ATOM     65  C   UNL A   1      44.372  33.917  30.854  1.00  0.00     0.010 A 
ATOM     66  C   UNL A   1      43.607  34.601  33.457  1.00  0.00     0.020 A 
ATOM     67  C   UNL A   1      44.536  35.231  31.303  1.00  0.00     0.020 A 
ATOM     68  C   UNL A   1      44.135  35.568  32.597  1.00  0.00     0.054 A 
BRANCH  68  69
ATOM     69  S   UNL A   1      44.322  37.267  33.207  1.00  0.00     0.124 S 
ATOM     70  O   UNL A   1      43.534  37.231  34.437  1.00  0.00    -0.237 OA
ATOM     71  O   UNL A   1      45.765  37.386  33.389  1.00  0.00    -0.237 OA
ATOM     72  O   UNL A   1      43.763  38.083  32.133  1.00  0.00    -0.744 OA
ENDBRANCH  68  69
ENDBRANCH  49  63
BRANCH  50  73
ATOM     73  C   UNL A   1      42.560  23.758  27.924  1.00  0.00    -0.014 A 
ATOM     74  C   UNL A   1      42.277  22.652  28.743  1.00  0.00     0.010 A 
ATOM     75  C   UNL A   1      42.635  23.577  26.531  1.00  0.00     0.010 A 
ATOM     76  C   UNL A   1      42.080  21.387  28.183  1.00  0.00     0.020 A 
ATOM     77  C   UNL A   1      42.413  22.318  25.964  1.00  0.00     0.020 A 
ATOM     78  C   UNL A   1      42.145  21.229  26.796  1.00  0.00     0.054 A 
BRANCH  78  79
ATOM     79  S   UNL A   1      41.815  19.593  26.084  1.00  0.00     0.124 S 
ATOM     80  O   UNL A   1      42.149  18.705  27.192  1.00  0.00    -0.237 OA
ATOM     81  O   UNL A   1      40.395  19.676  25.745  1.00  0.00    -0.237 OA
ATOM     82  O   UNL A   1      42.716  19.532  24.936  1.00  0.00    -0.744 OA
ENDBRANCH  78  79
ENDBRANCH  50  73
BRANCH  62  83
ATOM     83  C   UNL A   1      47.903  27.015  31.013  1.00  0.00    -0.014 A 
ATOM     84  C   UNL A   1      48.186  26.400  32.244  1.00  0.00     0.010 A 
ATOM     85  C   UNL A   1      48.934  27.170  30.067  1.00  0.00     0.010 A 
ATOM     86  C   UNL A   1      49.484  25.974  32.537  1.00  0.00     0.020 A 
ATOM     87  C   UNL A   1      50.227  26.721  30.347  1.00  0.00     0.020 A 
ATOM     88  C   UNL A   1      50.496  26.138  31.586  1.00  0.00     0.054 A 
BRANCH  88  89
ATOM     89  S   UNL A   1      52.163  25.536  31.972  1.00  0.00     0.124 S 
ATOM     90  O   UNL A   1      52.906  25.912  30.773  1.00  0.00    -0.237 OA
ATOM     91  O   UNL A   1      52.502  26.281  33.182  1.00  0.00    -0.237 OA
ATOM     92  O   UNL A   1      51.976  24.099  32.165  1.00  0.00    -0.744 OA
ENDBRANCH  88  89
ENDBRANCH  62  83
ENDBRANCH  36  37
ENDBRANCH  28  31
ENDBRANCH  26  27
ENDBRANCH  25  26
ENDBRANCH   1  25
TORSDOF 17
ENDMDL
MODEL 3
REMARK VINA RESULT:     -11.0      4.518     10.731
REMARK SMILES CN(Cc1ncc(C(=O)NCCCNC(=O)c2ccc(-c3c4nc(c(-c5ccc(S(=O)(=O)[O-])cc5)c5ccc([nH]5)c(-c5ccc(S(=O)(=O)[O-])cc5)c5nc(c(-c6ccc(S(=O)(=O)[O-])cc6)c6ccc3[nH]6)C=C5)C=C4)cc2)cn1)S(=O)(=O)c1ccc(Cl)cc1
REMARK SMILES IDX 11 1 10 2 8 3 9 4 7 6 4 7 5 8 78 9 6 10 77 11 3 12 2 13 1 14
REMARK SMILES IDX 79 15 80 16 81 17 82 18 83 19 88 20 84 21 87 22 85 23 86 24
REMARK SMILES IDX 12 25 13 26 14 27 15 28 16 30 17 31 18 32 76 33 19 34 75 35
REMARK SMILES IDX 20 36 21 37 22 38 69 39 23 40 74 41 68 42 70 43 24 44 73 45
REMARK SMILES IDX 67 46 66 47 25 49 55 50 36 51 54 52 37 53 40 54 53 55 71 56
REMARK SMILES IDX 38 57 39 58 52 60 72 61 41 62 26 63 27 64 35 65 28 66 34 67
REMARK SMILES IDX 29 68 30 69 31 70 32 71 33 72 56 73 57 74 65 75 58 76 64 77
REMARK SMILES IDX 59 78 60 79 61 80 62 81 63 82 42 83 43 84 51 85 44 86 50 87
REMARK SMILES IDX 45 88 46 89 47 90 48 91 49 92
REMARK H PARENT 10 5 14 29 70 48 40 59
REMARK Flexibility Score: inf
ROOT
ATOM      1  C   UNL A   1      42.569  21.797  27.622  1.00  0.00     0.118 C 
ENDROOT
BRANCH   1   2
ATOM      2  N   UNL A   1      42.593  20.503  26.967  1.00  0.00    -0.352 N 
ATOM      3  C   UNL A   1      41.642  19.760  26.325  1.00  0.00     0.254 C 
ATOM      4  O   UNL A   1      41.989  18.655  25.904  1.00  0.00    -0.269 OA
ATOM      5  H   UNL A   1      43.477  20.071  26.989  1.00  0.00     0.163 HD
BRANCH   3   6
ATOM      6  C   UNL A   1      40.267  20.215  26.053  1.00  0.00     0.076 A 
ATOM      7  C   UNL A   1      37.723  20.880  25.277  1.00  0.00     0.143 A 
ATOM      8  N   UNL A   1      38.467  21.818  25.897  1.00  0.00    -0.239 NA
ATOM      9  N   UNL A   1      38.131  19.617  25.107  1.00  0.00    -0.239 NA
ATOM     10  C   UNL A   1      39.710  21.448  26.297  1.00  0.00     0.128 A 
ATOM     11  C   UNL A   1      39.395  19.318  25.475  1.00  0.00     0.128 A 
BRANCH   7  12
ATOM     12  C   UNL A   1      36.384  21.319  24.707  1.00  0.00     0.179 C 
BRANCH  12  13
ATOM     13  N   UNL A   1      35.116  21.011  25.438  1.00  0.00    -0.193 NA
ATOM     14  C   UNL A   1      34.344  19.924  24.797  1.00  0.00     0.125 C 
BRANCH  13  15
ATOM     15  S   UNL A   1      34.155  22.302  25.988  1.00  0.00     0.243 S 
ATOM     16  O   UNL A   1      32.889  21.827  26.487  1.00  0.00    -0.207 OA
ATOM     17  O   UNL A   1      34.996  23.138  26.826  1.00  0.00    -0.207 OA
BRANCH  15  18
ATOM     18  C   UNL A   1      33.827  23.246  24.515  1.00  0.00     0.082 A 
ATOM     19  C   UNL A   1      33.285  22.616  23.389  1.00  0.00     0.023 A 
ATOM     20  C   UNL A   1      34.041  24.627  24.531  1.00  0.00     0.023 A 
ATOM     21  C   UNL A   1      32.961  23.379  22.265  1.00  0.00     0.022 A 
ATOM     22  C   UNL A   1      33.717  25.383  23.404  1.00  0.00     0.022 A 
ATOM     23  C   UNL A   1      33.176  24.758  22.279  1.00  0.00     0.041 A 
ATOM     24  Cl  UNL A   1      32.755  25.700  20.902  1.00  0.00    -0.084 Cl
ENDBRANCH  15  18
ENDBRANCH  13  15
ENDBRANCH  12  13
ENDBRANCH   7  12
ENDBRANCH   3   6
ENDBRANCH   1   2
BRANCH   1  25
ATOM     25  C   UNL A   1      43.468  22.792  26.892  1.00  0.00     0.042 C 
BRANCH  25  26
ATOM     26  C   UNL A   1      42.952  24.228  26.971  1.00  0.00     0.118 C 
BRANCH  26  27
ATOM     27  N   UNL A   1      41.778  24.421  26.131  1.00  0.00    -0.352 N 
ATOM     28  C   UNL A   1      40.621  25.112  26.388  1.00  0.00     0.251 C 
ATOM     29  H   UNL A   1      41.821  23.993  25.246  1.00  0.00     0.163 HD
ATOM     30  O   UNL A   1      39.638  24.925  25.678  1.00  0.00    -0.269 OA
BRANCH  28  31
ATOM     31  C   UNL A   1      40.558  26.077  27.506  1.00  0.00     0.039 A 
ATOM     32  C   UNL A   1      41.393  27.197  27.481  1.00  0.00     0.014 A 
ATOM     33  C   UNL A   1      39.722  25.848  28.603  1.00  0.00     0.014 A 
ATOM     34  C   UNL A   1      41.359  28.110  28.539  1.00  0.00     0.010 A 
ATOM     35  C   UNL A   1      39.640  26.792  29.623  1.00  0.00     0.010 A 
ATOM     36  C   UNL A   1      40.468  27.924  29.607  1.00  0.00    -0.014 A 
BRANCH  36  37
ATOM     37  C   UNL A   1      40.390  28.898  30.724  1.00  0.00     0.031 A 
ATOM     38  C   UNL A   1      41.274  28.734  31.931  1.00  0.00     0.074 A 
ATOM     39  C   UNL A   1      39.476  29.887  30.680  1.00  0.00     0.049 A 
ATOM     40  N   UNL A   1      41.301  29.438  33.033  1.00  0.00    -0.248 NA
ATOM     41  C   UNL A   1      42.233  27.618  31.908  1.00  0.00     0.031 C 
ATOM     42  C   UNL A   1      38.535  30.122  29.581  1.00  0.00     0.029 A 
ATOM     43  N   UNL A   1      39.182  30.874  31.584  1.00  0.00    -0.354 N 
ATOM     44  C   UNL A   1      42.258  28.836  33.843  1.00  0.00     0.074 A 
ATOM     45  C   UNL A   1      42.759  27.687  33.121  1.00  0.00     0.031 C 
ATOM     46  C   UNL A   1      37.784  31.197  29.869  1.00  0.00     0.029 A 
ATOM     47  C   UNL A   1      38.162  31.704  31.183  1.00  0.00     0.049 A 
ATOM     48  H   UNL A   1      39.657  30.979  32.441  1.00  0.00     0.167 HD
ATOM     49  C   UNL A   1      42.689  29.215  35.070  1.00  0.00     0.031 A 
ATOM     50  C   UNL A   1      37.590  32.753  31.806  1.00  0.00     0.031 A 
ATOM     51  C   UNL A   1      42.201  30.372  35.772  1.00  0.00     0.049 A 
ATOM     52  C   UNL A   1      38.098  33.166  33.158  1.00  0.00     0.074 A 
ATOM     53  C   UNL A   1      42.619  30.880  36.989  1.00  0.00     0.029 A 
ATOM     54  N   UNL A   1      41.186  31.202  35.319  1.00  0.00    -0.354 N 
ATOM     55  N   UNL A   1      39.048  32.621  33.881  1.00  0.00    -0.248 NA
ATOM     56  C   UNL A   1      37.470  34.343  33.773  1.00  0.00     0.031 C 
ATOM     57  C   UNL A   1      41.827  31.992  37.293  1.00  0.00     0.029 A 
ATOM     58  C   UNL A   1      40.951  32.207  36.241  1.00  0.00     0.049 A 
ATOM     59  H   UNL A   1      40.704  31.092  34.467  1.00  0.00     0.167 HD
ATOM     60  C   UNL A   1      39.146  33.402  35.026  1.00  0.00     0.074 A 
ATOM     61  C   UNL A   1      38.169  34.464  34.893  1.00  0.00     0.031 C 
ATOM     62  C   UNL A   1      39.971  33.254  36.093  1.00  0.00     0.031 A 
BRANCH  49  63
ATOM     63  C   UNL A   1      43.740  28.364  35.734  1.00  0.00    -0.014 A 
ATOM     64  C   UNL A   1      43.384  27.313  36.600  1.00  0.00     0.010 A 
ATOM     65  C   UNL A   1      45.100  28.592  35.459  1.00  0.00     0.010 A 
ATOM     66  C   UNL A   1      44.372  26.535  37.211  1.00  0.00     0.020 A 
ATOM     67  C   UNL A   1      46.089  27.798  36.047  1.00  0.00     0.020 A 
ATOM     68  C   UNL A   1      45.718  26.785  36.933  1.00  0.00     0.054 A 
BRANCH  68  69
ATOM     69  S   UNL A   1      46.978  25.744  37.723  1.00  0.00     0.124 S 
ATOM     70  O   UNL A   1      46.350  24.425  37.672  1.00  0.00    -0.237 OA
ATOM     71  O   UNL A   1      48.135  25.924  36.852  1.00  0.00    -0.237 OA
ATOM     72  O   UNL A   1      47.112  26.318  39.059  1.00  0.00    -0.744 OA
ENDBRANCH  68  69
ENDBRANCH  49  63
BRANCH  50  73
ATOM     73  C   UNL A   1      36.487  33.494  31.139  1.00  0.00    -0.014 A 
ATOM     74  C   UNL A   1      36.667  34.034  29.853  1.00  0.00     0.010 A 
ATOM     75  C   UNL A   1      35.237  33.632  31.770  1.00  0.00     0.010 A 
ATOM     76  C   UNL A   1      35.622  34.705  29.214  1.00  0.00     0.020 A 
ATOM     77  C   UNL A   1      34.181  34.281  31.123  1.00  0.00     0.020 A 
ATOM     78  C   UNL A   1      34.383  34.820  29.851  1.00  0.00     0.054 A 
BRANCH  78  79
ATOM     79  S   UNL A   1      33.018  35.632  28.974  1.00  0.00     0.124 S 
ATOM     80  O   UNL A   1      33.721  36.631  28.175  1.00  0.00    -0.237 OA
ATOM     81  O   UNL A   1      32.422  34.528  28.226  1.00  0.00    -0.237 OA
ATOM     82  O   UNL A   1      32.187  36.162  30.052  1.00  0.00    -0.744 OA
ENDBRANCH  78  79
ENDBRANCH  50  73
BRANCH  62  83
ATOM     83  C   UNL A   1      39.874  34.280  37.188  1.00  0.00    -0.014 A 
ATOM     84  C   UNL A   1      40.579  35.493  37.113  1.00  0.00     0.010 A 
ATOM     85  C   UNL A   1      39.019  34.047  38.281  1.00  0.00     0.010 A 
ATOM     86  C   UNL A   1      40.452  36.445  38.128  1.00  0.00     0.020 A 
ATOM     87  C   UNL A   1      38.870  35.007  39.284  1.00  0.00     0.020 A 
ATOM     88  C   UNL A   1      39.599  36.196  39.207  1.00  0.00     0.054 A 
BRANCH  88  89
ATOM     89  S   UNL A   1      39.417  37.466  40.489  1.00  0.00     0.124 S 
ATOM     90  O   UNL A   1      38.285  38.240  39.990  1.00  0.00    -0.237 OA
ATOM     91  O   UNL A   1      39.158  36.675  41.690  1.00  0.00    -0.237 OA
ATOM     92  O   UNL A   1      40.703  38.160  40.474  1.00  0.00    -0.744 OA
ENDBRANCH  88  89
ENDBRANCH  62  83
ENDBRANCH  36  37
ENDBRANCH  28  31
ENDBRANCH  26  27
ENDBRANCH  25  26
ENDBRANCH   1  25
TORSDOF 17
ENDMDL
