MODEL 1
REMARK VINA RESULT:     -14.1      0.000      0.000
REMARK SMILES Cc1cc([N+](=O)[O-])ccc1NC(=O)[C@@H]1[C@@H](C(=O)NCCCNC(=O)c2ccc(-c3c4nc(c(-c5ccc(S(=O)(=O)[O-])cc5)c5ccc([nH]5)c(-c5ccc(S(=O)(=O)[O-])cc5)c5nc(c(-c6ccc(S(=O)(=O)[O-])cc6)c6ccc3[nH]6)C=C5)C=C4)cc2)[C@H]2C=C[C@@H]1C2
REMARK SMILES IDX 20 1 19 2 18 3 16 4 17 5 15 7 14 8 88 9 85 10 87 11 89 12
REMARK SMILES IDX 86 13 12 14 11 15 13 17 10 18 1 19 2 20 3 21 4 22 9 23 8 24
REMARK SMILES IDX 5 25 6 26 7 27 21 28 22 29 23 30 24 32 25 33 26 34 84 35
REMARK SMILES IDX 27 36 83 37 28 38 29 39 30 40 77 41 31 42 82 43 76 44 78 45
REMARK SMILES IDX 32 46 81 47 75 48 74 49 33 51 63 52 44 53 62 54 45 55 48 56
REMARK SMILES IDX 61 57 79 58 46 59 47 60 60 62 80 63 49 64 34 65 35 66 43 67
REMARK SMILES IDX 36 68 42 69 37 70 38 71 39 72 40 73 41 74 64 75 65 76 73 77
REMARK SMILES IDX 66 78 72 79 67 80 68 81 69 82 70 83 71 84 50 85 51 86 59 87
REMARK SMILES IDX 52 88 58 89 53 90 54 91 55 92 56 93 57 94
REMARK H PARENT 18 6 11 16 22 31 78 50 48 61
REMARK Flexibility Score: inf
ROOT
ATOM      1  C   UNL A   1      32.992  29.583  27.269  1.00  0.00     0.042 C 
ENDROOT
BRANCH   1   2
ATOM      2  C   UNL A   1      32.174  30.285  26.195  1.00  0.00     0.117 C 
BRANCH   2   3
ATOM      3  N   UNL A   1      32.365  29.676  24.886  1.00  0.00    -0.356 N 
ATOM      4  C   UNL A   1      31.507  29.281  23.914  1.00  0.00     0.224 C 
ATOM      5  O   UNL A   1      32.014  28.761  22.912  1.00  0.00    -0.275 OA
ATOM      6  H   UNL A   1      33.311  29.520  24.662  1.00  0.00     0.163 HD
BRANCH   4   7
ATOM      7  C   UNL A   1      29.983  29.349  24.042  1.00  0.00     0.098 C 
ATOM      8  C   UNL A   1      29.334  28.287  23.054  1.00  0.00     0.099 C 
ATOM      9  C   UNL A   1      28.277  29.131  22.298  1.00  0.00     0.025 C 
ATOM     10  C   UNL A   1      29.251  30.643  23.618  1.00  0.00     0.025 C 
ATOM     11  C   UNL A   1      29.025  30.081  21.395  1.00  0.00    -0.027 C 
ATOM     12  C   UNL A   1      27.835  30.119  23.375  1.00  0.00     0.017 C 
ATOM     13  C   UNL A   1      29.607  30.992  22.187  1.00  0.00    -0.027 C 
BRANCH   8  14
ATOM     14  C   UNL A   1      28.701  27.074  23.715  1.00  0.00     0.228 C 
ATOM     15  N   UNL A   1      29.445  25.974  24.073  1.00  0.00    -0.326 N 
ATOM     16  H   UNL A   1      28.907  25.257  24.481  1.00  0.00     0.169 HD
ATOM     17  O   UNL A   1      27.480  26.996  23.887  1.00  0.00    -0.274 OA
BRANCH  15  18
ATOM     18  C   UNL A   1      30.818  25.660  23.977  1.00  0.00     0.044 A 
ATOM     19  C   UNL A   1      31.219  26.529  26.379  1.00  0.00     0.047 C 
ATOM     20  C   UNL A   1      31.651  25.849  25.104  1.00  0.00    -0.021 A 
ATOM     21  C   UNL A   1      32.988  25.391  25.064  1.00  0.00     0.091 A 
ATOM     22  C   UNL A   1      33.494  24.768  23.918  1.00  0.00     0.269 A 
ATOM     23  C   UNL A   1      31.392  25.140  22.809  1.00  0.00     0.033 A 
ATOM     24  C   UNL A   1      32.708  24.669  22.777  1.00  0.00     0.088 A 
BRANCH  22  25
ATOM     25  N   UNL A   1      34.853  24.218  23.919  1.00  0.00     0.062 N 
ATOM     26  O   UNL A   1      35.238  23.632  22.897  1.00  0.00    -0.258 OA
ATOM     27  O   UNL A   1      35.543  24.385  24.934  1.00  0.00    -0.258 OA
ENDBRANCH  22  25
ENDBRANCH  15  18
ENDBRANCH   8  14
ENDBRANCH   4   7
ENDBRANCH   2   3
ENDBRANCH   1   2
BRANCH   1  28
ATOM     28  C   UNL A   1      34.479  29.651  26.953  1.00  0.00     0.118 C 
BRANCH  28  29
ATOM     29  N   UNL A   1      35.122  30.876  27.420  1.00  0.00    -0.352 N 
ATOM     30  C   UNL A   1      36.332  30.989  28.084  1.00  0.00     0.251 C 
ATOM     31  H   UNL A   1      34.641  31.717  27.243  1.00  0.00     0.163 HD
ATOM     32  O   UNL A   1      36.700  32.017  28.626  1.00  0.00    -0.269 OA
BRANCH  30  33
ATOM     33  C   UNL A   1      37.226  29.818  28.003  1.00  0.00     0.039 A 
ATOM     34  C   UNL A   1      37.362  29.042  29.161  1.00  0.00     0.014 A 
ATOM     35  C   UNL A   1      38.136  29.727  26.953  1.00  0.00     0.014 A 
ATOM     36  C   UNL A   1      38.519  28.293  29.341  1.00  0.00     0.010 A 
ATOM     37  C   UNL A   1      39.329  29.071  27.183  1.00  0.00     0.010 A 
ATOM     38  C   UNL A   1      39.537  28.388  28.391  1.00  0.00    -0.014 A 
BRANCH  38  39
ATOM     39  C   UNL A   1      40.879  27.858  28.602  1.00  0.00     0.031 A 
ATOM     40  C   UNL A   1      41.169  26.456  28.223  1.00  0.00     0.074 A 
ATOM     41  C   UNL A   1      41.864  28.649  29.087  1.00  0.00     0.049 A 
ATOM     42  N   UNL A   1      42.100  25.733  28.750  1.00  0.00    -0.248 NA
ATOM     43  C   UNL A   1      40.376  25.735  27.228  1.00  0.00     0.031 C 
ATOM     44  C   UNL A   1      43.292  28.342  29.118  1.00  0.00     0.029 A 
ATOM     45  N   UNL A   1      41.755  29.812  29.853  1.00  0.00    -0.354 N 
ATOM     46  C   UNL A   1      42.219  24.596  27.981  1.00  0.00     0.074 A 
ATOM     47  C   UNL A   1      41.082  24.611  27.092  1.00  0.00     0.031 C 
ATOM     48  C   UNL A   1      43.866  29.075  30.086  1.00  0.00     0.029 A 
ATOM     49  C   UNL A   1      42.798  29.765  30.791  1.00  0.00     0.049 A 
ATOM     50  H   UNL A   1      41.081  30.524  29.754  1.00  0.00     0.167 HD
ATOM     51  C   UNL A   1      43.339  23.826  28.064  1.00  0.00     0.031 A 
ATOM     52  C   UNL A   1      42.605  29.740  32.142  1.00  0.00     0.031 A 
ATOM     53  C   UNL A   1      44.263  24.321  29.077  1.00  0.00     0.049 A 
ATOM     54  C   UNL A   1      43.192  28.504  32.798  1.00  0.00     0.074 A 
ATOM     55  C   UNL A   1      45.388  25.125  29.012  1.00  0.00     0.029 A 
ATOM     56  N   UNL A   1      43.892  24.265  30.414  1.00  0.00    -0.354 N 
ATOM     57  N   UNL A   1      43.577  27.444  32.139  1.00  0.00    -0.248 NA
ATOM     58  C   UNL A   1      43.345  28.340  34.241  1.00  0.00     0.031 C 
ATOM     59  C   UNL A   1      45.631  25.639  30.312  1.00  0.00     0.029 A 
ATOM     60  C   UNL A   1      44.677  25.118  31.167  1.00  0.00     0.049 A 
ATOM     61  H   UNL A   1      43.173  23.698  30.775  1.00  0.00     0.167 HD
ATOM     62  C   UNL A   1      44.005  26.483  33.016  1.00  0.00     0.074 A 
ATOM     63  C   UNL A   1      43.851  27.096  34.322  1.00  0.00     0.031 C 
ATOM     64  C   UNL A   1      44.440  25.258  32.597  1.00  0.00     0.031 A 
BRANCH  51  65
ATOM     65  C   UNL A   1      43.702  22.826  26.993  1.00  0.00    -0.014 A 
ATOM     66  C   UNL A   1      42.843  21.739  26.736  1.00  0.00     0.010 A 
ATOM     67  C   UNL A   1      44.902  22.869  26.256  1.00  0.00     0.010 A 
ATOM     68  C   UNL A   1      43.206  20.695  25.873  1.00  0.00     0.020 A 
ATOM     69  C   UNL A   1      45.296  21.812  25.421  1.00  0.00     0.020 A 
ATOM     70  C   UNL A   1      44.447  20.723  25.242  1.00  0.00     0.054 A 
BRANCH  70  71
ATOM     71  S   UNL A   1      44.940  19.316  24.211  1.00  0.00     0.124 S 
ATOM     72  O   UNL A   1      44.440  19.697  22.892  1.00  0.00    -0.237 OA
ATOM     73  O   UNL A   1      46.393  19.316  24.357  1.00  0.00    -0.237 OA
ATOM     74  O   UNL A   1      44.252  18.181  24.823  1.00  0.00    -0.744 OA
ENDBRANCH  70  71
ENDBRANCH  51  65
BRANCH  52  75
ATOM     75  C   UNL A   1      41.382  30.455  32.604  1.00  0.00    -0.014 A 
ATOM     76  C   UNL A   1      40.218  29.686  32.814  1.00  0.00     0.010 A 
ATOM     77  C   UNL A   1      41.481  31.717  33.215  1.00  0.00     0.010 A 
ATOM     78  C   UNL A   1      39.254  30.088  33.744  1.00  0.00     0.020 A 
ATOM     79  C   UNL A   1      40.512  32.124  34.146  1.00  0.00     0.020 A 
ATOM     80  C   UNL A   1      39.443  31.276  34.450  1.00  0.00     0.054 A 
BRANCH  80  81
ATOM     81  S   UNL A   1      38.380  31.592  35.892  1.00  0.00     0.124 S 
ATOM     82  O   UNL A   1      37.177  32.146  35.279  1.00  0.00    -0.237 OA
ATOM     83  O   UNL A   1      38.230  30.252  36.462  1.00  0.00    -0.237 OA
ATOM     84  O   UNL A   1      39.168  32.522  36.693  1.00  0.00    -0.744 OA
ENDBRANCH  80  81
ENDBRANCH  52  75
BRANCH  64  85
ATOM     85  C   UNL A   1      44.755  24.082  33.486  1.00  0.00    -0.014 A 
ATOM     86  C   UNL A   1      43.902  22.983  33.666  1.00  0.00     0.010 A 
ATOM     87  C   UNL A   1      46.043  24.001  34.069  1.00  0.00     0.010 A 
ATOM     88  C   UNL A   1      44.294  21.880  34.440  1.00  0.00     0.020 A 
ATOM     89  C   UNL A   1      46.459  22.888  34.805  1.00  0.00     0.020 A 
ATOM     90  C   UNL A   1      45.569  21.842  35.008  1.00  0.00     0.054 A 
BRANCH  90  91
ATOM     91  S   UNL A   1      46.092  20.386  35.950  1.00  0.00     0.124 S 
ATOM     92  O   UNL A   1      45.763  20.780  37.318  1.00  0.00    -0.237 OA
ATOM     93  O   UNL A   1      45.268  19.317  35.391  1.00  0.00    -0.237 OA
ATOM     94  O   UNL A   1      47.518  20.282  35.653  1.00  0.00    -0.744 OA
ENDBRANCH  90  91
ENDBRANCH  64  85
ENDBRANCH  38  39
ENDBRANCH  30  33
ENDBRANCH  28  29
ENDBRANCH   1  28
TORSDOF 16
ENDMDL
MODEL 2
REMARK VINA RESULT:     -13.9      1.421      2.002
REMARK SMILES Cc1cc([N+](=O)[O-])ccc1NC(=O)[C@@H]1[C@@H](C(=O)NCCCNC(=O)c2ccc(-c3c4nc(c(-c5ccc(S(=O)(=O)[O-])cc5)c5ccc([nH]5)c(-c5ccc(S(=O)(=O)[O-])cc5)c5nc(c(-c6ccc(S(=O)(=O)[O-])cc6)c6ccc3[nH]6)C=C5)C=C4)cc2)[C@H]2C=C[C@@H]1C2
REMARK SMILES IDX 20 1 19 2 18 3 16 4 17 5 15 7 14 8 88 9 85 10 87 11 89 12
REMARK SMILES IDX 86 13 12 14 11 15 13 17 10 18 1 19 2 20 3 21 4 22 9 23 8 24
REMARK SMILES IDX 5 25 6 26 7 27 21 28 22 29 23 30 24 32 25 33 26 34 84 35
REMARK SMILES IDX 27 36 83 37 28 38 29 39 30 40 77 41 31 42 82 43 76 44 78 45
REMARK SMILES IDX 32 46 81 47 75 48 74 49 33 51 63 52 44 53 62 54 45 55 48 56
REMARK SMILES IDX 61 57 79 58 46 59 47 60 60 62 80 63 49 64 34 65 35 66 43 67
REMARK SMILES IDX 36 68 42 69 37 70 38 71 39 72 40 73 41 74 64 75 65 76 73 77
REMARK SMILES IDX 66 78 72 79 67 80 68 81 69 82 70 83 71 84 50 85 51 86 59 87
REMARK SMILES IDX 52 88 58 89 53 90 54 91 55 92 56 93 57 94
REMARK H PARENT 18 6 11 16 22 31 78 50 48 61
REMARK Flexibility Score: inf
ROOT
ATOM      1  C   UNL A   1      33.015  29.766  27.352  1.00  0.00     0.042 C 
ENDROOT
BRANCH   1   2
ATOM      2  C   UNL A   1      32.475  30.464  26.112  1.00  0.00     0.117 C 
BRANCH   2   3
ATOM      3  N   UNL A   1      32.952  29.836  24.888  1.00  0.00    -0.356 N 
ATOM      4  C   UNL A   1      32.459  28.848  24.101  1.00  0.00     0.224 C 
ATOM      5  O   UNL A   1      33.149  28.529  23.125  1.00  0.00    -0.275 OA
ATOM      6  H   UNL A   1      33.807  30.204  24.566  1.00  0.00     0.163 HD
BRANCH   4   7
ATOM      7  C   UNL A   1      31.183  28.065  24.415  1.00  0.00     0.098 C 
ATOM      8  C   UNL A   1      31.575  26.575  24.807  1.00  0.00     0.099 C 
ATOM      9  C   UNL A   1      30.639  25.731  23.905  1.00  0.00     0.025 C 
ATOM     10  C   UNL A   1      30.155  27.819  23.286  1.00  0.00     0.025 C 
ATOM     11  C   UNL A   1      31.126  25.890  22.485  1.00  0.00    -0.027 C 
ATOM     12  C   UNL A   1      29.394  26.611  23.833  1.00  0.00     0.017 C 
ATOM     13  C   UNL A   1      30.831  27.142  22.111  1.00  0.00    -0.027 C 
BRANCH   8  14
ATOM     14  C   UNL A   1      31.401  26.212  26.273  1.00  0.00     0.228 C 
ATOM     15  N   UNL A   1      31.666  24.947  26.741  1.00  0.00    -0.326 N 
ATOM     16  H   UNL A   1      31.501  24.847  27.706  1.00  0.00     0.169 HD
ATOM     17  O   UNL A   1      30.941  27.018  27.088  1.00  0.00    -0.274 OA
BRANCH  15  18
ATOM     18  C   UNL A   1      32.126  23.762  26.125  1.00  0.00     0.044 A 
ATOM     19  C   UNL A   1      34.505  24.751  25.922  1.00  0.00     0.047 C 
ATOM     20  C   UNL A   1      33.498  23.636  25.806  1.00  0.00    -0.021 A 
ATOM     21  C   UNL A   1      33.990  22.396  25.336  1.00  0.00     0.091 A 
ATOM     22  C   UNL A   1      33.131  21.305  25.171  1.00  0.00     0.269 A 
ATOM     23  C   UNL A   1      31.276  22.685  25.836  1.00  0.00     0.033 A 
ATOM     24  C   UNL A   1      31.767  21.454  25.390  1.00  0.00     0.088 A 
BRANCH  22  25
ATOM     25  N   UNL A   1      33.667  20.001  24.768  1.00  0.00     0.062 N 
ATOM     26  O   UNL A   1      34.899  19.874  24.720  1.00  0.00    -0.258 OA
ATOM     27  O   UNL A   1      32.858  19.098  24.513  1.00  0.00    -0.258 OA
ENDBRANCH  22  25
ENDBRANCH  15  18
ENDBRANCH   8  14
ENDBRANCH   4   7
ENDBRANCH   2   3
ENDBRANCH   1   2
BRANCH   1  28
ATOM     28  C   UNL A   1      34.536  29.703  27.324  1.00  0.00     0.118 C 
BRANCH  28  29
ATOM     29  N   UNL A   1      35.182  30.910  27.831  1.00  0.00    -0.352 N 
ATOM     30  C   UNL A   1      36.392  30.997  28.498  1.00  0.00     0.251 C 
ATOM     31  H   UNL A   1      34.703  31.758  27.684  1.00  0.00     0.163 HD
ATOM     32  O   UNL A   1      36.764  32.005  29.074  1.00  0.00    -0.269 OA
BRANCH  30  33
ATOM     33  C   UNL A   1      37.284  29.827  28.376  1.00  0.00     0.039 A 
ATOM     34  C   UNL A   1      37.431  29.021  29.512  1.00  0.00     0.014 A 
ATOM     35  C   UNL A   1      38.182  29.763  27.315  1.00  0.00     0.014 A 
ATOM     36  C   UNL A   1      38.589  28.266  29.659  1.00  0.00     0.010 A 
ATOM     37  C   UNL A   1      39.376  29.099  27.514  1.00  0.00     0.010 A 
ATOM     38  C   UNL A   1      39.596  28.385  28.701  1.00  0.00    -0.014 A 
BRANCH  38  39
ATOM     39  C   UNL A   1      40.940  27.847  28.883  1.00  0.00     0.031 A 
ATOM     40  C   UNL A   1      41.222  26.453  28.469  1.00  0.00     0.074 A 
ATOM     41  C   UNL A   1      41.933  28.625  29.372  1.00  0.00     0.049 A 
ATOM     42  N   UNL A   1      42.157  25.717  28.969  1.00  0.00    -0.248 NA
ATOM     43  C   UNL A   1      40.414  25.756  27.469  1.00  0.00     0.031 C 
ATOM     44  C   UNL A   1      43.360  28.315  29.378  1.00  0.00     0.029 A 
ATOM     45  N   UNL A   1      41.836  29.772  30.165  1.00  0.00    -0.354 N 
ATOM     46  C   UNL A   1      42.264  24.597  28.174  1.00  0.00     0.074 A 
ATOM     47  C   UNL A   1      41.116  24.633  27.300  1.00  0.00     0.031 C 
ATOM     48  C   UNL A   1      43.948  29.025  30.354  1.00  0.00     0.029 A 
ATOM     49  C   UNL A   1      42.891  29.702  31.088  1.00  0.00     0.049 A 
ATOM     50  H   UNL A   1      41.163  30.487  30.090  1.00  0.00     0.167 HD
ATOM     51  C   UNL A   1      43.383  23.824  28.225  1.00  0.00     0.031 A 
ATOM     52  C   UNL A   1      42.715  29.648  32.441  1.00  0.00     0.031 A 
ATOM     53  C   UNL A   1      44.321  24.294  29.237  1.00  0.00     0.049 A 
ATOM     54  C   UNL A   1      43.308  28.397  33.061  1.00  0.00     0.074 A 
ATOM     55  C   UNL A   1      45.447  25.097  29.175  1.00  0.00     0.029 A 
ATOM     56  N   UNL A   1      43.968  24.209  30.577  1.00  0.00    -0.354 N 
ATOM     57  N   UNL A   1      43.683  27.351  32.375  1.00  0.00    -0.248 NA
ATOM     58  C   UNL A   1      43.479  28.201  34.499  1.00  0.00     0.031 C 
ATOM     59  C   UNL A   1      45.708  25.582  30.483  1.00  0.00     0.029 A 
ATOM     60  C   UNL A   1      44.764  25.044  31.338  1.00  0.00     0.049 A 
ATOM     61  H   UNL A   1      43.252  23.636  30.935  1.00  0.00     0.167 HD
ATOM     62  C   UNL A   1      44.119  26.370  33.225  1.00  0.00     0.074 A 
ATOM     63  C   UNL A   1      43.984  26.954  34.546  1.00  0.00     0.031 C 
ATOM     64  C   UNL A   1      44.545  25.153  32.774  1.00  0.00     0.031 A 
BRANCH  51  65
ATOM     65  C   UNL A   1      43.730  22.846  27.128  1.00  0.00    -0.014 A 
ATOM     66  C   UNL A   1      42.865  21.767  26.858  1.00  0.00     0.010 A 
ATOM     67  C   UNL A   1      44.920  22.902  26.377  1.00  0.00     0.010 A 
ATOM     68  C   UNL A   1      43.215  20.742  25.968  1.00  0.00     0.020 A 
ATOM     69  C   UNL A   1      45.301  21.863  25.514  1.00  0.00     0.020 A 
ATOM     70  C   UNL A   1      44.448  20.780  25.322  1.00  0.00     0.054 A 
BRANCH  70  71
ATOM     71  S   UNL A   1      44.924  19.395  24.254  1.00  0.00     0.124 S 
ATOM     72  O   UNL A   1      46.379  19.374  24.388  1.00  0.00    -0.237 OA
ATOM     73  O   UNL A   1      44.219  18.273  24.867  1.00  0.00    -0.237 OA
ATOM     74  O   UNL A   1      44.435  19.791  22.934  1.00  0.00    -0.744 OA
ENDBRANCH  70  71
ENDBRANCH  51  65
BRANCH  52  75
ATOM     75  C   UNL A   1      41.501  30.355  32.934  1.00  0.00    -0.014 A 
ATOM     76  C   UNL A   1      40.336  29.584  33.140  1.00  0.00     0.010 A 
ATOM     77  C   UNL A   1      41.610  31.602  33.572  1.00  0.00     0.010 A 
ATOM     78  C   UNL A   1      39.386  29.967  34.091  1.00  0.00     0.020 A 
ATOM     79  C   UNL A   1      40.654  31.990  34.525  1.00  0.00     0.020 A 
ATOM     80  C   UNL A   1      39.587  31.138  34.822  1.00  0.00     0.054 A 
BRANCH  80  81
ATOM     81  S   UNL A   1      38.541  31.423  36.283  1.00  0.00     0.124 S 
ATOM     82  O   UNL A   1      37.443  32.212  35.734  1.00  0.00    -0.237 OA
ATOM     83  O   UNL A   1      38.193  30.059  36.682  1.00  0.00    -0.237 OA
ATOM     84  O   UNL A   1      39.431  32.129  37.199  1.00  0.00    -0.744 OA
ENDBRANCH  80  81
ENDBRANCH  52  75
BRANCH  64  85
ATOM     85  C   UNL A   1      44.870  23.957  33.633  1.00  0.00    -0.014 A 
ATOM     86  C   UNL A   1      43.949  22.949  33.953  1.00  0.00     0.010 A 
ATOM     87  C   UNL A   1      46.214  23.754  34.030  1.00  0.00     0.010 A 
ATOM     88  C   UNL A   1      44.339  21.817  34.686  1.00  0.00     0.020 A 
ATOM     89  C   UNL A   1      46.621  22.611  34.722  1.00  0.00     0.020 A 
ATOM     90  C   UNL A   1      45.672  21.658  35.069  1.00  0.00     0.054 A 
BRANCH  90  91
ATOM     91  S   UNL A   1      46.182  20.164  35.957  1.00  0.00     0.124 S 
ATOM     92  O   UNL A   1      45.462  19.122  35.230  1.00  0.00    -0.237 OA
ATOM     93  O   UNL A   1      47.634  20.157  35.786  1.00  0.00    -0.237 OA
ATOM     94  O   UNL A   1      45.726  20.407  37.323  1.00  0.00    -0.744 OA
ENDBRANCH  90  91
ENDBRANCH  64  85
ENDBRANCH  38  39
ENDBRANCH  30  33
ENDBRANCH  28  29
ENDBRANCH   1  28
TORSDOF 16
ENDMDL
MODEL 3
REMARK VINA RESULT:     -13.8      4.746     11.277
REMARK SMILES Cc1cc([N+](=O)[O-])ccc1NC(=O)[C@@H]1[C@@H](C(=O)NCCCNC(=O)c2ccc(-c3c4nc(c(-c5ccc(S(=O)(=O)[O-])cc5)c5ccc([nH]5)c(-c5ccc(S(=O)(=O)[O-])cc5)c5nc(c(-c6ccc(S(=O)(=O)[O-])cc6)c6ccc3[nH]6)C=C5)C=C4)cc2)[C@H]2C=C[C@@H]1C2
REMARK SMILES IDX 20 1 19 2 18 3 16 4 17 5 15 7 14 8 88 9 85 10 87 11 89 12
REMARK SMILES IDX 86 13 12 14 11 15 13 17 10 18 1 19 2 20 3 21 4 22 9 23 8 24
REMARK SMILES IDX 5 25 6 26 7 27 21 28 22 29 23 30 24 32 25 33 26 34 84 35
REMARK SMILES IDX 27 36 83 37 28 38 29 39 30 40 77 41 31 42 82 43 76 44 78 45
REMARK SMILES IDX 32 46 81 47 75 48 74 49 33 51 63 52 44 53 62 54 45 55 48 56
REMARK SMILES IDX 61 57 79 58 46 59 47 60 60 62 80 63 49 64 34 65 35 66 43 67
REMARK SMILES IDX 36 68 42 69 37 70 38 71 39 72 40 73 41 74 64 75 65 76 73 77
REMARK SMILES IDX 66 78 72 79 67 80 68 81 69 82 70 83 71 84 50 85 51 86 59 87
REMARK SMILES IDX 52 88 58 89 53 90 54 91 55 92 56 93 57 94
REMARK H PARENT 18 6 11 16 22 31 78 50 48 61
REMARK Flexibility Score: inf
ROOT
ATOM      1  C   UNL A   1      37.450  22.405  25.377  1.00  0.00     0.042 C 
ENDROOT
BRANCH   1   2
ATOM      2  C   UNL A   1      35.980  22.323  25.765  1.00  0.00     0.117 C 
BRANCH   2   3
ATOM      3  N   UNL A   1      35.373  23.643  25.860  1.00  0.00    -0.356 N 
ATOM      4  C   UNL A   1      34.428  24.283  25.128  1.00  0.00     0.224 C 
ATOM      5  O   UNL A   1      34.156  25.440  25.474  1.00  0.00    -0.275 OA
ATOM      6  H   UNL A   1      35.718  24.180  26.610  1.00  0.00     0.163 HD
BRANCH   4   7
ATOM      7  C   UNL A   1      33.782  23.697  23.871  1.00  0.00     0.098 C 
ATOM      8  C   UNL A   1      32.651  24.691  23.361  1.00  0.00     0.099 C 
ATOM      9  C   UNL A   1      31.433  23.749  23.176  1.00  0.00     0.025 C 
ATOM     10  C   UNL A   1      32.992  22.372  23.981  1.00  0.00     0.025 C 
ATOM     11  C   UNL A   1      30.977  23.332  24.553  1.00  0.00    -0.027 C 
ATOM     12  C   UNL A   1      32.103  22.450  22.739  1.00  0.00     0.017 C 
ATOM     13  C   UNL A   1      31.911  22.501  25.035  1.00  0.00    -0.027 C 
BRANCH   8  14
ATOM     14  C   UNL A   1      32.965  25.443  22.079  1.00  0.00     0.228 C 
ATOM     15  N   UNL A   1      32.965  26.817  22.028  1.00  0.00    -0.326 N 
ATOM     16  H   UNL A   1      33.174  27.174  21.135  1.00  0.00     0.169 HD
ATOM     17  O   UNL A   1      33.158  24.850  21.013  1.00  0.00    -0.274 OA
BRANCH  15  18
ATOM     18  C   UNL A   1      32.727  27.823  22.991  1.00  0.00     0.044 A 
ATOM     19  C   UNL A   1      30.184  27.694  22.548  1.00  0.00     0.047 C 
ATOM     20  C   UNL A   1      31.395  28.186  23.298  1.00  0.00    -0.021 A 
ATOM     21  C   UNL A   1      31.148  29.076  24.369  1.00  0.00     0.091 A 
ATOM     22  C   UNL A   1      32.206  29.608  25.113  1.00  0.00     0.269 A 
ATOM     23  C   UNL A   1      33.765  28.466  23.680  1.00  0.00     0.033 A 
ATOM     24  C   UNL A   1      33.518  29.330  24.751  1.00  0.00     0.088 A 
BRANCH  22  25
ATOM     25  N   UNL A   1      31.933  30.459  26.275  1.00  0.00     0.062 N 
ATOM     26  O   UNL A   1      32.337  30.071  27.381  1.00  0.00    -0.258 OA
ATOM     27  O   UNL A   1      31.330  31.524  26.083  1.00  0.00    -0.258 OA
ENDBRANCH  22  25
ENDBRANCH  15  18
ENDBRANCH   8  14
ENDBRANCH   4   7
ENDBRANCH   2   3
ENDBRANCH   1   2
BRANCH   1  28
ATOM     28  C   UNL A   1      38.137  23.562  26.087  1.00  0.00     0.118 C 
BRANCH  28  29
ATOM     29  N   UNL A   1      39.311  23.162  26.859  1.00  0.00    -0.352 N 
ATOM     30  C   UNL A   1      40.183  23.987  27.548  1.00  0.00     0.251 C 
ATOM     31  H   UNL A   1      39.504  22.197  26.892  1.00  0.00     0.163 HD
ATOM     32  O   UNL A   1      41.252  23.604  27.990  1.00  0.00    -0.269 OA
BRANCH  30  33
ATOM     33  C   UNL A   1      39.696  25.351  27.833  1.00  0.00     0.039 A 
ATOM     34  C   UNL A   1      40.222  26.387  27.053  1.00  0.00     0.014 A 
ATOM     35  C   UNL A   1      39.040  25.603  29.035  1.00  0.00     0.014 A 
ATOM     36  C   UNL A   1      40.241  27.679  27.569  1.00  0.00     0.010 A 
ATOM     37  C   UNL A   1      39.159  26.862  29.588  1.00  0.00     0.010 A 
ATOM     38  C   UNL A   1      39.795  27.889  28.874  1.00  0.00    -0.014 A 
BRANCH  38  39
ATOM     39  C   UNL A   1      40.005  29.136  29.600  1.00  0.00     0.031 A 
ATOM     40  C   UNL A   1      38.967  30.190  29.542  1.00  0.00     0.074 A 
ATOM     41  C   UNL A   1      41.109  29.311  30.362  1.00  0.00     0.049 A 
ATOM     42  N   UNL A   1      39.192  31.450  29.714  1.00  0.00    -0.248 NA
ATOM     43  C   UNL A   1      37.570  29.894  29.228  1.00  0.00     0.031 C 
ATOM     44  C   UNL A   1      41.340  30.381  31.329  1.00  0.00     0.029 A 
ATOM     45  N   UNL A   1      42.350  28.674  30.265  1.00  0.00    -0.354 N 
ATOM     46  C   UNL A   1      37.968  32.072  29.830  1.00  0.00     0.074 A 
ATOM     47  C   UNL A   1      36.993  31.077  29.451  1.00  0.00     0.031 C 
ATOM     48  C   UNL A   1      42.665  30.530  31.495  1.00  0.00     0.029 A 
ATOM     49  C   UNL A   1      43.318  29.655  30.534  1.00  0.00     0.049 A 
ATOM     50  H   UNL A   1      42.513  27.727  30.051  1.00  0.00     0.167 HD
ATOM     51  C   UNL A   1      37.880  33.317  30.374  1.00  0.00     0.031 A 
ATOM     52  C   UNL A   1      44.275  30.044  29.642  1.00  0.00     0.031 A 
ATOM     53  C   UNL A   1      39.193  33.860  30.698  1.00  0.00     0.049 A 
ATOM     54  C   UNL A   1      44.200  31.521  29.305  1.00  0.00     0.074 A 
ATOM     55  C   UNL A   1      39.926  33.911  31.872  1.00  0.00     0.029 A 
ATOM     56  N   UNL A   1      40.073  34.163  29.668  1.00  0.00    -0.354 N 
ATOM     57  N   UNL A   1      43.178  32.282  29.591  1.00  0.00    -0.248 NA
ATOM     58  C   UNL A   1      45.240  32.246  28.579  1.00  0.00     0.031 C 
ATOM     59  C   UNL A   1      41.283  34.144  31.528  1.00  0.00     0.029 A 
ATOM     60  C   UNL A   1      41.363  34.270  30.153  1.00  0.00     0.049 A 
ATOM     61  H   UNL A   1      39.816  34.282  28.725  1.00  0.00     0.167 HD
ATOM     62  C   UNL A   1      43.390  33.545  29.106  1.00  0.00     0.074 A 
ATOM     63  C   UNL A   1      44.703  33.477  28.490  1.00  0.00     0.031 C 
ATOM     64  C   UNL A   1      42.466  34.541  29.241  1.00  0.00     0.031 A 
BRANCH  51  65
ATOM     65  C   UNL A   1      36.575  33.874  30.887  1.00  0.00    -0.014 A 
ATOM     66  C   UNL A   1      35.474  33.983  30.014  1.00  0.00     0.010 A 
ATOM     67  C   UNL A   1      36.393  34.364  32.195  1.00  0.00     0.010 A 
ATOM     68  C   UNL A   1      34.293  34.641  30.389  1.00  0.00     0.020 A 
ATOM     69  C   UNL A   1      35.234  35.060  32.570  1.00  0.00     0.020 A 
ATOM     70  C   UNL A   1      34.191  35.204  31.659  1.00  0.00     0.054 A 
BRANCH  70  71
ATOM     71  S   UNL A   1      32.699  36.137  32.089  1.00  0.00     0.124 S 
ATOM     72  O   UNL A   1      32.400  36.850  30.848  1.00  0.00    -0.237 OA
ATOM     73  O   UNL A   1      31.760  35.078  32.447  1.00  0.00    -0.237 OA
ATOM     74  O   UNL A   1      33.129  36.989  33.196  1.00  0.00    -0.744 OA
ENDBRANCH  70  71
ENDBRANCH  51  65
BRANCH  52  75
ATOM     75  C   UNL A   1      44.716  28.973  28.705  1.00  0.00    -0.014 A 
ATOM     76  C   UNL A   1      44.049  28.876  27.465  1.00  0.00     0.010 A 
ATOM     77  C   UNL A   1      45.985  28.384  28.839  1.00  0.00     0.010 A 
ATOM     78  C   UNL A   1      44.699  28.358  26.342  1.00  0.00     0.020 A 
ATOM     79  C   UNL A   1      46.639  27.860  27.713  1.00  0.00     0.020 A 
ATOM     80  C   UNL A   1      46.015  27.912  26.463  1.00  0.00     0.054 A 
BRANCH  80  81
ATOM     81  S   UNL A   1      46.951  27.585  24.937  1.00  0.00     0.124 S 
ATOM     82  O   UNL A   1      46.375  26.325  24.480  1.00  0.00    -0.237 OA
ATOM     83  O   UNL A   1      46.624  28.755  24.121  1.00  0.00    -0.237 OA
ATOM     84  O   UNL A   1      48.333  27.518  25.399  1.00  0.00    -0.744 OA
ENDBRANCH  80  81
ENDBRANCH  52  75
BRANCH  64  85
ATOM     85  C   UNL A   1      42.530  35.899  28.590  1.00  0.00    -0.014 A 
ATOM     86  C   UNL A   1      41.979  36.195  27.334  1.00  0.00     0.010 A 
ATOM     87  C   UNL A   1      43.050  36.984  29.338  1.00  0.00     0.010 A 
ATOM     88  C   UNL A   1      41.997  37.502  26.824  1.00  0.00     0.020 A 
ATOM     89  C   UNL A   1      43.034  38.296  28.856  1.00  0.00     0.020 A 
ATOM     90  C   UNL A   1      42.528  38.543  27.587  1.00  0.00     0.054 A 
BRANCH  90  91
ATOM     91  S   UNL A   1      42.489  40.238  26.949  1.00  0.00     0.124 S 
ATOM     92  O   UNL A   1      41.080  40.394  26.598  1.00  0.00    -0.237 OA
ATOM     93  O   UNL A   1      42.941  41.030  28.091  1.00  0.00    -0.237 OA
ATOM     94  O   UNL A   1      43.417  40.199  25.822  1.00  0.00    -0.744 OA
ENDBRANCH  90  91
ENDBRANCH  64  85
ENDBRANCH  38  39
ENDBRANCH  30  33
ENDBRANCH  28  29
ENDBRANCH   1  28
TORSDOF 16
ENDMDL
