MODEL 1
REMARK VINA RESULT:      -9.6      0.000      0.000
REMARK SMILES O=C(COC[C@@H]1CCCCO1)NCCCNC(=O)c1ccc(-c2c3nc(c(-c4ccc(S(=O)(=O)[O-])cc4)c4ccc([nH]4)c(-c4ccc(S(=O)(=O)[O-])cc4)c4nc(c(-c5ccc(S(=O)(=O)[O-])cc5)c5ccc2[nH]5)C=C4)C=C3)cc1
REMARK SMILES IDX 14 1 13 2 12 3 1 4 2 5 3 7 4 8 5 9 6 10 7 11 11 12 8 13
REMARK SMILES IDX 10 14 9 15 15 16 16 17 17 18 18 20 19 21 20 22 78 23 21 24
REMARK SMILES IDX 77 25 22 26 23 27 24 28 71 29 25 30 76 31 70 32 72 33 26 34
REMARK SMILES IDX 75 35 69 36 68 37 27 39 57 40 38 41 56 42 39 43 42 44 55 45
REMARK SMILES IDX 73 46 40 47 41 48 54 50 74 51 43 52 28 53 29 54 37 55 30 56
REMARK SMILES IDX 36 57 31 58 32 59 33 60 34 61 35 62 58 63 59 64 67 65 60 66
REMARK SMILES IDX 66 67 61 68 62 69 63 70 64 71 65 72 44 73 45 74 53 75 46 76
REMARK SMILES IDX 52 77 47 78 48 79 49 80 50 81 51 82
REMARK H PARENT 12 6 16 19 72 38 42 49
REMARK Flexibility Score: inf
ROOT
ATOM      1  C   UNL A   1      34.749  34.484  28.260  1.00  0.00     0.042 C 
ENDROOT
BRANCH   1   2
ATOM      2  C   UNL A   1      33.572  35.089  29.016  1.00  0.00     0.117 C 
BRANCH   2   3
ATOM      3  N   UNL A   1      33.808  35.146  30.443  1.00  0.00    -0.354 N 
ATOM      4  O   UNL A   1      32.537  37.025  30.821  1.00  0.00    -0.272 OA
ATOM      5  C   UNL A   1      33.281  36.142  31.234  1.00  0.00     0.246 C 
ATOM      6  H   UNL A   1      34.364  34.450  30.862  1.00  0.00     0.163 HD
BRANCH   5   7
ATOM      7  C   UNL A   1      33.704  36.044  32.706  1.00  0.00     0.260 C 
BRANCH   7   8
ATOM      8  O   UNL A   1      35.087  36.078  33.031  1.00  0.00    -0.369 OA
BRANCH   8   9
ATOM      9  C   UNL A   1      35.628  34.878  33.584  1.00  0.00     0.192 C 
BRANCH   9  10
ATOM     10  C   UNL A   1      37.032  34.438  33.107  1.00  0.00     0.144 C 
ATOM     11  C   UNL A   1      37.139  33.653  31.798  1.00  0.00     0.034 C 
ATOM     12  O   UNL A   1      37.757  33.768  34.156  1.00  0.00    -0.376 OA
ATOM     13  C   UNL A   1      36.819  32.168  31.955  1.00  0.00     0.005 C 
ATOM     14  C   UNL A   1      37.343  32.423  34.381  1.00  0.00     0.160 C 
ATOM     15  C   UNL A   1      37.572  31.580  33.138  1.00  0.00     0.029 C 
ENDBRANCH   9  10
ENDBRANCH   8   9
ENDBRANCH   7   8
ENDBRANCH   5   7
ENDBRANCH   2   3
ENDBRANCH   1   2
BRANCH   1  16
ATOM     16  C   UNL A   1      35.119  33.072  28.705  1.00  0.00     0.118 C 
BRANCH  16  17
ATOM     17  N   UNL A   1      34.212  32.052  28.197  1.00  0.00    -0.352 N 
ATOM     18  C   UNL A   1      34.458  30.730  27.907  1.00  0.00     0.251 C 
ATOM     19  H   UNL A   1      33.287  32.353  28.037  1.00  0.00     0.163 HD
ATOM     20  O   UNL A   1      33.594  30.051  27.366  1.00  0.00    -0.269 OA
BRANCH  18  21
ATOM     21  C   UNL A   1      35.779  30.147  28.221  1.00  0.00     0.039 A 
ATOM     22  C   UNL A   1      36.772  30.159  27.237  1.00  0.00     0.014 A 
ATOM     23  C   UNL A   1      36.043  29.620  29.486  1.00  0.00     0.014 A 
ATOM     24  C   UNL A   1      38.059  29.717  27.551  1.00  0.00     0.010 A 
ATOM     25  C   UNL A   1      37.341  29.237  29.813  1.00  0.00     0.010 A 
ATOM     26  C   UNL A   1      38.365  29.295  28.854  1.00  0.00    -0.014 A 
BRANCH  26  27
ATOM     27  C   UNL A   1      39.748  28.933  29.254  1.00  0.00     0.031 A 
ATOM     28  C   UNL A   1      40.633  29.955  29.912  1.00  0.00     0.074 A 
ATOM     29  C   UNL A   1      40.238  27.719  28.935  1.00  0.00     0.049 A 
ATOM     30  N   UNL A   1      41.906  29.879  30.202  1.00  0.00    -0.248 NA
ATOM     31  C   UNL A   1      40.010  31.241  30.265  1.00  0.00     0.031 C 
ATOM     32  C   UNL A   1      39.490  26.648  28.271  1.00  0.00     0.029 A 
ATOM     33  N   UNL A   1      41.493  27.187  29.109  1.00  0.00    -0.354 N 
ATOM     34  C   UNL A   1      42.244  31.112  30.745  1.00  0.00     0.074 A 
ATOM     35  C   UNL A   1      41.050  31.930  30.714  1.00  0.00     0.031 C 
ATOM     36  C   UNL A   1      40.295  25.587  28.104  1.00  0.00     0.029 A 
ATOM     37  C   UNL A   1      41.626  25.914  28.606  1.00  0.00     0.049 A 
ATOM     38  H   UNL A   1      42.226  27.671  29.552  1.00  0.00     0.167 HD
ATOM     39  C   UNL A   1      43.438  31.523  31.234  1.00  0.00     0.031 A 
ATOM     40  C   UNL A   1      42.703  25.107  28.536  1.00  0.00     0.031 A 
ATOM     41  C   UNL A   1      44.619  30.704  31.279  1.00  0.00     0.049 A 
ATOM     42  C   UNL A   1      44.020  25.587  29.081  1.00  0.00     0.074 A 
ATOM     43  C   UNL A   1      45.863  31.014  31.801  1.00  0.00     0.029 A 
ATOM     44  N   UNL A   1      44.703  29.410  30.786  1.00  0.00    -0.354 N 
ATOM     45  N   UNL A   1      44.309  26.742  29.631  1.00  0.00    -0.248 NA
ATOM     46  C   UNL A   1      45.153  24.654  29.003  1.00  0.00     0.031 C 
ATOM     47  C   UNL A   1      46.710  29.922  31.588  1.00  0.00     0.029 A 
ATOM     48  C   UNL A   1      45.980  28.914  30.979  1.00  0.00     0.049 A 
ATOM     49  H   UNL A   1      43.963  28.918  30.362  1.00  0.00     0.167 HD
ATOM     50  C   UNL A   1      45.648  26.663  29.994  1.00  0.00     0.074 A 
ATOM     51  C   UNL A   1      46.112  25.347  29.604  1.00  0.00     0.031 C 
ATOM     52  C   UNL A   1      46.423  27.595  30.599  1.00  0.00     0.031 A 
BRANCH  39  53
ATOM     53  C   UNL A   1      43.527  32.933  31.755  1.00  0.00    -0.014 A 
ATOM     54  C   UNL A   1      43.262  33.226  33.104  1.00  0.00     0.010 A 
ATOM     55  C   UNL A   1      43.912  33.973  30.890  1.00  0.00     0.010 A 
ATOM     56  C   UNL A   1      43.337  34.542  33.570  1.00  0.00     0.020 A 
ATOM     57  C   UNL A   1      44.014  35.286  31.358  1.00  0.00     0.020 A 
ATOM     58  C   UNL A   1      43.707  35.565  32.692  1.00  0.00     0.054 A 
BRANCH  58  59
ATOM     59  S   UNL A   1      43.810  37.261  33.324  1.00  0.00     0.124 S 
ATOM     60  O   UNL A   1      42.624  37.335  34.175  1.00  0.00    -0.237 OA
ATOM     61  O   UNL A   1      45.089  37.266  34.029  1.00  0.00    -0.237 OA
ATOM     62  O   UNL A   1      43.763  38.085  32.119  1.00  0.00    -0.744 OA
ENDBRANCH  58  59
ENDBRANCH  39  53
BRANCH  40  63
ATOM     63  C   UNL A   1      42.576  23.752  27.932  1.00  0.00    -0.014 A 
ATOM     64  C   UNL A   1      41.983  22.705  28.658  1.00  0.00     0.010 A 
ATOM     65  C   UNL A   1      43.028  23.509  26.623  1.00  0.00     0.010 A 
ATOM     66  C   UNL A   1      41.857  21.434  28.091  1.00  0.00     0.020 A 
ATOM     67  C   UNL A   1      42.881  22.245  26.044  1.00  0.00     0.020 A 
ATOM     68  C   UNL A   1      42.306  21.212  26.787  1.00  0.00     0.054 A 
BRANCH  68  69
ATOM     69  S   UNL A   1      42.083  19.569  26.051  1.00  0.00     0.124 S 
ATOM     70  O   UNL A   1      40.644  19.539  25.807  1.00  0.00    -0.237 OA
ATOM     71  O   UNL A   1      42.926  19.637  24.859  1.00  0.00    -0.237 OA
ATOM     72  O   UNL A   1      42.562  18.661  27.091  1.00  0.00    -0.744 OA
ENDBRANCH  68  69
ENDBRANCH  40  63
BRANCH  52  73
ATOM     73  C   UNL A   1      47.841  27.221  30.929  1.00  0.00    -0.014 A 
ATOM     74  C   UNL A   1      48.161  26.567  32.130  1.00  0.00     0.010 A 
ATOM     75  C   UNL A   1      48.854  27.451  29.979  1.00  0.00     0.010 A 
ATOM     76  C   UNL A   1      49.474  26.157  32.381  1.00  0.00     0.020 A 
ATOM     77  C   UNL A   1      50.161  27.024  30.217  1.00  0.00     0.020 A 
ATOM     78  C   UNL A   1      50.465  26.386  31.421  1.00  0.00     0.054 A 
BRANCH  78  79
ATOM     79  S   UNL A   1      52.145  25.777  31.734  1.00  0.00     0.124 S 
ATOM     80  O   UNL A   1      52.580  26.637  32.831  1.00  0.00    -0.237 OA
ATOM     81  O   UNL A   1      51.920  24.376  32.085  1.00  0.00    -0.237 OA
ATOM     82  O   UNL A   1      52.834  25.991  30.463  1.00  0.00    -0.744 OA
ENDBRANCH  78  79
ENDBRANCH  52  73
ENDBRANCH  26  27
ENDBRANCH  18  21
ENDBRANCH  16  17
ENDBRANCH   1  16
TORSDOF 16
ENDMDL
MODEL 2
REMARK VINA RESULT:      -9.1      3.983      6.352
REMARK SMILES O=C(COC[C@@H]1CCCCO1)NCCCNC(=O)c1ccc(-c2c3nc(c(-c4ccc(S(=O)(=O)[O-])cc4)c4ccc([nH]4)c(-c4ccc(S(=O)(=O)[O-])cc4)c4nc(c(-c5ccc(S(=O)(=O)[O-])cc5)c5ccc2[nH]5)C=C4)C=C3)cc1
REMARK SMILES IDX 14 1 13 2 12 3 1 4 2 5 3 7 4 8 5 9 6 10 7 11 11 12 8 13
REMARK SMILES IDX 10 14 9 15 15 16 16 17 17 18 18 20 19 21 20 22 78 23 21 24
REMARK SMILES IDX 77 25 22 26 23 27 24 28 71 29 25 30 76 31 70 32 72 33 26 34
REMARK SMILES IDX 75 35 69 36 68 37 27 39 57 40 38 41 56 42 39 43 42 44 55 45
REMARK SMILES IDX 73 46 40 47 41 48 54 50 74 51 43 52 28 53 29 54 37 55 30 56
REMARK SMILES IDX 36 57 31 58 32 59 33 60 34 61 35 62 58 63 59 64 67 65 60 66
REMARK SMILES IDX 66 67 61 68 62 69 63 70 64 71 65 72 44 73 45 74 53 75 46 76
REMARK SMILES IDX 52 77 47 78 48 79 49 80 50 81 51 82
REMARK H PARENT 12 6 16 19 72 38 42 49
REMARK Flexibility Score: inf
ROOT
ATOM      1  C   UNL A   1      33.753  29.630  27.034  1.00  0.00     0.042 C 
ENDROOT
BRANCH   1   2
ATOM      2  C   UNL A   1      33.041  28.290  26.898  1.00  0.00     0.117 C 
BRANCH   2   3
ATOM      3  N   UNL A   1      32.336  28.168  25.640  1.00  0.00    -0.354 N 
ATOM      4  O   UNL A   1      30.762  26.670  26.391  1.00  0.00    -0.272 OA
ATOM      5  C   UNL A   1      31.252  27.334  25.484  1.00  0.00     0.246 C 
ATOM      6  H   UNL A   1      32.642  28.700  24.870  1.00  0.00     0.163 HD
BRANCH   5   7
ATOM      7  C   UNL A   1      30.692  27.316  24.056  1.00  0.00     0.260 C 
BRANCH   7   8
ATOM      8  O   UNL A   1      29.289  27.194  23.866  1.00  0.00    -0.369 OA
BRANCH   8   9
ATOM      9  C   UNL A   1      28.662  28.254  23.143  1.00  0.00     0.192 C 
BRANCH   9  10
ATOM     10  C   UNL A   1      29.514  29.506  22.825  1.00  0.00     0.144 C 
ATOM     11  C   UNL A   1      29.386  30.721  23.745  1.00  0.00     0.034 C 
ATOM     12  O   UNL A   1      29.372  29.900  21.447  1.00  0.00    -0.376 OA
ATOM     13  C   UNL A   1      28.161  31.581  23.444  1.00  0.00     0.005 C 
ATOM     14  C   UNL A   1      28.153  30.579  21.160  1.00  0.00     0.160 C 
ATOM     15  C   UNL A   1      28.062  31.871  21.955  1.00  0.00     0.029 C 
ENDBRANCH   9  10
ENDBRANCH   8   9
ENDBRANCH   7   8
ENDBRANCH   5   7
ENDBRANCH   2   3
ENDBRANCH   1   2
BRANCH   1  16
ATOM     16  C   UNL A   1      35.106  29.551  27.737  1.00  0.00     0.118 C 
BRANCH  16  17
ATOM     17  N   UNL A   1      35.180  30.376  28.935  1.00  0.00    -0.352 N 
ATOM     18  C   UNL A   1      36.228  30.558  29.808  1.00  0.00     0.251 C 
ATOM     19  H   UNL A   1      34.360  30.877  29.152  1.00  0.00     0.163 HD
ATOM     20  O   UNL A   1      36.063  31.199  30.838  1.00  0.00    -0.269 OA
BRANCH  18  21
ATOM     21  C   UNL A   1      37.540  29.946  29.510  1.00  0.00     0.039 A 
ATOM     22  C   UNL A   1      37.961  29.869  28.180  1.00  0.00     0.014 A 
ATOM     23  C   UNL A   1      38.358  29.478  30.540  1.00  0.00     0.014 A 
ATOM     24  C   UNL A   1      39.243  29.398  27.889  1.00  0.00     0.010 A 
ATOM     25  C   UNL A   1      39.657  29.068  30.252  1.00  0.00     0.010 A 
ATOM     26  C   UNL A   1      40.118  29.037  28.926  1.00  0.00    -0.014 A 
BRANCH  26  27
ATOM     27  C   UNL A   1      41.526  28.647  28.661  1.00  0.00     0.031 A 
ATOM     28  C   UNL A   1      42.607  29.692  28.652  1.00  0.00     0.074 A 
ATOM     29  C   UNL A   1      41.815  27.373  28.331  1.00  0.00     0.049 A 
ATOM     30  N   UNL A   1      43.862  29.577  28.303  1.00  0.00    -0.248 NA
ATOM     31  C   UNL A   1      42.218  31.051  29.065  1.00  0.00     0.031 C 
ATOM     32  C   UNL A   1      40.851  26.270  28.276  1.00  0.00     0.029 A 
ATOM     33  N   UNL A   1      43.003  26.793  27.959  1.00  0.00    -0.354 N 
ATOM     34  C   UNL A   1      44.406  30.850  28.426  1.00  0.00     0.074 A 
ATOM     35  C   UNL A   1      43.336  31.728  28.850  1.00  0.00     0.031 C 
ATOM     36  C   UNL A   1      41.487  25.148  27.904  1.00  0.00     0.029 A 
ATOM     37  C   UNL A   1      42.891  25.457  27.649  1.00  0.00     0.049 A 
ATOM     38  H   UNL A   1      43.853  27.286  27.917  1.00  0.00     0.167 HD
ATOM     39  C   UNL A   1      45.683  31.249  28.214  1.00  0.00     0.031 A 
ATOM     40  C   UNL A   1      43.809  24.583  27.192  1.00  0.00     0.031 A 
ATOM     41  C   UNL A   1      46.747  30.371  27.808  1.00  0.00     0.049 A 
ATOM     42  C   UNL A   1      45.219  25.051  26.959  1.00  0.00     0.074 A 
ATOM     43  C   UNL A   1      48.084  30.672  27.615  1.00  0.00     0.029 A 
ATOM     44  N   UNL A   1      46.597  29.020  27.534  1.00  0.00    -0.354 N 
ATOM     45  N   UNL A   1      45.724  26.249  27.124  1.00  0.00    -0.248 NA
ATOM     46  C   UNL A   1      46.184  24.047  26.487  1.00  0.00     0.031 C 
ATOM     47  C   UNL A   1      48.735  29.510  27.187  1.00  0.00     0.029 A 
ATOM     48  C   UNL A   1      47.814  28.476  27.162  1.00  0.00     0.049 A 
ATOM     49  H   UNL A   1      45.750  28.521  27.597  1.00  0.00     0.167 HD
ATOM     50  C   UNL A   1      47.073  26.137  26.805  1.00  0.00     0.074 A 
ATOM     51  C   UNL A   1      47.305  24.754  26.442  1.00  0.00     0.031 C 
ATOM     52  C   UNL A   1      48.032  27.093  26.817  1.00  0.00     0.031 A 
BRANCH  39  53
ATOM     53  C   UNL A   1      45.995  32.708  28.411  1.00  0.00    -0.014 A 
ATOM     54  C   UNL A   1      45.874  33.625  27.353  1.00  0.00     0.010 A 
ATOM     55  C   UNL A   1      46.383  33.173  29.680  1.00  0.00     0.010 A 
ATOM     56  C   UNL A   1      46.179  34.975  27.548  1.00  0.00     0.020 A 
ATOM     57  C   UNL A   1      46.663  34.527  29.887  1.00  0.00     0.020 A 
ATOM     58  C   UNL A   1      46.577  35.417  28.813  1.00  0.00     0.054 A 
BRANCH  58  59
ATOM     59  S   UNL A   1      46.954  37.176  29.044  1.00  0.00     0.124 S 
ATOM     60  O   UNL A   1      46.573  37.735  27.749  1.00  0.00    -0.237 OA
ATOM     61  O   UNL A   1      46.094  37.545  30.165  1.00  0.00    -0.237 OA
ATOM     62  O   UNL A   1      48.387  37.189  29.330  1.00  0.00    -0.744 OA
ENDBRANCH  58  59
ENDBRANCH  39  53
BRANCH  40  63
ATOM     63  C   UNL A   1      43.421  23.169  26.934  1.00  0.00    -0.014 A 
ATOM     64  C   UNL A   1      43.246  22.711  25.617  1.00  0.00     0.010 A 
ATOM     65  C   UNL A   1      43.242  22.271  28.001  1.00  0.00     0.010 A 
ATOM     66  C   UNL A   1      42.887  21.383  25.371  1.00  0.00     0.020 A 
ATOM     67  C   UNL A   1      42.907  20.936  27.759  1.00  0.00     0.020 A 
ATOM     68  C   UNL A   1      42.720  20.503  26.444  1.00  0.00     0.054 A 
BRANCH  68  69
ATOM     69  S   UNL A   1      42.308  18.770  26.100  1.00  0.00     0.124 S 
ATOM     70  O   UNL A   1      43.290  18.421  25.079  1.00  0.00    -0.237 OA
ATOM     71  O   UNL A   1      42.496  18.135  27.403  1.00  0.00    -0.237 OA
ATOM     72  O   UNL A   1      40.922  18.834  25.643  1.00  0.00    -0.744 OA
ENDBRANCH  68  69
ENDBRANCH  40  63
BRANCH  52  73
ATOM     73  C   UNL A   1      49.438  26.680  26.477  1.00  0.00    -0.014 A 
ATOM     74  C   UNL A   1      50.233  25.977  27.397  1.00  0.00     0.010 A 
ATOM     75  C   UNL A   1      49.934  26.925  25.184  1.00  0.00     0.010 A 
ATOM     76  C   UNL A   1      51.508  25.533  27.032  1.00  0.00     0.020 A 
ATOM     77  C   UNL A   1      51.197  26.465  24.808  1.00  0.00     0.020 A 
ATOM     78  C   UNL A   1      51.980  25.778  25.738  1.00  0.00     0.054 A 
BRANCH  78  79
ATOM     79  S   UNL A   1      53.605  25.125  25.262  1.00  0.00     0.124 S 
ATOM     80  O   UNL A   1      53.777  25.687  23.925  1.00  0.00    -0.237 OA
ATOM     81  O   UNL A   1      54.486  25.672  26.292  1.00  0.00    -0.237 OA
ATOM     82  O   UNL A   1      53.424  23.676  25.312  1.00  0.00    -0.744 OA
ENDBRANCH  78  79
ENDBRANCH  52  73
ENDBRANCH  26  27
ENDBRANCH  18  21
ENDBRANCH  16  17
ENDBRANCH   1  16
TORSDOF 16
ENDMDL
MODEL 3
REMARK VINA RESULT:      -9.1      0.995      8.695
REMARK SMILES O=C(COC[C@@H]1CCCCO1)NCCCNC(=O)c1ccc(-c2c3nc(c(-c4ccc(S(=O)(=O)[O-])cc4)c4ccc([nH]4)c(-c4ccc(S(=O)(=O)[O-])cc4)c4nc(c(-c5ccc(S(=O)(=O)[O-])cc5)c5ccc2[nH]5)C=C4)C=C3)cc1
REMARK SMILES IDX 14 1 13 2 12 3 1 4 2 5 3 7 4 8 5 9 6 10 7 11 11 12 8 13
REMARK SMILES IDX 10 14 9 15 15 16 16 17 17 18 18 20 19 21 20 22 78 23 21 24
REMARK SMILES IDX 77 25 22 26 23 27 24 28 71 29 25 30 76 31 70 32 72 33 26 34
REMARK SMILES IDX 75 35 69 36 68 37 27 39 57 40 38 41 56 42 39 43 42 44 55 45
REMARK SMILES IDX 73 46 40 47 41 48 54 50 74 51 43 52 28 53 29 54 37 55 30 56
REMARK SMILES IDX 36 57 31 58 32 59 33 60 34 61 35 62 58 63 59 64 67 65 60 66
REMARK SMILES IDX 66 67 61 68 62 69 63 70 64 71 65 72 44 73 45 74 53 75 46 76
REMARK SMILES IDX 52 77 47 78 48 79 49 80 50 81 51 82
REMARK H PARENT 12 6 16 19 72 38 42 49
REMARK Flexibility Score: inf
ROOT
ATOM      1  C   UNL A   1      33.637  33.362  27.778  1.00  0.00     0.042 C 
ENDROOT
BRANCH   1   2
ATOM      2  C   UNL A   1      34.349  34.685  28.031  1.00  0.00     0.117 C 
BRANCH   2   3
ATOM      3  N   UNL A   1      34.089  35.203  29.358  1.00  0.00    -0.354 N 
ATOM      4  O   UNL A   1      32.260  36.466  28.768  1.00  0.00    -0.272 OA
ATOM      5  C   UNL A   1      33.064  36.085  29.613  1.00  0.00     0.246 C 
ATOM      6  H   UNL A   1      34.665  34.914  30.102  1.00  0.00     0.163 HD
BRANCH   5   7
ATOM      7  C   UNL A   1      33.003  36.549  31.074  1.00  0.00     0.260 C 
BRANCH   7   8
ATOM      8  O   UNL A   1      32.926  35.574  32.105  1.00  0.00    -0.369 OA
BRANCH   8   9
ATOM      9  C   UNL A   1      34.167  35.201  32.705  1.00  0.00     0.192 C 
BRANCH   9  10
ATOM     10  C   UNL A   1      34.209  33.873  33.498  1.00  0.00     0.144 C 
ATOM     11  C   UNL A   1      35.416  33.606  34.399  1.00  0.00     0.034 C 
ATOM     12  O   UNL A   1      33.959  32.742  32.642  1.00  0.00    -0.376 OA
ATOM     13  C   UNL A   1      36.636  33.092  33.638  1.00  0.00     0.005 C 
ATOM     14  C   UNL A   1      35.072  32.368  31.834  1.00  0.00     0.160 C 
ATOM     15  C   UNL A   1      36.248  31.956  32.705  1.00  0.00     0.029 C 
ENDBRANCH   9  10
ENDBRANCH   8   9
ENDBRANCH   7   8
ENDBRANCH   5   7
ENDBRANCH   2   3
ENDBRANCH   1   2
BRANCH   1  16
ATOM     16  C   UNL A   1      34.139  32.207  28.640  1.00  0.00     0.118 C 
BRANCH  16  17
ATOM     17  N   UNL A   1      33.736  30.899  28.140  1.00  0.00    -0.352 N 
ATOM     18  C   UNL A   1      34.501  29.782  27.900  1.00  0.00     0.251 C 
ATOM     19  H   UNL A   1      32.775  30.801  27.946  1.00  0.00     0.163 HD
ATOM     20  O   UNL A   1      34.003  28.803  27.358  1.00  0.00    -0.269 OA
BRANCH  18  21
ATOM     21  C   UNL A   1      35.933  29.784  28.268  1.00  0.00     0.039 A 
ATOM     22  C   UNL A   1      36.293  29.443  29.574  1.00  0.00     0.014 A 
ATOM     23  C   UNL A   1      36.912  30.094  27.322  1.00  0.00     0.014 A 
ATOM     24  C   UNL A   1      37.644  29.330  29.910  1.00  0.00     0.010 A 
ATOM     25  C   UNL A   1      38.255  29.920  27.642  1.00  0.00     0.010 A 
ATOM     26  C   UNL A   1      38.635  29.523  28.934  1.00  0.00    -0.014 A 
BRANCH  26  27
ATOM     27  C   UNL A   1      40.073  29.294  29.224  1.00  0.00     0.031 A 
ATOM     28  C   UNL A   1      40.708  27.975  28.884  1.00  0.00     0.074 A 
ATOM     29  C   UNL A   1      40.778  30.235  29.883  1.00  0.00     0.049 A 
ATOM     30  N   UNL A   1      41.901  27.532  29.186  1.00  0.00    -0.248 NA
ATOM     31  C   UNL A   1      39.883  27.018  28.128  1.00  0.00     0.031 C 
ATOM     32  C   UNL A   1      40.270  31.546  30.294  1.00  0.00     0.029 A 
ATOM     33  N   UNL A   1      42.073  30.224  30.342  1.00  0.00    -0.354 N 
ATOM     34  C   UNL A   1      41.962  26.238  28.683  1.00  0.00     0.074 A 
ATOM     35  C   UNL A   1      40.674  25.955  28.086  1.00  0.00     0.031 C 
ATOM     36  C   UNL A   1      41.243  32.215  30.933  1.00  0.00     0.029 A 
ATOM     37  C   UNL A   1      42.428  31.367  31.018  1.00  0.00     0.049 A 
ATOM     38  H   UNL A   1      42.688  29.469  30.199  1.00  0.00     0.167 HD
ATOM     39  C   UNL A   1      42.999  25.368  28.709  1.00  0.00     0.031 A 
ATOM     40  C   UNL A   1      43.572  31.691  31.654  1.00  0.00     0.031 A 
ATOM     41  C   UNL A   1      44.282  25.657  29.290  1.00  0.00     0.049 A 
ATOM     42  C   UNL A   1      44.707  30.707  31.673  1.00  0.00     0.074 A 
ATOM     43  C   UNL A   1      45.412  24.858  29.321  1.00  0.00     0.029 A 
ATOM     44  N   UNL A   1      44.610  26.838  29.938  1.00  0.00    -0.354 N 
ATOM     45  N   UNL A   1      44.761  29.504  31.154  1.00  0.00    -0.248 NA
ATOM     46  C   UNL A   1      45.940  31.125  32.358  1.00  0.00     0.031 C 
ATOM     47  C   UNL A   1      46.411  25.541  30.023  1.00  0.00     0.029 A 
ATOM     48  C   UNL A   1      45.918  26.784  30.385  1.00  0.00     0.049 A 
ATOM     49  H   UNL A   1      44.001  27.602  30.061  1.00  0.00     0.167 HD
ATOM     50  C   UNL A   1      46.041  29.034  31.420  1.00  0.00     0.074 A 
ATOM     51  C   UNL A   1      46.731  30.082  32.144  1.00  0.00     0.031 C 
ATOM     52  C   UNL A   1      46.596  27.842  31.091  1.00  0.00     0.031 A 
BRANCH  39  53
ATOM     53  C   UNL A   1      42.781  24.011  28.095  1.00  0.00    -0.014 A 
ATOM     54  C   UNL A   1      43.002  23.791  26.724  1.00  0.00     0.010 A 
ATOM     55  C   UNL A   1      42.383  22.933  28.907  1.00  0.00     0.010 A 
ATOM     56  C   UNL A   1      42.784  22.528  26.166  1.00  0.00     0.020 A 
ATOM     57  C   UNL A   1      42.190  21.662  28.357  1.00  0.00     0.020 A 
ATOM     58  C   UNL A   1      42.374  21.473  26.986  1.00  0.00     0.054 A 
BRANCH  58  59
ATOM     59  S   UNL A   1      42.112  19.841  26.240  1.00  0.00     0.124 S 
ATOM     60  O   UNL A   1      40.681  19.874  25.945  1.00  0.00    -0.237 OA
ATOM     61  O   UNL A   1      42.993  19.873  25.076  1.00  0.00    -0.237 OA
ATOM     62  O   UNL A   1      42.508  18.910  27.293  1.00  0.00    -0.744 OA
ENDBRANCH  58  59
ENDBRANCH  39  53
BRANCH  40  63
ATOM     63  C   UNL A   1      43.699  33.017  32.318  1.00  0.00    -0.014 A 
ATOM     64  C   UNL A   1      44.129  34.138  31.588  1.00  0.00     0.010 A 
ATOM     65  C   UNL A   1      43.374  33.169  33.678  1.00  0.00     0.010 A 
ATOM     66  C   UNL A   1      44.244  35.386  32.207  1.00  0.00     0.020 A 
ATOM     67  C   UNL A   1      43.464  34.420  34.295  1.00  0.00     0.020 A 
ATOM     68  C   UNL A   1      43.910  35.519  33.558  1.00  0.00     0.054 A 
BRANCH  68  69
ATOM     69  S   UNL A   1      44.014  37.158  34.328  1.00  0.00     0.124 S 
ATOM     70  O   UNL A   1      42.740  37.756  33.942  1.00  0.00    -0.237 OA
ATOM     71  O   UNL A   1      44.159  36.834  35.746  1.00  0.00    -0.237 OA
ATOM     72  O   UNL A   1      45.199  37.750  33.711  1.00  0.00    -0.744 OA
ENDBRANCH  68  69
ENDBRANCH  40  63
BRANCH  52  73
ATOM     73  C   UNL A   1      48.036  27.615  31.460  1.00  0.00    -0.014 A 
ATOM     74  C   UNL A   1      48.388  26.980  32.663  1.00  0.00     0.010 A 
ATOM     75  C   UNL A   1      49.046  27.964  30.545  1.00  0.00     0.010 A 
ATOM     76  C   UNL A   1      49.729  26.708  32.950  1.00  0.00     0.020 A 
ATOM     77  C   UNL A   1      50.384  27.673  30.817  1.00  0.00     0.020 A 
ATOM     78  C   UNL A   1      50.718  27.053  32.023  1.00  0.00     0.054 A 
BRANCH  78  79
ATOM     79  S   UNL A   1      52.443  26.620  32.381  1.00  0.00     0.124 S 
ATOM     80  O   UNL A   1      53.156  27.810  31.926  1.00  0.00    -0.237 OA
ATOM     81  O   UNL A   1      52.429  26.410  33.827  1.00  0.00    -0.237 OA
ATOM     82  O   UNL A   1      52.669  25.415  31.586  1.00  0.00    -0.744 OA
ENDBRANCH  78  79
ENDBRANCH  52  73
ENDBRANCH  26  27
ENDBRANCH  18  21
ENDBRANCH  16  17
ENDBRANCH   1  16
TORSDOF 16
ENDMDL
