MODEL 1
REMARK VINA RESULT:     -11.1      0.000      0.000
REMARK SMILES CC(=O)N[C@@H](Cc1cc(Br)c(O)c(Br)c1)C(=O)NCCCNC(=O)c1ccc(-c2c3nc(c(-c4ccc(S(=O)(=O)[O-])cc4)c4ccc([nH]4)c(-c4ccc(S(=O)(=O)[O-])cc4)c4nc(c(-c5ccc(S(=O)(=O)[O-])cc5)c5ccc2[nH]5)C=C4)C=C3)cc1
REMARK SMILES IDX 20 1 19 2 18 3 16 4 17 5 5 7 4 8 1 9 2 10 3 11 6 13 7 14
REMARK SMILES IDX 8 15 15 16 9 17 13 18 10 19 11 20 14 21 12 22 21 24 22 25
REMARK SMILES IDX 23 26 24 28 25 29 26 30 84 31 27 32 83 33 28 34 29 35 30 36
REMARK SMILES IDX 77 37 31 38 82 39 76 40 78 41 32 42 81 43 75 44 74 45 33 47
REMARK SMILES IDX 63 48 44 49 62 50 45 51 48 52 61 53 79 54 46 55 47 56 60 58
REMARK SMILES IDX 80 59 49 60 34 61 35 62 43 63 36 64 42 65 37 66 38 67 39 68
REMARK SMILES IDX 40 69 41 70 64 71 65 72 73 73 66 74 72 75 67 76 68 77 69 78
REMARK SMILES IDX 70 79 71 80 50 81 51 82 59 83 52 84 58 85 53 86 54 87 55 88
REMARK SMILES IDX 56 89 57 90
REMARK H PARENT 18 6 4 12 12 23 22 27 78 46 48 57
REMARK Flexibility Score: inf
ROOT
ATOM      1  C   UNL A   1      35.936  23.913  25.912  1.00  0.00     0.042 C 
ENDROOT
BRANCH   1   2
ATOM      2  C   UNL A   1      34.632  23.158  25.780  1.00  0.00     0.117 C 
BRANCH   2   3
ATOM      3  N   UNL A   1      33.577  23.575  26.680  1.00  0.00    -0.354 N 
ATOM      4  C   UNL A   1      32.270  23.853  26.404  1.00  0.00     0.242 C 
ATOM      5  O   UNL A   1      31.468  23.749  27.339  1.00  0.00    -0.273 OA
ATOM      6  H   UNL A   1      33.841  23.672  27.624  1.00  0.00     0.163 HD
BRANCH   4   7
ATOM      7  C   UNL A   1      31.751  24.177  24.980  1.00  0.00     0.175 C 
BRANCH   7   8
ATOM      8  N   UNL A   1      31.579  22.990  24.137  1.00  0.00    -0.344 N 
ATOM      9  C   UNL A   1      33.187  23.658  22.384  1.00  0.00     0.114 C 
ATOM     10  C   UNL A   1      32.275  22.645  23.017  1.00  0.00     0.217 C 
ATOM     11  O   UNL A   1      32.118  21.525  22.539  1.00  0.00    -0.275 OA
ATOM     12  H   UNL A   1      30.872  22.364  24.415  1.00  0.00     0.164 HD
ENDBRANCH   7   8
BRANCH   7  13
ATOM     13  C   UNL A   1      30.559  25.162  24.938  1.00  0.00     0.070 C 
BRANCH  13  14
ATOM     14  C   UNL A   1      30.754  26.479  24.223  1.00  0.00    -0.043 A 
ATOM     15  C   UNL A   1      29.644  27.257  23.857  1.00  0.00     0.023 A 
ATOM     16  C   UNL A   1      32.036  26.916  23.857  1.00  0.00     0.023 A 
ATOM     17  C   UNL A   1      29.810  28.395  23.057  1.00  0.00     0.061 A 
ATOM     18  C   UNL A   1      32.197  28.049  23.050  1.00  0.00     0.061 A 
ATOM     19  Br  UNL A   1      28.268  29.346  22.503  1.00  0.00    -0.047 Br
ATOM     20  C   UNL A   1      31.082  28.776  22.624  1.00  0.00     0.143 A 
ATOM     21  Br  UNL A   1      33.950  28.502  22.483  1.00  0.00    -0.047 Br
BRANCH  20  22
ATOM     22  O   UNL A   1      31.250  29.823  21.759  1.00  0.00    -0.506 OA
ATOM     23  H   UNL A   1      32.063  30.286  21.735  1.00  0.00     0.293 HD
ENDBRANCH  20  22
ENDBRANCH  13  14
ENDBRANCH   7  13
ENDBRANCH   4   7
ENDBRANCH   2   3
ENDBRANCH   1   2
BRANCH   1  24
ATOM     24  C   UNL A   1      36.977  23.505  24.882  1.00  0.00     0.118 C 
BRANCH  24  25
ATOM     25  N   UNL A   1      37.995  22.599  25.414  1.00  0.00    -0.352 N 
ATOM     26  C   UNL A   1      39.117  22.841  26.171  1.00  0.00     0.251 C 
ATOM     27  H   UNL A   1      37.850  21.650  25.191  1.00  0.00     0.163 HD
ATOM     28  O   UNL A   1      39.942  21.940  26.319  1.00  0.00    -0.269 OA
BRANCH  26  29
ATOM     29  C   UNL A   1      39.345  24.174  26.777  1.00  0.00     0.039 A 
ATOM     30  C   UNL A   1      38.890  24.430  28.073  1.00  0.00     0.014 A 
ATOM     31  C   UNL A   1      40.018  25.171  26.074  1.00  0.00     0.014 A 
ATOM     32  C   UNL A   1      39.209  25.643  28.694  1.00  0.00     0.010 A 
ATOM     33  C   UNL A   1      40.444  26.318  26.734  1.00  0.00     0.010 A 
ATOM     34  C   UNL A   1      40.043  26.573  28.052  1.00  0.00    -0.014 A 
BRANCH  34  35
ATOM     35  C   UNL A   1      40.518  27.812  28.726  1.00  0.00     0.031 A 
ATOM     36  C   UNL A   1      41.888  27.850  29.360  1.00  0.00     0.074 A 
ATOM     37  C   UNL A   1      39.680  28.860  28.869  1.00  0.00     0.049 A 
ATOM     38  N   UNL A   1      42.428  28.784  30.100  1.00  0.00    -0.248 NA
ATOM     39  C   UNL A   1      42.745  26.665  29.178  1.00  0.00     0.031 C 
ATOM     40  C   UNL A   1      38.301  28.923  28.375  1.00  0.00     0.029 A 
ATOM     41  N   UNL A   1      39.859  30.071  29.491  1.00  0.00    -0.354 N 
ATOM     42  C   UNL A   1      43.659  28.282  30.507  1.00  0.00     0.074 A 
ATOM     43  C   UNL A   1      43.772  26.946  29.968  1.00  0.00     0.031 C 
ATOM     44  C   UNL A   1      37.771  30.116  28.691  1.00  0.00     0.029 A 
ATOM     45  C   UNL A   1      38.751  30.887  29.447  1.00  0.00     0.049 A 
ATOM     46  H   UNL A   1      40.702  30.333  29.929  1.00  0.00     0.167 HD
ATOM     47  C   UNL A   1      44.620  28.885  31.245  1.00  0.00     0.031 A 
ATOM     48  C   UNL A   1      38.541  32.113  29.965  1.00  0.00     0.031 A 
ATOM     49  C   UNL A   1      44.534  30.238  31.724  1.00  0.00     0.049 A 
ATOM     50  C   UNL A   1      39.652  32.787  30.723  1.00  0.00     0.074 A 
ATOM     51  C   UNL A   1      45.501  30.979  32.381  1.00  0.00     0.029 A 
ATOM     52  N   UNL A   1      43.422  31.056  31.592  1.00  0.00    -0.354 N 
ATOM     53  N   UNL A   1      40.848  32.329  31.010  1.00  0.00    -0.248 NA
ATOM     54  C   UNL A   1      39.392  34.147  31.216  1.00  0.00     0.031 C 
ATOM     55  C   UNL A   1      44.959  32.230  32.685  1.00  0.00     0.029 A 
ATOM     56  C   UNL A   1      43.672  32.286  32.174  1.00  0.00     0.049 A 
ATOM     57  H   UNL A   1      42.581  30.799  31.150  1.00  0.00     0.167 HD
ATOM     58  C   UNL A   1      41.490  33.357  31.692  1.00  0.00     0.074 A 
ATOM     59  C   UNL A   1      40.559  34.463  31.758  1.00  0.00     0.031 C 
ATOM     60  C   UNL A   1      42.739  33.380  32.218  1.00  0.00     0.031 A 
BRANCH  47  61
ATOM     61  C   UNL A   1      45.861  28.098  31.573  1.00  0.00    -0.014 A 
ATOM     62  C   UNL A   1      46.997  28.150  30.746  1.00  0.00     0.010 A 
ATOM     63  C   UNL A   1      45.916  27.357  32.768  1.00  0.00     0.010 A 
ATOM     64  C   UNL A   1      48.157  27.454  31.095  1.00  0.00     0.020 A 
ATOM     65  C   UNL A   1      47.084  26.681  33.133  1.00  0.00     0.020 A 
ATOM     66  C   UNL A   1      48.194  26.725  32.287  1.00  0.00     0.054 A 
BRANCH  66  67
ATOM     67  S   UNL A   1      49.733  25.880  32.742  1.00  0.00     0.124 S 
ATOM     68  O   UNL A   1      49.860  24.891  31.675  1.00  0.00    -0.237 OA
ATOM     69  O   UNL A   1      50.714  26.963  32.714  1.00  0.00    -0.237 OA
ATOM     70  O   UNL A   1      49.452  25.333  34.067  1.00  0.00    -0.744 OA
ENDBRANCH  66  67
ENDBRANCH  47  61
BRANCH  48  71
ATOM     71  C   UNL A   1      37.228  32.792  29.782  1.00  0.00    -0.014 A 
ATOM     72  C   UNL A   1      36.957  33.524  28.613  1.00  0.00     0.010 A 
ATOM     73  C   UNL A   1      36.247  32.726  30.788  1.00  0.00     0.010 A 
ATOM     74  C   UNL A   1      35.747  34.209  28.469  1.00  0.00     0.020 A 
ATOM     75  C   UNL A   1      35.023  33.387  30.636  1.00  0.00     0.020 A 
ATOM     76  C   UNL A   1      34.790  34.141  29.484  1.00  0.00     0.054 A 
BRANCH  76  77
ATOM     77  S   UNL A   1      33.219  35.024  29.271  1.00  0.00     0.124 S 
ATOM     78  O   UNL A   1      32.544  34.202  28.272  1.00  0.00    -0.237 OA
ATOM     79  O   UNL A   1      32.646  34.986  30.614  1.00  0.00    -0.237 OA
ATOM     80  O   UNL A   1      33.633  36.350  28.817  1.00  0.00    -0.744 OA
ENDBRANCH  76  77
ENDBRANCH  48  71
BRANCH  60  81
ATOM     81  C   UNL A   1      43.190  34.655  32.878  1.00  0.00    -0.014 A 
ATOM     82  C   UNL A   1      43.764  35.698  32.132  1.00  0.00     0.010 A 
ATOM     83  C   UNL A   1      42.977  34.832  34.258  1.00  0.00     0.010 A 
ATOM     84  C   UNL A   1      44.148  36.885  32.760  1.00  0.00     0.020 A 
ATOM     85  C   UNL A   1      43.334  36.027  34.884  1.00  0.00     0.020 A 
ATOM     86  C   UNL A   1      43.931  37.042  34.134  1.00  0.00     0.054 A 
BRANCH  86  87
ATOM     87  S   UNL A   1      44.396  38.609  34.919  1.00  0.00     0.124 S 
ATOM     88  O   UNL A   1      45.823  38.686  34.620  1.00  0.00    -0.237 OA
ATOM     89  O   UNL A   1      43.555  39.580  34.222  1.00  0.00    -0.237 OA
ATOM     90  O   UNL A   1      44.063  38.402  36.326  1.00  0.00    -0.744 OA
ENDBRANCH  86  87
ENDBRANCH  60  81
ENDBRANCH  34  35
ENDBRANCH  26  29
ENDBRANCH  24  25
ENDBRANCH   1  24
TORSDOF 17
ENDMDL
MODEL 2
REMARK VINA RESULT:     -10.7      5.814     11.733
REMARK SMILES CC(=O)N[C@@H](Cc1cc(Br)c(O)c(Br)c1)C(=O)NCCCNC(=O)c1ccc(-c2c3nc(c(-c4ccc(S(=O)(=O)[O-])cc4)c4ccc([nH]4)c(-c4ccc(S(=O)(=O)[O-])cc4)c4nc(c(-c5ccc(S(=O)(=O)[O-])cc5)c5ccc2[nH]5)C=C4)C=C3)cc1
REMARK SMILES IDX 20 1 19 2 18 3 16 4 17 5 5 7 4 8 1 9 2 10 3 11 6 13 7 14
REMARK SMILES IDX 8 15 15 16 9 17 13 18 10 19 11 20 14 21 12 22 21 24 22 25
REMARK SMILES IDX 23 26 24 28 25 29 26 30 84 31 27 32 83 33 28 34 29 35 30 36
REMARK SMILES IDX 77 37 31 38 82 39 76 40 78 41 32 42 81 43 75 44 74 45 33 47
REMARK SMILES IDX 63 48 44 49 62 50 45 51 48 52 61 53 79 54 46 55 47 56 60 58
REMARK SMILES IDX 80 59 49 60 34 61 35 62 43 63 36 64 42 65 37 66 38 67 39 68
REMARK SMILES IDX 40 69 41 70 64 71 65 72 73 73 66 74 72 75 67 76 68 77 69 78
REMARK SMILES IDX 70 79 71 80 50 81 51 82 59 83 52 84 58 85 53 86 54 87 55 88
REMARK SMILES IDX 56 89 57 90
REMARK H PARENT 18 6 4 12 12 23 22 27 78 46 48 57
REMARK Flexibility Score: inf
ROOT
ATOM      1  C   UNL A   1      34.913  32.009  27.660  1.00  0.00     0.042 C 
ENDROOT
BRANCH   1   2
ATOM      2  C   UNL A   1      33.959  32.646  28.646  1.00  0.00     0.117 C 
BRANCH   2   3
ATOM      3  N   UNL A   1      33.618  34.027  28.378  1.00  0.00    -0.354 N 
ATOM      4  C   UNL A   1      33.745  35.118  29.189  1.00  0.00     0.242 C 
ATOM      5  O   UNL A   1      33.824  36.220  28.634  1.00  0.00    -0.273 OA
ATOM      6  H   UNL A   1      33.243  34.205  27.485  1.00  0.00     0.163 HD
BRANCH   4   7
ATOM      7  C   UNL A   1      33.899  35.021  30.727  1.00  0.00     0.175 C 
BRANCH   7   8
ATOM      8  N   UNL A   1      32.739  35.529  31.466  1.00  0.00    -0.344 N 
ATOM      9  C   UNL A   1      34.012  36.913  33.068  1.00  0.00     0.114 C 
ATOM     10  C   UNL A   1      32.715  36.467  32.454  1.00  0.00     0.217 C 
ATOM     11  O   UNL A   1      31.632  36.903  32.836  1.00  0.00    -0.275 OA
ATOM     12  H   UNL A   1      31.868  35.144  31.216  1.00  0.00     0.164 HD
ENDBRANCH   7   8
BRANCH   7  13
ATOM     13  C   UNL A   1      34.426  33.658  31.236  1.00  0.00     0.070 C 
BRANCH  13  14
ATOM     14  C   UNL A   1      35.854  33.590  31.727  1.00  0.00    -0.043 A 
ATOM     15  C   UNL A   1      36.919  33.818  30.841  1.00  0.00     0.023 A 
ATOM     16  C   UNL A   1      36.143  33.239  33.054  1.00  0.00     0.023 A 
ATOM     17  C   UNL A   1      38.240  33.601  31.251  1.00  0.00     0.061 A 
ATOM     18  C   UNL A   1      37.465  33.015  33.458  1.00  0.00     0.061 A 
ATOM     19  Br  UNL A   1      39.631  33.819  29.982  1.00  0.00    -0.047 Br
ATOM     20  C   UNL A   1      38.516  33.168  32.549  1.00  0.00     0.143 A 
ATOM     21  Br  UNL A   1      37.769  32.410  35.231  1.00  0.00    -0.047 Br
BRANCH  20  22
ATOM     22  O   UNL A   1      39.792  32.852  32.934  1.00  0.00    -0.506 OA
ATOM     23  H   UNL A   1      40.112  33.131  33.768  1.00  0.00     0.293 HD
ENDBRANCH  20  22
ENDBRANCH  13  14
ENDBRANCH   7  13
ENDBRANCH   4   7
ENDBRANCH   2   3
ENDBRANCH   1   2
BRANCH   1  24
ATOM     24  C   UNL A   1      35.583  30.752  28.192  1.00  0.00     0.118 C 
BRANCH  24  25
ATOM     25  N   UNL A   1      35.472  30.608  29.644  1.00  0.00    -0.352 N 
ATOM     26  C   UNL A   1      36.388  30.202  30.587  1.00  0.00     0.251 C 
ATOM     27  H   UNL A   1      34.588  30.842  30.010  1.00  0.00     0.163 HD
ATOM     28  O   UNL A   1      36.000  29.955  31.727  1.00  0.00    -0.269 OA
BRANCH  26  29
ATOM     29  C   UNL A   1      37.817  30.039  30.229  1.00  0.00     0.039 A 
ATOM     30  C   UNL A   1      38.754  29.771  31.230  1.00  0.00     0.014 A 
ATOM     31  C   UNL A   1      38.236  30.139  28.904  1.00  0.00     0.014 A 
ATOM     32  C   UNL A   1      40.081  29.496  30.884  1.00  0.00     0.010 A 
ATOM     33  C   UNL A   1      39.519  29.740  28.549  1.00  0.00     0.010 A 
ATOM     34  C   UNL A   1      40.462  29.416  29.534  1.00  0.00    -0.014 A 
BRANCH  34  35
ATOM     35  C   UNL A   1      41.827  28.993  29.118  1.00  0.00     0.031 A 
ATOM     36  C   UNL A   1      42.943  30.007  29.046  1.00  0.00     0.074 A 
ATOM     37  C   UNL A   1      42.036  27.730  28.694  1.00  0.00     0.049 A 
ATOM     38  N   UNL A   1      44.160  29.863  28.585  1.00  0.00    -0.248 NA
ATOM     39  C   UNL A   1      42.641  31.373  29.510  1.00  0.00     0.031 C 
ATOM     40  C   UNL A   1      41.024  26.671  28.634  1.00  0.00     0.029 A 
ATOM     41  N   UNL A   1      43.170  27.122  28.212  1.00  0.00    -0.354 N 
ATOM     42  C   UNL A   1      44.746  31.122  28.660  1.00  0.00     0.074 A 
ATOM     43  C   UNL A   1      43.742  32.028  29.171  1.00  0.00     0.031 C 
ATOM     44  C   UNL A   1      41.587  25.543  28.169  1.00  0.00     0.029 A 
ATOM     45  C   UNL A   1      42.987  25.806  27.855  1.00  0.00     0.049 A 
ATOM     46  H   UNL A   1      44.036  27.586  28.130  1.00  0.00     0.167 HD
ATOM     47  C   UNL A   1      46.011  31.488  28.352  1.00  0.00     0.031 A 
ATOM     48  C   UNL A   1      43.843  24.911  27.324  1.00  0.00     0.031 A 
ATOM     49  C   UNL A   1      47.027  30.573  27.907  1.00  0.00     0.049 A 
ATOM     50  C   UNL A   1      45.263  25.329  27.055  1.00  0.00     0.074 A 
ATOM     51  C   UNL A   1      48.369  30.824  27.679  1.00  0.00     0.029 A 
ATOM     52  N   UNL A   1      46.817  29.231  27.630  1.00  0.00    -0.354 N 
ATOM     53  N   UNL A   1      45.823  26.503  27.229  1.00  0.00    -0.248 NA
ATOM     54  C   UNL A   1      46.172  24.300  26.532  1.00  0.00     0.031 C 
ATOM     55  C   UNL A   1      48.961  29.644  27.222  1.00  0.00     0.029 A 
ATOM     56  C   UNL A   1      48.000  28.647  27.213  1.00  0.00     0.049 A 
ATOM     57  H   UNL A   1      45.955  28.764  27.716  1.00  0.00     0.167 HD
ATOM     58  C   UNL A   1      47.154  26.344  26.863  1.00  0.00     0.074 A 
ATOM     59  C   UNL A   1      47.321  24.959  26.476  1.00  0.00     0.031 C 
ATOM     60  C   UNL A   1      48.150  27.263  26.845  1.00  0.00     0.031 A 
BRANCH  47  61
ATOM     61  C   UNL A   1      46.384  32.940  28.497  1.00  0.00    -0.014 A 
ATOM     62  C   UNL A   1      46.200  33.848  27.439  1.00  0.00     0.010 A 
ATOM     63  C   UNL A   1      46.852  33.416  29.735  1.00  0.00     0.010 A 
ATOM     64  C   UNL A   1      46.502  35.201  27.609  1.00  0.00     0.020 A 
ATOM     65  C   UNL A   1      47.131  34.775  29.916  1.00  0.00     0.020 A 
ATOM     66  C   UNL A   1      46.964  35.657  28.847  1.00  0.00     0.054 A 
BRANCH  66  67
ATOM     67  S   UNL A   1      47.292  37.428  29.055  1.00  0.00     0.124 S 
ATOM     68  O   UNL A   1      46.858  37.967  27.768  1.00  0.00    -0.237 OA
ATOM     69  O   UNL A   1      46.451  37.778  30.197  1.00  0.00    -0.237 OA
ATOM     70  O   UNL A   1      48.731  37.489  29.302  1.00  0.00    -0.744 OA
ENDBRANCH  66  67
ENDBRANCH  47  61
BRANCH  48  71
ATOM     71  C   UNL A   1      43.390  23.526  27.015  1.00  0.00    -0.014 A 
ATOM     72  C   UNL A   1      43.010  22.650  28.047  1.00  0.00     0.010 A 
ATOM     73  C   UNL A   1      43.354  23.070  25.684  1.00  0.00     0.010 A 
ATOM     74  C   UNL A   1      42.641  21.333  27.759  1.00  0.00     0.020 A 
ATOM     75  C   UNL A   1      42.957  21.762  25.390  1.00  0.00     0.020 A 
ATOM     76  C   UNL A   1      42.623  20.895  26.432  1.00  0.00     0.054 A 
BRANCH  76  77
ATOM     77  S   UNL A   1      42.125  19.186  26.079  1.00  0.00     0.124 S 
ATOM     78  O   UNL A   1      42.467  18.509  27.325  1.00  0.00    -0.237 OA
ATOM     79  O   UNL A   1      40.697  19.321  25.803  1.00  0.00    -0.237 OA
ATOM     80  O   UNL A   1      42.943  18.825  24.923  1.00  0.00    -0.744 OA
ENDBRANCH  76  77
ENDBRANCH  48  71
BRANCH  60  81
ATOM     81  C   UNL A   1      49.519  26.796  26.433  1.00  0.00    -0.014 A 
ATOM     82  C   UNL A   1      50.342  26.080  27.319  1.00  0.00     0.010 A 
ATOM     83  C   UNL A   1      49.961  27.027  25.117  1.00  0.00     0.010 A 
ATOM     84  C   UNL A   1      51.598  25.629  26.905  1.00  0.00     0.020 A 
ATOM     85  C   UNL A   1      51.204  26.554  24.692  1.00  0.00     0.020 A 
ATOM     86  C   UNL A   1      52.022  25.870  25.594  1.00  0.00     0.054 A 
BRANCH  86  87
ATOM     87  S   UNL A   1      53.636  25.236  25.066  1.00  0.00     0.124 S 
ATOM     88  O   UNL A   1      53.667  25.619  23.657  1.00  0.00    -0.237 OA
ATOM     89  O   UNL A   1      54.564  25.958  25.934  1.00  0.00    -0.237 OA
ATOM     90  O   UNL A   1      53.544  23.800  25.320  1.00  0.00    -0.744 OA
ENDBRANCH  86  87
ENDBRANCH  60  81
ENDBRANCH  34  35
ENDBRANCH  26  29
ENDBRANCH  24  25
ENDBRANCH   1  24
TORSDOF 17
ENDMDL
MODEL 3
REMARK VINA RESULT:     -10.7      5.673      7.737
REMARK SMILES CC(=O)N[C@@H](Cc1cc(Br)c(O)c(Br)c1)C(=O)NCCCNC(=O)c1ccc(-c2c3nc(c(-c4ccc(S(=O)(=O)[O-])cc4)c4ccc([nH]4)c(-c4ccc(S(=O)(=O)[O-])cc4)c4nc(c(-c5ccc(S(=O)(=O)[O-])cc5)c5ccc2[nH]5)C=C4)C=C3)cc1
REMARK SMILES IDX 20 1 19 2 18 3 16 4 17 5 5 7 4 8 1 9 2 10 3 11 6 13 7 14
REMARK SMILES IDX 8 15 15 16 9 17 13 18 10 19 11 20 14 21 12 22 21 24 22 25
REMARK SMILES IDX 23 26 24 28 25 29 26 30 84 31 27 32 83 33 28 34 29 35 30 36
REMARK SMILES IDX 77 37 31 38 82 39 76 40 78 41 32 42 81 43 75 44 74 45 33 47
REMARK SMILES IDX 63 48 44 49 62 50 45 51 48 52 61 53 79 54 46 55 47 56 60 58
REMARK SMILES IDX 80 59 49 60 34 61 35 62 43 63 36 64 42 65 37 66 38 67 39 68
REMARK SMILES IDX 40 69 41 70 64 71 65 72 73 73 66 74 72 75 67 76 68 77 69 78
REMARK SMILES IDX 70 79 71 80 50 81 51 82 59 83 52 84 58 85 53 86 54 87 55 88
REMARK SMILES IDX 56 89 57 90
REMARK H PARENT 18 6 4 12 12 23 22 27 78 46 48 57
REMARK Flexibility Score: inf
ROOT
ATOM      1  C   UNL A   1      40.312  21.846  27.413  1.00  0.00     0.042 C 
ENDROOT
BRANCH   1   2
ATOM      2  C   UNL A   1      40.600  21.084  26.138  1.00  0.00     0.117 C 
BRANCH   2   3
ATOM      3  N   UNL A   1      41.183  19.771  26.318  1.00  0.00    -0.354 N 
ATOM      4  C   UNL A   1      42.495  19.399  26.278  1.00  0.00     0.242 C 
ATOM      5  O   UNL A   1      42.801  18.366  26.884  1.00  0.00    -0.273 OA
ATOM      6  H   UNL A   1      40.541  19.044  26.493  1.00  0.00     0.163 HD
BRANCH   4   7
ATOM      7  C   UNL A   1      43.603  20.256  25.616  1.00  0.00     0.175 C 
BRANCH   7   8
ATOM      8  N   UNL A   1      44.132  19.675  24.379  1.00  0.00    -0.344 N 
ATOM      9  C   UNL A   1      46.491  19.569  25.107  1.00  0.00     0.114 C 
ATOM     10  C   UNL A   1      45.399  19.240  24.128  1.00  0.00     0.217 C 
ATOM     11  O   UNL A   1      45.621  18.614  23.095  1.00  0.00    -0.275 OA
ATOM     12  H   UNL A   1      43.492  19.587  23.637  1.00  0.00     0.164 HD
ENDBRANCH   7   8
BRANCH   7  13
ATOM     13  C   UNL A   1      43.275  21.765  25.516  1.00  0.00     0.070 C 
BRANCH  13  14
ATOM     14  C   UNL A   1      44.056  22.718  26.393  1.00  0.00    -0.043 A 
ATOM     15  C   UNL A   1      45.178  23.390  25.883  1.00  0.00     0.023 A 
ATOM     16  C   UNL A   1      43.715  22.898  27.742  1.00  0.00     0.023 A 
ATOM     17  C   UNL A   1      45.995  24.148  26.731  1.00  0.00     0.061 A 
ATOM     18  C   UNL A   1      44.540  23.649  28.589  1.00  0.00     0.061 A 
ATOM     19  Br  UNL A   1      47.557  24.946  26.012  1.00  0.00    -0.047 Br
ATOM     20  C   UNL A   1      45.698  24.253  28.092  1.00  0.00     0.143 A 
ATOM     21  Br  UNL A   1      44.090  23.737  30.429  1.00  0.00    -0.047 Br
BRANCH  20  22
ATOM     22  O   UNL A   1      46.543  24.902  28.952  1.00  0.00    -0.506 OA
ATOM     23  H   UNL A   1      46.476  25.829  29.064  1.00  0.00     0.293 HD
ENDBRANCH  20  22
ENDBRANCH  13  14
ENDBRANCH   7  13
ENDBRANCH   4   7
ENDBRANCH   2   3
ENDBRANCH   1   2
BRANCH   1  24
ATOM     24  C   UNL A   1      39.807  23.260  27.171  1.00  0.00     0.118 C 
BRANCH  24  25
ATOM     25  N   UNL A   1      40.571  23.982  26.153  1.00  0.00    -0.352 N 
ATOM     26  C   UNL A   1      41.088  25.256  26.143  1.00  0.00     0.251 C 
ATOM     27  H   UNL A   1      40.746  23.465  25.333  1.00  0.00     0.163 HD
ATOM     28  O   UNL A   1      41.513  25.719  25.086  1.00  0.00    -0.269 OA
BRANCH  26  29
ATOM     29  C   UNL A   1      41.110  26.071  27.380  1.00  0.00     0.039 A 
ATOM     30  C   UNL A   1      42.194  26.917  27.632  1.00  0.00     0.014 A 
ATOM     31  C   UNL A   1      40.057  26.013  28.292  1.00  0.00     0.014 A 
ATOM     32  C   UNL A   1      42.162  27.777  28.735  1.00  0.00     0.010 A 
ATOM     33  C   UNL A   1      39.967  26.955  29.310  1.00  0.00     0.010 A 
ATOM     34  C   UNL A   1      41.020  27.849  29.548  1.00  0.00    -0.014 A 
BRANCH  34  35
ATOM     35  C   UNL A   1      40.888  28.843  30.648  1.00  0.00     0.031 A 
ATOM     36  C   UNL A   1      41.730  28.709  31.894  1.00  0.00     0.074 A 
ATOM     37  C   UNL A   1      39.935  29.796  30.579  1.00  0.00     0.049 A 
ATOM     38  N   UNL A   1      41.669  29.393  33.008  1.00  0.00    -0.248 NA
ATOM     39  C   UNL A   1      42.741  27.637  31.909  1.00  0.00     0.031 C 
ATOM     40  C   UNL A   1      38.998  29.986  29.466  1.00  0.00     0.029 A 
ATOM     41  N   UNL A   1      39.580  30.776  31.473  1.00  0.00    -0.354 N 
ATOM     42  C   UNL A   1      42.594  28.807  33.865  1.00  0.00     0.074 A 
ATOM     43  C   UNL A   1      43.174  27.686  33.160  1.00  0.00     0.031 C 
ATOM     44  C   UNL A   1      38.197  31.030  29.734  1.00  0.00     0.029 A 
ATOM     45  C   UNL A   1      38.529  31.558  31.053  1.00  0.00     0.049 A 
ATOM     46  H   UNL A   1      40.037  30.907  32.336  1.00  0.00     0.167 HD
ATOM     47  C   UNL A   1      42.945  29.179  35.117  1.00  0.00     0.031 A 
ATOM     48  C   UNL A   1      37.894  32.578  31.662  1.00  0.00     0.031 A 
ATOM     49  C   UNL A   1      42.415  30.333  35.791  1.00  0.00     0.049 A 
ATOM     50  C   UNL A   1      38.351  33.013  33.028  1.00  0.00     0.074 A 
ATOM     51  C   UNL A   1      42.791  30.861  37.014  1.00  0.00     0.029 A 
ATOM     52  N   UNL A   1      41.404  31.143  35.297  1.00  0.00    -0.354 N 
ATOM     53  N   UNL A   1      39.300  32.505  33.779  1.00  0.00    -0.248 NA
ATOM     54  C   UNL A   1      37.665  34.169  33.623  1.00  0.00     0.031 C 
ATOM     55  C   UNL A   1      41.975  31.964  37.281  1.00  0.00     0.029 A 
ATOM     56  C   UNL A   1      41.128  32.153  36.201  1.00  0.00     0.049 A 
ATOM     57  H   UNL A   1      40.950  31.017  34.433  1.00  0.00     0.167 HD
ATOM     58  C   UNL A   1      39.340  33.296  34.921  1.00  0.00     0.074 A 
ATOM     59  C   UNL A   1      38.337  34.326  34.755  1.00  0.00     0.031 C 
ATOM     60  C   UNL A   1      40.135  33.178  36.013  1.00  0.00     0.031 A 
BRANCH  47  61
ATOM     61  C   UNL A   1      43.964  28.342  35.846  1.00  0.00    -0.014 A 
ATOM     62  C   UNL A   1      45.339  28.613  35.741  1.00  0.00     0.010 A 
ATOM     63  C   UNL A   1      43.531  27.319  36.709  1.00  0.00     0.010 A 
ATOM     64  C   UNL A   1      46.265  27.859  36.466  1.00  0.00     0.020 A 
ATOM     65  C   UNL A   1      44.454  26.580  37.457  1.00  0.00     0.020 A 
ATOM     66  C   UNL A   1      45.817  26.849  37.321  1.00  0.00     0.054 A 
BRANCH  66  67
ATOM     67  S   UNL A   1      47.039  25.927  38.293  1.00  0.00     0.124 S 
ATOM     68  O   UNL A   1      47.921  26.994  38.757  1.00  0.00    -0.237 OA
ATOM     69  O   UNL A   1      46.218  25.298  39.325  1.00  0.00    -0.237 OA
ATOM     70  O   UNL A   1      47.631  25.006  37.325  1.00  0.00    -0.744 OA
ENDBRANCH  66  67
ENDBRANCH  47  61
BRANCH  48  71
ATOM     71  C   UNL A   1      36.758  33.268  30.988  1.00  0.00    -0.014 A 
ATOM     72  C   UNL A   1      35.462  33.209  31.529  1.00  0.00     0.010 A 
ATOM     73  C   UNL A   1      36.967  33.974  29.789  1.00  0.00     0.010 A 
ATOM     74  C   UNL A   1      34.388  33.807  30.864  1.00  0.00     0.020 A 
ATOM     75  C   UNL A   1      35.899  34.599  29.136  1.00  0.00     0.020 A 
ATOM     76  C   UNL A   1      34.613  34.494  29.668  1.00  0.00     0.054 A 
BRANCH  76  77
ATOM     77  S   UNL A   1      33.208  35.278  28.828  1.00  0.00     0.124 S 
ATOM     78  O   UNL A   1      33.871  36.292  28.014  1.00  0.00    -0.237 OA
ATOM     79  O   UNL A   1      32.614  34.165  28.093  1.00  0.00    -0.237 OA
ATOM     80  O   UNL A   1      32.395  35.791  29.930  1.00  0.00    -0.744 OA
ENDBRANCH  76  77
ENDBRANCH  48  71
BRANCH  60  81
ATOM     81  C   UNL A   1      39.984  34.210  37.097  1.00  0.00    -0.014 A 
ATOM     82  C   UNL A   1      40.600  35.469  36.995  1.00  0.00     0.010 A 
ATOM     83  C   UNL A   1      39.160  33.934  38.204  1.00  0.00     0.010 A 
ATOM     84  C   UNL A   1      40.422  36.423  38.000  1.00  0.00     0.020 A 
ATOM     85  C   UNL A   1      38.958  34.895  39.196  1.00  0.00     0.020 A 
ATOM     86  C   UNL A   1      39.602  36.130  39.094  1.00  0.00     0.054 A 
BRANCH  86  87
ATOM     87  S   UNL A   1      39.348  37.401  40.362  1.00  0.00     0.124 S 
ATOM     88  O   UNL A   1      38.650  36.655  41.405  1.00  0.00    -0.237 OA
ATOM     89  O   UNL A   1      40.714  37.807  40.688  1.00  0.00    -0.237 OA
ATOM     90  O   UNL A   1      38.550  38.416  39.680  1.00  0.00    -0.744 OA
ENDBRANCH  86  87
ENDBRANCH  60  81
ENDBRANCH  34  35
ENDBRANCH  26  29
ENDBRANCH  24  25
ENDBRANCH   1  24
TORSDOF 17
ENDMDL
