MODEL 1
REMARK VINA RESULT:     -13.0      0.000      0.000
REMARK SMILES C[C@@H]1CN(C(=O)Nc2ccc(O)c(C(=O)NCCCNC(=O)c3ccc(-c4c5nc(c(-c6ccc(S(=O)(=O)[O-])cc6)c6ccc([nH]6)c(-c6ccc(S(=O)(=O)[O-])cc6)c6nc(c(-c7ccc(S(=O)(=O)[O-])cc7)c7ccc4[nH]7)C=C6)C=C5)cc3)c2)C[C@H]1C
REMARK SMILES IDX 19 1 18 2 17 3 16 4 14 5 15 6 13 8 8 9 9 10 83 11 10 12
REMARK SMILES IDX 11 13 7 14 1 15 2 16 3 17 85 18 4 19 84 20 86 21 5 22 6 23
REMARK SMILES IDX 12 25 20 27 21 28 22 30 23 31 24 32 82 33 25 34 81 35 26 36
REMARK SMILES IDX 27 37 28 38 75 39 29 40 80 41 74 42 76 43 30 44 79 45 73 46
REMARK SMILES IDX 72 47 31 49 61 50 42 51 60 52 43 53 46 54 59 55 77 56 44 57
REMARK SMILES IDX 45 58 58 60 78 61 47 62 32 63 33 64 41 65 34 66 40 67 35 68
REMARK SMILES IDX 36 69 37 70 38 71 39 72 62 73 63 74 71 75 64 76 70 77 65 78
REMARK SMILES IDX 66 79 67 80 68 81 69 82 48 83 49 84 57 85 50 86 56 87 51 88
REMARK SMILES IDX 52 89 53 90 54 91 55 92
REMARK H PARENT 16 7 7 24 12 26 20 29 76 48 46 59
REMARK Flexibility Score: inf
ROOT
ATOM      1  C   UNL A   1      35.265  29.969  27.652  1.00  0.00     0.118 C 
ENDROOT
BRANCH   1   2
ATOM      2  C   UNL A   1      34.069  29.143  27.203  1.00  0.00     0.042 C 
BRANCH   2   3
ATOM      3  C   UNL A   1      33.205  29.807  26.131  1.00  0.00     0.118 C 
BRANCH   3   4
ATOM      4  N   UNL A   1      33.653  29.461  24.798  1.00  0.00    -0.352 N 
ATOM      5  C   UNL A   1      33.119  28.668  23.819  1.00  0.00     0.255 C 
ATOM      6  O   UNL A   1      33.745  28.618  22.754  1.00  0.00    -0.269 OA
ATOM      7  H   UNL A   1      34.510  29.878  24.548  1.00  0.00     0.163 HD
BRANCH   5   8
ATOM      8  C   UNL A   1      31.818  27.940  23.895  1.00  0.00     0.083 A 
ATOM      9  C   UNL A   1      30.519  26.392  25.267  1.00  0.00     0.043 A 
ATOM     10  C   UNL A   1      29.420  26.555  24.433  1.00  0.00     0.030 A 
ATOM     11  C   UNL A   1      31.674  27.143  25.050  1.00  0.00     0.044 A 
ATOM     12  C   UNL A   1      29.534  27.342  23.293  1.00  0.00     0.049 A 
ATOM     13  C   UNL A   1      30.734  28.003  23.008  1.00  0.00     0.128 A 
BRANCH   9  14
ATOM     14  N   UNL A   1      30.509  25.484  26.327  1.00  0.00    -0.308 N 
ATOM     15  C   UNL A   1      33.833  23.046  22.845  1.00  0.00     0.010 C 
ATOM     16  C   UNL A   1      32.504  22.715  23.503  1.00  0.00     0.010 C 
ATOM     17  C   UNL A   1      31.885  23.936  24.179  1.00  0.00     0.125 C 
ATOM     18  C   UNL A   1      32.582  21.704  24.649  1.00  0.00     0.010 C 
ATOM     19  N   UNL A   1      31.100  23.424  25.299  1.00  0.00    -0.324 N 
ATOM     20  C   UNL A   1      31.288  21.986  25.419  1.00  0.00     0.125 C 
ATOM     21  C   UNL A   1      32.684  20.264  24.175  1.00  0.00     0.010 C 
ATOM     22  C   UNL A   1      30.506  24.120  26.327  1.00  0.00     0.321 C 
ATOM     23  O   UNL A   1      30.090  23.548  27.339  1.00  0.00    -0.248 OA
ATOM     24  H   UNL A   1      30.501  25.895  27.222  1.00  0.00     0.171 HD
ENDBRANCH   9  14
BRANCH  13  25
ATOM     25  O   UNL A   1      30.772  28.719  21.854  1.00  0.00    -0.507 OA
ATOM     26  H   UNL A   1      30.940  28.287  21.040  1.00  0.00     0.293 HD
ENDBRANCH  13  25
ENDBRANCH   5   8
ENDBRANCH   3   4
ENDBRANCH   2   3
ENDBRANCH   1   2
BRANCH   1  27
ATOM     27  N   UNL A   1      35.227  30.270  29.073  1.00  0.00    -0.352 N 
ATOM     28  C   UNL A   1      36.190  30.097  30.038  1.00  0.00     0.251 C 
ATOM     29  H   UNL A   1      34.380  30.657  29.394  1.00  0.00     0.163 HD
ATOM     30  O   UNL A   1      35.875  30.209  31.220  1.00  0.00    -0.269 OA
BRANCH  28  31
ATOM     31  C   UNL A   1      37.588  29.763  29.674  1.00  0.00     0.039 A 
ATOM     32  C   UNL A   1      38.445  29.285  30.671  1.00  0.00     0.014 A 
ATOM     33  C   UNL A   1      38.079  29.962  28.380  1.00  0.00     0.014 A 
ATOM     34  C   UNL A   1      39.769  28.958  30.360  1.00  0.00     0.010 A 
ATOM     35  C   UNL A   1      39.374  29.562  28.053  1.00  0.00     0.010 A 
ATOM     36  C   UNL A   1      40.236  29.066  29.041  1.00  0.00    -0.014 A 
BRANCH  36  37
ATOM     37  C   UNL A   1      41.624  28.677  28.677  1.00  0.00     0.031 A 
ATOM     38  C   UNL A   1      42.726  29.701  28.683  1.00  0.00     0.074 A 
ATOM     39  C   UNL A   1      41.880  27.415  28.280  1.00  0.00     0.049 A 
ATOM     40  N   UNL A   1      43.985  29.563  28.348  1.00  0.00    -0.248 NA
ATOM     41  C   UNL A   1      42.362  31.066  29.096  1.00  0.00     0.031 C 
ATOM     42  C   UNL A   1      40.893  26.336  28.199  1.00  0.00     0.029 A 
ATOM     43  N   UNL A   1      43.049  26.827  27.867  1.00  0.00    -0.354 N 
ATOM     44  C   UNL A   1      44.555  30.823  28.488  1.00  0.00     0.074 A 
ATOM     45  C   UNL A   1      43.495  31.722  28.893  1.00  0.00     0.031 C 
ATOM     46  C   UNL A   1      41.505  25.212  27.795  1.00  0.00     0.029 A 
ATOM     47  C   UNL A   1      42.914  25.498  27.547  1.00  0.00     0.049 A 
ATOM     48  H   UNL A   1      43.904  27.312  27.805  1.00  0.00     0.167 HD
ATOM     49  C   UNL A   1      45.845  31.199  28.310  1.00  0.00     0.031 A 
ATOM     50  C   UNL A   1      43.821  24.606  27.102  1.00  0.00     0.031 A 
ATOM     51  C   UNL A   1      46.898  30.302  27.910  1.00  0.00     0.049 A 
ATOM     52  C   UNL A   1      45.244  25.044  26.898  1.00  0.00     0.074 A 
ATOM     53  C   UNL A   1      48.247  30.569  27.760  1.00  0.00     0.029 A 
ATOM     54  N   UNL A   1      46.717  28.964  27.590  1.00  0.00    -0.354 N 
ATOM     55  N   UNL A   1      45.777  26.226  27.094  1.00  0.00    -0.248 NA
ATOM     56  C   UNL A   1      46.188  24.026  26.418  1.00  0.00     0.031 C 
ATOM     57  C   UNL A   1      48.874  29.405  27.301  1.00  0.00     0.029 A 
ATOM     58  C   UNL A   1      47.925  28.399  27.217  1.00  0.00     0.049 A 
ATOM     59  H   UNL A   1      45.857  28.487  27.623  1.00  0.00     0.167 HD
ATOM     60  C   UNL A   1      47.125  26.090  26.783  1.00  0.00     0.074 A 
ATOM     61  C   UNL A   1      47.326  24.707  26.397  1.00  0.00     0.031 C 
ATOM     62  C   UNL A   1      48.107  27.024  26.821  1.00  0.00     0.031 A 
BRANCH  49  63
ATOM     63  C   UNL A   1      46.174  32.653  28.528  1.00  0.00    -0.014 A 
ATOM     64  C   UNL A   1      46.546  33.134  29.798  1.00  0.00     0.010 A 
ATOM     65  C   UNL A   1      46.105  33.555  27.451  1.00  0.00     0.010 A 
ATOM     66  C   UNL A   1      46.772  34.498  30.001  1.00  0.00     0.020 A 
ATOM     67  C   UNL A   1      46.360  34.916  27.643  1.00  0.00     0.020 A 
ATOM     68  C   UNL A   1      46.666  35.383  28.924  1.00  0.00     0.054 A 
BRANCH  68  69
ATOM     69  S   UNL A   1      46.939  37.152  29.218  1.00  0.00     0.124 S 
ATOM     70  O   UNL A   1      47.555  37.572  27.962  1.00  0.00    -0.237 OA
ATOM     71  O   UNL A   1      45.587  37.653  29.451  1.00  0.00    -0.237 OA
ATOM     72  O   UNL A   1      47.819  37.177  30.383  1.00  0.00    -0.744 OA
ENDBRANCH  68  69
ENDBRANCH  49  63
BRANCH  50  73
ATOM     73  C   UNL A   1      43.405  23.199  26.858  1.00  0.00    -0.014 A 
ATOM     74  C   UNL A   1      43.515  22.644  25.571  1.00  0.00     0.010 A 
ATOM     75  C   UNL A   1      42.954  22.391  27.917  1.00  0.00     0.010 A 
ATOM     76  C   UNL A   1      43.187  21.303  25.348  1.00  0.00     0.020 A 
ATOM     77  C   UNL A   1      42.646  21.043  27.702  1.00  0.00     0.020 A 
ATOM     78  C   UNL A   1      42.764  20.509  26.417  1.00  0.00     0.054 A 
BRANCH  78  79
ATOM     79  S   UNL A   1      42.436  18.749  26.122  1.00  0.00     0.124 S 
ATOM     80  O   UNL A   1      42.702  18.165  27.433  1.00  0.00    -0.237 OA
ATOM     81  O   UNL A   1      41.037  18.754  25.701  1.00  0.00    -0.237 OA
ATOM     82  O   UNL A   1      43.391  18.395  25.072  1.00  0.00    -0.744 OA
ENDBRANCH  78  79
ENDBRANCH  50  73
BRANCH  62  83
ATOM     83  C   UNL A   1      49.497  26.579  26.452  1.00  0.00    -0.014 A 
ATOM     84  C   UNL A   1      50.320  25.921  27.383  1.00  0.00     0.010 A 
ATOM     85  C   UNL A   1      49.963  26.775  25.140  1.00  0.00     0.010 A 
ATOM     86  C   UNL A   1      51.598  25.492  27.015  1.00  0.00     0.020 A 
ATOM     87  C   UNL A   1      51.231  26.325  24.761  1.00  0.00     0.020 A 
ATOM     88  C   UNL A   1      52.046  25.697  25.705  1.00  0.00     0.054 A 
BRANCH  88  89
ATOM     89  S   UNL A   1      53.689  25.090  25.237  1.00  0.00     0.124 S 
ATOM     90  O   UNL A   1      53.528  23.645  25.371  1.00  0.00    -0.237 OA
ATOM     91  O   UNL A   1      53.837  25.582  23.869  1.00  0.00    -0.237 OA
ATOM     92  O   UNL A   1      54.580  25.711  26.215  1.00  0.00    -0.744 OA
ENDBRANCH  88  89
ENDBRANCH  62  83
ENDBRANCH  36  37
ENDBRANCH  28  31
ENDBRANCH   1  27
TORSDOF 15
ENDMDL
MODEL 2
REMARK VINA RESULT:     -12.9      5.182     12.272
REMARK SMILES C[C@@H]1CN(C(=O)Nc2ccc(O)c(C(=O)NCCCNC(=O)c3ccc(-c4c5nc(c(-c6ccc(S(=O)(=O)[O-])cc6)c6ccc([nH]6)c(-c6ccc(S(=O)(=O)[O-])cc6)c6nc(c(-c7ccc(S(=O)(=O)[O-])cc7)c7ccc4[nH]7)C=C6)C=C5)cc3)c2)C[C@H]1C
REMARK SMILES IDX 19 1 18 2 17 3 16 4 14 5 15 6 13 8 8 9 9 10 83 11 10 12
REMARK SMILES IDX 11 13 7 14 1 15 2 16 3 17 85 18 4 19 84 20 86 21 5 22 6 23
REMARK SMILES IDX 12 25 20 27 21 28 22 30 23 31 24 32 82 33 25 34 81 35 26 36
REMARK SMILES IDX 27 37 28 38 75 39 29 40 80 41 74 42 76 43 30 44 79 45 73 46
REMARK SMILES IDX 72 47 31 49 61 50 42 51 60 52 43 53 46 54 59 55 77 56 44 57
REMARK SMILES IDX 45 58 58 60 78 61 47 62 32 63 33 64 41 65 34 66 40 67 35 68
REMARK SMILES IDX 36 69 37 70 38 71 39 72 62 73 63 74 71 75 64 76 70 77 65 78
REMARK SMILES IDX 66 79 67 80 68 81 69 82 48 83 49 84 57 85 50 86 56 87 51 88
REMARK SMILES IDX 52 89 53 90 54 91 55 92
REMARK H PARENT 16 7 7 24 12 26 20 29 76 48 46 59
REMARK Flexibility Score: inf
ROOT
ATOM      1  C   UNL A   1      41.098  21.704  26.565  1.00  0.00     0.118 C 
ENDROOT
BRANCH   1   2
ATOM      2  C   UNL A   1      42.213  22.298  25.717  1.00  0.00     0.042 C 
BRANCH   2   3
ATOM      3  C   UNL A   1      43.622  21.879  26.137  1.00  0.00     0.118 C 
BRANCH   3   4
ATOM      4  N   UNL A   1      44.001  22.484  27.398  1.00  0.00    -0.352 N 
ATOM      5  C   UNL A   1      44.701  23.619  27.706  1.00  0.00     0.255 C 
ATOM      6  O   UNL A   1      44.815  23.881  28.908  1.00  0.00    -0.269 OA
ATOM      7  H   UNL A   1      43.694  21.981  28.186  1.00  0.00     0.163 HD
BRANCH   5   8
ATOM      8  C   UNL A   1      45.256  24.599  26.725  1.00  0.00     0.083 A 
ATOM      9  C   UNL A   1      44.707  26.595  25.428  1.00  0.00     0.043 A 
ATOM     10  C   UNL A   1      46.028  26.701  25.011  1.00  0.00     0.030 A 
ATOM     11  C   UNL A   1      44.346  25.607  26.345  1.00  0.00     0.044 A 
ATOM     12  C   UNL A   1      46.946  25.726  25.380  1.00  0.00     0.049 A 
ATOM     13  C   UNL A   1      46.555  24.664  26.204  1.00  0.00     0.128 A 
BRANCH   9  14
ATOM     14  N   UNL A   1      43.713  27.450  24.951  1.00  0.00    -0.308 N 
ATOM     15  C   UNL A   1      46.698  30.815  27.933  1.00  0.00     0.010 C 
ATOM     16  C   UNL A   1      45.257  30.330  27.942  1.00  0.00     0.010 C 
ATOM     17  C   UNL A   1      45.056  29.130  27.019  1.00  0.00     0.125 C 
ATOM     18  C   UNL A   1      44.232  31.334  27.412  1.00  0.00     0.010 C 
ATOM     19  N   UNL A   1      43.674  29.205  26.554  1.00  0.00    -0.324 N 
ATOM     20  C   UNL A   1      43.053  30.427  27.041  1.00  0.00     0.125 C 
ATOM     21  C   UNL A   1      43.858  32.403  28.423  1.00  0.00     0.010 C 
ATOM     22  C   UNL A   1      43.055  28.476  25.564  1.00  0.00     0.321 C 
ATOM     23  O   UNL A   1      41.961  28.812  25.102  1.00  0.00    -0.248 OA
ATOM     24  H   UNL A   1      43.441  27.286  24.019  1.00  0.00     0.171 HD
ENDBRANCH   9  14
BRANCH  13  25
ATOM     25  O   UNL A   1      47.505  23.733  26.484  1.00  0.00    -0.507 OA
ATOM     26  H   UNL A   1      47.820  23.168  25.807  1.00  0.00     0.293 HD
ENDBRANCH  13  25
ENDBRANCH   5   8
ENDBRANCH   3   4
ENDBRANCH   2   3
ENDBRANCH   1   2
BRANCH   1  27
ATOM     27  N   UNL A   1      39.787  21.900  25.970  1.00  0.00    -0.352 N 
ATOM     28  C   UNL A   1      38.895  22.934  26.121  1.00  0.00     0.251 C 
ATOM     29  H   UNL A   1      39.492  21.181  25.365  1.00  0.00     0.163 HD
ATOM     30  O   UNL A   1      37.748  22.798  25.703  1.00  0.00    -0.269 OA
BRANCH  28  31
ATOM     31  C   UNL A   1      39.291  24.196  26.793  1.00  0.00     0.039 A 
ATOM     32  C   UNL A   1      38.890  24.407  28.116  1.00  0.00     0.014 A 
ATOM     33  C   UNL A   1      40.006  25.193  26.122  1.00  0.00     0.014 A 
ATOM     34  C   UNL A   1      39.250  25.584  28.779  1.00  0.00     0.010 A 
ATOM     35  C   UNL A   1      40.432  26.331  26.807  1.00  0.00     0.010 A 
ATOM     36  C   UNL A   1      40.049  26.544  28.138  1.00  0.00    -0.014 A 
BRANCH  36  37
ATOM     37  C   UNL A   1      40.486  27.779  28.839  1.00  0.00     0.031 A 
ATOM     38  C   UNL A   1      41.857  27.858  29.457  1.00  0.00     0.074 A 
ATOM     39  C   UNL A   1      39.627  28.808  28.977  1.00  0.00     0.049 A 
ATOM     40  N   UNL A   1      42.396  28.829  30.150  1.00  0.00    -0.248 NA
ATOM     41  C   UNL A   1      42.726  26.682  29.294  1.00  0.00     0.031 C 
ATOM     42  C   UNL A   1      38.260  28.844  28.454  1.00  0.00     0.029 A 
ATOM     43  N   UNL A   1      39.776  30.021  29.602  1.00  0.00    -0.354 N 
ATOM     44  C   UNL A   1      43.655  28.374  30.524  1.00  0.00     0.074 A 
ATOM     45  C   UNL A   1      43.781  27.022  30.019  1.00  0.00     0.031 C 
ATOM     46  C   UNL A   1      37.707  30.031  28.752  1.00  0.00     0.029 A 
ATOM     47  C   UNL A   1      38.662  30.822  29.521  1.00  0.00     0.049 A 
ATOM     48  H   UNL A   1      40.601  30.291  30.065  1.00  0.00     0.167 HD
ATOM     49  C   UNL A   1      44.627  29.022  31.212  1.00  0.00     0.031 A 
ATOM     50  C   UNL A   1      38.432  32.055  30.012  1.00  0.00     0.031 A 
ATOM     51  C   UNL A   1      44.500  30.367  31.709  1.00  0.00     0.049 A 
ATOM     52  C   UNL A   1      39.515  32.755  30.783  1.00  0.00     0.074 A 
ATOM     53  C   UNL A   1      45.445  31.136  32.365  1.00  0.00     0.029 A 
ATOM     54  N   UNL A   1      43.354  31.142  31.611  1.00  0.00    -0.354 N 
ATOM     55  N   UNL A   1      40.722  32.331  31.073  1.00  0.00    -0.248 NA
ATOM     56  C   UNL A   1      39.208  34.100  31.287  1.00  0.00     0.031 C 
ATOM     57  C   UNL A   1      44.854  32.358  32.707  1.00  0.00     0.029 A 
ATOM     58  C   UNL A   1      43.558  32.370  32.217  1.00  0.00     0.049 A 
ATOM     59  H   UNL A   1      42.517  30.860  31.174  1.00  0.00     0.167 HD
ATOM     60  C   UNL A   1      41.328  33.366  31.776  1.00  0.00     0.074 A 
ATOM     61  C   UNL A   1      40.357  34.440  31.856  1.00  0.00     0.031 C 
ATOM     62  C   UNL A   1      42.576  33.424  32.301  1.00  0.00     0.031 A 
BRANCH  49  63
ATOM     63  C   UNL A   1      45.902  28.265  31.481  1.00  0.00    -0.014 A 
ATOM     64  C   UNL A   1      46.974  28.296  30.569  1.00  0.00     0.010 A 
ATOM     65  C   UNL A   1      46.028  27.506  32.658  1.00  0.00     0.010 A 
ATOM     66  C   UNL A   1      48.119  27.528  30.796  1.00  0.00     0.020 A 
ATOM     67  C   UNL A   1      47.185  26.759  32.903  1.00  0.00     0.020 A 
ATOM     68  C   UNL A   1      48.212  26.753  31.956  1.00  0.00     0.054 A 
BRANCH  68  69
ATOM     69  S   UNL A   1      49.697  25.744  32.215  1.00  0.00     0.124 S 
ATOM     70  O   UNL A   1      50.628  26.720  32.776  1.00  0.00    -0.237 OA
ATOM     71  O   UNL A   1      49.230  24.716  33.142  1.00  0.00    -0.237 OA
ATOM     72  O   UNL A   1      50.028  25.265  30.875  1.00  0.00    -0.744 OA
ENDBRANCH  68  69
ENDBRANCH  49  63
BRANCH  50  73
ATOM     73  C   UNL A   1      37.125  32.715  29.749  1.00  0.00    -0.014 A 
ATOM     74  C   UNL A   1      36.147  32.772  30.757  1.00  0.00     0.010 A 
ATOM     75  C   UNL A   1      36.872  33.340  28.513  1.00  0.00     0.010 A 
ATOM     76  C   UNL A   1      34.943  33.448  30.538  1.00  0.00     0.020 A 
ATOM     77  C   UNL A   1      35.678  34.035  28.298  1.00  0.00     0.020 A 
ATOM     78  C   UNL A   1      34.719  34.082  29.313  1.00  0.00     0.054 A 
BRANCH  78  79
ATOM     79  S   UNL A   1      33.190  35.033  29.087  1.00  0.00     0.124 S 
ATOM     80  O   UNL A   1      32.505  34.266  28.052  1.00  0.00    -0.237 OA
ATOM     81  O   UNL A   1      32.588  34.982  30.417  1.00  0.00    -0.237 OA
ATOM     82  O   UNL A   1      33.666  36.354  28.680  1.00  0.00    -0.744 OA
ENDBRANCH  78  79
ENDBRANCH  50  73
BRANCH  62  83
ATOM     83  C   UNL A   1      42.975  34.699  32.994  1.00  0.00    -0.014 A 
ATOM     84  C   UNL A   1      42.776  34.867  34.376  1.00  0.00     0.010 A 
ATOM     85  C   UNL A   1      43.606  35.720  32.261  1.00  0.00     0.010 A 
ATOM     86  C   UNL A   1      43.177  36.048  35.008  1.00  0.00     0.020 A 
ATOM     87  C   UNL A   1      44.031  36.892  32.894  1.00  0.00     0.020 A 
ATOM     88  C   UNL A   1      43.801  37.053  34.262  1.00  0.00     0.054 A 
BRANCH  88  89
ATOM     89  S   UNL A   1      44.355  38.556  35.112  1.00  0.00     0.124 S 
ATOM     90  O   UNL A   1      45.794  38.531  34.867  1.00  0.00    -0.237 OA
ATOM     91  O   UNL A   1      43.617  39.610  34.418  1.00  0.00    -0.237 OA
ATOM     92  O   UNL A   1      43.955  38.337  36.500  1.00  0.00    -0.744 OA
ENDBRANCH  88  89
ENDBRANCH  62  83
ENDBRANCH  36  37
ENDBRANCH  28  31
ENDBRANCH   1  27
TORSDOF 15
ENDMDL
MODEL 3
REMARK VINA RESULT:     -12.8      4.491      7.229
REMARK SMILES C[C@@H]1CN(C(=O)Nc2ccc(O)c(C(=O)NCCCNC(=O)c3ccc(-c4c5nc(c(-c6ccc(S(=O)(=O)[O-])cc6)c6ccc([nH]6)c(-c6ccc(S(=O)(=O)[O-])cc6)c6nc(c(-c7ccc(S(=O)(=O)[O-])cc7)c7ccc4[nH]7)C=C6)C=C5)cc3)c2)C[C@H]1C
REMARK SMILES IDX 19 1 18 2 17 3 16 4 14 5 15 6 13 8 8 9 9 10 83 11 10 12
REMARK SMILES IDX 11 13 7 14 1 15 2 16 3 17 85 18 4 19 84 20 86 21 5 22 6 23
REMARK SMILES IDX 12 25 20 27 21 28 22 30 23 31 24 32 82 33 25 34 81 35 26 36
REMARK SMILES IDX 27 37 28 38 75 39 29 40 80 41 74 42 76 43 30 44 79 45 73 46
REMARK SMILES IDX 72 47 31 49 61 50 42 51 60 52 43 53 46 54 59 55 77 56 44 57
REMARK SMILES IDX 45 58 58 60 78 61 47 62 32 63 33 64 41 65 34 66 40 67 35 68
REMARK SMILES IDX 36 69 37 70 38 71 39 72 62 73 63 74 71 75 64 76 70 77 65 78
REMARK SMILES IDX 66 79 67 80 68 81 69 82 48 83 49 84 57 85 50 86 56 87 51 88
REMARK SMILES IDX 52 89 53 90 54 91 55 92
REMARK H PARENT 16 7 7 24 12 26 20 29 76 48 46 59
REMARK Flexibility Score: inf
ROOT
ATOM      1  C   UNL A   1      34.213  32.347  28.925  1.00  0.00     0.118 C 
ENDROOT
BRANCH   1   2
ATOM      2  C   UNL A   1      33.923  33.724  28.345  1.00  0.00     0.042 C 
BRANCH   2   3
ATOM      3  C   UNL A   1      34.697  34.866  29.001  1.00  0.00     0.118 C 
BRANCH   3   4
ATOM      4  N   UNL A   1      36.123  34.607  29.006  1.00  0.00    -0.352 N 
ATOM      5  C   UNL A   1      36.969  34.109  29.960  1.00  0.00     0.255 C 
ATOM      6  O   UNL A   1      38.149  33.968  29.621  1.00  0.00    -0.269 OA
ATOM      7  H   UNL A   1      36.568  34.832  28.158  1.00  0.00     0.163 HD
BRANCH   5   8
ATOM      8  C   UNL A   1      36.577  33.648  31.324  1.00  0.00     0.083 A 
ATOM      9  C   UNL A   1      36.630  31.725  32.830  1.00  0.00     0.043 A 
ATOM     10  C   UNL A   1      36.127  32.506  33.864  1.00  0.00     0.030 A 
ATOM     11  C   UNL A   1      36.933  32.312  31.602  1.00  0.00     0.044 A 
ATOM     12  C   UNL A   1      35.777  33.828  33.618  1.00  0.00     0.049 A 
ATOM     13  C   UNL A   1      35.969  34.386  32.349  1.00  0.00     0.128 A 
BRANCH   9  14
ATOM     14  N   UNL A   1      36.838  30.353  32.979  1.00  0.00    -0.308 N 
ATOM     15  C   UNL A   1      40.725  32.387  36.122  1.00  0.00     0.010 C 
ATOM     16  C   UNL A   1      40.667  31.506  34.885  1.00  0.00     0.010 C 
ATOM     17  C   UNL A   1      39.278  31.507  34.251  1.00  0.00     0.125 C 
ATOM     18  C   UNL A   1      40.917  30.017  35.137  1.00  0.00     0.010 C 
ATOM     19  N   UNL A   1      39.125  30.205  33.610  1.00  0.00    -0.324 N 
ATOM     20  C   UNL A   1      40.279  29.369  33.904  1.00  0.00     0.125 C 
ATOM     21  C   UNL A   1      42.387  29.671  35.291  1.00  0.00     0.010 C 
ATOM     22  C   UNL A   1      37.995  29.636  33.068  1.00  0.00     0.321 C 
ATOM     23  O   UNL A   1      37.946  28.435  32.787  1.00  0.00    -0.248 OA
ATOM     24  H   UNL A   1      36.015  29.815  33.027  1.00  0.00     0.171 HD
ENDBRANCH   9  14
BRANCH  13  25
ATOM     25  O   UNL A   1      35.564  35.672  32.184  1.00  0.00    -0.507 OA
ATOM     26  H   UNL A   1      36.181  36.328  31.927  1.00  0.00     0.293 HD
ENDBRANCH  13  25
ENDBRANCH   5   8
ENDBRANCH   3   4
ENDBRANCH   2   3
ENDBRANCH   1   2
BRANCH   1  27
ATOM     27  N   UNL A   1      33.708  31.276  28.084  1.00  0.00    -0.352 N 
ATOM     28  C   UNL A   1      34.367  30.210  27.520  1.00  0.00     0.251 C 
ATOM     29  H   UNL A   1      32.743  31.320  27.888  1.00  0.00     0.163 HD
ATOM     30  O   UNL A   1      33.797  29.544  26.661  1.00  0.00    -0.269 OA
BRANCH  28  31
ATOM     31  C   UNL A   1      35.754  29.868  27.921  1.00  0.00     0.039 A 
ATOM     32  C   UNL A   1      35.973  29.348  29.201  1.00  0.00     0.014 A 
ATOM     33  C   UNL A   1      36.842  30.099  27.075  1.00  0.00     0.014 A 
ATOM     34  C   UNL A   1      37.268  29.012  29.609  1.00  0.00     0.010 A 
ATOM     35  C   UNL A   1      38.121  29.691  27.452  1.00  0.00     0.010 A 
ATOM     36  C   UNL A   1      38.350  29.154  28.726  1.00  0.00    -0.014 A 
BRANCH  36  37
ATOM     37  C   UNL A   1      39.727  28.757  29.120  1.00  0.00     0.031 A 
ATOM     38  C   UNL A   1      40.613  29.722  29.862  1.00  0.00     0.074 A 
ATOM     39  C   UNL A   1      40.203  27.551  28.754  1.00  0.00     0.049 A 
ATOM     40  N   UNL A   1      41.857  29.575  30.244  1.00  0.00    -0.248 NA
ATOM     41  C   UNL A   1      40.033  31.032  30.196  1.00  0.00     0.031 C 
ATOM     42  C   UNL A   1      39.458  26.538  28.005  1.00  0.00     0.029 A 
ATOM     43  N   UNL A   1      41.432  26.974  28.962  1.00  0.00    -0.354 N 
ATOM     44  C   UNL A   1      42.214  30.778  30.842  1.00  0.00     0.074 A 
ATOM     45  C   UNL A   1      41.071  31.659  30.731  1.00  0.00     0.031 C 
ATOM     46  C   UNL A   1      40.232  25.453  27.844  1.00  0.00     0.029 A 
ATOM     47  C   UNL A   1      41.540  25.708  28.439  1.00  0.00     0.049 A 
ATOM     48  H   UNL A   1      42.165  27.425  29.438  1.00  0.00     0.167 HD
ATOM     49  C   UNL A   1      43.380  31.117  31.443  1.00  0.00     0.031 A 
ATOM     50  C   UNL A   1      42.575  24.846  28.436  1.00  0.00     0.031 A 
ATOM     51  C   UNL A   1      44.514  30.237  31.556  1.00  0.00     0.049 A 
ATOM     52  C   UNL A   1      43.865  25.243  29.096  1.00  0.00     0.074 A 
ATOM     53  C   UNL A   1      45.720  30.462  32.197  1.00  0.00     0.029 A 
ATOM     54  N   UNL A   1      44.585  28.965  31.008  1.00  0.00    -0.354 N 
ATOM     55  N   UNL A   1      44.163  26.364  29.710  1.00  0.00    -0.248 NA
ATOM     56  C   UNL A   1      44.956  24.260  29.067  1.00  0.00     0.031 C 
ATOM     57  C   UNL A   1      46.538  29.345  31.994  1.00  0.00     0.029 A 
ATOM     58  C   UNL A   1      45.822  28.403  31.272  1.00  0.00     0.049 A 
ATOM     59  H   UNL A   1      43.861  28.525  30.505  1.00  0.00     0.167 HD
ATOM     60  C   UNL A   1      45.470  26.211  30.161  1.00  0.00     0.074 A 
ATOM     61  C   UNL A   1      45.899  24.887  29.758  1.00  0.00     0.031 C 
ATOM     62  C   UNL A   1      46.240  27.087  30.852  1.00  0.00     0.031 A 
BRANCH  49  63
ATOM     63  C   UNL A   1      43.486  32.512  32.003  1.00  0.00    -0.014 A 
ATOM     64  C   UNL A   1      43.220  32.775  33.360  1.00  0.00     0.010 A 
ATOM     65  C   UNL A   1      43.848  33.578  31.160  1.00  0.00     0.010 A 
ATOM     66  C   UNL A   1      43.246  34.084  33.847  1.00  0.00     0.020 A 
ATOM     67  C   UNL A   1      43.905  34.887  31.650  1.00  0.00     0.020 A 
ATOM     68  C   UNL A   1      43.576  35.135  32.985  1.00  0.00     0.054 A 
BRANCH  68  69
ATOM     69  S   UNL A   1      43.578  36.829  33.633  1.00  0.00     0.124 S 
ATOM     70  O   UNL A   1      42.294  36.885  34.327  1.00  0.00    -0.237 OA
ATOM     71  O   UNL A   1      44.758  36.843  34.495  1.00  0.00    -0.237 OA
ATOM     72  O   UNL A   1      43.676  37.658  32.435  1.00  0.00    -0.744 OA
ENDBRANCH  68  69
ENDBRANCH  49  63
BRANCH  50  73
ATOM     73  C   UNL A   1      42.410  23.505  27.814  1.00  0.00    -0.014 A 
ATOM     74  C   UNL A   1      42.876  23.269  26.510  1.00  0.00     0.010 A 
ATOM     75  C   UNL A   1      41.840  22.443  28.541  1.00  0.00     0.010 A 
ATOM     76  C   UNL A   1      42.782  21.994  25.943  1.00  0.00     0.020 A 
ATOM     77  C   UNL A   1      41.765  21.161  27.986  1.00  0.00     0.020 A 
ATOM     78  C   UNL A   1      42.236  20.946  26.688  1.00  0.00     0.054 A 
BRANCH  78  79
ATOM     79  S   UNL A   1      42.212  19.281  25.968  1.00  0.00     0.124 S 
ATOM     80  O   UNL A   1      40.793  19.091  25.684  1.00  0.00    -0.237 OA
ATOM     81  O   UNL A   1      43.078  19.430  24.801  1.00  0.00    -0.237 OA
ATOM     82  O   UNL A   1      42.758  18.441  27.033  1.00  0.00    -0.744 OA
ENDBRANCH  78  79
ENDBRANCH  50  73
BRANCH  62  83
ATOM     83  C   UNL A   1      47.624  26.636  31.235  1.00  0.00    -0.014 A 
ATOM     84  C   UNL A   1      47.857  25.951  32.440  1.00  0.00     0.010 A 
ATOM     85  C   UNL A   1      48.695  26.854  30.350  1.00  0.00     0.010 A 
ATOM     86  C   UNL A   1      49.145  25.516  32.767  1.00  0.00     0.020 A 
ATOM     87  C   UNL A   1      49.980  26.399  30.662  1.00  0.00     0.020 A 
ATOM     88  C   UNL A   1      50.198  25.744  31.875  1.00  0.00     0.054 A 
BRANCH  88  89
ATOM     89  S   UNL A   1      51.851  25.129  32.299  1.00  0.00     0.124 S 
ATOM     90  O   UNL A   1      52.685  25.783  31.295  1.00  0.00    -0.237 OA
ATOM     91  O   UNL A   1      52.029  25.603  33.670  1.00  0.00    -0.237 OA
ATOM     92  O   UNL A   1      51.728  23.680  32.160  1.00  0.00    -0.744 OA
ENDBRANCH  88  89
ENDBRANCH  62  83
ENDBRANCH  36  37
ENDBRANCH  28  31
ENDBRANCH   1  27
TORSDOF 15
ENDMDL
