MODEL 1
REMARK VINA RESULT:     -14.4      0.000      0.000
REMARK SMILES Cc1ccc(-c2cnnc(-n3nc(C)c4c3NC(=O)C[C@@H]4c3ccc(C(=O)NCCCNC(=O)c4ccc(-c5c6nc(c(-c7ccc(S(=O)(=O)[O-])cc7)c7ccc([nH]7)c(-c7ccc(S(=O)(=O)[O-])cc7)c7nc(c(-c8ccc(S(=O)(=O)[O-])cc8)c8ccc5[nH]8)C=C7)C=C6)cc4)cc3)n2)cc1
REMARK SMILES IDX 30 1 29 2 28 3 26 4 27 5 25 7 22 8 23 9 96 10 24 11 95 12
REMARK SMILES IDX 21 13 11 14 12 15 16 16 13 17 15 18 17 19 14 20 18 21 20 23
REMARK SMILES IDX 19 24 10 25 6 26 7 27 97 28 8 29 9 30 5 31 1 32 2 33 3 34
REMARK SMILES IDX 99 35 4 36 98 37 31 38 32 39 33 40 34 42 35 43 36 44 94 45
REMARK SMILES IDX 37 46 93 47 38 48 39 49 40 50 87 51 41 52 92 53 86 54 88 55
REMARK SMILES IDX 42 56 91 57 85 58 84 59 43 61 73 62 54 63 72 64 55 65 58 66
REMARK SMILES IDX 71 67 89 68 56 69 57 70 70 72 90 73 59 74 44 75 45 76 53 77
REMARK SMILES IDX 46 78 52 79 47 80 48 81 49 82 50 83 51 84 74 85 75 86 83 87
REMARK SMILES IDX 76 88 82 89 77 90 78 91 79 92 80 93 81 94 60 95 61 96 69 97
REMARK SMILES IDX 62 98 68 99 63 100 64 101 65 102 66 103 67 104
REMARK H PARENT 28 6 17 22 32 41 88 60 58 71
REMARK Flexibility Score: inf
ROOT
ATOM      1  C   UNL A   1      31.955  29.224  25.653  1.00  0.00     0.042 C 
ENDROOT
BRANCH   1   2
ATOM      2  C   UNL A   1      31.982  29.067  24.136  1.00  0.00     0.118 C 
BRANCH   2   3
ATOM      3  N   UNL A   1      30.656  28.932  23.531  1.00  0.00    -0.352 N 
ATOM      4  C   UNL A   1      29.799  27.855  23.545  1.00  0.00     0.251 C 
ATOM      5  O   UNL A   1      28.618  27.966  23.237  1.00  0.00    -0.269 OA
ATOM      6  H   UNL A   1      30.330  29.725  23.044  1.00  0.00     0.163 HD
BRANCH   4   7
ATOM      7  C   UNL A   1      30.296  26.537  23.987  1.00  0.00     0.039 A 
ATOM      8  C   UNL A   1      31.502  24.196  24.942  1.00  0.00    -0.040 A 
ATOM      9  C   UNL A   1      30.641  24.953  25.764  1.00  0.00     0.005 A 
ATOM     10  C   UNL A   1      31.611  24.547  23.590  1.00  0.00     0.005 A 
ATOM     11  C   UNL A   1      30.040  26.119  25.292  1.00  0.00     0.014 A 
ATOM     12  C   UNL A   1      31.006  25.710  23.118  1.00  0.00     0.014 A 
BRANCH   8  13
ATOM     13  C   UNL A   1      32.278  23.073  25.591  1.00  0.00     0.064 C 
ATOM     14  N   UNL A   1      35.840  22.669  25.086  1.00  0.00    -0.180 N 
ATOM     15  N   UNL A   1      35.893  23.988  25.414  1.00  0.00    -0.168 NA
ATOM     16  C   UNL A   1      34.542  22.319  24.761  1.00  0.00     0.143 A 
ATOM     17  C   UNL A   1      34.626  24.334  25.658  1.00  0.00     0.066 A 
ATOM     18  C   UNL A   1      33.739  23.262  25.367  1.00  0.00     0.026 A 
ATOM     19  N   UNL A   1      34.003  21.256  24.068  1.00  0.00    -0.310 N 
ATOM     20  C   UNL A   1      34.341  25.715  26.128  1.00  0.00     0.069 C 
ATOM     21  C   UNL A   1      32.582  21.086  24.052  1.00  0.00     0.226 C 
ATOM     22  H   UNL A   1      34.586  20.623  23.591  1.00  0.00     0.171 HD
ATOM     23  C   UNL A   1      31.801  21.677  25.198  1.00  0.00     0.113 C 
ATOM     24  O   UNL A   1      32.126  20.326  23.214  1.00  0.00    -0.275 OA
BRANCH  14  25
ATOM     25  C   UNL A   1      36.927  21.793  25.378  1.00  0.00     0.272 A 
ATOM     26  C   UNL A   1      39.116  21.402  25.901  1.00  0.00     0.095 A 
ATOM     27  C   UNL A   1      39.007  20.138  25.344  1.00  0.00     0.164 A 
ATOM     28  N   UNL A   1      38.080  22.285  25.897  1.00  0.00    -0.208 NA
ATOM     29  N   UNL A   1      37.845  19.697  24.850  1.00  0.00    -0.153 NA
ATOM     30  N   UNL A   1      36.784  20.528  24.903  1.00  0.00    -0.109 NA
BRANCH  26  31
ATOM     31  C   UNL A   1      40.340  21.775  26.621  1.00  0.00     0.002 A 
ATOM     32  C   UNL A   1      43.766  22.499  29.168  1.00  0.00     0.044 C 
ATOM     33  C   UNL A   1      42.584  22.272  28.272  1.00  0.00    -0.051 A 
ATOM     34  C   UNL A   1      42.659  21.333  27.239  1.00  0.00     0.004 A 
ATOM     35  C   UNL A   1      41.395  22.984  28.456  1.00  0.00     0.004 A 
ATOM     36  C   UNL A   1      41.550  21.086  26.423  1.00  0.00     0.011 A 
ATOM     37  C   UNL A   1      40.289  22.741  27.636  1.00  0.00     0.011 A 
ENDBRANCH  26  31
ENDBRANCH  14  25
ENDBRANCH   8  13
ENDBRANCH   4   7
ENDBRANCH   2   3
ENDBRANCH   1   2
BRANCH   1  38
ATOM     38  C   UNL A   1      33.338  29.326  26.275  1.00  0.00     0.118 C 
BRANCH  38  39
ATOM     39  N   UNL A   1      33.736  30.699  26.556  1.00  0.00    -0.352 N 
ATOM     40  C   UNL A   1      34.474  31.085  27.676  1.00  0.00     0.251 C 
ATOM     41  H   UNL A   1      33.468  31.397  25.917  1.00  0.00     0.163 HD
ATOM     42  O   UNL A   1      34.275  32.085  28.313  1.00  0.00    -0.269 OA
BRANCH  40  43
ATOM     43  C   UNL A   1      35.629  30.205  27.970  1.00  0.00     0.039 A 
ATOM     44  C   UNL A   1      35.724  29.638  29.246  1.00  0.00     0.014 A 
ATOM     45  C   UNL A   1      36.708  30.206  27.092  1.00  0.00     0.014 A 
ATOM     46  C   UNL A   1      36.968  29.214  29.706  1.00  0.00     0.010 A 
ATOM     47  C   UNL A   1      37.953  29.896  27.589  1.00  0.00     0.010 A 
ATOM     48  C   UNL A   1      38.088  29.432  28.904  1.00  0.00    -0.014 A 
BRANCH  48  49
ATOM     49  C   UNL A   1      39.461  29.226  29.339  1.00  0.00     0.031 A 
ATOM     50  C   UNL A   1      40.195  28.033  28.856  1.00  0.00     0.074 A 
ATOM     51  C   UNL A   1      40.096  30.189  30.044  1.00  0.00     0.049 A 
ATOM     52  N   UNL A   1      41.235  27.533  29.430  1.00  0.00    -0.248 NA
ATOM     53  C   UNL A   1      39.776  27.281  27.673  1.00  0.00     0.031 C 
ATOM     54  C   UNL A   1      41.533  30.291  30.286  1.00  0.00     0.029 A 
ATOM     55  N   UNL A   1      39.552  31.177  30.870  1.00  0.00    -0.354 N 
ATOM     56  C   UNL A   1      41.797  26.637  28.546  1.00  0.00     0.074 A 
ATOM     57  C   UNL A   1      40.811  26.453  27.508  1.00  0.00     0.031 C 
ATOM     58  C   UNL A   1      41.731  31.032  31.389  1.00  0.00     0.029 A 
ATOM     59  C   UNL A   1      40.420  31.279  31.970  1.00  0.00     0.049 A 
ATOM     60  H   UNL A   1      38.729  31.695  30.712  1.00  0.00     0.167 HD
ATOM     61  C   UNL A   1      43.099  26.267  28.691  1.00  0.00     0.031 A 
ATOM     62  C   UNL A   1      40.063  30.960  33.250  1.00  0.00     0.031 A 
ATOM     63  C   UNL A   1      43.695  26.863  29.882  1.00  0.00     0.049 A 
ATOM     64  C   UNL A   1      40.932  29.867  33.846  1.00  0.00     0.074 A 
ATOM     65  C   UNL A   1      44.507  27.968  30.075  1.00  0.00     0.029 A 
ATOM     66  N   UNL A   1      43.208  26.506  31.134  1.00  0.00    -0.354 N 
ATOM     67  N   UNL A   1      41.674  29.060  33.138  1.00  0.00    -0.248 NA
ATOM     68  C   UNL A   1      41.021  29.583  35.276  1.00  0.00     0.031 C 
ATOM     69  C   UNL A   1      44.437  28.326  31.447  1.00  0.00     0.029 A 
ATOM     70  C   UNL A   1      43.608  27.421  32.087  1.00  0.00     0.049 A 
ATOM     71  H   UNL A   1      42.654  25.712  31.314  1.00  0.00     0.167 HD
ATOM     72  C   UNL A   1      42.345  28.194  33.964  1.00  0.00     0.074 A 
ATOM     73  C   UNL A   1      41.900  28.563  35.296  1.00  0.00     0.031 C 
ATOM     74  C   UNL A   1      43.211  27.254  33.479  1.00  0.00     0.031 A 
BRANCH  61  75
ATOM     75  C   UNL A   1      43.892  25.623  27.579  1.00  0.00    -0.014 A 
ATOM     76  C   UNL A   1      43.239  25.240  26.389  1.00  0.00     0.010 A 
ATOM     77  C   UNL A   1      45.266  25.322  27.663  1.00  0.00     0.010 A 
ATOM     78  C   UNL A   1      43.890  24.512  25.384  1.00  0.00     0.020 A 
ATOM     79  C   UNL A   1      45.921  24.561  26.680  1.00  0.00     0.020 A 
ATOM     80  C   UNL A   1      45.224  24.151  25.549  1.00  0.00     0.054 A 
BRANCH  80  81
ATOM     81  S   UNL A   1      46.022  23.139  24.274  1.00  0.00     0.124 S 
ATOM     82  O   UNL A   1      44.920  22.857  23.358  1.00  0.00    -0.237 OA
ATOM     83  O   UNL A   1      47.052  24.037  23.762  1.00  0.00    -0.237 OA
ATOM     84  O   UNL A   1      46.518  21.979  25.013  1.00  0.00    -0.744 OA
ENDBRANCH  80  81
ENDBRANCH  61  75
BRANCH  62  85
ATOM     85  C   UNL A   1      38.620  31.184  33.553  1.00  0.00    -0.014 A 
ATOM     86  C   UNL A   1      38.267  32.420  34.138  1.00  0.00     0.010 A 
ATOM     87  C   UNL A   1      37.628  30.449  32.878  1.00  0.00     0.010 A 
ATOM     88  C   UNL A   1      37.024  33.004  33.877  1.00  0.00     0.020 A 
ATOM     89  C   UNL A   1      36.374  31.031  32.626  1.00  0.00     0.020 A 
ATOM     90  C   UNL A   1      36.117  32.337  33.055  1.00  0.00     0.054 A 
BRANCH  90  91
ATOM     91  S   UNL A   1      34.696  33.273  32.405  1.00  0.00     0.124 S 
ATOM     92  O   UNL A   1      33.880  33.479  33.597  1.00  0.00    -0.237 OA
ATOM     93  O   UNL A   1      35.330  34.480  31.864  1.00  0.00    -0.237 OA
ATOM     94  O   UNL A   1      34.133  32.379  31.400  1.00  0.00    -0.744 OA
ENDBRANCH  90  91
ENDBRANCH  62  85
BRANCH  74  95
ATOM     95  C   UNL A   1      43.850  26.121  34.254  1.00  0.00    -0.014 A 
ATOM     96  C   UNL A   1      43.157  25.245  35.101  1.00  0.00     0.010 A 
ATOM     97  C   UNL A   1      45.220  25.827  34.023  1.00  0.00     0.010 A 
ATOM     98  C   UNL A   1      43.806  24.168  35.727  1.00  0.00     0.020 A 
ATOM     99  C   UNL A   1      45.865  24.731  34.601  1.00  0.00     0.020 A 
ATOM    100  C   UNL A   1      45.155  23.918  35.474  1.00  0.00     0.054 A 
BRANCH 100 101
ATOM    101  S   UNL A   1      45.960  22.484  36.230  1.00  0.00     0.124 S 
ATOM    102  O   UNL A   1      45.279  21.375  35.569  1.00  0.00    -0.237 OA
ATOM    103  O   UNL A   1      47.364  22.667  35.862  1.00  0.00    -0.237 OA
ATOM    104  O   UNL A   1      45.673  22.641  37.653  1.00  0.00    -0.744 OA
ENDBRANCH 100 101
ENDBRANCH  74  95
ENDBRANCH  48  49
ENDBRANCH  40  43
ENDBRANCH  38  39
ENDBRANCH   1  38
TORSDOF 16
ENDMDL
MODEL 2
REMARK VINA RESULT:     -14.2      3.393     10.488
REMARK SMILES Cc1ccc(-c2cnnc(-n3nc(C)c4c3NC(=O)C[C@@H]4c3ccc(C(=O)NCCCNC(=O)c4ccc(-c5c6nc(c(-c7ccc(S(=O)(=O)[O-])cc7)c7ccc([nH]7)c(-c7ccc(S(=O)(=O)[O-])cc7)c7nc(c(-c8ccc(S(=O)(=O)[O-])cc8)c8ccc5[nH]8)C=C7)C=C6)cc4)cc3)n2)cc1
REMARK SMILES IDX 30 1 29 2 28 3 26 4 27 5 25 7 22 8 23 9 96 10 24 11 95 12
REMARK SMILES IDX 21 13 11 14 12 15 16 16 13 17 15 18 17 19 14 20 18 21 20 23
REMARK SMILES IDX 19 24 10 25 6 26 7 27 97 28 8 29 9 30 5 31 1 32 2 33 3 34
REMARK SMILES IDX 99 35 4 36 98 37 31 38 32 39 33 40 34 42 35 43 36 44 94 45
REMARK SMILES IDX 37 46 93 47 38 48 39 49 40 50 87 51 41 52 92 53 86 54 88 55
REMARK SMILES IDX 42 56 91 57 85 58 84 59 43 61 73 62 54 63 72 64 55 65 58 66
REMARK SMILES IDX 71 67 89 68 56 69 57 70 70 72 90 73 59 74 44 75 45 76 53 77
REMARK SMILES IDX 46 78 52 79 47 80 48 81 49 82 50 83 51 84 74 85 75 86 83 87
REMARK SMILES IDX 76 88 82 89 77 90 78 91 79 92 80 93 81 94 60 95 61 96 69 97
REMARK SMILES IDX 62 98 68 99 63 100 64 101 65 102 66 103 67 104
REMARK H PARENT 28 6 17 22 32 41 88 60 58 71
REMARK Flexibility Score: inf
ROOT
ATOM      1  C   UNL A   1      35.741  21.562  26.010  1.00  0.00     0.042 C 
ENDROOT
BRANCH   1   2
ATOM      2  C   UNL A   1      35.513  20.501  24.938  1.00  0.00     0.118 C 
BRANCH   2   3
ATOM      3  N   UNL A   1      34.343  19.656  25.182  1.00  0.00    -0.352 N 
ATOM      4  C   UNL A   1      33.021  19.893  24.877  1.00  0.00     0.251 C 
ATOM      5  O   UNL A   1      32.186  18.995  24.887  1.00  0.00    -0.269 OA
ATOM      6  H   UNL A   1      34.526  18.796  25.627  1.00  0.00     0.163 HD
BRANCH   4   7
ATOM      7  C   UNL A   1      32.599  21.250  24.481  1.00  0.00     0.039 A 
ATOM      8  C   UNL A   1      32.084  23.931  23.851  1.00  0.00    -0.040 A 
ATOM      9  C   UNL A   1      32.743  23.086  22.934  1.00  0.00     0.005 A 
ATOM     10  C   UNL A   1      31.546  23.362  25.013  1.00  0.00     0.005 A 
ATOM     11  C   UNL A   1      33.002  21.752  23.245  1.00  0.00     0.014 A 
ATOM     12  C   UNL A   1      31.801  22.026  25.320  1.00  0.00     0.014 A 
BRANCH   8  13
ATOM     13  C   UNL A   1      32.034  25.406  23.530  1.00  0.00     0.064 C 
ATOM     14  N   UNL A   1      32.755  27.932  26.021  1.00  0.00    -0.180 N 
ATOM     15  N   UNL A   1      33.871  27.187  26.248  1.00  0.00    -0.168 NA
ATOM     16  C   UNL A   1      31.832  27.187  25.311  1.00  0.00     0.143 A 
ATOM     17  C   UNL A   1      33.791  26.174  25.382  1.00  0.00     0.066 A 
ATOM     18  C   UNL A   1      32.557  26.200  24.678  1.00  0.00     0.026 A 
ATOM     19  N   UNL A   1      30.474  27.318  25.113  1.00  0.00    -0.310 N 
ATOM     20  C   UNL A   1      34.915  25.203  25.314  1.00  0.00     0.069 C 
ATOM     21  C   UNL A   1      29.824  26.466  24.164  1.00  0.00     0.226 C 
ATOM     22  H   UNL A   1      29.958  27.989  25.616  1.00  0.00     0.171 HD
ATOM     23  C   UNL A   1      30.669  25.895  23.054  1.00  0.00     0.113 C 
ATOM     24  O   UNL A   1      28.607  26.406  24.219  1.00  0.00    -0.275 OA
BRANCH  14  25
ATOM     25  C   UNL A   1      32.757  29.343  26.228  1.00  0.00     0.272 A 
ATOM     26  C   UNL A   1      33.465  31.219  27.323  1.00  0.00     0.095 A 
ATOM     27  C   UNL A   1      32.296  31.861  26.944  1.00  0.00     0.164 A 
ATOM     28  N   UNL A   1      33.710  29.918  27.005  1.00  0.00    -0.208 NA
ATOM     29  N   UNL A   1      31.390  31.252  26.173  1.00  0.00    -0.153 NA
ATOM     30  N   UNL A   1      31.646  29.986  25.782  1.00  0.00    -0.109 NA
BRANCH  26  31
ATOM     31  C   UNL A   1      34.529  31.981  27.988  1.00  0.00     0.002 A 
ATOM     32  C   UNL A   1      37.778  34.462  29.414  1.00  0.00     0.044 C 
ATOM     33  C   UNL A   1      36.655  33.586  28.942  1.00  0.00    -0.051 A 
ATOM     34  C   UNL A   1      35.332  34.027  29.048  1.00  0.00     0.004 A 
ATOM     35  C   UNL A   1      36.908  32.328  28.388  1.00  0.00     0.004 A 
ATOM     36  C   UNL A   1      34.281  33.234  28.576  1.00  0.00     0.011 A 
ATOM     37  C   UNL A   1      35.856  31.534  27.922  1.00  0.00     0.011 A 
ENDBRANCH  26  31
ENDBRANCH  14  25
ENDBRANCH   8  13
ENDBRANCH   4   7
ENDBRANCH   2   3
ENDBRANCH   1   2
BRANCH   1  38
ATOM     38  C   UNL A   1      36.984  22.404  25.773  1.00  0.00     0.118 C 
BRANCH  38  39
ATOM     39  N   UNL A   1      38.205  21.763  26.242  1.00  0.00    -0.352 N 
ATOM     40  C   UNL A   1      39.463  22.366  26.219  1.00  0.00     0.251 C 
ATOM     41  H   UNL A   1      38.138  20.849  26.598  1.00  0.00     0.163 HD
ATOM     42  O   UNL A   1      40.485  21.803  25.929  1.00  0.00    -0.269 OA
BRANCH  40  43
ATOM     43  C   UNL A   1      39.469  23.768  26.699  1.00  0.00     0.039 A 
ATOM     44  C   UNL A   1      39.974  24.759  25.850  1.00  0.00     0.014 A 
ATOM     45  C   UNL A   1      39.254  24.010  28.053  1.00  0.00     0.014 A 
ATOM     46  C   UNL A   1      40.423  25.956  26.400  1.00  0.00     0.010 A 
ATOM     47  C   UNL A   1      39.805  25.143  28.607  1.00  0.00     0.010 A 
ATOM     48  C   UNL A   1      40.417  26.099  27.788  1.00  0.00    -0.014 A 
BRANCH  48  49
ATOM     49  C   UNL A   1      41.039  27.204  28.501  1.00  0.00     0.031 A 
ATOM     50  C   UNL A   1      40.201  28.355  28.911  1.00  0.00     0.074 A 
ATOM     51  C   UNL A   1      42.323  27.103  28.913  1.00  0.00     0.049 A 
ATOM     52  N   UNL A   1      40.657  29.527  29.195  1.00  0.00    -0.248 NA
ATOM     53  C   UNL A   1      38.744  28.270  29.003  1.00  0.00     0.031 C 
ATOM     54  C   UNL A   1      42.996  27.954  29.890  1.00  0.00     0.029 A 
ATOM     55  N   UNL A   1      43.358  26.328  28.381  1.00  0.00    -0.354 N 
ATOM     56  C   UNL A   1      39.637  30.224  29.805  1.00  0.00     0.074 A 
ATOM     57  C   UNL A   1      38.448  29.434  29.587  1.00  0.00     0.031 C 
ATOM     58  C   UNL A   1      44.321  27.891  29.673  1.00  0.00     0.029 A 
ATOM     59  C   UNL A   1      44.510  27.130  28.448  1.00  0.00     0.049 A 
ATOM     60  H   UNL A   1      43.293  25.410  28.032  1.00  0.00     0.167 HD
ATOM     61  C   UNL A   1      39.922  31.311  30.572  1.00  0.00     0.031 A 
ATOM     62  C   UNL A   1      45.186  27.579  27.348  1.00  0.00     0.031 A 
ATOM     63  C   UNL A   1      41.348  31.619  30.554  1.00  0.00     0.049 A 
ATOM     64  C   UNL A   1      45.262  29.094  27.286  1.00  0.00     0.074 A 
ATOM     65  C   UNL A   1      42.381  31.348  31.436  1.00  0.00     0.029 A 
ATOM     66  N   UNL A   1      41.941  32.011  29.360  1.00  0.00    -0.354 N 
ATOM     67  N   UNL A   1      44.481  29.892  27.963  1.00  0.00    -0.248 NA
ATOM     68  C   UNL A   1      46.206  29.831  26.449  1.00  0.00     0.031 C 
ATOM     69  C   UNL A   1      43.606  31.498  30.735  1.00  0.00     0.029 A 
ATOM     70  C   UNL A   1      43.315  31.888  29.439  1.00  0.00     0.049 A 
ATOM     71  H   UNL A   1      41.451  32.330  28.568  1.00  0.00     0.167 HD
ATOM     72  C   UNL A   1      44.804  31.198  27.701  1.00  0.00     0.074 A 
ATOM     73  C   UNL A   1      45.893  31.107  26.744  1.00  0.00     0.031 C 
ATOM     74  C   UNL A   1      44.151  32.240  28.299  1.00  0.00     0.031 A 
BRANCH  61  75
ATOM     75  C   UNL A   1      38.945  31.884  31.571  1.00  0.00    -0.014 A 
ATOM     76  C   UNL A   1      37.662  31.313  31.696  1.00  0.00     0.010 A 
ATOM     77  C   UNL A   1      39.210  33.009  32.376  1.00  0.00     0.010 A 
ATOM     78  C   UNL A   1      36.666  31.887  32.499  1.00  0.00     0.020 A 
ATOM     79  C   UNL A   1      38.211  33.616  33.157  1.00  0.00     0.020 A 
ATOM     80  C   UNL A   1      36.939  33.055  33.205  1.00  0.00     0.054 A 
BRANCH  80  81
ATOM     81  S   UNL A   1      35.613  33.825  34.172  1.00  0.00     0.124 S 
ATOM     82  O   UNL A   1      35.985  33.487  35.543  1.00  0.00    -0.237 OA
ATOM     83  O   UNL A   1      35.743  35.234  33.813  1.00  0.00    -0.237 OA
ATOM     84  O   UNL A   1      34.402  33.167  33.683  1.00  0.00    -0.744 OA
ENDBRANCH  80  81
ENDBRANCH  61  75
BRANCH  62  85
ATOM     85  C   UNL A   1      45.111  26.665  26.172  1.00  0.00    -0.014 A 
ATOM     86  C   UNL A   1      46.282  25.951  25.835  1.00  0.00     0.010 A 
ATOM     87  C   UNL A   1      43.870  26.173  25.729  1.00  0.00     0.010 A 
ATOM     88  C   UNL A   1      46.201  24.680  25.259  1.00  0.00     0.020 A 
ATOM     89  C   UNL A   1      43.789  24.901  25.139  1.00  0.00     0.020 A 
ATOM     90  C   UNL A   1      44.948  24.132  24.989  1.00  0.00     0.054 A 
BRANCH  90  91
ATOM     91  S   UNL A   1      44.848  22.350  24.626  1.00  0.00     0.124 S 
ATOM     92  O   UNL A   1      43.829  21.893  25.564  1.00  0.00    -0.237 OA
ATOM     93  O   UNL A   1      44.453  22.334  23.214  1.00  0.00    -0.237 OA
ATOM     94  O   UNL A   1      46.203  21.876  24.885  1.00  0.00    -0.744 OA
ENDBRANCH  90  91
ENDBRANCH  62  85
BRANCH  74  95
ATOM     95  C   UNL A   1      44.271  33.709  27.950  1.00  0.00    -0.014 A 
ATOM     96  C   UNL A   1      43.636  34.323  26.861  1.00  0.00     0.010 A 
ATOM     97  C   UNL A   1      44.964  34.566  28.844  1.00  0.00     0.010 A 
ATOM     98  C   UNL A   1      43.733  35.708  26.645  1.00  0.00     0.020 A 
ATOM     99  C   UNL A   1      45.027  35.951  28.668  1.00  0.00     0.020 A 
ATOM    100  C   UNL A   1      44.427  36.512  27.550  1.00  0.00     0.054 A 
BRANCH 100 101
ATOM    101  S   UNL A   1      44.482  38.304  27.299  1.00  0.00     0.124 S 
ATOM    102  O   UNL A   1      44.559  38.796  28.671  1.00  0.00    -0.237 OA
ATOM    103  O   UNL A   1      45.694  38.484  26.500  1.00  0.00    -0.237 OA
ATOM    104  O   UNL A   1      43.235  38.590  26.596  1.00  0.00    -0.744 OA
ENDBRANCH 100 101
ENDBRANCH  74  95
ENDBRANCH  48  49
ENDBRANCH  40  43
ENDBRANCH  38  39
ENDBRANCH   1  38
TORSDOF 16
ENDMDL
MODEL 3
REMARK VINA RESULT:     -13.4      1.495      2.434
REMARK SMILES Cc1ccc(-c2cnnc(-n3nc(C)c4c3NC(=O)C[C@@H]4c3ccc(C(=O)NCCCNC(=O)c4ccc(-c5c6nc(c(-c7ccc(S(=O)(=O)[O-])cc7)c7ccc([nH]7)c(-c7ccc(S(=O)(=O)[O-])cc7)c7nc(c(-c8ccc(S(=O)(=O)[O-])cc8)c8ccc5[nH]8)C=C7)C=C6)cc4)cc3)n2)cc1
REMARK SMILES IDX 30 1 29 2 28 3 26 4 27 5 25 7 22 8 23 9 96 10 24 11 95 12
REMARK SMILES IDX 21 13 11 14 12 15 16 16 13 17 15 18 17 19 14 20 18 21 20 23
REMARK SMILES IDX 19 24 10 25 6 26 7 27 97 28 8 29 9 30 5 31 1 32 2 33 3 34
REMARK SMILES IDX 99 35 4 36 98 37 31 38 32 39 33 40 34 42 35 43 36 44 94 45
REMARK SMILES IDX 37 46 93 47 38 48 39 49 40 50 87 51 41 52 92 53 86 54 88 55
REMARK SMILES IDX 42 56 91 57 85 58 84 59 43 61 73 62 54 63 72 64 55 65 58 66
REMARK SMILES IDX 71 67 89 68 56 69 57 70 70 72 90 73 59 74 44 75 45 76 53 77
REMARK SMILES IDX 46 78 52 79 47 80 48 81 49 82 50 83 51 84 74 85 75 86 83 87
REMARK SMILES IDX 76 88 82 89 77 90 78 91 79 92 80 93 81 94 60 95 61 96 69 97
REMARK SMILES IDX 62 98 68 99 63 100 64 101 65 102 66 103 67 104
REMARK H PARENT 28 6 17 22 32 41 88 60 58 71
REMARK Flexibility Score: inf
ROOT
ATOM      1  C   UNL A   1      31.998  32.358  26.860  1.00  0.00     0.042 C 
ENDROOT
BRANCH   1   2
ATOM      2  C   UNL A   1      31.124  31.365  26.099  1.00  0.00     0.118 C 
BRANCH   2   3
ATOM      3  N   UNL A   1      30.219  31.991  25.134  1.00  0.00    -0.352 N 
ATOM      4  C   UNL A   1      29.542  31.419  24.081  1.00  0.00     0.251 C 
ATOM      5  O   UNL A   1      28.613  31.993  23.523  1.00  0.00    -0.269 OA
ATOM      6  H   UNL A   1      30.074  32.958  25.255  1.00  0.00     0.163 HD
BRANCH   4   7
ATOM      7  C   UNL A   1      29.905  30.060  23.634  1.00  0.00     0.039 A 
ATOM      8  C   UNL A   1      30.609  27.400  23.106  1.00  0.00    -0.040 A 
ATOM      9  C   UNL A   1      29.256  27.781  23.227  1.00  0.00     0.005 A 
ATOM     10  C   UNL A   1      31.584  28.406  23.091  1.00  0.00     0.005 A 
ATOM     11  C   UNL A   1      28.903  29.103  23.491  1.00  0.00     0.014 A 
ATOM     12  C   UNL A   1      31.229  29.729  23.350  1.00  0.00     0.014 A 
BRANCH   8  13
ATOM     13  C   UNL A   1      30.916  25.923  23.035  1.00  0.00     0.064 C 
ATOM     14  N   UNL A   1      33.587  24.429  24.968  1.00  0.00    -0.180 N 
ATOM     15  N   UNL A   1      33.014  25.090  26.009  1.00  0.00    -0.168 NA
ATOM     16  C   UNL A   1      33.127  24.949  23.772  1.00  0.00     0.143 A 
ATOM     17  C   UNL A   1      31.960  25.718  25.480  1.00  0.00     0.066 A 
ATOM     18  C   UNL A   1      31.926  25.557  24.068  1.00  0.00     0.026 A 
ATOM     19  N   UNL A   1      33.602  24.889  22.479  1.00  0.00    -0.310 N 
ATOM     20  C   UNL A   1      31.056  26.480  26.381  1.00  0.00     0.069 C 
ATOM     21  C   UNL A   1      32.788  25.394  21.415  1.00  0.00     0.226 C 
ATOM     22  H   UNL A   1      34.488  24.504  22.289  1.00  0.00     0.171 HD
ATOM     23  C   UNL A   1      31.298  25.431  21.642  1.00  0.00     0.113 C 
ATOM     24  O   UNL A   1      33.338  25.589  20.344  1.00  0.00    -0.275 OA
BRANCH  14  25
ATOM     25  C   UNL A   1      34.281  23.199  25.169  1.00  0.00     0.272 A 
ATOM     26  C   UNL A   1      36.194  21.951  25.231  1.00  0.00     0.095 A 
ATOM     27  C   UNL A   1      35.440  20.814  24.988  1.00  0.00     0.164 A 
ATOM     28  N   UNL A   1      35.633  23.190  25.290  1.00  0.00    -0.208 NA
ATOM     29  N   UNL A   1      34.109  20.875  24.881  1.00  0.00    -0.153 NA
ATOM     30  N   UNL A   1      33.523  22.083  25.011  1.00  0.00    -0.109 NA
BRANCH  26  31
ATOM     31  C   UNL A   1      37.620  21.821  25.551  1.00  0.00     0.002 A 
ATOM     32  C   UNL A   1      41.651  21.289  27.042  1.00  0.00     0.044 C 
ATOM     33  C   UNL A   1      40.265  21.489  26.505  1.00  0.00    -0.051 A 
ATOM     34  C   UNL A   1      39.620  20.450  25.826  1.00  0.00     0.004 A 
ATOM     35  C   UNL A   1      39.595  22.704  26.676  1.00  0.00     0.004 A 
ATOM     36  C   UNL A   1      38.313  20.614  25.356  1.00  0.00     0.011 A 
ATOM     37  C   UNL A   1      38.291  22.869  26.200  1.00  0.00     0.011 A 
ENDBRANCH  26  31
ENDBRANCH  14  25
ENDBRANCH   8  13
ENDBRANCH   4   7
ENDBRANCH   2   3
ENDBRANCH   1   2
BRANCH   1  38
ATOM     38  C   UNL A   1      33.233  31.726  27.480  1.00  0.00     0.118 C 
BRANCH  38  39
ATOM     39  N   UNL A   1      33.063  30.309  27.773  1.00  0.00    -0.352 N 
ATOM     40  C   UNL A   1      34.058  29.348  27.593  1.00  0.00     0.251 C 
ATOM     41  H   UNL A   1      32.191  30.012  28.119  1.00  0.00     0.163 HD
ATOM     42  O   UNL A   1      33.870  28.242  27.161  1.00  0.00    -0.269 OA
BRANCH  40  43
ATOM     43  C   UNL A   1      35.392  29.761  28.090  1.00  0.00     0.039 A 
ATOM     44  C   UNL A   1      36.326  30.241  27.166  1.00  0.00     0.014 A 
ATOM     45  C   UNL A   1      35.767  29.390  29.378  1.00  0.00     0.014 A 
ATOM     46  C   UNL A   1      37.680  30.194  27.486  1.00  0.00     0.010 A 
ATOM     47  C   UNL A   1      37.107  29.235  29.647  1.00  0.00     0.010 A 
ATOM     48  C   UNL A   1      38.062  29.605  28.692  1.00  0.00    -0.014 A 
BRANCH  48  49
ATOM     49  C   UNL A   1      39.438  29.307  29.059  1.00  0.00     0.031 A 
ATOM     50  C   UNL A   1      40.009  27.990  28.694  1.00  0.00     0.074 A 
ATOM     51  C   UNL A   1      40.219  30.277  29.587  1.00  0.00     0.049 A 
ATOM     52  N   UNL A   1      41.037  27.457  29.261  1.00  0.00    -0.248 NA
ATOM     53  C   UNL A   1      39.426  27.145  27.653  1.00  0.00     0.031 C 
ATOM     54  C   UNL A   1      41.674  30.252  29.718  1.00  0.00     0.029 A 
ATOM     55  N   UNL A   1      39.842  31.415  30.306  1.00  0.00    -0.354 N 
ATOM     56  C   UNL A   1      41.435  26.401  28.470  1.00  0.00     0.074 A 
ATOM     57  C   UNL A   1      40.357  26.195  27.532  1.00  0.00     0.031 C 
ATOM     58  C   UNL A   1      42.031  31.100  30.698  1.00  0.00     0.029 A 
ATOM     59  C   UNL A   1      40.801  31.559  31.324  1.00  0.00     0.049 A 
ATOM     60  H   UNL A   1      39.065  31.995  30.135  1.00  0.00     0.167 HD
ATOM     61  C   UNL A   1      42.701  25.913  28.578  1.00  0.00     0.031 A 
ATOM     62  C   UNL A   1      40.515  31.446  32.656  1.00  0.00     0.031 A 
ATOM     63  C   UNL A   1      43.446  26.585  29.637  1.00  0.00     0.049 A 
ATOM     64  C   UNL A   1      41.316  30.349  33.335  1.00  0.00     0.074 A 
ATOM     65  C   UNL A   1      44.376  27.611  29.627  1.00  0.00     0.029 A 
ATOM     66  N   UNL A   1      43.025  26.444  30.954  1.00  0.00    -0.354 N 
ATOM     67  N   UNL A   1      41.916  29.382  32.695  1.00  0.00    -0.248 NA
ATOM     68  C   UNL A   1      41.489  30.239  34.781  1.00  0.00     0.031 C 
ATOM     69  C   UNL A   1      44.451  28.145  30.940  1.00  0.00     0.029 A 
ATOM     70  C   UNL A   1      43.588  27.424  31.748  1.00  0.00     0.049 A 
ATOM     71  H   UNL A   1      42.412  25.745  31.275  1.00  0.00     0.167 HD
ATOM     72  C   UNL A   1      42.561  28.561  33.583  1.00  0.00     0.074 A 
ATOM     73  C   UNL A   1      42.261  29.141  34.880  1.00  0.00     0.031 C 
ATOM     74  C   UNL A   1      43.288  27.478  33.173  1.00  0.00     0.031 A 
BRANCH  61  75
ATOM     75  C   UNL A   1      43.337  25.051  27.513  1.00  0.00    -0.014 A 
ATOM     76  C   UNL A   1      44.037  23.886  27.886  1.00  0.00     0.010 A 
ATOM     77  C   UNL A   1      43.324  25.359  26.138  1.00  0.00     0.010 A 
ATOM     78  C   UNL A   1      44.767  23.127  26.961  1.00  0.00     0.020 A 
ATOM     79  C   UNL A   1      44.080  24.629  25.206  1.00  0.00     0.020 A 
ATOM     80  C   UNL A   1      44.807  23.520  25.627  1.00  0.00     0.054 A 
BRANCH  80  81
ATOM     81  S   UNL A   1      45.823  22.571  24.463  1.00  0.00     0.124 S 
ATOM     82  O   UNL A   1      46.506  21.623  25.340  1.00  0.00    -0.237 OA
ATOM     83  O   UNL A   1      44.821  21.995  23.571  1.00  0.00    -0.237 OA
ATOM     84  O   UNL A   1      46.690  23.581  23.857  1.00  0.00    -0.744 OA
ENDBRANCH  80  81
ENDBRANCH  61  75
BRANCH  62  85
ATOM     85  C   UNL A   1      39.130  31.861  33.020  1.00  0.00    -0.014 A 
ATOM     86  C   UNL A   1      38.819  33.235  32.915  1.00  0.00     0.010 A 
ATOM     87  C   UNL A   1      38.077  30.928  32.998  1.00  0.00     0.010 A 
ATOM     88  C   UNL A   1      37.526  33.651  32.586  1.00  0.00     0.020 A 
ATOM     89  C   UNL A   1      36.775  31.347  32.680  1.00  0.00     0.020 A 
ATOM     90  C   UNL A   1      36.531  32.694  32.393  1.00  0.00     0.054 A 
BRANCH  90  91
ATOM     91  S   UNL A   1      34.985  33.213  31.582  1.00  0.00     0.124 S 
ATOM     92  O   UNL A   1      33.965  32.731  32.507  1.00  0.00    -0.237 OA
ATOM     93  O   UNL A   1      35.133  34.670  31.516  1.00  0.00    -0.237 OA
ATOM     94  O   UNL A   1      35.037  32.538  30.290  1.00  0.00    -0.744 OA
ENDBRANCH  90  91
ENDBRANCH  62  85
BRANCH  74  95
ATOM     95  C   UNL A   1      43.871  26.389  34.049  1.00  0.00    -0.014 A 
ATOM     96  C   UNL A   1      43.266  25.145  34.282  1.00  0.00     0.010 A 
ATOM     97  C   UNL A   1      45.175  26.568  34.579  1.00  0.00     0.010 A 
ATOM     98  C   UNL A   1      43.905  24.155  35.046  1.00  0.00     0.020 A 
ATOM     99  C   UNL A   1      45.841  25.572  35.299  1.00  0.00     0.020 A 
ATOM    100  C   UNL A   1      45.187  24.375  35.550  1.00  0.00     0.054 A 
BRANCH 100 101
ATOM    101  S   UNL A   1      46.028  23.062  36.471  1.00  0.00     0.124 S 
ATOM    102  O   UNL A   1      45.239  21.889  36.107  1.00  0.00    -0.237 OA
ATOM    103  O   UNL A   1      47.384  23.099  35.926  1.00  0.00    -0.237 OA
ATOM    104  O   UNL A   1      45.913  23.492  37.862  1.00  0.00    -0.744 OA
ENDBRANCH 100 101
ENDBRANCH  74  95
ENDBRANCH  48  49
ENDBRANCH  40  43
ENDBRANCH  38  39
ENDBRANCH   1  38
TORSDOF 16
ENDMDL
