MODEL 1
REMARK VINA RESULT:     -11.0      0.000      0.000
REMARK SMILES Cc1ccc(C#N)c(S[C@H](C(=O)NCCCNC(=O)c2ccc(-c3c4nc(c(-c5ccc(S(=O)(=O)[O-])cc5)c5ccc([nH]5)c(-c5ccc(S(=O)(=O)[O-])cc5)c5nc(c(-c6ccc(S(=O)(=O)[O-])cc6)c6ccc3[nH]6)C=C5)C=C4)cc2)c2ccccc2)n1
REMARK SMILES IDX 15 1 14 2 13 3 11 4 12 5 10 7 9 8 8 9 1 10 2 11 3 12 86 13
REMARK SMILES IDX 4 14 5 15 6 16 7 17 80 18 81 19 85 20 82 21 84 22 83 23
REMARK SMILES IDX 16 24 17 25 18 26 19 28 20 29 21 30 79 31 22 32 78 33 23 34
REMARK SMILES IDX 24 35 25 36 72 37 26 38 77 39 71 40 73 41 27 42 76 43 70 44
REMARK SMILES IDX 69 45 28 47 58 48 39 49 57 50 40 51 43 52 56 53 74 54 41 55
REMARK SMILES IDX 42 56 55 58 75 59 44 60 29 61 30 62 38 63 31 64 37 65 32 66
REMARK SMILES IDX 33 67 34 68 35 69 36 70 59 71 60 72 68 73 61 74 67 75 62 76
REMARK SMILES IDX 63 77 64 78 65 79 66 80 45 81 46 82 54 83 47 84 53 85 48 86
REMARK SMILES IDX 49 87 50 88 51 89 52 90
REMARK H PARENT 13 6 17 27 73 46 43 57
REMARK Flexibility Score: inf
ROOT
ATOM      1  C   UNL A   1      33.405  27.308  26.518  1.00  0.00     0.042 C 
ENDROOT
BRANCH   1   2
ATOM      2  C   UNL A   1      32.019  27.106  25.916  1.00  0.00     0.117 C 
BRANCH   2   3
ATOM      3  N   UNL A   1      31.363  25.959  26.500  1.00  0.00    -0.355 N 
ATOM      4  C   UNL A   1      31.666  24.656  26.670  1.00  0.00     0.238 C 
ATOM      5  O   UNL A   1      30.728  24.019  27.184  1.00  0.00    -0.273 OA
ATOM      6  H   UNL A   1      30.475  26.183  26.861  1.00  0.00     0.163 HD
BRANCH   4   7
ATOM      7  C   UNL A   1      32.954  23.899  26.290  1.00  0.00     0.172 C 
BRANCH   7   8
ATOM      8  S   UNL A   1      33.466  22.374  27.156  1.00  0.00    -0.087 SA
BRANCH   8   9
ATOM      9  C   UNL A   1      34.613  21.463  26.142  1.00  0.00     0.115 A 
ATOM     10  C   UNL A   1      38.239  22.170  25.753  1.00  0.00     0.067 C 
ATOM     11  C   UNL A   1      36.916  21.477  25.604  1.00  0.00     0.039 A 
ATOM     12  C   UNL A   1      36.785  20.354  24.812  1.00  0.00     0.025 A 
ATOM     13  N   UNL A   1      35.855  22.024  26.248  1.00  0.00    -0.245 NA
ATOM     14  C   UNL A   1      35.525  19.778  24.692  1.00  0.00     0.024 A 
ATOM     15  C   UNL A   1      34.420  20.327  25.362  1.00  0.00     0.084 A 
BRANCH  15  16
ATOM     16  C   UNL A   1      33.168  19.666  25.191  1.00  0.00     0.102 C 
ATOM     17  N   UNL A   1      32.172  19.092  25.044  1.00  0.00    -0.192 NA
ENDBRANCH  15  16
ENDBRANCH   8   9
ENDBRANCH   7   8
BRANCH   7  18
ATOM     18  C   UNL A   1      32.922  23.561  24.790  1.00  0.00    -0.025 A 
ATOM     19  C   UNL A   1      31.846  22.858  24.219  1.00  0.00     0.005 A 
ATOM     20  C   UNL A   1      33.990  23.948  23.964  1.00  0.00     0.005 A 
ATOM     21  C   UNL A   1      31.846  22.543  22.858  1.00  0.00     0.000 A 
ATOM     22  C   UNL A   1      33.985  23.633  22.605  1.00  0.00     0.000 A 
ATOM     23  C   UNL A   1      32.917  22.929  22.054  1.00  0.00     0.000 A 
ENDBRANCH   7  18
ENDBRANCH   4   7
ENDBRANCH   2   3
ENDBRANCH   1   2
BRANCH   1  24
ATOM     24  C   UNL A   1      34.150  28.485  25.896  1.00  0.00     0.118 C 
BRANCH  24  25
ATOM     25  N   UNL A   1      33.771  29.753  26.509  1.00  0.00    -0.352 N 
ATOM     26  C   UNL A   1      34.333  30.435  27.557  1.00  0.00     0.251 C 
ATOM     27  H   UNL A   1      32.985  30.188  26.107  1.00  0.00     0.163 HD
ATOM     28  O   UNL A   1      33.698  31.328  28.111  1.00  0.00    -0.269 OA
BRANCH  26  29
ATOM     29  C   UNL A   1      35.695  30.094  28.012  1.00  0.00     0.039 A 
ATOM     30  C   UNL A   1      35.878  29.588  29.301  1.00  0.00     0.014 A 
ATOM     31  C   UNL A   1      36.791  30.296  27.172  1.00  0.00     0.014 A 
ATOM     32  C   UNL A   1      37.159  29.231  29.722  1.00  0.00     0.010 A 
ATOM     33  C   UNL A   1      38.044  29.837  27.550  1.00  0.00     0.010 A 
ATOM     34  C   UNL A   1      38.246  29.317  28.835  1.00  0.00    -0.014 A 
BRANCH  34  35
ATOM     35  C   UNL A   1      39.606  28.880  29.235  1.00  0.00     0.031 A 
ATOM     36  C   UNL A   1      40.495  29.804  30.023  1.00  0.00     0.074 A 
ATOM     37  C   UNL A   1      40.060  27.678  28.834  1.00  0.00     0.049 A 
ATOM     38  N   UNL A   1      41.721  29.614  30.438  1.00  0.00    -0.248 NA
ATOM     39  C   UNL A   1      39.942  31.125  30.368  1.00  0.00     0.031 C 
ATOM     40  C   UNL A   1      39.304  26.708  28.039  1.00  0.00     0.029 A 
ATOM     41  N   UNL A   1      41.268  27.063  29.046  1.00  0.00    -0.354 N 
ATOM     42  C   UNL A   1      42.089  30.791  31.077  1.00  0.00     0.074 A 
ATOM     43  C   UNL A   1      40.986  31.715  30.928  1.00  0.00     0.031 C 
ATOM     44  C   UNL A   1      40.042  25.599  27.880  1.00  0.00     0.029 A 
ATOM     45  C   UNL A   1      41.343  25.800  28.508  1.00  0.00     0.049 A 
ATOM     46  H   UNL A   1      42.009  27.486  29.537  1.00  0.00     0.167 HD
ATOM     47  C   UNL A   1      43.230  31.073  31.752  1.00  0.00     0.031 A 
ATOM     48  C   UNL A   1      42.348  24.903  28.524  1.00  0.00     0.031 A 
ATOM     49  C   UNL A   1      44.330  30.153  31.877  1.00  0.00     0.049 A 
ATOM     50  C   UNL A   1      43.629  25.255  29.226  1.00  0.00     0.074 A 
ATOM     51  C   UNL A   1      45.518  30.319  32.565  1.00  0.00     0.029 A 
ATOM     52  N   UNL A   1      44.383  28.898  31.287  1.00  0.00    -0.354 N 
ATOM     53  N   UNL A   1      43.937  26.349  29.882  1.00  0.00    -0.248 NA
ATOM     54  C   UNL A   1      44.695  24.246  29.197  1.00  0.00     0.031 C 
ATOM     55  C   UNL A   1      46.319  29.197  32.328  1.00  0.00     0.029 A 
ATOM     56  C   UNL A   1      45.598  28.294  31.563  1.00  0.00     0.049 A 
ATOM     57  H   UNL A   1      43.662  28.496  30.748  1.00  0.00     0.167 HD
ATOM     58  C   UNL A   1      45.221  26.145  30.376  1.00  0.00     0.074 A 
ATOM     59  C   UNL A   1      45.623  24.819  29.952  1.00  0.00     0.031 C 
ATOM     60  C   UNL A   1      45.991  26.977  31.122  1.00  0.00     0.031 A 
BRANCH  47  61
ATOM     61  C   UNL A   1      43.342  32.444  32.374  1.00  0.00    -0.014 A 
ATOM     62  C   UNL A   1      42.906  32.689  33.691  1.00  0.00     0.010 A 
ATOM     63  C   UNL A   1      43.872  33.510  31.626  1.00  0.00     0.010 A 
ATOM     64  C   UNL A   1      42.923  33.984  34.216  1.00  0.00     0.020 A 
ATOM     65  C   UNL A   1      43.932  34.799  32.163  1.00  0.00     0.020 A 
ATOM     66  C   UNL A   1      43.429  35.033  33.444  1.00  0.00     0.054 A 
BRANCH  66  67
ATOM     67  S   UNL A   1      43.411  36.708  34.139  1.00  0.00     0.124 S 
ATOM     68  O   UNL A   1      43.626  37.529  32.950  1.00  0.00    -0.237 OA
ATOM     69  O   UNL A   1      42.076  36.793  34.728  1.00  0.00    -0.237 OA
ATOM     70  O   UNL A   1      44.513  36.699  35.096  1.00  0.00    -0.744 OA
ENDBRANCH  66  67
ENDBRANCH  47  61
BRANCH  48  71
ATOM     71  C   UNL A   1      42.154  23.570  27.891  1.00  0.00    -0.014 A 
ATOM     72  C   UNL A   1      42.850  23.240  26.715  1.00  0.00     0.010 A 
ATOM     73  C   UNL A   1      41.312  22.610  28.480  1.00  0.00     0.010 A 
ATOM     74  C   UNL A   1      42.709  21.973  26.140  1.00  0.00     0.020 A 
ATOM     75  C   UNL A   1      41.192  21.333  27.926  1.00  0.00     0.020 A 
ATOM     76  C   UNL A   1      41.890  21.024  26.757  1.00  0.00     0.054 A 
BRANCH  76  77
ATOM     77  S   UNL A   1      41.795  19.360  26.041  1.00  0.00     0.124 S 
ATOM     78  O   UNL A   1      42.674  19.475  24.882  1.00  0.00    -0.237 OA
ATOM     79  O   UNL A   1      42.288  18.524  27.133  1.00  0.00    -0.237 OA
ATOM     80  O   UNL A   1      40.374  19.199  25.738  1.00  0.00    -0.744 OA
ENDBRANCH  76  77
ENDBRANCH  48  71
BRANCH  60  81
ATOM     81  C   UNL A   1      47.340  26.465  31.560  1.00  0.00    -0.014 A 
ATOM     82  C   UNL A   1      48.500  26.699  30.799  1.00  0.00     0.010 A 
ATOM     83  C   UNL A   1      47.453  25.781  32.785  1.00  0.00     0.010 A 
ATOM     84  C   UNL A   1      49.740  26.226  31.238  1.00  0.00     0.020 A 
ATOM     85  C   UNL A   1      48.697  25.341  33.245  1.00  0.00     0.020 A 
ATOM     86  C   UNL A   1      49.830  25.555  32.461  1.00  0.00     0.054 A 
BRANCH  86  87
ATOM     87  S   UNL A   1      51.459  24.994  33.028  1.00  0.00     0.124 S 
ATOM     88  O   UNL A   1      51.337  25.120  34.477  1.00  0.00    -0.237 OA
ATOM     89  O   UNL A   1      51.518  23.626  32.518  1.00  0.00    -0.237 OA
ATOM     90  O   UNL A   1      52.388  25.929  32.396  1.00  0.00    -0.744 OA
ENDBRANCH  86  87
ENDBRANCH  60  81
ENDBRANCH  34  35
ENDBRANCH  26  29
ENDBRANCH  24  25
ENDBRANCH   1  24
TORSDOF 17
ENDMDL
MODEL 2
REMARK VINA RESULT:     -10.9      2.521      9.126
REMARK SMILES Cc1ccc(C#N)c(S[C@H](C(=O)NCCCNC(=O)c2ccc(-c3c4nc(c(-c5ccc(S(=O)(=O)[O-])cc5)c5ccc([nH]5)c(-c5ccc(S(=O)(=O)[O-])cc5)c5nc(c(-c6ccc(S(=O)(=O)[O-])cc6)c6ccc3[nH]6)C=C5)C=C4)cc2)c2ccccc2)n1
REMARK SMILES IDX 15 1 14 2 13 3 11 4 12 5 10 7 9 8 8 9 1 10 2 11 3 12 86 13
REMARK SMILES IDX 4 14 5 15 6 16 7 17 80 18 81 19 85 20 82 21 84 22 83 23
REMARK SMILES IDX 16 24 17 25 18 26 19 28 20 29 21 30 79 31 22 32 78 33 23 34
REMARK SMILES IDX 24 35 25 36 72 37 26 38 77 39 71 40 73 41 27 42 76 43 70 44
REMARK SMILES IDX 69 45 28 47 58 48 39 49 57 50 40 51 43 52 56 53 74 54 41 55
REMARK SMILES IDX 42 56 55 58 75 59 44 60 29 61 30 62 38 63 31 64 37 65 32 66
REMARK SMILES IDX 33 67 34 68 35 69 36 70 59 71 60 72 68 73 61 74 67 75 62 76
REMARK SMILES IDX 63 77 64 78 65 79 66 80 45 81 46 82 54 83 47 84 53 85 48 86
REMARK SMILES IDX 49 87 50 88 51 89 52 90
REMARK H PARENT 13 6 17 27 73 46 43 57
REMARK Flexibility Score: inf
ROOT
ATOM      1  C   UNL A   1      35.858  23.092  24.215  1.00  0.00     0.042 C 
ENDROOT
BRANCH   1   2
ATOM      2  C   UNL A   1      35.603  21.638  24.593  1.00  0.00     0.117 C 
BRANCH   2   3
ATOM      3  N   UNL A   1      34.869  21.546  25.834  1.00  0.00    -0.355 N 
ATOM      4  C   UNL A   1      33.595  21.277  26.184  1.00  0.00     0.238 C 
ATOM      5  O   UNL A   1      33.413  21.383  27.411  1.00  0.00    -0.273 OA
ATOM      6  H   UNL A   1      35.439  21.726  26.616  1.00  0.00     0.163 HD
BRANCH   4   7
ATOM      7  C   UNL A   1      32.396  20.909  25.288  1.00  0.00     0.172 C 
BRANCH   7   8
ATOM      8  S   UNL A   1      31.845  21.990  23.922  1.00  0.00    -0.087 SA
BRANCH   8   9
ATOM      9  C   UNL A   1      31.953  23.696  24.425  1.00  0.00     0.115 A 
ATOM     10  C   UNL A   1      33.639  26.430  22.560  1.00  0.00     0.067 C 
ATOM     11  C   UNL A   1      32.834  25.738  23.620  1.00  0.00     0.039 A 
ATOM     12  C   UNL A   1      32.331  26.434  24.702  1.00  0.00     0.025 A 
ATOM     13  N   UNL A   1      32.656  24.400  23.487  1.00  0.00    -0.245 NA
ATOM     14  C   UNL A   1      31.619  25.727  25.664  1.00  0.00     0.024 A 
ATOM     15  C   UNL A   1      31.418  24.343  25.534  1.00  0.00     0.084 A 
BRANCH  15  16
ATOM     16  C   UNL A   1      30.668  23.701  26.563  1.00  0.00     0.102 C 
ATOM     17  N   UNL A   1      30.027  23.206  27.391  1.00  0.00    -0.192 NA
ENDBRANCH  15  16
ENDBRANCH   8   9
ENDBRANCH   7   8
BRANCH   7  18
ATOM     18  C   UNL A   1      32.626  19.515  24.678  1.00  0.00    -0.025 A 
ATOM     19  C   UNL A   1      33.033  18.425  25.469  1.00  0.00     0.005 A 
ATOM     20  C   UNL A   1      32.441  19.317  23.300  1.00  0.00     0.005 A 
ATOM     21  C   UNL A   1      33.255  17.174  24.892  1.00  0.00     0.000 A 
ATOM     22  C   UNL A   1      32.664  18.064  22.728  1.00  0.00     0.000 A 
ATOM     23  C   UNL A   1      33.073  16.995  23.522  1.00  0.00     0.000 A 
ENDBRANCH   7  18
ENDBRANCH   4   7
ENDBRANCH   2   3
ENDBRANCH   1   2
BRANCH   1  24
ATOM     24  C   UNL A   1      36.992  23.719  25.021  1.00  0.00     0.118 C 
BRANCH  24  25
ATOM     25  N   UNL A   1      37.983  22.728  25.424  1.00  0.00    -0.352 N 
ATOM     26  C   UNL A   1      39.187  22.886  26.061  1.00  0.00     0.251 C 
ATOM     27  H   UNL A   1      37.751  21.798  25.204  1.00  0.00     0.163 HD
ATOM     28  O   UNL A   1      40.006  21.972  26.048  1.00  0.00    -0.269 OA
BRANCH  26  29
ATOM     29  C   UNL A   1      39.492  24.151  26.757  1.00  0.00     0.039 A 
ATOM     30  C   UNL A   1      39.068  24.325  28.077  1.00  0.00     0.014 A 
ATOM     31  C   UNL A   1      40.176  25.173  26.097  1.00  0.00     0.014 A 
ATOM     32  C   UNL A   1      39.386  25.505  28.750  1.00  0.00     0.010 A 
ATOM     33  C   UNL A   1      40.586  26.296  26.801  1.00  0.00     0.010 A 
ATOM     34  C   UNL A   1      40.180  26.483  28.129  1.00  0.00    -0.014 A 
BRANCH  34  35
ATOM     35  C   UNL A   1      40.588  27.717  28.844  1.00  0.00     0.031 A 
ATOM     36  C   UNL A   1      41.957  27.814  29.461  1.00  0.00     0.074 A 
ATOM     37  C   UNL A   1      39.704  28.722  28.989  1.00  0.00     0.049 A 
ATOM     38  N   UNL A   1      42.484  28.794  30.148  1.00  0.00    -0.248 NA
ATOM     39  C   UNL A   1      42.840  26.645  29.309  1.00  0.00     0.031 C 
ATOM     40  C   UNL A   1      38.337  28.731  28.463  1.00  0.00     0.029 A 
ATOM     41  N   UNL A   1      39.825  29.934  29.619  1.00  0.00    -0.354 N 
ATOM     42  C   UNL A   1      43.749  28.356  30.520  1.00  0.00     0.074 A 
ATOM     43  C   UNL A   1      43.880  26.996  30.049  1.00  0.00     0.031 C 
ATOM     44  C   UNL A   1      37.767  29.913  28.742  1.00  0.00     0.029 A 
ATOM     45  C   UNL A   1      38.704  30.722  29.514  1.00  0.00     0.049 A 
ATOM     46  H   UNL A   1      40.638  30.213  30.098  1.00  0.00     0.167 HD
ATOM     47  C   UNL A   1      44.727  29.032  31.171  1.00  0.00     0.031 A 
ATOM     48  C   UNL A   1      38.459  31.959  29.987  1.00  0.00     0.031 A 
ATOM     49  C   UNL A   1      44.579  30.379  31.654  1.00  0.00     0.049 A 
ATOM     50  C   UNL A   1      39.533  32.672  30.758  1.00  0.00     0.074 A 
ATOM     51  C   UNL A   1      45.513  31.173  32.296  1.00  0.00     0.029 A 
ATOM     52  N   UNL A   1      43.414  31.130  31.562  1.00  0.00    -0.354 N 
ATOM     53  N   UNL A   1      40.749  32.268  31.045  1.00  0.00    -0.248 NA
ATOM     54  C   UNL A   1      39.206  34.011  31.262  1.00  0.00     0.031 C 
ATOM     55  C   UNL A   1      44.891  32.372  32.658  1.00  0.00     0.029 A 
ATOM     56  C   UNL A   1      43.595  32.362  32.168  1.00  0.00     0.049 A 
ATOM     57  H   UNL A   1      42.582  30.829  31.130  1.00  0.00     0.167 HD
ATOM     58  C   UNL A   1      41.345  33.319  31.732  1.00  0.00     0.074 A 
ATOM     59  C   UNL A   1      40.358  34.379  31.806  1.00  0.00     0.031 C 
ATOM     60  C   UNL A   1      42.598  33.404  32.246  1.00  0.00     0.031 A 
BRANCH  47  61
ATOM     61  C   UNL A   1      46.024  28.299  31.417  1.00  0.00    -0.014 A 
ATOM     62  C   UNL A   1      47.071  28.328  30.476  1.00  0.00     0.010 A 
ATOM     63  C   UNL A   1      46.193  27.555  32.598  1.00  0.00     0.010 A 
ATOM     64  C   UNL A   1      48.225  27.565  30.672  1.00  0.00     0.020 A 
ATOM     65  C   UNL A   1      47.364  26.823  32.819  1.00  0.00     0.020 A 
ATOM     66  C   UNL A   1      48.360  26.809  31.840  1.00  0.00     0.054 A 
BRANCH  66  67
ATOM     67  S   UNL A   1      49.853  25.803  32.055  1.00  0.00     0.124 S 
ATOM     68  O   UNL A   1      49.961  25.146  30.754  1.00  0.00    -0.237 OA
ATOM     69  O   UNL A   1      50.875  26.807  32.338  1.00  0.00    -0.237 OA
ATOM     70  O   UNL A   1      49.521  24.922  33.171  1.00  0.00    -0.744 OA
ENDBRANCH  66  67
ENDBRANCH  47  61
BRANCH  48  71
ATOM     71  C   UNL A   1      37.154  32.613  29.695  1.00  0.00    -0.014 A 
ATOM     72  C   UNL A   1      36.112  32.560  30.637  1.00  0.00     0.010 A 
ATOM     73  C   UNL A   1      36.959  33.328  28.499  1.00  0.00     0.010 A 
ATOM     74  C   UNL A   1      34.900  33.211  30.390  1.00  0.00     0.020 A 
ATOM     75  C   UNL A   1      35.760  34.006  28.263  1.00  0.00     0.020 A 
ATOM     76  C   UNL A   1      34.736  33.940  29.209  1.00  0.00     0.054 A 
BRANCH  76  77
ATOM     77  S   UNL A   1      33.188  34.849  28.955  1.00  0.00     0.124 S 
ATOM     78  O   UNL A   1      33.668  36.146  28.487  1.00  0.00    -0.237 OA
ATOM     79  O   UNL A   1      32.505  34.027  27.960  1.00  0.00    -0.237 OA
ATOM     80  O   UNL A   1      32.571  34.850  30.280  1.00  0.00    -0.744 OA
ENDBRANCH  76  77
ENDBRANCH  48  71
BRANCH  60  81
ATOM     81  C   UNL A   1      42.990  34.701  32.907  1.00  0.00    -0.014 A 
ATOM     82  C   UNL A   1      42.841  34.897  34.292  1.00  0.00     0.010 A 
ATOM     83  C   UNL A   1      43.567  35.723  32.130  1.00  0.00     0.010 A 
ATOM     84  C   UNL A   1      43.229  36.105  34.880  1.00  0.00     0.020 A 
ATOM     85  C   UNL A   1      43.991  36.916  32.720  1.00  0.00     0.020 A 
ATOM     86  C   UNL A   1      43.806  37.104  34.090  1.00  0.00     0.054 A 
BRANCH  86  87
ATOM     87  S   UNL A   1      44.343  38.642  34.887  1.00  0.00     0.124 S 
ATOM     88  O   UNL A   1      45.756  38.697  34.524  1.00  0.00    -0.237 OA
ATOM     89  O   UNL A   1      43.490  39.643  34.250  1.00  0.00    -0.237 OA
ATOM     90  O   UNL A   1      44.071  38.412  36.304  1.00  0.00    -0.744 OA
ENDBRANCH  86  87
ENDBRANCH  60  81
ENDBRANCH  34  35
ENDBRANCH  26  29
ENDBRANCH  24  25
ENDBRANCH   1  24
TORSDOF 17
ENDMDL
MODEL 3
REMARK VINA RESULT:     -10.8      1.992      3.273
REMARK SMILES Cc1ccc(C#N)c(S[C@H](C(=O)NCCCNC(=O)c2ccc(-c3c4nc(c(-c5ccc(S(=O)(=O)[O-])cc5)c5ccc([nH]5)c(-c5ccc(S(=O)(=O)[O-])cc5)c5nc(c(-c6ccc(S(=O)(=O)[O-])cc6)c6ccc3[nH]6)C=C5)C=C4)cc2)c2ccccc2)n1
REMARK SMILES IDX 15 1 14 2 13 3 11 4 12 5 10 7 9 8 8 9 1 10 2 11 3 12 86 13
REMARK SMILES IDX 4 14 5 15 6 16 7 17 80 18 81 19 85 20 82 21 84 22 83 23
REMARK SMILES IDX 16 24 17 25 18 26 19 28 20 29 21 30 79 31 22 32 78 33 23 34
REMARK SMILES IDX 24 35 25 36 72 37 26 38 77 39 71 40 73 41 27 42 76 43 70 44
REMARK SMILES IDX 69 45 28 47 58 48 39 49 57 50 40 51 43 52 56 53 74 54 41 55
REMARK SMILES IDX 42 56 55 58 75 59 44 60 29 61 30 62 38 63 31 64 37 65 32 66
REMARK SMILES IDX 33 67 34 68 35 69 36 70 59 71 60 72 68 73 61 74 67 75 62 76
REMARK SMILES IDX 63 77 64 78 65 79 66 80 45 81 46 82 54 83 47 84 53 85 48 86
REMARK SMILES IDX 49 87 50 88 51 89 52 90
REMARK H PARENT 13 6 17 27 73 46 43 57
REMARK Flexibility Score: inf
ROOT
ATOM      1  C   UNL A   1      32.125  28.078  27.356  1.00  0.00     0.042 C 
ENDROOT
BRANCH   1   2
ATOM      2  C   UNL A   1      31.741  27.337  26.080  1.00  0.00     0.117 C 
BRANCH   2   3
ATOM      3  N   UNL A   1      32.354  27.948  24.923  1.00  0.00    -0.355 N 
ATOM      4  C   UNL A   1      32.049  28.057  23.614  1.00  0.00     0.238 C 
ATOM      5  O   UNL A   1      32.944  28.636  22.971  1.00  0.00    -0.273 OA
ATOM      6  H   UNL A   1      33.204  28.392  25.144  1.00  0.00     0.163 HD
BRANCH   4   7
ATOM      7  C   UNL A   1      30.808  27.546  22.858  1.00  0.00     0.172 C 
BRANCH   7   8
ATOM      8  S   UNL A   1      30.125  25.876  23.142  1.00  0.00    -0.087 SA
BRANCH   8   9
ATOM      9  C   UNL A   1      31.456  24.711  23.360  1.00  0.00     0.115 A 
ATOM     10  C   UNL A   1      31.886  22.378  26.217  1.00  0.00     0.067 C 
ATOM     11  C   UNL A   1      32.140  23.054  24.902  1.00  0.00     0.039 A 
ATOM     12  C   UNL A   1      33.227  22.712  24.123  1.00  0.00     0.025 A 
ATOM     13  N   UNL A   1      31.278  24.034  24.534  1.00  0.00    -0.245 NA
ATOM     14  C   UNL A   1      33.422  23.398  22.929  1.00  0.00     0.024 A 
ATOM     15  C   UNL A   1      32.532  24.408  22.530  1.00  0.00     0.084 A 
BRANCH  15  16
ATOM     16  C   UNL A   1      32.802  25.052  21.287  1.00  0.00     0.102 C 
ATOM     17  N   UNL A   1      32.995  25.607  20.289  1.00  0.00    -0.192 NA
ENDBRANCH  15  16
ENDBRANCH   8   9
ENDBRANCH   7   8
BRANCH   7  18
ATOM     18  C   UNL A   1      29.646  28.534  23.060  1.00  0.00    -0.025 A 
ATOM     19  C   UNL A   1      28.305  28.116  22.983  1.00  0.00     0.005 A 
ATOM     20  C   UNL A   1      29.916  29.888  23.318  1.00  0.00     0.005 A 
ATOM     21  C   UNL A   1      27.265  29.032  23.150  1.00  0.00     0.000 A 
ATOM     22  C   UNL A   1      28.874  30.799  23.486  1.00  0.00     0.000 A 
ATOM     23  C   UNL A   1      27.551  30.373  23.399  1.00  0.00     0.000 A 
ENDBRANCH   7  18
ENDBRANCH   4   7
ENDBRANCH   2   3
ENDBRANCH   1   2
BRANCH   1  24
ATOM     24  C   UNL A   1      33.565  28.585  27.330  1.00  0.00     0.118 C 
BRANCH  24  25
ATOM     25  N   UNL A   1      33.632  30.035  27.469  1.00  0.00    -0.352 N 
ATOM     26  C   UNL A   1      34.583  30.826  28.061  1.00  0.00     0.251 C 
ATOM     27  H   UNL A   1      32.875  30.524  27.075  1.00  0.00     0.163 HD
ATOM     28  O   UNL A   1      34.317  31.993  28.334  1.00  0.00    -0.269 OA
BRANCH  26  29
ATOM     29  C   UNL A   1      35.916  30.272  28.366  1.00  0.00     0.039 A 
ATOM     30  C   UNL A   1      36.910  30.304  27.386  1.00  0.00     0.014 A 
ATOM     31  C   UNL A   1      36.175  29.701  29.613  1.00  0.00     0.014 A 
ATOM     32  C   UNL A   1      38.182  29.815  27.682  1.00  0.00     0.010 A 
ATOM     33  C   UNL A   1      37.467  29.318  29.942  1.00  0.00     0.010 A 
ATOM     34  C   UNL A   1      38.480  29.353  28.975  1.00  0.00    -0.014 A 
BRANCH  34  35
ATOM     35  C   UNL A   1      39.842  28.890  29.336  1.00  0.00     0.031 A 
ATOM     36  C   UNL A   1      40.769  29.793  30.104  1.00  0.00     0.074 A 
ATOM     37  C   UNL A   1      40.263  27.681  28.918  1.00  0.00     0.049 A 
ATOM     38  N   UNL A   1      42.001  29.578  30.485  1.00  0.00    -0.248 NA
ATOM     39  C   UNL A   1      40.251  31.123  30.468  1.00  0.00     0.031 C 
ATOM     40  C   UNL A   1      39.467  26.729  28.141  1.00  0.00     0.029 A 
ATOM     41  N   UNL A   1      41.464  27.043  29.095  1.00  0.00    -0.354 N 
ATOM     42  C   UNL A   1      42.408  30.746  31.119  1.00  0.00     0.074 A 
ATOM     43  C   UNL A   1      41.320  31.691  31.003  1.00  0.00     0.031 C 
ATOM     44  C   UNL A   1      40.181  25.607  27.957  1.00  0.00     0.029 A 
ATOM     45  C   UNL A   1      41.502  25.781  28.552  1.00  0.00     0.049 A 
ATOM     46  H   UNL A   1      42.226  27.450  29.568  1.00  0.00     0.167 HD
ATOM     47  C   UNL A   1      43.573  31.003  31.764  1.00  0.00     0.031 A 
ATOM     48  C   UNL A   1      42.490  24.866  28.537  1.00  0.00     0.031 A 
ATOM     49  C   UNL A   1      44.657  30.063  31.856  1.00  0.00     0.049 A 
ATOM     50  C   UNL A   1      43.795  25.190  29.205  1.00  0.00     0.074 A 
ATOM     51  C   UNL A   1      45.867  30.204  32.513  1.00  0.00     0.029 A 
ATOM     52  N   UNL A   1      44.672  28.809  31.260  1.00  0.00    -0.354 N 
ATOM     53  N   UNL A   1      44.141  26.275  29.858  1.00  0.00    -0.248 NA
ATOM     54  C   UNL A   1      44.841  24.162  29.144  1.00  0.00     0.031 C 
ATOM     55  C   UNL A   1      46.640  29.068  32.250  1.00  0.00     0.029 A 
ATOM     56  C   UNL A   1      45.882  28.182  31.501  1.00  0.00     0.049 A 
ATOM     57  H   UNL A   1      43.929  28.424  30.739  1.00  0.00     0.167 HD
ATOM     58  C   UNL A   1      45.433  26.046  30.316  1.00  0.00     0.074 A 
ATOM     59  C   UNL A   1      45.800  24.714  29.876  1.00  0.00     0.031 C 
ATOM     60  C   UNL A   1      46.238  26.859  31.045  1.00  0.00     0.031 A 
BRANCH  47  61
ATOM     61  C   UNL A   1      43.726  32.370  32.388  1.00  0.00    -0.014 A 
ATOM     62  C   UNL A   1      43.330  32.617  33.717  1.00  0.00     0.010 A 
ATOM     63  C   UNL A   1      44.257  33.428  31.631  1.00  0.00     0.010 A 
ATOM     64  C   UNL A   1      43.386  33.909  34.247  1.00  0.00     0.020 A 
ATOM     65  C   UNL A   1      44.355  34.714  32.171  1.00  0.00     0.020 A 
ATOM     66  C   UNL A   1      43.890  34.952  33.465  1.00  0.00     0.054 A 
BRANCH  66  67
ATOM     67  S   UNL A   1      43.922  36.624  34.168  1.00  0.00     0.124 S 
ATOM     68  O   UNL A   1      44.570  36.395  35.457  1.00  0.00    -0.237 OA
ATOM     69  O   UNL A   1      44.715  37.365  33.189  1.00  0.00    -0.237 OA
ATOM     70  O   UNL A   1      42.513  36.998  34.237  1.00  0.00    -0.744 OA
ENDBRANCH  66  67
ENDBRANCH  47  61
BRANCH  48  71
ATOM     71  C   UNL A   1      42.254  23.540  27.904  1.00  0.00    -0.014 A 
ATOM     72  C   UNL A   1      42.651  23.311  26.574  1.00  0.00     0.010 A 
ATOM     73  C   UNL A   1      41.675  22.486  28.635  1.00  0.00     0.010 A 
ATOM     74  C   UNL A   1      42.475  22.055  25.988  1.00  0.00     0.020 A 
ATOM     75  C   UNL A   1      41.527  21.220  28.063  1.00  0.00     0.020 A 
ATOM     76  C   UNL A   1      41.925  21.013  26.741  1.00  0.00     0.054 A 
BRANCH  76  77
ATOM     77  S   UNL A   1      41.792  19.370  25.986  1.00  0.00     0.124 S 
ATOM     78  O   UNL A   1      40.363  19.279  25.703  1.00  0.00    -0.237 OA
ATOM     79  O   UNL A   1      42.663  19.492  24.820  1.00  0.00    -0.237 OA
ATOM     80  O   UNL A   1      42.284  18.473  27.029  1.00  0.00    -0.744 OA
ENDBRANCH  76  77
ENDBRANCH  48  71
BRANCH  60  81
ATOM     81  C   UNL A   1      47.589  26.321  31.444  1.00  0.00    -0.014 A 
ATOM     82  C   UNL A   1      47.795  25.693  32.686  1.00  0.00     0.010 A 
ATOM     83  C   UNL A   1      48.659  26.402  30.533  1.00  0.00     0.010 A 
ATOM     84  C   UNL A   1      49.055  25.189  33.022  1.00  0.00     0.020 A 
ATOM     85  C   UNL A   1      49.909  25.865  30.850  1.00  0.00     0.020 A 
ATOM     86  C   UNL A   1      50.102  25.274  32.099  1.00  0.00     0.054 A 
BRANCH  86  87
ATOM     87  S   UNL A   1      51.713  24.570  32.543  1.00  0.00     0.124 S 
ATOM     88  O   UNL A   1      51.531  23.160  32.214  1.00  0.00    -0.237 OA
ATOM     89  O   UNL A   1      52.631  25.306  31.675  1.00  0.00    -0.237 OA
ATOM     90  O   UNL A   1      51.842  24.867  33.968  1.00  0.00    -0.744 OA
ENDBRANCH  86  87
ENDBRANCH  60  81
ENDBRANCH  34  35
ENDBRANCH  26  29
ENDBRANCH  24  25
ENDBRANCH   1  24
TORSDOF 17
ENDMDL
