MODEL 1
REMARK VINA RESULT:      -9.3      0.000      0.000
REMARK SMILES CC(/C=C1\SC(=S)N(CC(=O)NCC(=O)NCCCNC(=O)c2ccc(-c3c4nc(c(-c5ccc(S(=O)(=O)[O-])cc5)c5ccc([nH]5)c(-c5ccc(S(=O)(=O)[O-])cc5)c5nc(c(-c6ccc(S(=O)(=O)[O-])cc6)c6ccc3[nH]6)C=C5)C=C4)cc2)C1=O)=C\c1ccccc1
REMARK SMILES IDX 17 1 16 2 14 3 15 4 13 6 12 7 10 8 11 9 9 11 8 12 3 13 4 14
REMARK SMILES IDX 5 15 83 16 6 17 84 18 7 19 2 20 1 21 85 22 86 23 87 24 91 25
REMARK SMILES IDX 88 26 90 27 89 28 18 29 19 30 20 31 21 32 22 34 23 35 24 36
REMARK SMILES IDX 82 37 25 38 81 39 26 40 27 41 28 42 75 43 29 44 80 45 74 46
REMARK SMILES IDX 76 47 30 48 79 49 73 50 72 51 31 53 61 54 42 55 60 56 43 57
REMARK SMILES IDX 46 58 59 59 77 60 44 61 45 62 58 64 78 65 47 66 32 67 33 68
REMARK SMILES IDX 41 69 34 70 40 71 35 72 36 73 37 74 38 75 39 76 62 77 63 78
REMARK SMILES IDX 71 79 64 80 70 81 65 82 66 83 67 84 68 85 69 86 48 87 49 88
REMARK SMILES IDX 57 89 50 90 56 91 51 92 52 93 53 94 54 95 55 96
REMARK H PARENT 16 5 12 10 20 33 76 52 46 63
REMARK Flexibility Score: inf
ROOT
ATOM      1  C   UNL A   1      34.721  33.444  31.584  1.00  0.00     0.117 C 
ENDROOT
BRANCH   1   2
ATOM      2  N   UNL A   1      35.347  32.148  31.681  1.00  0.00    -0.355 N 
ATOM      3  C   UNL A   1      36.351  31.781  32.535  1.00  0.00     0.239 C 
ATOM      4  O   UNL A   1      36.541  30.580  32.729  1.00  0.00    -0.273 OA
ATOM      5  H   UNL A   1      35.016  31.453  31.068  1.00  0.00     0.163 HD
BRANCH   3   6
ATOM      6  C   UNL A   1      37.092  32.853  33.355  1.00  0.00     0.216 C 
BRANCH   6   7
ATOM      7  N   UNL A   1      37.066  32.602  34.788  1.00  0.00    -0.345 N 
ATOM      8  C   UNL A   1      38.018  32.657  35.755  1.00  0.00     0.240 C 
ATOM      9  O   UNL A   1      37.603  32.573  36.916  1.00  0.00    -0.273 OA
ATOM     10  H   UNL A   1      36.179  32.339  35.125  1.00  0.00     0.164 HD
BRANCH   8  11
ATOM     11  C   UNL A   1      39.499  32.994  35.494  1.00  0.00     0.227 C 
BRANCH  11  12
ATOM     12  N   UNL A   1      40.486  31.921  35.668  1.00  0.00    -0.283 N 
ATOM     13  C   UNL A   1      41.827  28.853  34.273  1.00  0.00     0.024 C 
ATOM     14  C   UNL A   1      41.554  29.888  35.082  1.00  0.00     0.080 C 
ATOM     15  S   UNL A   1      42.424  30.414  36.463  1.00  0.00    -0.054 SA
ATOM     16  C   UNL A   1      40.438  30.841  34.801  1.00  0.00     0.266 C 
ATOM     17  C   UNL A   1      41.380  31.812  36.711  1.00  0.00     0.148 C 
ATOM     18  O   UNL A   1      39.641  30.699  33.885  1.00  0.00    -0.268 OA
ATOM     19  S   UNL A   1      41.538  32.798  38.048  1.00  0.00    -0.052 S 
BRANCH  13  20
ATOM     20  C   UNL A   1      42.912  27.872  34.350  1.00  0.00    -0.049 C 
ATOM     21  C   UNL A   1      44.256  28.380  34.789  1.00  0.00     0.044 C 
ATOM     22  C   UNL A   1      42.639  26.568  34.125  1.00  0.00     0.011 C 
BRANCH  22  23
ATOM     23  C   UNL A   1      43.463  25.368  34.360  1.00  0.00    -0.025 A 
ATOM     24  C   UNL A   1      44.265  24.879  33.317  1.00  0.00     0.008 A 
ATOM     25  C   UNL A   1      43.332  24.590  35.517  1.00  0.00     0.008 A 
ATOM     26  C   UNL A   1      44.959  23.672  33.451  1.00  0.00     0.001 A 
ATOM     27  C   UNL A   1      44.035  23.390  35.657  1.00  0.00     0.001 A 
ATOM     28  C   UNL A   1      44.850  22.932  34.626  1.00  0.00     0.000 A 
ENDBRANCH  22  23
ENDBRANCH  13  20
ENDBRANCH  11  12
ENDBRANCH   8  11
ENDBRANCH   6   7
ENDBRANCH   3   6
ENDBRANCH   1   2
BRANCH   1  29
ATOM     29  C   UNL A   1      34.436  33.890  30.155  1.00  0.00     0.042 C 
BRANCH  29  30
ATOM     30  C   UNL A   1      35.241  33.098  29.134  1.00  0.00     0.118 C 
BRANCH  30  31
ATOM     31  N   UNL A   1      34.400  32.174  28.381  1.00  0.00    -0.352 N 
ATOM     32  C   UNL A   1      34.644  30.917  27.893  1.00  0.00     0.251 C 
ATOM     33  H   UNL A   1      33.496  32.513  28.191  1.00  0.00     0.163 HD
ATOM     34  O   UNL A   1      33.833  30.391  27.137  1.00  0.00    -0.269 OA
BRANCH  32  35
ATOM     35  C   UNL A   1      35.886  30.209  28.210  1.00  0.00     0.039 A 
ATOM     36  C   UNL A   1      36.924  30.279  27.275  1.00  0.00     0.014 A 
ATOM     37  C   UNL A   1      36.048  29.520  29.409  1.00  0.00     0.014 A 
ATOM     38  C   UNL A   1      38.164  29.747  27.591  1.00  0.00     0.010 A 
ATOM     39  C   UNL A   1      37.308  29.083  29.768  1.00  0.00     0.010 A 
ATOM     40  C   UNL A   1      38.374  29.210  28.867  1.00  0.00    -0.014 A 
BRANCH  40  41
ATOM     41  C   UNL A   1      39.719  28.805  29.306  1.00  0.00     0.031 A 
ATOM     42  C   UNL A   1      40.565  29.782  30.061  1.00  0.00     0.074 A 
ATOM     43  C   UNL A   1      40.181  27.602  28.920  1.00  0.00     0.049 A 
ATOM     44  N   UNL A   1      41.815  29.680  30.417  1.00  0.00    -0.248 NA
ATOM     45  C   UNL A   1      39.934  31.064  30.424  1.00  0.00     0.031 C 
ATOM     46  C   UNL A   1      39.429  26.615  28.135  1.00  0.00     0.029 A 
ATOM     47  N   UNL A   1      41.393  27.005  29.123  1.00  0.00    -0.354 N 
ATOM     48  C   UNL A   1      42.130  30.893  31.015  1.00  0.00     0.074 A 
ATOM     49  C   UNL A   1      40.957  31.733  30.930  1.00  0.00     0.031 C 
ATOM     50  C   UNL A   1      40.186  25.523  27.956  1.00  0.00     0.029 A 
ATOM     51  C   UNL A   1      41.488  25.752  28.564  1.00  0.00     0.049 A 
ATOM     52  H   UNL A   1      42.129  27.431  29.621  1.00  0.00     0.167 HD
ATOM     53  C   UNL A   1      43.296  31.258  31.598  1.00  0.00     0.031 A 
ATOM     54  C   UNL A   1      42.522  24.892  28.544  1.00  0.00     0.031 A 
ATOM     55  C   UNL A   1      44.437  30.387  31.678  1.00  0.00     0.049 A 
ATOM     56  C   UNL A   1      43.795  25.309  29.224  1.00  0.00     0.074 A 
ATOM     57  C   UNL A   1      45.658  30.615  32.281  1.00  0.00     0.029 A 
ATOM     58  N   UNL A   1      44.484  29.107  31.137  1.00  0.00    -0.354 N 
ATOM     59  N   UNL A   1      44.068  26.443  29.829  1.00  0.00    -0.248 NA
ATOM     60  C   UNL A   1      44.891  24.336  29.230  1.00  0.00     0.031 C 
ATOM     61  C   UNL A   1      46.458  29.487  32.073  1.00  0.00     0.029 A 
ATOM     62  C   UNL A   1      45.718  28.536  31.385  1.00  0.00     0.049 A 
ATOM     63  H   UNL A   1      43.748  28.672  30.650  1.00  0.00     0.167 HD
ATOM     64  C   UNL A   1      45.363  26.314  30.307  1.00  0.00     0.074 A 
ATOM     65  C   UNL A   1      45.811  24.984  29.934  1.00  0.00     0.031 C 
ATOM     66  C   UNL A   1      46.119  27.207  30.992  1.00  0.00     0.031 A 
BRANCH  53  67
ATOM     67  C   UNL A   1      43.377  32.648  32.169  1.00  0.00    -0.014 A 
ATOM     68  C   UNL A   1      43.337  32.868  33.559  1.00  0.00     0.010 A 
ATOM     69  C   UNL A   1      43.481  33.755  31.307  1.00  0.00     0.010 A 
ATOM     70  C   UNL A   1      43.341  34.167  34.074  1.00  0.00     0.020 A 
ATOM     71  C   UNL A   1      43.517  35.057  31.820  1.00  0.00     0.020 A 
ATOM     72  C   UNL A   1      43.424  35.254  33.199  1.00  0.00     0.054 A 
BRANCH  72  73
ATOM     73  S   UNL A   1      43.427  36.930  33.893  1.00  0.00     0.124 S 
ATOM     74  O   UNL A   1      44.396  36.803  34.980  1.00  0.00    -0.237 OA
ATOM     75  O   UNL A   1      43.858  37.745  32.760  1.00  0.00    -0.237 OA
ATOM     76  O   UNL A   1      42.044  37.135  34.313  1.00  0.00    -0.744 OA
ENDBRANCH  72  73
ENDBRANCH  53  67
BRANCH  54  77
ATOM     77  C   UNL A   1      42.372  23.563  27.894  1.00  0.00    -0.014 A 
ATOM     78  C   UNL A   1      43.094  23.258  26.727  1.00  0.00     0.010 A 
ATOM     79  C   UNL A   1      41.550  22.573  28.464  1.00  0.00     0.010 A 
ATOM     80  C   UNL A   1      42.988  21.996  26.135  1.00  0.00     0.020 A 
ATOM     81  C   UNL A   1      41.460  21.300  27.889  1.00  0.00     0.020 A 
ATOM     82  C   UNL A   1      42.173  21.024  26.721  1.00  0.00     0.054 A 
BRANCH  82  83
ATOM     83  S   UNL A   1      42.094  19.376  25.963  1.00  0.00     0.124 S 
ATOM     84  O   UNL A   1      42.915  19.552  24.770  1.00  0.00    -0.237 OA
ATOM     85  O   UNL A   1      42.662  18.523  27.003  1.00  0.00    -0.237 OA
ATOM     86  O   UNL A   1      40.667  19.181  25.718  1.00  0.00    -0.744 OA
ENDBRANCH  82  83
ENDBRANCH  54  77
BRANCH  66  87
ATOM     87  C   UNL A   1      47.491  26.758  31.403  1.00  0.00    -0.014 A 
ATOM     88  C   UNL A   1      47.692  26.043  32.596  1.00  0.00     0.010 A 
ATOM     89  C   UNL A   1      48.580  27.000  30.546  1.00  0.00     0.010 A 
ATOM     90  C   UNL A   1      48.970  25.599  32.939  1.00  0.00     0.020 A 
ATOM     91  C   UNL A   1      49.854  26.535  30.874  1.00  0.00     0.020 A 
ATOM     92  C   UNL A   1      50.042  25.846  32.075  1.00  0.00     0.054 A 
BRANCH  92  93
ATOM     93  S   UNL A   1      51.681  25.211  32.516  1.00  0.00     0.124 S 
ATOM     94  O   UNL A   1      52.456  25.512  31.316  1.00  0.00    -0.237 OA
ATOM     95  O   UNL A   1      52.022  25.997  33.699  1.00  0.00    -0.237 OA
ATOM     96  O   UNL A   1      51.445  23.791  32.766  1.00  0.00    -0.744 OA
ENDBRANCH  92  93
ENDBRANCH  66  87
ENDBRANCH  40  41
ENDBRANCH  32  35
ENDBRANCH  30  31
ENDBRANCH  29  30
ENDBRANCH   1  29
TORSDOF 18
ENDMDL
MODEL 2
REMARK VINA RESULT:      -9.3      5.232      9.448
REMARK SMILES CC(/C=C1\SC(=S)N(CC(=O)NCC(=O)NCCCNC(=O)c2ccc(-c3c4nc(c(-c5ccc(S(=O)(=O)[O-])cc5)c5ccc([nH]5)c(-c5ccc(S(=O)(=O)[O-])cc5)c5nc(c(-c6ccc(S(=O)(=O)[O-])cc6)c6ccc3[nH]6)C=C5)C=C4)cc2)C1=O)=C\c1ccccc1
REMARK SMILES IDX 17 1 16 2 14 3 15 4 13 6 12 7 10 8 11 9 9 11 8 12 3 13 4 14
REMARK SMILES IDX 5 15 83 16 6 17 84 18 7 19 2 20 1 21 85 22 86 23 87 24 91 25
REMARK SMILES IDX 88 26 90 27 89 28 18 29 19 30 20 31 21 32 22 34 23 35 24 36
REMARK SMILES IDX 82 37 25 38 81 39 26 40 27 41 28 42 75 43 29 44 80 45 74 46
REMARK SMILES IDX 76 47 30 48 79 49 73 50 72 51 31 53 61 54 42 55 60 56 43 57
REMARK SMILES IDX 46 58 59 59 77 60 44 61 45 62 58 64 78 65 47 66 32 67 33 68
REMARK SMILES IDX 41 69 34 70 40 71 35 72 36 73 37 74 38 75 39 76 62 77 63 78
REMARK SMILES IDX 71 79 64 80 70 81 65 82 66 83 67 84 68 85 69 86 48 87 49 88
REMARK SMILES IDX 57 89 50 90 56 91 51 92 52 93 53 94 54 95 55 96
REMARK H PARENT 16 5 12 10 20 33 76 52 46 63
REMARK Flexibility Score: inf
ROOT
ATOM      1  C   UNL A   1      32.714  30.231  26.516  1.00  0.00     0.117 C 
ENDROOT
BRANCH   1   2
ATOM      2  N   UNL A   1      31.776  29.203  26.898  1.00  0.00    -0.355 N 
ATOM      3  C   UNL A   1      31.646  27.960  26.342  1.00  0.00     0.239 C 
ATOM      4  O   UNL A   1      31.047  27.095  26.983  1.00  0.00    -0.273 OA
ATOM      5  H   UNL A   1      31.164  29.420  27.637  1.00  0.00     0.163 HD
BRANCH   3   6
ATOM      6  C   UNL A   1      32.388  27.620  25.037  1.00  0.00     0.216 C 
BRANCH   6   7
ATOM      7  N   UNL A   1      31.732  28.142  23.848  1.00  0.00    -0.345 N 
ATOM      8  C   UNL A   1      30.797  27.629  23.006  1.00  0.00     0.240 C 
ATOM      9  O   UNL A   1      30.312  28.429  22.199  1.00  0.00    -0.273 OA
ATOM     10  H   UNL A   1      32.024  29.049  23.604  1.00  0.00     0.164 HD
BRANCH   8  11
ATOM     11  C   UNL A   1      30.205  26.212  23.129  1.00  0.00     0.227 C 
BRANCH  11  12
ATOM     12  N   UNL A   1      31.141  25.082  23.202  1.00  0.00    -0.283 N 
ATOM     13  C   UNL A   1      32.182  22.196  25.138  1.00  0.00     0.024 C 
ATOM     14  C   UNL A   1      32.112  23.178  24.225  1.00  0.00     0.080 C 
ATOM     15  S   UNL A   1      32.946  23.300  22.732  1.00  0.00    -0.054 SA
ATOM     16  C   UNL A   1      31.155  24.316  24.357  1.00  0.00     0.266 C 
ATOM     17  C   UNL A   1      32.121  24.789  22.279  1.00  0.00     0.148 C 
ATOM     18  O   UNL A   1      30.442  24.492  25.335  1.00  0.00    -0.268 OA
ATOM     19  S   UNL A   1      32.542  25.642  20.907  1.00  0.00    -0.052 S 
BRANCH  13  20
ATOM     20  C   UNL A   1      32.999  20.980  25.136  1.00  0.00    -0.049 C 
ATOM     21  C   UNL A   1      34.331  21.056  25.823  1.00  0.00     0.044 C 
ATOM     22  C   UNL A   1      32.485  19.844  24.615  1.00  0.00     0.011 C 
BRANCH  22  23
ATOM     23  C   UNL A   1      32.977  18.455  24.690  1.00  0.00    -0.025 A 
ATOM     24  C   UNL A   1      33.688  17.926  23.602  1.00  0.00     0.008 A 
ATOM     25  C   UNL A   1      32.599  17.587  25.722  1.00  0.00     0.008 A 
ATOM     26  C   UNL A   1      34.056  16.577  23.574  1.00  0.00     0.001 A 
ATOM     27  C   UNL A   1      32.977  16.241  25.701  1.00  0.00     0.001 A 
ATOM     28  C   UNL A   1      33.709  15.737  24.629  1.00  0.00     0.000 A 
ENDBRANCH  22  23
ENDBRANCH  13  20
ENDBRANCH  11  12
ENDBRANCH   8  11
ENDBRANCH   6   7
ENDBRANCH   3   6
ENDBRANCH   1   2
BRANCH   1  29
ATOM     29  C   UNL A   1      32.293  31.637  26.921  1.00  0.00     0.042 C 
BRANCH  29  30
ATOM     30  C   UNL A   1      33.459  32.454  27.463  1.00  0.00     0.118 C 
BRANCH  30  31
ATOM     31  N   UNL A   1      33.038  33.787  27.879  1.00  0.00    -0.352 N 
ATOM     32  C   UNL A   1      33.432  34.576  28.927  1.00  0.00     0.251 C 
ATOM     33  H   UNL A   1      32.349  34.192  27.304  1.00  0.00     0.163 HD
ATOM     34  O   UNL A   1      32.811  35.606  29.179  1.00  0.00    -0.269 OA
BRANCH  32  35
ATOM     35  C   UNL A   1      34.546  34.186  29.793  1.00  0.00     0.039 A 
ATOM     36  C   UNL A   1      34.238  33.476  30.958  1.00  0.00     0.014 A 
ATOM     37  C   UNL A   1      35.867  34.476  29.459  1.00  0.00     0.014 A 
ATOM     38  C   UNL A   1      35.264  32.962  31.735  1.00  0.00     0.010 A 
ATOM     39  C   UNL A   1      36.887  33.877  30.172  1.00  0.00     0.010 A 
ATOM     40  C   UNL A   1      36.588  33.105  31.303  1.00  0.00    -0.014 A 
BRANCH  40  41
ATOM     41  C   UNL A   1      37.689  32.418  31.997  1.00  0.00     0.031 A 
ATOM     42  C   UNL A   1      38.142  32.926  33.329  1.00  0.00     0.074 A 
ATOM     43  C   UNL A   1      38.321  31.418  31.355  1.00  0.00     0.049 A 
ATOM     44  N   UNL A   1      39.173  32.558  34.040  1.00  0.00    -0.248 NA
ATOM     45  C   UNL A   1      37.359  34.025  33.921  1.00  0.00     0.031 C 
ATOM     46  C   UNL A   1      37.967  30.902  30.027  1.00  0.00     0.029 A 
ATOM     47  N   UNL A   1      39.398  30.661  31.725  1.00  0.00    -0.354 N 
ATOM     48  C   UNL A   1      39.181  33.400  35.144  1.00  0.00     0.074 A 
ATOM     49  C   UNL A   1      38.084  34.329  34.986  1.00  0.00     0.031 C 
ATOM     50  C   UNL A   1      38.789  29.891  29.712  1.00  0.00     0.029 A 
ATOM     51  C   UNL A   1      39.757  29.722  30.786  1.00  0.00     0.049 A 
ATOM     52  H   UNL A   1      39.872  30.777  32.580  1.00  0.00     0.167 HD
ATOM     53  C   UNL A   1      40.025  33.382  36.202  1.00  0.00     0.031 A 
ATOM     54  C   UNL A   1      40.765  28.832  30.797  1.00  0.00     0.031 A 
ATOM     55  C   UNL A   1      41.094  32.430  36.332  1.00  0.00     0.049 A 
ATOM     56  C   UNL A   1      41.669  28.811  31.997  1.00  0.00     0.074 A 
ATOM     57  C   UNL A   1      41.989  32.272  37.372  1.00  0.00     0.029 A 
ATOM     58  N   UNL A   1      41.404  31.466  35.380  1.00  0.00    -0.354 N 
ATOM     59  N   UNL A   1      41.639  29.583  33.059  1.00  0.00    -0.248 NA
ATOM     60  C   UNL A   1      42.731  27.800  32.007  1.00  0.00     0.031 C 
ATOM     61  C   UNL A   1      42.864  31.234  37.033  1.00  0.00     0.029 A 
ATOM     62  C   UNL A   1      42.482  30.713  35.805  1.00  0.00     0.049 A 
ATOM     63  H   UNL A   1      40.926  31.337  34.529  1.00  0.00     0.167 HD
ATOM     64  C   UNL A   1      42.667  29.138  33.878  1.00  0.00     0.074 A 
ATOM     65  C   UNL A   1      43.287  28.019  33.192  1.00  0.00     0.031 C 
ATOM     66  C   UNL A   1      43.066  29.607  35.086  1.00  0.00     0.031 A 
BRANCH  53  67
ATOM     67  C   UNL A   1      39.817  34.422  37.269  1.00  0.00    -0.014 A 
ATOM     68  C   UNL A   1      40.410  35.696  37.170  1.00  0.00     0.010 A 
ATOM     69  C   UNL A   1      39.029  34.124  38.395  1.00  0.00     0.010 A 
ATOM     70  C   UNL A   1      40.267  36.628  38.202  1.00  0.00     0.020 A 
ATOM     71  C   UNL A   1      38.858  35.065  39.416  1.00  0.00     0.020 A 
ATOM     72  C   UNL A   1      39.497  36.304  39.322  1.00  0.00     0.054 A 
BRANCH  72  73
ATOM     73  S   UNL A   1      39.328  37.531  40.646  1.00  0.00     0.124 S 
ATOM     74  O   UNL A   1      38.320  38.433  40.093  1.00  0.00    -0.237 OA
ATOM     75  O   UNL A   1      38.891  36.722  41.780  1.00  0.00    -0.237 OA
ATOM     76  O   UNL A   1      40.669  38.096  40.768  1.00  0.00    -0.744 OA
ENDBRANCH  72  73
ENDBRANCH  53  67
BRANCH  54  77
ATOM     77  C   UNL A   1      40.935  27.886  29.663  1.00  0.00    -0.014 A 
ATOM     78  C   UNL A   1      42.046  27.995  28.808  1.00  0.00     0.010 A 
ATOM     79  C   UNL A   1      40.020  26.836  29.459  1.00  0.00     0.010 A 
ATOM     80  C   UNL A   1      42.232  27.083  27.765  1.00  0.00     0.020 A 
ATOM     81  C   UNL A   1      40.215  25.907  28.432  1.00  0.00     0.020 A 
ATOM     82  C   UNL A   1      41.316  26.043  27.585  1.00  0.00     0.054 A 
BRANCH  82  83
ATOM     83  S   UNL A   1      41.609  24.841  26.256  1.00  0.00     0.124 S 
ATOM     84  O   UNL A   1      42.990  24.443  26.507  1.00  0.00    -0.237 OA
ATOM     85  O   UNL A   1      40.598  23.822  26.524  1.00  0.00    -0.237 OA
ATOM     86  O   UNL A   1      41.392  25.618  25.038  1.00  0.00    -0.744 OA
ENDBRANCH  82  83
ENDBRANCH  54  77
BRANCH  66  87
ATOM     87  C   UNL A   1      44.207  28.888  35.747  1.00  0.00    -0.014 A 
ATOM     88  C   UNL A   1      43.976  27.790  36.594  1.00  0.00     0.010 A 
ATOM     89  C   UNL A   1      45.527  29.279  35.461  1.00  0.00     0.010 A 
ATOM     90  C   UNL A   1      45.052  27.110  37.166  1.00  0.00     0.020 A 
ATOM     91  C   UNL A   1      46.604  28.585  36.011  1.00  0.00     0.020 A 
ATOM     92  C   UNL A   1      46.359  27.511  36.869  1.00  0.00     0.054 A 
BRANCH  92  93
ATOM     93  S   UNL A   1      47.739  26.576  37.580  1.00  0.00     0.124 S 
ATOM     94  O   UNL A   1      48.786  27.592  37.656  1.00  0.00    -0.237 OA
ATOM     95  O   UNL A   1      47.199  26.132  38.863  1.00  0.00    -0.237 OA
ATOM     96  O   UNL A   1      47.973  25.512  36.608  1.00  0.00    -0.744 OA
ENDBRANCH  92  93
ENDBRANCH  66  87
ENDBRANCH  40  41
ENDBRANCH  32  35
ENDBRANCH  30  31
ENDBRANCH  29  30
ENDBRANCH   1  29
TORSDOF 18
ENDMDL
MODEL 3
REMARK VINA RESULT:      -9.0      5.141      9.238
REMARK SMILES CC(/C=C1\SC(=S)N(CC(=O)NCC(=O)NCCCNC(=O)c2ccc(-c3c4nc(c(-c5ccc(S(=O)(=O)[O-])cc5)c5ccc([nH]5)c(-c5ccc(S(=O)(=O)[O-])cc5)c5nc(c(-c6ccc(S(=O)(=O)[O-])cc6)c6ccc3[nH]6)C=C5)C=C4)cc2)C1=O)=C\c1ccccc1
REMARK SMILES IDX 17 1 16 2 14 3 15 4 13 6 12 7 10 8 11 9 9 11 8 12 3 13 4 14
REMARK SMILES IDX 5 15 83 16 6 17 84 18 7 19 2 20 1 21 85 22 86 23 87 24 91 25
REMARK SMILES IDX 88 26 90 27 89 28 18 29 19 30 20 31 21 32 22 34 23 35 24 36
REMARK SMILES IDX 82 37 25 38 81 39 26 40 27 41 28 42 75 43 29 44 80 45 74 46
REMARK SMILES IDX 76 47 30 48 79 49 73 50 72 51 31 53 61 54 42 55 60 56 43 57
REMARK SMILES IDX 46 58 59 59 77 60 44 61 45 62 58 64 78 65 47 66 32 67 33 68
REMARK SMILES IDX 41 69 34 70 40 71 35 72 36 73 37 74 38 75 39 76 62 77 63 78
REMARK SMILES IDX 71 79 64 80 70 81 65 82 66 83 67 84 68 85 69 86 48 87 49 88
REMARK SMILES IDX 57 89 50 90 56 91 51 92 52 93 53 94 54 95 55 96
REMARK H PARENT 16 5 12 10 20 33 76 52 46 63
REMARK Flexibility Score: inf
ROOT
ATOM      1  C   UNL A   1      33.675  32.408  28.678  1.00  0.00     0.117 C 
ENDROOT
BRANCH   1   2
ATOM      2  N   UNL A   1      34.773  31.487  28.839  1.00  0.00    -0.355 N 
ATOM      3  C   UNL A   1      35.063  30.406  28.054  1.00  0.00     0.239 C 
ATOM      4  O   UNL A   1      36.198  29.929  28.114  1.00  0.00    -0.273 OA
ATOM      5  H   UNL A   1      35.380  31.655  29.596  1.00  0.00     0.163 HD
BRANCH   3   6
ATOM      6  C   UNL A   1      34.047  29.926  27.002  1.00  0.00     0.216 C 
BRANCH   6   7
ATOM      7  N   UNL A   1      32.955  29.149  27.566  1.00  0.00    -0.345 N 
ATOM      8  C   UNL A   1      31.884  28.520  27.015  1.00  0.00     0.240 C 
ATOM      9  O   UNL A   1      31.253  27.779  27.776  1.00  0.00    -0.273 OA
ATOM     10  H   UNL A   1      33.000  29.062  28.546  1.00  0.00     0.164 HD
BRANCH   8  11
ATOM     11  C   UNL A   1      31.548  28.539  25.512  1.00  0.00     0.227 C 
BRANCH  11  12
ATOM     12  N   UNL A   1      31.504  27.253  24.804  1.00  0.00    -0.283 N 
ATOM     13  C   UNL A   1      33.184  24.080  24.285  1.00  0.00     0.024 C 
ATOM     14  C   UNL A   1      32.349  25.127  24.188  1.00  0.00     0.080 C 
ATOM     15  S   UNL A   1      30.840  25.209  23.377  1.00  0.00    -0.054 SA
ATOM     16  C   UNL A   1      32.598  26.409  24.911  1.00  0.00     0.266 C 
ATOM     17  C   UNL A   1      30.528  26.857  23.917  1.00  0.00     0.148 C 
ATOM     18  O   UNL A   1      33.611  26.636  25.557  1.00  0.00    -0.268 OA
ATOM     19  S   UNL A   1      29.209  27.722  23.372  1.00  0.00    -0.052 S 
BRANCH  13  20
ATOM     20  C   UNL A   1      33.063  22.737  23.712  1.00  0.00    -0.049 C 
ATOM     21  C   UNL A   1      33.122  22.629  22.216  1.00  0.00     0.044 C 
ATOM     22  C   UNL A   1      33.004  21.671  24.541  1.00  0.00     0.011 C 
BRANCH  22  23
ATOM     23  C   UNL A   1      33.115  20.230  24.248  1.00  0.00    -0.025 A 
ATOM     24  C   UNL A   1      34.230  19.523  24.722  1.00  0.00     0.008 A 
ATOM     25  C   UNL A   1      32.248  19.583  23.358  1.00  0.00     0.008 A 
ATOM     26  C   UNL A   1      34.444  18.190  24.358  1.00  0.00     0.001 A 
ATOM     27  C   UNL A   1      32.453  18.246  23.003  1.00  0.00     0.001 A 
ATOM     28  C   UNL A   1      33.548  17.549  23.505  1.00  0.00     0.000 A 
ENDBRANCH  22  23
ENDBRANCH  13  20
ENDBRANCH  11  12
ENDBRANCH   8  11
ENDBRANCH   6   7
ENDBRANCH   3   6
ENDBRANCH   1   2
BRANCH   1  29
ATOM     29  C   UNL A   1      34.010  33.633  27.837  1.00  0.00     0.042 C 
BRANCH  29  30
ATOM     30  C   UNL A   1      34.488  34.802  28.688  1.00  0.00     0.118 C 
BRANCH  30  31
ATOM     31  N   UNL A   1      33.483  35.205  29.666  1.00  0.00    -0.352 N 
ATOM     32  C   UNL A   1      33.419  35.034  31.023  1.00  0.00     0.251 C 
ATOM     33  H   UNL A   1      32.716  35.688  29.282  1.00  0.00     0.163 HD
ATOM     34  O   UNL A   1      32.385  35.315  31.622  1.00  0.00    -0.269 OA
BRANCH  32  35
ATOM     35  C   UNL A   1      34.543  34.464  31.769  1.00  0.00     0.039 A 
ATOM     36  C   UNL A   1      34.471  33.109  32.107  1.00  0.00     0.014 A 
ATOM     37  C   UNL A   1      35.658  35.228  32.104  1.00  0.00     0.014 A 
ATOM     38  C   UNL A   1      35.568  32.491  32.686  1.00  0.00     0.010 A 
ATOM     39  C   UNL A   1      36.788  34.592  32.583  1.00  0.00     0.010 A 
ATOM     40  C   UNL A   1      36.751  33.218  32.860  1.00  0.00    -0.014 A 
BRANCH  40  41
ATOM     41  C   UNL A   1      37.990  32.556  33.296  1.00  0.00     0.031 A 
ATOM     42  C   UNL A   1      38.505  32.809  34.679  1.00  0.00     0.074 A 
ATOM     43  C   UNL A   1      38.675  31.826  32.396  1.00  0.00     0.049 A 
ATOM     44  N   UNL A   1      39.637  32.440  35.212  1.00  0.00    -0.248 NA
ATOM     45  C   UNL A   1      37.655  33.624  35.564  1.00  0.00     0.031 C 
ATOM     46  C   UNL A   1      38.259  31.579  31.010  1.00  0.00     0.029 A 
ATOM     47  N   UNL A   1      39.867  31.166  32.504  1.00  0.00    -0.354 N 
ATOM     48  C   UNL A   1      39.649  33.004  36.481  1.00  0.00     0.074 A 
ATOM     49  C   UNL A   1      38.437  33.779  36.620  1.00  0.00     0.031 C 
ATOM     50  C   UNL A   1      39.164  30.792  30.411  1.00  0.00     0.029 A 
ATOM     51  C   UNL A   1      40.245  30.524  31.348  1.00  0.00     0.049 A 
ATOM     52  H   UNL A   1      40.404  31.153  33.330  1.00  0.00     0.167 HD
ATOM     53  C   UNL A   1      40.588  32.867  37.446  1.00  0.00     0.031 A 
ATOM     54  C   UNL A   1      41.351  29.807  31.081  1.00  0.00     0.031 A 
ATOM     55  C   UNL A   1      41.774  32.072  37.276  1.00  0.00     0.049 A 
ATOM     56  C   UNL A   1      42.363  29.643  32.179  1.00  0.00     0.074 A 
ATOM     57  C   UNL A   1      42.778  31.812  38.188  1.00  0.00     0.029 A 
ATOM     58  N   UNL A   1      42.105  31.401  36.105  1.00  0.00    -0.354 N 
ATOM     59  N   UNL A   1      42.342  30.144  33.394  1.00  0.00    -0.248 NA
ATOM     60  C   UNL A   1      43.536  28.818  31.880  1.00  0.00     0.031 C 
ATOM     61  C   UNL A   1      43.736  31.011  37.556  1.00  0.00     0.029 A 
ATOM     62  C   UNL A   1      43.304  30.732  36.268  1.00  0.00     0.049 A 
ATOM     63  H   UNL A   1      41.566  31.401  35.281  1.00  0.00     0.167 HD
ATOM     64  C   UNL A   1      43.492  29.676  34.015  1.00  0.00     0.074 A 
ATOM     65  C   UNL A   1      44.174  28.839  33.044  1.00  0.00     0.031 C 
ATOM     66  C   UNL A   1      43.946  29.911  35.270  1.00  0.00     0.031 A 
BRANCH  53  67
ATOM     67  C   UNL A   1      40.359  33.599  38.741  1.00  0.00    -0.014 A 
ATOM     68  C   UNL A   1      40.883  34.890  38.950  1.00  0.00     0.010 A 
ATOM     69  C   UNL A   1      39.623  32.988  39.771  1.00  0.00     0.010 A 
ATOM     70  C   UNL A   1      40.724  35.530  40.182  1.00  0.00     0.020 A 
ATOM     71  C   UNL A   1      39.434  33.638  40.996  1.00  0.00     0.020 A 
ATOM     72  C   UNL A   1      40.006  34.897  41.200  1.00  0.00     0.054 A 
BRANCH  72  73
ATOM     73  S   UNL A   1      39.814  35.749  42.789  1.00  0.00     0.124 S 
ATOM     74  O   UNL A   1      38.371  35.661  43.005  1.00  0.00    -0.237 OA
ATOM     75  O   UNL A   1      40.633  34.941  43.688  1.00  0.00    -0.237 OA
ATOM     76  O   UNL A   1      40.323  37.093  42.526  1.00  0.00    -0.744 OA
ENDBRANCH  72  73
ENDBRANCH  53  67
BRANCH  54  77
ATOM     77  C   UNL A   1      41.524  29.175  29.746  1.00  0.00    -0.014 A 
ATOM     78  C   UNL A   1      42.190  29.863  28.717  1.00  0.00     0.010 A 
ATOM     79  C   UNL A   1      41.074  27.863  29.509  1.00  0.00     0.010 A 
ATOM     80  C   UNL A   1      42.392  29.258  27.473  1.00  0.00     0.020 A 
ATOM     81  C   UNL A   1      41.295  27.244  28.274  1.00  0.00     0.020 A 
ATOM     82  C   UNL A   1      41.945  27.951  27.260  1.00  0.00     0.054 A 
BRANCH  82  83
ATOM     83  S   UNL A   1      42.267  27.168  25.653  1.00  0.00     0.124 S 
ATOM     84  O   UNL A   1      42.286  28.318  24.755  1.00  0.00    -0.237 OA
ATOM     85  O   UNL A   1      43.554  26.515  25.873  1.00  0.00    -0.237 OA
ATOM     86  O   UNL A   1      41.136  26.258  25.484  1.00  0.00    -0.744 OA
ENDBRANCH  82  83
ENDBRANCH  54  77
BRANCH  66  87
ATOM     87  C   UNL A   1      45.225  29.230  35.665  1.00  0.00    -0.014 A 
ATOM     88  C   UNL A   1      46.459  29.894  35.561  1.00  0.00     0.010 A 
ATOM     89  C   UNL A   1      45.176  27.934  36.207  1.00  0.00     0.010 A 
ATOM     90  C   UNL A   1      47.631  29.257  35.972  1.00  0.00     0.020 A 
ATOM     91  C   UNL A   1      46.343  27.305  36.642  1.00  0.00     0.020 A 
ATOM     92  C   UNL A   1      47.565  27.969  36.511  1.00  0.00     0.054 A 
BRANCH  92  93
ATOM     93  S   UNL A   1      49.095  27.187  37.089  1.00  0.00     0.124 S 
ATOM     94  O   UNL A   1      49.007  25.862  36.481  1.00  0.00    -0.237 OA
ATOM     95  O   UNL A   1      50.129  28.062  36.543  1.00  0.00    -0.237 OA
ATOM     96  O   UNL A   1      48.969  27.214  38.544  1.00  0.00    -0.744 OA
ENDBRANCH  92  93
ENDBRANCH  66  87
ENDBRANCH  40  41
ENDBRANCH  32  35
ENDBRANCH  30  31
ENDBRANCH  29  30
ENDBRANCH   1  29
TORSDOF 18
ENDMDL
