MODEL 1
REMARK VINA RESULT:     -12.1      0.000      0.000
REMARK SMILES NC(=O)c1c(-c2ccc(Cl)cc2)csc1NC(=O)[C@H]1[C@@H](C(=O)NCCCNC(=O)c2ccc(-c3c4nc(c(-c5ccc(S(=O)(=O)[O-])cc5)c5ccc([nH]5)c(-c5ccc(S(=O)(=O)[O-])cc5)c5nc(c(-c6ccc(S(=O)(=O)[O-])cc6)c6ccc3[nH]6)C=C5)C=C4)cc2)[C@@H]2CC[C@H]1O2
REMARK SMILES IDX 25 1 24 2 23 3 21 4 22 5 20 7 19 8 93 9 90 10 92 11 94 12
REMARK SMILES IDX 91 13 17 14 16 15 18 17 15 18 4 19 5 20 13 21 14 22 2 23
REMARK SMILES IDX 1 24 3 27 6 28 7 29 12 30 8 31 11 32 9 33 10 34 26 35 27 36
REMARK SMILES IDX 28 37 29 39 30 40 31 41 89 42 32 43 88 44 33 45 34 46 35 47
REMARK SMILES IDX 82 48 36 49 87 50 81 51 83 52 37 53 86 54 80 55 79 56 38 58
REMARK SMILES IDX 68 59 49 60 67 61 50 62 53 63 66 64 84 65 51 66 52 67 65 69
REMARK SMILES IDX 85 70 54 71 39 72 40 73 48 74 41 75 47 76 42 77 43 78 44 79
REMARK SMILES IDX 45 80 46 81 69 82 70 83 78 84 71 85 77 86 72 87 73 88 74 89
REMARK SMILES IDX 75 90 76 91 55 92 56 93 64 94 57 95 63 96 58 97 59 98 60 99
REMARK SMILES IDX 61 100 62 101
REMARK H PARENT 23 6 16 16 1 25 1 26 27 38 83 57 53 68
REMARK Flexibility Score: inf
ROOT
ATOM      1  C   UNL A   1      33.672  27.619  26.586  1.00  0.00     0.042 C 
ENDROOT
BRANCH   1   2
ATOM      2  C   UNL A   1      32.171  27.339  26.415  1.00  0.00     0.117 C 
BRANCH   2   3
ATOM      3  N   UNL A   1      31.785  26.038  26.924  1.00  0.00    -0.356 N 
ATOM      4  C   UNL A   1      32.082  24.751  26.657  1.00  0.00     0.226 C 
ATOM      5  O   UNL A   1      31.457  23.956  27.374  1.00  0.00    -0.275 OA
ATOM      6  H   UNL A   1      31.133  26.115  27.657  1.00  0.00     0.163 HD
BRANCH   4   7
ATOM      7  C   UNL A   1      33.246  24.252  25.797  1.00  0.00     0.122 C 
ATOM      8  C   UNL A   1      33.152  23.368  24.540  1.00  0.00     0.123 C 
ATOM      9  C   UNL A   1      33.761  22.029  25.013  1.00  0.00     0.132 C 
ATOM     10  C   UNL A   1      34.139  23.349  26.686  1.00  0.00     0.132 C 
ATOM     11  C   UNL A   1      35.281  22.086  25.011  1.00  0.00     0.035 C 
ATOM     12  O   UNL A   1      33.537  22.059  26.439  1.00  0.00    -0.373 OA
ATOM     13  C   UNL A   1      35.539  23.136  26.090  1.00  0.00     0.035 C 
BRANCH   8  14
ATOM     14  C   UNL A   1      31.833  23.029  23.900  1.00  0.00     0.231 C 
ATOM     15  N   UNL A   1      30.992  23.989  23.392  1.00  0.00    -0.317 N 
ATOM     16  H   UNL A   1      30.075  23.658  23.251  1.00  0.00     0.170 HD
ATOM     17  O   UNL A   1      31.485  21.851  23.804  1.00  0.00    -0.274 OA
BRANCH  15  18
ATOM     18  C   UNL A   1      31.145  25.327  23.031  1.00  0.00     0.108 A 
ATOM     19  C   UNL A   1      30.305  26.385  23.390  1.00  0.00     0.082 A 
ATOM     20  C   UNL A   1      30.743  27.634  22.785  1.00  0.00     0.007 A 
ATOM     21  C   UNL A   1      31.870  27.452  22.011  1.00  0.00     0.076 A 
ATOM     22  S   UNL A   1      32.328  25.828  21.926  1.00  0.00    -0.125 S 
BRANCH  19  23
ATOM     23  C   UNL A   1      29.151  26.175  24.262  1.00  0.00     0.252 C 
ATOM     24  N   UNL A   1      27.924  26.419  23.725  1.00  0.00    -0.365 N 
ATOM     25  H   UNL A   1      27.114  26.293  24.270  1.00  0.00     0.159 HD
ATOM     26  H   UNL A   1      27.846  26.720  22.791  1.00  0.00     0.159 HD
ATOM     27  O   UNL A   1      29.262  25.743  25.407  1.00  0.00    -0.269 OA
ENDBRANCH  19  23
BRANCH  20  28
ATOM     28  C   UNL A   1      30.184  28.977  22.892  1.00  0.00    -0.017 A 
ATOM     29  C   UNL A   1      29.498  29.527  21.799  1.00  0.00     0.010 A 
ATOM     30  C   UNL A   1      30.338  29.733  24.060  1.00  0.00     0.010 A 
ATOM     31  C   UNL A   1      28.973  30.820  21.870  1.00  0.00     0.021 A 
ATOM     32  C   UNL A   1      29.808  31.025  24.131  1.00  0.00     0.021 A 
ATOM     33  C   UNL A   1      29.131  31.563  23.037  1.00  0.00     0.041 A 
ATOM     34  Cl  UNL A   1      28.488  33.157  23.122  1.00  0.00    -0.084 Cl
ENDBRANCH  20  28
ENDBRANCH  15  18
ENDBRANCH   8  14
ENDBRANCH   4   7
ENDBRANCH   2   3
ENDBRANCH   1   2
BRANCH   1  35
ATOM     35  C   UNL A   1      34.196  28.913  25.964  1.00  0.00     0.118 C 
BRANCH  35  36
ATOM     36  N   UNL A   1      33.920  30.088  26.774  1.00  0.00    -0.352 N 
ATOM     37  C   UNL A   1      34.653  30.622  27.809  1.00  0.00     0.251 C 
ATOM     38  H   UNL A   1      33.093  30.570  26.550  1.00  0.00     0.163 HD
ATOM     39  O   UNL A   1      34.169  31.526  28.485  1.00  0.00    -0.269 OA
BRANCH  37  40
ATOM     40  C   UNL A   1      36.003  30.097  28.137  1.00  0.00     0.039 A 
ATOM     41  C   UNL A   1      37.012  30.193  27.174  1.00  0.00     0.014 A 
ATOM     42  C   UNL A   1      36.281  29.495  29.368  1.00  0.00     0.014 A 
ATOM     43  C   UNL A   1      38.307  29.750  27.467  1.00  0.00     0.010 A 
ATOM     44  C   UNL A   1      37.589  29.121  29.685  1.00  0.00     0.010 A 
ATOM     45  C   UNL A   1      38.619  29.244  28.740  1.00  0.00    -0.014 A 
BRANCH  45  46
ATOM     46  C   UNL A   1      40.014  28.862  29.096  1.00  0.00     0.031 A 
ATOM     47  C   UNL A   1      40.938  29.852  29.757  1.00  0.00     0.074 A 
ATOM     48  C   UNL A   1      40.472  27.632  28.780  1.00  0.00     0.049 A 
ATOM     49  N   UNL A   1      42.193  29.707  30.103  1.00  0.00    -0.248 NA
ATOM     50  C   UNL A   1      40.388  31.185  30.050  1.00  0.00     0.031 C 
ATOM     51  C   UNL A   1      39.696  26.586  28.111  1.00  0.00     0.029 A 
ATOM     52  N   UNL A   1      41.704  27.054  28.975  1.00  0.00    -0.354 N 
ATOM     53  C   UNL A   1      42.586  30.928  30.641  1.00  0.00     0.074 A 
ATOM     54  C   UNL A   1      41.450  31.818  30.531  1.00  0.00     0.031 C 
ATOM     55  C   UNL A   1      40.457  25.489  27.977  1.00  0.00     0.029 A 
ATOM     56  C   UNL A   1      41.791  25.764  28.503  1.00  0.00     0.049 A 
ATOM     57  H   UNL A   1      42.454  27.518  29.412  1.00  0.00     0.167 HD
ATOM     58  C   UNL A   1      43.775  31.275  31.190  1.00  0.00     0.031 A 
ATOM     59  C   UNL A   1      42.825  24.900  28.482  1.00  0.00     0.031 A 
ATOM     60  C   UNL A   1      44.907  30.390  31.296  1.00  0.00     0.049 A 
ATOM     61  C   UNL A   1      44.147  25.320  29.066  1.00  0.00     0.074 A 
ATOM     62  C   UNL A   1      46.137  30.635  31.882  1.00  0.00     0.029 A 
ATOM     63  N   UNL A   1      44.954  29.096  30.799  1.00  0.00    -0.354 N 
ATOM     64  N   UNL A   1      44.474  26.456  29.632  1.00  0.00    -0.248 NA
ATOM     65  C   UNL A   1      45.236  24.334  29.020  1.00  0.00     0.031 C 
ATOM     66  C   UNL A   1      46.950  29.515  31.680  1.00  0.00     0.029 A 
ATOM     67  C   UNL A   1      46.202  28.543  31.035  1.00  0.00     0.049 A 
ATOM     68  H   UNL A   1      44.211  28.639  30.343  1.00  0.00     0.167 HD
ATOM     69  C   UNL A   1      45.799  26.313  30.035  1.00  0.00     0.074 A 
ATOM     70  C   UNL A   1      46.205  24.974  29.663  1.00  0.00     0.031 C 
ATOM     71  C   UNL A   1      46.603  27.209  30.659  1.00  0.00     0.031 A 
BRANCH  58  72
ATOM     72  C   UNL A   1      43.921  32.684  31.711  1.00  0.00    -0.014 A 
ATOM     73  C   UNL A   1      43.547  33.020  33.025  1.00  0.00     0.010 A 
ATOM     74  C   UNL A   1      44.486  33.677  30.889  1.00  0.00     0.010 A 
ATOM     75  C   UNL A   1      43.691  34.329  33.491  1.00  0.00     0.020 A 
ATOM     76  C   UNL A   1      44.663  34.981  31.363  1.00  0.00     0.020 A 
ATOM     77  C   UNL A   1      44.248  35.302  32.656  1.00  0.00     0.054 A 
BRANCH  77  78
ATOM     78  S   UNL A   1      44.442  36.988  33.298  1.00  0.00     0.124 S 
ATOM     79  O   UNL A   1      43.776  36.896  34.595  1.00  0.00    -0.237 OA
ATOM     80  O   UNL A   1      45.892  37.146  33.348  1.00  0.00    -0.237 OA
ATOM     81  O   UNL A   1      43.762  37.818  32.308  1.00  0.00    -0.744 OA
ENDBRANCH  77  78
ENDBRANCH  58  72
BRANCH  59  82
ATOM     82  C   UNL A   1      42.651  23.546  27.884  1.00  0.00    -0.014 A 
ATOM     83  C   UNL A   1      41.993  22.526  28.595  1.00  0.00     0.010 A 
ATOM     84  C   UNL A   1      43.134  23.271  26.591  1.00  0.00     0.010 A 
ATOM     85  C   UNL A   1      41.836  21.256  28.033  1.00  0.00     0.020 A 
ATOM     86  C   UNL A   1      42.950  22.012  26.012  1.00  0.00     0.020 A 
ATOM     87  C   UNL A   1      42.311  21.009  26.741  1.00  0.00     0.054 A 
BRANCH  87  88
ATOM     88  S   UNL A   1      42.043  19.371  26.008  1.00  0.00     0.124 S 
ATOM     89  O   UNL A   1      42.542  18.482  27.052  1.00  0.00    -0.237 OA
ATOM     90  O   UNL A   1      40.597  19.352  25.798  1.00  0.00    -0.237 OA
ATOM     91  O   UNL A   1      42.840  19.409  24.783  1.00  0.00    -0.744 OA
ENDBRANCH  87  88
ENDBRANCH  59  82
BRANCH  71  92
ATOM     92  C   UNL A   1      47.997  26.765  31.017  1.00  0.00    -0.014 A 
ATOM     93  C   UNL A   1      49.081  26.964  30.142  1.00  0.00     0.010 A 
ATOM     94  C   UNL A   1      48.237  26.186  32.278  1.00  0.00     0.010 A 
ATOM     95  C   UNL A   1      50.369  26.564  30.508  1.00  0.00     0.020 A 
ATOM     96  C   UNL A   1      49.528  25.815  32.661  1.00  0.00     0.020 A 
ATOM     97  C   UNL A   1      50.585  25.994  31.767  1.00  0.00     0.054 A 
BRANCH  97  98
ATOM     98  S   UNL A   1      52.274  25.524  32.233  1.00  0.00     0.124 S 
ATOM     99  O   UNL A   1      53.033  25.888  31.041  1.00  0.00    -0.237 OA
ATOM    100  O   UNL A   1      52.521  26.349  33.413  1.00  0.00    -0.237 OA
ATOM    101  O   UNL A   1      52.176  24.089  32.494  1.00  0.00    -0.744 OA
ENDBRANCH  97  98
ENDBRANCH  71  92
ENDBRANCH  45  46
ENDBRANCH  37  40
ENDBRANCH  35  36
ENDBRANCH   1  35
TORSDOF 17
ENDMDL
MODEL 2
REMARK VINA RESULT:     -11.8      3.296      9.389
REMARK SMILES NC(=O)c1c(-c2ccc(Cl)cc2)csc1NC(=O)[C@H]1[C@@H](C(=O)NCCCNC(=O)c2ccc(-c3c4nc(c(-c5ccc(S(=O)(=O)[O-])cc5)c5ccc([nH]5)c(-c5ccc(S(=O)(=O)[O-])cc5)c5nc(c(-c6ccc(S(=O)(=O)[O-])cc6)c6ccc3[nH]6)C=C5)C=C4)cc2)[C@@H]2CC[C@H]1O2
REMARK SMILES IDX 25 1 24 2 23 3 21 4 22 5 20 7 19 8 93 9 90 10 92 11 94 12
REMARK SMILES IDX 91 13 17 14 16 15 18 17 15 18 4 19 5 20 13 21 14 22 2 23
REMARK SMILES IDX 1 24 3 27 6 28 7 29 12 30 8 31 11 32 9 33 10 34 26 35 27 36
REMARK SMILES IDX 28 37 29 39 30 40 31 41 89 42 32 43 88 44 33 45 34 46 35 47
REMARK SMILES IDX 82 48 36 49 87 50 81 51 83 52 37 53 86 54 80 55 79 56 38 58
REMARK SMILES IDX 68 59 49 60 67 61 50 62 53 63 66 64 84 65 51 66 52 67 65 69
REMARK SMILES IDX 85 70 54 71 39 72 40 73 48 74 41 75 47 76 42 77 43 78 44 79
REMARK SMILES IDX 45 80 46 81 69 82 70 83 78 84 71 85 77 86 72 87 73 88 74 89
REMARK SMILES IDX 75 90 76 91 55 92 56 93 64 94 57 95 63 96 58 97 59 98 60 99
REMARK SMILES IDX 61 100 62 101
REMARK H PARENT 23 6 16 16 1 25 1 26 27 38 83 57 53 68
REMARK Flexibility Score: inf
ROOT
ATOM      1  C   UNL A   1      36.200  24.076  25.718  1.00  0.00     0.042 C 
ENDROOT
BRANCH   1   2
ATOM      2  C   UNL A   1      34.816  24.066  25.051  1.00  0.00     0.117 C 
BRANCH   2   3
ATOM      3  N   UNL A   1      34.585  25.236  24.228  1.00  0.00    -0.356 N 
ATOM      4  C   UNL A   1      33.829  26.349  24.296  1.00  0.00     0.226 C 
ATOM      5  O   UNL A   1      33.959  27.078  23.300  1.00  0.00    -0.275 OA
ATOM      6  H   UNL A   1      35.120  25.210  23.403  1.00  0.00     0.163 HD
BRANCH   4   7
ATOM      7  C   UNL A   1      33.097  26.872  25.535  1.00  0.00     0.122 C 
ATOM      8  C   UNL A   1      31.575  27.014  25.716  1.00  0.00     0.123 C 
ATOM      9  C   UNL A   1      31.370  28.545  25.733  1.00  0.00     0.132 C 
ATOM     10  C   UNL A   1      33.525  28.346  25.751  1.00  0.00     0.132 C 
ATOM     11  C   UNL A   1      31.713  29.131  27.094  1.00  0.00     0.035 C 
ATOM     12  O   UNL A   1      32.508  29.031  24.987  1.00  0.00    -0.373 OA
ATOM     13  C   UNL A   1      33.211  28.848  27.169  1.00  0.00     0.035 C 
BRANCH   8  14
ATOM     14  C   UNL A   1      30.597  26.469  24.710  1.00  0.00     0.231 C 
ATOM     15  N   UNL A   1      30.550  25.137  24.375  1.00  0.00    -0.317 N 
ATOM     16  H   UNL A   1      30.062  24.972  23.537  1.00  0.00     0.170 HD
ATOM     17  O   UNL A   1      29.790  27.226  24.168  1.00  0.00    -0.274 OA
BRANCH  15  18
ATOM     18  C   UNL A   1      31.038  23.968  24.957  1.00  0.00     0.108 A 
ATOM     19  C   UNL A   1      31.716  22.935  24.302  1.00  0.00     0.082 A 
ATOM     20  C   UNL A   1      32.026  21.847  25.216  1.00  0.00     0.007 A 
ATOM     21  C   UNL A   1      31.568  22.111  26.490  1.00  0.00     0.076 A 
ATOM     22  S   UNL A   1      30.708  23.562  26.569  1.00  0.00    -0.125 S 
BRANCH  19  23
ATOM     23  C   UNL A   1      32.029  23.017  22.877  1.00  0.00     0.252 C 
ATOM     24  N   UNL A   1      31.730  21.925  22.120  1.00  0.00    -0.365 N 
ATOM     25  H   UNL A   1      31.921  21.928  21.154  1.00  0.00     0.159 HD
ATOM     26  H   UNL A   1      31.322  21.133  22.538  1.00  0.00     0.159 HD
ATOM     27  O   UNL A   1      32.483  24.035  22.360  1.00  0.00    -0.269 OA
ENDBRANCH  19  23
BRANCH  20  28
ATOM     28  C   UNL A   1      32.726  20.589  24.977  1.00  0.00    -0.017 A 
ATOM     29  C   UNL A   1      34.128  20.561  25.022  1.00  0.00     0.010 A 
ATOM     30  C   UNL A   1      32.022  19.416  24.684  1.00  0.00     0.010 A 
ATOM     31  C   UNL A   1      34.821  19.373  24.775  1.00  0.00     0.021 A 
ATOM     32  C   UNL A   1      32.717  18.226  24.442  1.00  0.00     0.021 A 
ATOM     33  C   UNL A   1      34.111  18.210  24.486  1.00  0.00     0.041 A 
ATOM     34  Cl  UNL A   1      34.964  16.749  24.176  1.00  0.00    -0.084 Cl
ENDBRANCH  20  28
ENDBRANCH  15  18
ENDBRANCH   8  14
ENDBRANCH   4   7
ENDBRANCH   2   3
ENDBRANCH   1   2
BRANCH   1  35
ATOM     35  C   UNL A   1      37.381  23.669  24.837  1.00  0.00     0.118 C 
BRANCH  35  36
ATOM     36  N   UNL A   1      38.213  22.640  25.437  1.00  0.00    -0.352 N 
ATOM     37  C   UNL A   1      39.273  22.775  26.305  1.00  0.00     0.251 C 
ATOM     38  H   UNL A   1      37.986  21.715  25.189  1.00  0.00     0.163 HD
ATOM     39  O   UNL A   1      39.961  21.793  26.571  1.00  0.00    -0.269 OA
BRANCH  37  40
ATOM     40  C   UNL A   1      39.612  24.095  26.894  1.00  0.00     0.039 A 
ATOM     41  C   UNL A   1      39.116  24.411  28.162  1.00  0.00     0.014 A 
ATOM     42  C   UNL A   1      40.392  25.030  26.208  1.00  0.00     0.014 A 
ATOM     43  C   UNL A   1      39.453  25.627  28.766  1.00  0.00     0.010 A 
ATOM     44  C   UNL A   1      40.788  26.211  26.840  1.00  0.00     0.010 A 
ATOM     45  C   UNL A   1      40.325  26.524  28.127  1.00  0.00    -0.014 A 
BRANCH  45  46
ATOM     46  C   UNL A   1      40.771  27.777  28.801  1.00  0.00     0.031 A 
ATOM     47  C   UNL A   1      42.148  27.877  29.405  1.00  0.00     0.074 A 
ATOM     48  C   UNL A   1      39.917  28.815  28.916  1.00  0.00     0.049 A 
ATOM     49  N   UNL A   1      42.692  28.872  30.061  1.00  0.00    -0.248 NA
ATOM     50  C   UNL A   1      43.023  26.701  29.270  1.00  0.00     0.031 C 
ATOM     51  C   UNL A   1      38.544  28.842  28.407  1.00  0.00     0.029 A 
ATOM     52  N   UNL A   1      40.074  30.048  29.503  1.00  0.00    -0.354 N 
ATOM     53  C   UNL A   1      43.962  28.439  30.428  1.00  0.00     0.074 A 
ATOM     54  C   UNL A   1      44.090  27.075  29.963  1.00  0.00     0.031 C 
ATOM     55  C   UNL A   1      37.996  30.037  28.678  1.00  0.00     0.029 A 
ATOM     56  C   UNL A   1      38.956  30.846  29.422  1.00  0.00     0.049 A 
ATOM     57  H   UNL A   1      40.908  30.334  29.940  1.00  0.00     0.167 HD
ATOM     58  C   UNL A   1      44.939  29.117  31.077  1.00  0.00     0.031 A 
ATOM     59  C   UNL A   1      38.719  32.084  29.900  1.00  0.00     0.031 A 
ATOM     60  C   UNL A   1      44.810  30.474  31.543  1.00  0.00     0.049 A 
ATOM     61  C   UNL A   1      39.807  32.805  30.650  1.00  0.00     0.074 A 
ATOM     62  C   UNL A   1      45.762  31.263  32.167  1.00  0.00     0.029 A 
ATOM     63  N   UNL A   1      43.659  31.243  31.448  1.00  0.00    -0.354 N 
ATOM     64  N   UNL A   1      41.024  32.402  30.924  1.00  0.00    -0.248 NA
ATOM     65  C   UNL A   1      39.493  34.153  31.143  1.00  0.00     0.031 C 
ATOM     66  C   UNL A   1      45.167  32.482  32.508  1.00  0.00     0.029 A 
ATOM     67  C   UNL A   1      43.866  32.483  32.030  1.00  0.00     0.049 A 
ATOM     68  H   UNL A   1      42.818  30.949  31.029  1.00  0.00     0.167 HD
ATOM     69  C   UNL A   1      41.631  33.458  31.597  1.00  0.00     0.074 A 
ATOM     70  C   UNL A   1      40.652  34.522  31.672  1.00  0.00     0.031 C 
ATOM     71  C   UNL A   1      42.886  33.538  32.105  1.00  0.00     0.031 A 
BRANCH  58  72
ATOM     72  C   UNL A   1      46.238  28.396  31.338  1.00  0.00    -0.014 A 
ATOM     73  C   UNL A   1      46.422  27.618  32.496  1.00  0.00     0.010 A 
ATOM     74  C   UNL A   1      47.275  28.458  30.388  1.00  0.00     0.010 A 
ATOM     75  C   UNL A   1      47.632  26.955  32.721  1.00  0.00     0.020 A 
ATOM     76  C   UNL A   1      48.474  27.768  30.594  1.00  0.00     0.020 A 
ATOM     77  C   UNL A   1      48.651  27.035  31.768  1.00  0.00     0.054 A 
BRANCH  77  78
ATOM     78  S   UNL A   1      50.201  26.146  32.079  1.00  0.00     0.124 S 
ATOM     79  O   UNL A   1      50.677  26.786  33.302  1.00  0.00    -0.237 OA
ATOM     80  O   UNL A   1      49.752  24.764  32.228  1.00  0.00    -0.237 OA
ATOM     81  O   UNL A   1      51.001  26.412  30.886  1.00  0.00    -0.744 OA
ENDBRANCH  77  78
ENDBRANCH  58  72
BRANCH  59  82
ATOM     82  C   UNL A   1      37.390  32.723  29.684  1.00  0.00    -0.014 A 
ATOM     83  C   UNL A   1      36.379  32.625  30.658  1.00  0.00     0.010 A 
ATOM     84  C   UNL A   1      37.130  33.445  28.504  1.00  0.00     0.010 A 
ATOM     85  C   UNL A   1      35.132  33.222  30.449  1.00  0.00     0.020 A 
ATOM     86  C   UNL A   1      35.896  34.071  28.306  1.00  0.00     0.020 A 
ATOM     87  C   UNL A   1      34.900  33.946  29.276  1.00  0.00     0.054 A 
BRANCH  87  88
ATOM     88  S   UNL A   1      33.295  34.763  29.053  1.00  0.00     0.124 S 
ATOM     89  O   UNL A   1      33.686  36.065  28.524  1.00  0.00    -0.237 OA
ATOM     90  O   UNL A   1      32.617  33.874  28.112  1.00  0.00    -0.237 OA
ATOM     91  O   UNL A   1      32.728  34.777  30.401  1.00  0.00    -0.744 OA
ENDBRANCH  87  88
ENDBRANCH  59  82
BRANCH  71  92
ATOM     92  C   UNL A   1      43.294  34.834  32.756  1.00  0.00    -0.014 A 
ATOM     93  C   UNL A   1      43.836  35.895  32.008  1.00  0.00     0.010 A 
ATOM     94  C   UNL A   1      43.080  35.012  34.136  1.00  0.00     0.010 A 
ATOM     95  C   UNL A   1      44.185  37.096  32.632  1.00  0.00     0.020 A 
ATOM     96  C   UNL A   1      43.397  36.222  34.759  1.00  0.00     0.020 A 
ATOM     97  C   UNL A   1      43.961  37.253  34.005  1.00  0.00     0.054 A 
BRANCH  97  98
ATOM     98  S   UNL A   1      44.382  38.837  34.781  1.00  0.00     0.124 S 
ATOM     99  O   UNL A   1      45.766  39.028  34.356  1.00  0.00    -0.237 OA
ATOM    100  O   UNL A   1      43.410  39.752  34.188  1.00  0.00    -0.237 OA
ATOM    101  O   UNL A   1      44.200  38.584  36.209  1.00  0.00    -0.744 OA
ENDBRANCH  97  98
ENDBRANCH  71  92
ENDBRANCH  45  46
ENDBRANCH  37  40
ENDBRANCH  35  36
ENDBRANCH   1  35
TORSDOF 17
ENDMDL
MODEL 3
REMARK VINA RESULT:     -11.8      2.339      2.838
REMARK SMILES NC(=O)c1c(-c2ccc(Cl)cc2)csc1NC(=O)[C@H]1[C@@H](C(=O)NCCCNC(=O)c2ccc(-c3c4nc(c(-c5ccc(S(=O)(=O)[O-])cc5)c5ccc([nH]5)c(-c5ccc(S(=O)(=O)[O-])cc5)c5nc(c(-c6ccc(S(=O)(=O)[O-])cc6)c6ccc3[nH]6)C=C5)C=C4)cc2)[C@@H]2CC[C@H]1O2
REMARK SMILES IDX 25 1 24 2 23 3 21 4 22 5 20 7 19 8 93 9 90 10 92 11 94 12
REMARK SMILES IDX 91 13 17 14 16 15 18 17 15 18 4 19 5 20 13 21 14 22 2 23
REMARK SMILES IDX 1 24 3 27 6 28 7 29 12 30 8 31 11 32 9 33 10 34 26 35 27 36
REMARK SMILES IDX 28 37 29 39 30 40 31 41 89 42 32 43 88 44 33 45 34 46 35 47
REMARK SMILES IDX 82 48 36 49 87 50 81 51 83 52 37 53 86 54 80 55 79 56 38 58
REMARK SMILES IDX 68 59 49 60 67 61 50 62 53 63 66 64 84 65 51 66 52 67 65 69
REMARK SMILES IDX 85 70 54 71 39 72 40 73 48 74 41 75 47 76 42 77 43 78 44 79
REMARK SMILES IDX 45 80 46 81 69 82 70 83 78 84 71 85 77 86 72 87 73 88 74 89
REMARK SMILES IDX 75 90 76 91 55 92 56 93 64 94 57 95 63 96 58 97 59 98 60 99
REMARK SMILES IDX 61 100 62 101
REMARK H PARENT 23 6 16 16 1 25 1 26 27 38 83 57 53 68
REMARK Flexibility Score: inf
ROOT
ATOM      1  C   UNL A   1      33.511  27.612  26.564  1.00  0.00     0.042 C 
ENDROOT
BRANCH   1   2
ATOM      2  C   UNL A   1      31.995  27.383  26.464  1.00  0.00     0.117 C 
BRANCH   2   3
ATOM      3  N   UNL A   1      31.600  26.061  26.905  1.00  0.00    -0.356 N 
ATOM      4  C   UNL A   1      31.921  24.788  26.602  1.00  0.00     0.226 C 
ATOM      5  O   UNL A   1      31.272  23.961  27.261  1.00  0.00    -0.275 OA
ATOM      6  H   UNL A   1      30.916  26.104  27.613  1.00  0.00     0.163 HD
BRANCH   4   7
ATOM      7  C   UNL A   1      33.125  24.332  25.774  1.00  0.00     0.122 C 
ATOM      8  C   UNL A   1      33.091  23.504  24.476  1.00  0.00     0.123 C 
ATOM      9  C   UNL A   1      33.685  22.148  24.915  1.00  0.00     0.132 C 
ATOM     10  C   UNL A   1      33.980  23.392  26.661  1.00  0.00     0.132 C 
ATOM     11  C   UNL A   1      35.203  22.209  24.985  1.00  0.00     0.035 C 
ATOM     12  O   UNL A   1      33.397  22.112  26.330  1.00  0.00    -0.373 OA
ATOM     13  C   UNL A   1      35.407  23.210  26.120  1.00  0.00     0.035 C 
BRANCH   8  14
ATOM     14  C   UNL A   1      31.804  23.191  23.762  1.00  0.00     0.231 C 
ATOM     15  N   UNL A   1      30.990  24.169  23.247  1.00  0.00    -0.317 N 
ATOM     16  H   UNL A   1      30.081  23.846  23.051  1.00  0.00     0.170 HD
ATOM     17  O   UNL A   1      31.459  22.018  23.610  1.00  0.00    -0.274 OA
BRANCH  15  18
ATOM     18  C   UNL A   1      31.162  25.518  22.939  1.00  0.00     0.108 A 
ATOM     19  C   UNL A   1      30.306  26.566  23.291  1.00  0.00     0.082 A 
ATOM     20  C   UNL A   1      30.775  27.833  22.751  1.00  0.00     0.007 A 
ATOM     21  C   UNL A   1      31.938  27.674  22.026  1.00  0.00     0.076 A 
ATOM     22  S   UNL A   1      32.398  26.053  21.910  1.00  0.00    -0.125 S 
BRANCH  19  23
ATOM     23  C   UNL A   1      29.110  26.331  24.098  1.00  0.00     0.252 C 
ATOM     24  N   UNL A   1      27.938  26.827  23.616  1.00  0.00    -0.365 N 
ATOM     25  H   UNL A   1      27.103  26.696  24.121  1.00  0.00     0.159 HD
ATOM     26  H   UNL A   1      27.924  27.316  22.762  1.00  0.00     0.159 HD
ATOM     27  O   UNL A   1      29.135  25.668  25.133  1.00  0.00    -0.269 OA
ENDBRANCH  19  23
BRANCH  20  28
ATOM     28  C   UNL A   1      30.212  29.173  22.875  1.00  0.00    -0.017 A 
ATOM     29  C   UNL A   1      29.542  29.744  21.781  1.00  0.00     0.010 A 
ATOM     30  C   UNL A   1      30.348  29.907  24.058  1.00  0.00     0.010 A 
ATOM     31  C   UNL A   1      29.015  31.034  21.869  1.00  0.00     0.021 A 
ATOM     32  C   UNL A   1      29.815  31.197  24.146  1.00  0.00     0.021 A 
ATOM     33  C   UNL A   1      29.154  31.755  23.053  1.00  0.00     0.041 A 
ATOM     34  Cl  UNL A   1      28.508  33.346  23.158  1.00  0.00    -0.084 Cl
ENDBRANCH  20  28
ENDBRANCH  15  18
ENDBRANCH   8  14
ENDBRANCH   4   7
ENDBRANCH   2   3
ENDBRANCH   1   2
BRANCH   1  35
ATOM     35  C   UNL A   1      34.073  28.793  25.774  1.00  0.00     0.118 C 
BRANCH  35  36
ATOM     36  N   UNL A   1      33.696  30.082  26.328  1.00  0.00    -0.352 N 
ATOM     37  C   UNL A   1      34.241  30.765  27.392  1.00  0.00     0.251 C 
ATOM     38  H   UNL A   1      32.945  30.532  25.879  1.00  0.00     0.163 HD
ATOM     39  O   UNL A   1      33.673  31.767  27.818  1.00  0.00    -0.269 OA
BRANCH  37  40
ATOM     40  C   UNL A   1      35.482  30.284  28.050  1.00  0.00     0.039 A 
ATOM     41  C   UNL A   1      36.705  30.485  27.401  1.00  0.00     0.014 A 
ATOM     42  C   UNL A   1      35.457  29.624  29.281  1.00  0.00     0.014 A 
ATOM     43  C   UNL A   1      37.898  30.086  28.013  1.00  0.00     0.010 A 
ATOM     44  C   UNL A   1      36.652  29.293  29.924  1.00  0.00     0.010 A 
ATOM     45  C   UNL A   1      37.888  29.520  29.299  1.00  0.00    -0.014 A 
BRANCH  45  46
ATOM     46  C   UNL A   1      39.158  29.183  30.002  1.00  0.00     0.031 A 
ATOM     47  C   UNL A   1      39.585  29.948  31.228  1.00  0.00     0.074 A 
ATOM     48  C   UNL A   1      39.959  28.215  29.509  1.00  0.00     0.049 A 
ATOM     49  N   UNL A   1      40.674  29.818  31.945  1.00  0.00    -0.248 NA
ATOM     50  C   UNL A   1      38.682  31.010  31.700  1.00  0.00     0.031 C 
ATOM     51  C   UNL A   1      39.683  27.417  28.313  1.00  0.00     0.029 A 
ATOM     52  N   UNL A   1      41.171  27.740  29.950  1.00  0.00    -0.354 N 
ATOM     53  C   UNL A   1      40.594  30.786  32.941  1.00  0.00     0.074 A 
ATOM     54  C   UNL A   1      39.373  31.527  32.707  1.00  0.00     0.031 C 
ATOM     55  C   UNL A   1      40.680  26.536  28.131  1.00  0.00     0.029 A 
ATOM     56  C   UNL A   1      41.690  26.735  29.166  1.00  0.00     0.049 A 
ATOM     57  H   UNL A   1      41.625  28.085  30.752  1.00  0.00     0.167 HD
ATOM     58  C   UNL A   1      41.447  31.028  33.966  1.00  0.00     0.031 A 
ATOM     59  C   UNL A   1      42.850  26.055  29.255  1.00  0.00     0.031 A 
ATOM     60  C   UNL A   1      42.664  30.292  34.197  1.00  0.00     0.049 A 
ATOM     61  C   UNL A   1      43.799  26.365  30.382  1.00  0.00     0.074 A 
ATOM     62  C   UNL A   1      43.568  30.430  35.236  1.00  0.00     0.029 A 
ATOM     63  N   UNL A   1      43.155  29.289  33.374  1.00  0.00    -0.354 N 
ATOM     64  N   UNL A   1      43.670  27.237  31.352  1.00  0.00    -0.248 NA
ATOM     65  C   UNL A   1      45.046  25.589  30.432  1.00  0.00     0.031 C 
ATOM     66  C   UNL A   1      44.637  29.558  35.006  1.00  0.00     0.029 A 
ATOM     67  C   UNL A   1      44.364  28.822  33.865  1.00  0.00     0.049 A 
ATOM     68  H   UNL A   1      42.711  28.958  32.561  1.00  0.00     0.167 HD
ATOM     69  C   UNL A   1      44.805  27.095  32.145  1.00  0.00     0.074 A 
ATOM     70  C   UNL A   1      45.600  26.042  31.549  1.00  0.00     0.031 C 
ATOM     71  C   UNL A   1      45.154  27.775  33.265  1.00  0.00     0.031 A 
BRANCH  58  72
ATOM     72  C   UNL A   1      41.102  32.148  34.915  1.00  0.00    -0.014 A 
ATOM     73  C   UNL A   1      40.349  31.913  36.080  1.00  0.00     0.010 A 
ATOM     74  C   UNL A   1      41.577  33.449  34.663  1.00  0.00     0.010 A 
ATOM     75  C   UNL A   1      40.040  32.963  36.949  1.00  0.00     0.020 A 
ATOM     76  C   UNL A   1      41.299  34.496  35.548  1.00  0.00     0.020 A 
ATOM     77  C   UNL A   1      40.516  34.249  36.677  1.00  0.00     0.054 A 
BRANCH  77  78
ATOM     78  S   UNL A   1      40.116  35.586  37.836  1.00  0.00     0.124 S 
ATOM     79  O   UNL A   1      41.343  35.679  38.624  1.00  0.00    -0.237 OA
ATOM     80  O   UNL A   1      39.857  36.714  36.945  1.00  0.00    -0.237 OA
ATOM     81  O   UNL A   1      38.950  35.085  38.557  1.00  0.00    -0.744 OA
ENDBRANCH  77  78
ENDBRANCH  58  72
BRANCH  59  82
ATOM     82  C   UNL A   1      43.181  25.011  28.245  1.00  0.00    -0.014 A 
ATOM     83  C   UNL A   1      42.787  23.674  28.439  1.00  0.00     0.010 A 
ATOM     84  C   UNL A   1      43.884  25.350  27.074  1.00  0.00     0.010 A 
ATOM     85  C   UNL A   1      43.103  22.696  27.491  1.00  0.00     0.020 A 
ATOM     86  C   UNL A   1      44.173  24.382  26.109  1.00  0.00     0.020 A 
ATOM     87  C   UNL A   1      43.790  23.058  26.329  1.00  0.00     0.054 A 
BRANCH  87  88
ATOM     88  S   UNL A   1      44.137  21.783  25.084  1.00  0.00     0.124 S 
ATOM     89  O   UNL A   1      45.500  21.388  25.423  1.00  0.00    -0.237 OA
ATOM     90  O   UNL A   1      43.102  20.788  25.354  1.00  0.00    -0.237 OA
ATOM     91  O   UNL A   1      43.988  22.494  23.814  1.00  0.00    -0.744 OA
ENDBRANCH  87  88
ENDBRANCH  59  82
BRANCH  71  92
ATOM     92  C   UNL A   1      46.436  27.380  33.950  1.00  0.00    -0.014 A 
ATOM     93  C   UNL A   1      47.665  27.973  33.611  1.00  0.00     0.010 A 
ATOM     94  C   UNL A   1      46.401  26.435  34.994  1.00  0.00     0.010 A 
ATOM     95  C   UNL A   1      48.838  27.606  34.278  1.00  0.00     0.020 A 
ATOM     96  C   UNL A   1      47.564  26.089  35.685  1.00  0.00     0.020 A 
ATOM     97  C   UNL A   1      48.779  26.667  35.313  1.00  0.00     0.054 A 
BRANCH  97  98
ATOM     98  S   UNL A   1      50.308  26.241  36.192  1.00  0.00     0.124 S 
ATOM     99  O   UNL A   1      50.314  24.784  36.108  1.00  0.00    -0.237 OA
ATOM    100  O   UNL A   1      51.331  26.920  35.400  1.00  0.00    -0.237 OA
ATOM    101  O   UNL A   1      50.102  26.786  37.532  1.00  0.00    -0.744 OA
ENDBRANCH  97  98
ENDBRANCH  71  92
ENDBRANCH  45  46
ENDBRANCH  37  40
ENDBRANCH  35  36
ENDBRANCH   1  35
TORSDOF 17
ENDMDL
