MODEL 1
REMARK VINA RESULT:     -13.6      0.000      0.000
REMARK SMILES O=C(NCCCNC(=O)[C@H](Cc1ccc([N+](=O)[O-])cc1)c1ccccc1Br)c1ccc(-c2c3nc(c(-c4ccc(S(=O)(=O)[O-])cc4)c4ccc([nH]4)c(-c4ccc(S(=O)(=O)[O-])cc4)c4nc(c(-c5ccc(S(=O)(=O)[O-])cc5)c5ccc2[nH]5)C=C4)C=C3)cc1
REMARK SMILES IDX 5 1 4 2 3 3 1 4 2 5 28 7 29 8 87 9 30 10 86 11 31 12 32 13
REMARK SMILES IDX 33 14 80 15 34 16 85 17 79 18 81 19 35 20 84 21 78 22 77 23
REMARK SMILES IDX 36 25 66 26 47 27 65 28 48 29 51 30 64 31 82 32 49 33 50 34
REMARK SMILES IDX 63 36 83 37 52 38 37 39 38 40 46 41 39 42 45 43 40 44 41 45
REMARK SMILES IDX 42 46 43 47 44 48 67 49 68 50 76 51 69 52 75 53 70 54 71 55
REMARK SMILES IDX 72 56 73 57 74 58 53 59 54 60 62 61 55 62 61 63 56 64 57 65
REMARK SMILES IDX 58 66 59 67 60 68 6 69 7 70 8 71 9 73 10 74 21 75 22 76
REMARK SMILES IDX 26 77 23 78 25 79 27 80 24 81 11 82 12 83 13 84 20 85 14 86
REMARK SMILES IDX 19 87 15 88 16 89 17 90 18 91
REMARK H PARENT 3 6 81 24 51 35 7 72
REMARK Flexibility Score: inf
ROOT
ATOM      1  C   UNL A   1      34.319  28.786  27.113  1.00  0.00     0.042 C 
ENDROOT
BRANCH   1   2
ATOM      2  C   UNL A   1      35.542  29.760  27.859  1.00  0.00     0.118 C 
BRANCH   2   3
ATOM      3  N   UNL A   1      35.715  29.775  29.323  1.00  0.00    -0.352 N 
ATOM      4  O   UNL A   1      36.629  29.256  31.321  1.00  0.00    -0.269 OA
ATOM      5  C   UNL A   1      36.766  29.404  30.114  1.00  0.00     0.251 C 
ATOM      6  H   UNL A   1      34.934  30.111  29.818  1.00  0.00     0.163 HD
BRANCH   5   7
ATOM      7  C   UNL A   1      38.079  29.309  29.484  1.00  0.00     0.039 A 
ATOM      8  C   UNL A   1      39.144  28.984  30.326  1.00  0.00     0.014 A 
ATOM      9  C   UNL A   1      38.251  29.510  28.116  1.00  0.00     0.014 A 
ATOM     10  C   UNL A   1      40.420  29.005  29.827  1.00  0.00     0.010 A 
ATOM     11  C   UNL A   1      39.534  29.405  27.586  1.00  0.00     0.010 A 
ATOM     12  C   UNL A   1      40.614  29.155  28.446  1.00  0.00    -0.014 A 
BRANCH  12  13
ATOM     13  C   UNL A   1      41.969  28.864  27.958  1.00  0.00     0.031 A 
ATOM     14  C   UNL A   1      43.045  29.891  28.034  1.00  0.00     0.074 A 
ATOM     15  C   UNL A   1      42.203  27.583  27.614  1.00  0.00     0.049 A 
ATOM     16  N   UNL A   1      44.321  29.742  27.809  1.00  0.00    -0.248 NA
ATOM     17  C   UNL A   1      42.648  31.258  28.410  1.00  0.00     0.031 C 
ATOM     18  C   UNL A   1      41.175  26.532  27.552  1.00  0.00     0.029 A 
ATOM     19  N   UNL A   1      43.364  26.922  27.337  1.00  0.00    -0.354 N 
ATOM     20  C   UNL A   1      44.884  30.994  28.004  1.00  0.00     0.074 A 
ATOM     21  C   UNL A   1      43.809  31.898  28.350  1.00  0.00     0.031 C 
ATOM     22  C   UNL A   1      41.766  25.347  27.356  1.00  0.00     0.029 A 
ATOM     23  C   UNL A   1      43.193  25.567  27.180  1.00  0.00     0.049 A 
ATOM     24  H   UNL A   1      44.237  27.371  27.257  1.00  0.00     0.167 HD
ATOM     25  C   UNL A   1      46.188  31.339  27.892  1.00  0.00     0.031 A 
ATOM     26  C   UNL A   1      44.093  24.608  26.906  1.00  0.00     0.031 A 
ATOM     27  C   UNL A   1      47.218  30.405  27.519  1.00  0.00     0.049 A 
ATOM     28  C   UNL A   1      45.522  25.032  26.760  1.00  0.00     0.074 A 
ATOM     29  C   UNL A   1      48.568  30.636  27.330  1.00  0.00     0.029 A 
ATOM     30  N   UNL A   1      47.007  29.051  27.280  1.00  0.00    -0.354 N 
ATOM     31  N   UNL A   1      46.040  26.229  26.921  1.00  0.00    -0.248 NA
ATOM     32  C   UNL A   1      46.483  23.993  26.389  1.00  0.00     0.031 C 
ATOM     33  C   UNL A   1      49.163  29.433  26.932  1.00  0.00     0.029 A 
ATOM     34  C   UNL A   1      48.197  28.437  26.933  1.00  0.00     0.049 A 
ATOM     35  H   UNL A   1      46.137  28.594  27.348  1.00  0.00     0.167 HD
ATOM     36  C   UNL A   1      47.394  26.089  26.662  1.00  0.00     0.074 A 
ATOM     37  C   UNL A   1      47.616  24.681  26.380  1.00  0.00     0.031 C 
ATOM     38  C   UNL A   1      48.366  27.035  26.643  1.00  0.00     0.031 A 
BRANCH  25  39
ATOM     39  C   UNL A   1      46.554  32.778  28.133  1.00  0.00    -0.014 A 
ATOM     40  C   UNL A   1      46.528  33.722  27.090  1.00  0.00     0.010 A 
ATOM     41  C   UNL A   1      46.893  33.204  29.430  1.00  0.00     0.010 A 
ATOM     42  C   UNL A   1      46.856  35.058  27.336  1.00  0.00     0.020 A 
ATOM     43  C   UNL A   1      47.199  34.545  29.685  1.00  0.00     0.020 A 
ATOM     44  C   UNL A   1      47.189  35.462  28.632  1.00  0.00     0.054 A 
BRANCH  44  45
ATOM     45  S   UNL A   1      47.574  37.211  28.928  1.00  0.00     0.124 S 
ATOM     46  O   UNL A   1      48.276  37.575  27.700  1.00  0.00    -0.237 OA
ATOM     47  O   UNL A   1      46.249  37.806  29.092  1.00  0.00    -0.237 OA
ATOM     48  O   UNL A   1      48.398  37.187  30.134  1.00  0.00    -0.744 OA
ENDBRANCH  44  45
ENDBRANCH  25  39
BRANCH  26  49
ATOM     49  C   UNL A   1      43.643  23.207  26.692  1.00  0.00    -0.014 A 
ATOM     50  C   UNL A   1      43.818  22.558  25.459  1.00  0.00     0.010 A 
ATOM     51  C   UNL A   1      43.055  22.497  27.759  1.00  0.00     0.010 A 
ATOM     52  C   UNL A   1      43.396  21.235  25.291  1.00  0.00     0.020 A 
ATOM     53  C   UNL A   1      42.667  21.166  27.606  1.00  0.00     0.020 A 
ATOM     54  C   UNL A   1      42.822  20.548  26.366  1.00  0.00     0.054 A 
BRANCH  54  55
ATOM     55  S   UNL A   1      42.307  18.824  26.140  1.00  0.00     0.124 S 
ATOM     56  O   UNL A   1      43.233  18.366  25.110  1.00  0.00    -0.237 OA
ATOM     57  O   UNL A   1      42.506  18.256  27.470  1.00  0.00    -0.237 OA
ATOM     58  O   UNL A   1      40.911  18.936  25.722  1.00  0.00    -0.744 OA
ENDBRANCH  54  55
ENDBRANCH  26  49
BRANCH  38  59
ATOM     59  C   UNL A   1      49.749  26.551  26.315  1.00  0.00    -0.014 A 
ATOM     60  C   UNL A   1      50.571  25.980  27.304  1.00  0.00     0.010 A 
ATOM     61  C   UNL A   1      50.226  26.664  24.997  1.00  0.00     0.010 A 
ATOM     62  C   UNL A   1      51.869  25.577  26.990  1.00  0.00     0.020 A 
ATOM     63  C   UNL A   1      51.513  26.233  24.674  1.00  0.00     0.020 A 
ATOM     64  C   UNL A   1      52.332  25.711  25.678  1.00  0.00     0.054 A 
BRANCH  64  65
ATOM     65  S   UNL A   1      54.017  25.168  25.290  1.00  0.00     0.124 S 
ATOM     66  O   UNL A   1      54.718  25.444  26.541  1.00  0.00    -0.237 OA
ATOM     67  O   UNL A   1      53.833  23.755  24.970  1.00  0.00    -0.237 OA
ATOM     68  O   UNL A   1      54.400  26.011  24.160  1.00  0.00    -0.744 OA
ENDBRANCH  64  65
ENDBRANCH  38  59
ENDBRANCH  12  13
ENDBRANCH   5   7
ENDBRANCH   2   3
ENDBRANCH   1   2
BRANCH   1  69
ATOM     69  C   UNL A   1      32.348  28.004  27.696  1.00  0.00     0.117 C 
BRANCH  69  70
ATOM     70  N   UNL A   1      31.361  26.959  26.968  1.00  0.00    -0.355 N 
ATOM     71  C   UNL A   1      31.433  26.299  25.764  1.00  0.00     0.227 C 
ATOM     72  H   UNL A   1      30.549  26.753  27.486  1.00  0.00     0.163 HD
ATOM     73  O   UNL A   1      30.538  25.487  25.525  1.00  0.00    -0.274 OA
BRANCH  71  74
ATOM     74  C   UNL A   1      32.661  26.517  24.860  1.00  0.00     0.114 C 
BRANCH  74  75
ATOM     75  C   UNL A   1      33.120  25.353  23.976  1.00  0.00    -0.021 A 
ATOM     76  C   UNL A   1      32.690  25.419  22.631  1.00  0.00     0.006 A 
ATOM     77  C   UNL A   1      33.729  24.159  24.406  1.00  0.00     0.021 A 
ATOM     78  C   UNL A   1      32.829  24.340  21.760  1.00  0.00     0.000 A 
ATOM     79  C   UNL A   1      33.911  23.093  23.508  1.00  0.00     0.016 A 
ATOM     80  Br  UNL A   1      34.220  23.798  26.207  1.00  0.00    -0.051 Br
ATOM     81  C   UNL A   1      33.444  23.175  22.198  1.00  0.00     0.001 A 
ENDBRANCH  74  75
BRANCH  74  82
ATOM     82  C   UNL A   1      32.672  27.774  23.963  1.00  0.00     0.053 C 
BRANCH  82  83
ATOM     83  C   UNL A   1      31.354  28.468  24.044  1.00  0.00    -0.046 A 
ATOM     84  C   UNL A   1      31.300  30.002  25.007  1.00  0.00     0.011 A 
ATOM     85  C   UNL A   1      30.120  28.149  22.756  1.00  0.00     0.011 A 
ATOM     86  C   UNL A   1      30.116  31.288  24.536  1.00  0.00     0.086 A 
ATOM     87  C   UNL A   1      28.916  29.416  22.343  1.00  0.00     0.086 A 
ATOM     88  C   UNL A   1      28.873  30.948  23.279  1.00  0.00     0.269 A 
BRANCH  88  89
ATOM     89  N   UNL A   1      27.778  31.866  23.089  1.00  0.00     0.062 N 
ATOM     90  O   UNL A   1      26.778  31.686  23.793  1.00  0.00    -0.258 OA
ATOM     91  O   UNL A   1      27.928  32.739  22.229  1.00  0.00    -0.258 OA
ENDBRANCH  88  89
ENDBRANCH  82  83
ENDBRANCH  74  82
ENDBRANCH  71  74
ENDBRANCH  69  70
ENDBRANCH   1  69
TORSDOF 17
ENDMDL
MODEL 2
REMARK VINA RESULT:     -13.4      6.295      8.188
REMARK SMILES O=C(NCCCNC(=O)[C@H](Cc1ccc([N+](=O)[O-])cc1)c1ccccc1Br)c1ccc(-c2c3nc(c(-c4ccc(S(=O)(=O)[O-])cc4)c4ccc([nH]4)c(-c4ccc(S(=O)(=O)[O-])cc4)c4nc(c(-c5ccc(S(=O)(=O)[O-])cc5)c5ccc2[nH]5)C=C4)C=C3)cc1
REMARK SMILES IDX 5 1 4 2 3 3 1 4 2 5 28 7 29 8 87 9 30 10 86 11 31 12 32 13
REMARK SMILES IDX 33 14 80 15 34 16 85 17 79 18 81 19 35 20 84 21 78 22 77 23
REMARK SMILES IDX 36 25 66 26 47 27 65 28 48 29 51 30 64 31 82 32 49 33 50 34
REMARK SMILES IDX 63 36 83 37 52 38 37 39 38 40 46 41 39 42 45 43 40 44 41 45
REMARK SMILES IDX 42 46 43 47 44 48 67 49 68 50 76 51 69 52 75 53 70 54 71 55
REMARK SMILES IDX 72 56 73 57 74 58 53 59 54 60 62 61 55 62 61 63 56 64 57 65
REMARK SMILES IDX 58 66 59 67 60 68 6 69 7 70 8 71 9 73 10 74 21 75 22 76
REMARK SMILES IDX 26 77 23 78 25 79 27 80 24 81 11 82 12 83 13 84 20 85 14 86
REMARK SMILES IDX 19 87 15 88 16 89 17 90 18 91
REMARK H PARENT 3 6 81 24 51 35 7 72
REMARK Flexibility Score: inf
ROOT
ATOM      1  C   UNL A   1      32.801  29.885  27.528  1.00  0.00     0.042 C 
ENDROOT
BRANCH   1   2
ATOM      2  C   UNL A   1      33.781  31.284  27.244  1.00  0.00     0.118 C 
BRANCH   2   3
ATOM      3  N   UNL A   1      33.276  32.638  27.534  1.00  0.00    -0.352 N 
ATOM      4  O   UNL A   1      32.880  34.504  28.743  1.00  0.00    -0.269 OA
ATOM      5  C   UNL A   1      33.586  33.529  28.524  1.00  0.00     0.251 C 
ATOM      6  H   UNL A   1      32.593  32.959  26.901  1.00  0.00     0.163 HD
BRANCH   5   7
ATOM      7  C   UNL A   1      34.850  33.336  29.226  1.00  0.00     0.039 A 
ATOM      8  C   UNL A   1      34.826  32.454  30.307  1.00  0.00     0.014 A 
ATOM      9  C   UNL A   1      36.017  33.981  28.822  1.00  0.00     0.014 A 
ATOM     10  C   UNL A   1      35.944  32.326  31.090  1.00  0.00     0.010 A 
ATOM     11  C   UNL A   1      37.186  33.751  29.543  1.00  0.00     0.010 A 
ATOM     12  C   UNL A   1      37.143  32.925  30.676  1.00  0.00    -0.014 A 
BRANCH  12  13
ATOM     13  C   UNL A   1      38.351  32.493  31.394  1.00  0.00     0.031 A 
ATOM     14  C   UNL A   1      38.669  33.033  32.745  1.00  0.00     0.074 A 
ATOM     15  C   UNL A   1      39.031  31.475  30.833  1.00  0.00     0.049 A 
ATOM     16  N   UNL A   1      39.590  32.634  33.577  1.00  0.00    -0.248 NA
ATOM     17  C   UNL A   1      37.854  34.158  33.232  1.00  0.00     0.031 C 
ATOM     18  C   UNL A   1      38.732  30.895  29.513  1.00  0.00     0.029 A 
ATOM     19  N   UNL A   1      40.039  30.693  31.314  1.00  0.00    -0.354 N 
ATOM     20  C   UNL A   1      39.481  33.463  34.683  1.00  0.00     0.074 A 
ATOM     21  C   UNL A   1      38.412  34.399  34.412  1.00  0.00     0.031 C 
ATOM     22  C   UNL A   1      39.471  29.794  29.338  1.00  0.00     0.029 A 
ATOM     23  C   UNL A   1      40.359  29.647  30.481  1.00  0.00     0.049 A 
ATOM     24  H   UNL A   1      40.494  30.861  32.171  1.00  0.00     0.167 HD
ATOM     25  C   UNL A   1      40.221  33.431  35.815  1.00  0.00     0.031 A 
ATOM     26  C   UNL A   1      41.285  28.683  30.620  1.00  0.00     0.031 A 
ATOM     27  C   UNL A   1      41.293  32.493  36.026  1.00  0.00     0.049 A 
ATOM     28  C   UNL A   1      42.106  28.698  31.872  1.00  0.00     0.074 A 
ATOM     29  C   UNL A   1      42.147  32.384  37.108  1.00  0.00     0.029 A 
ATOM     30  N   UNL A   1      41.657  31.495  35.128  1.00  0.00    -0.354 N 
ATOM     31  N   UNL A   1      42.010  29.506  32.903  1.00  0.00    -0.248 NA
ATOM     32  C   UNL A   1      43.161  27.689  31.980  1.00  0.00     0.031 C 
ATOM     33  C   UNL A   1      43.054  31.351  36.843  1.00  0.00     0.029 A 
ATOM     34  C   UNL A   1      42.729  30.775  35.624  1.00  0.00     0.049 A 
ATOM     35  H   UNL A   1      41.216  31.324  34.264  1.00  0.00     0.167 HD
ATOM     36  C   UNL A   1      43.000  29.108  33.786  1.00  0.00     0.074 A 
ATOM     37  C   UNL A   1      43.651  27.958  33.182  1.00  0.00     0.031 C 
ATOM     38  C   UNL A   1      43.355  29.647  34.979  1.00  0.00     0.031 A 
BRANCH  25  39
ATOM     39  C   UNL A   1      39.924  34.457  36.874  1.00  0.00    -0.014 A 
ATOM     40  C   UNL A   1      39.058  34.169  37.945  1.00  0.00     0.010 A 
ATOM     41  C   UNL A   1      40.550  35.716  36.822  1.00  0.00     0.010 A 
ATOM     42  C   UNL A   1      38.806  35.130  38.929  1.00  0.00     0.020 A 
ATOM     43  C   UNL A   1      40.319  36.671  37.817  1.00  0.00     0.020 A 
ATOM     44  C   UNL A   1      39.438  36.375  38.859  1.00  0.00     0.054 A 
BRANCH  44  45
ATOM     45  S   UNL A   1      39.120  37.587  40.172  1.00  0.00     0.124 S 
ATOM     46  O   UNL A   1      38.603  36.741  41.244  1.00  0.00    -0.237 OA
ATOM     47  O   UNL A   1      40.445  38.158  40.407  1.00  0.00    -0.237 OA
ATOM     48  O   UNL A   1      38.148  38.500  39.575  1.00  0.00    -0.744 OA
ENDBRANCH  44  45
ENDBRANCH  25  39
BRANCH  26  49
ATOM     49  C   UNL A   1      41.505  27.702  29.524  1.00  0.00    -0.014 A 
ATOM     50  C   UNL A   1      40.668  26.587  29.355  1.00  0.00     0.010 A 
ATOM     51  C   UNL A   1      42.559  27.908  28.610  1.00  0.00     0.010 A 
ATOM     52  C   UNL A   1      40.893  25.688  28.308  1.00  0.00     0.020 A 
ATOM     53  C   UNL A   1      42.763  27.034  27.542  1.00  0.00     0.020 A 
ATOM     54  C   UNL A   1      41.939  25.917  27.409  1.00  0.00     0.054 A 
BRANCH  54  55
ATOM     55  S   UNL A   1      42.199  24.757  26.039  1.00  0.00     0.124 S 
ATOM     56  O   UNL A   1      41.024  23.898  26.146  1.00  0.00    -0.237 OA
ATOM     57  O   UNL A   1      42.235  25.640  24.877  1.00  0.00    -0.237 OA
ATOM     58  O   UNL A   1      43.472  24.120  26.367  1.00  0.00    -0.744 OA
ENDBRANCH  54  55
ENDBRANCH  26  49
BRANCH  38  59
ATOM     59  C   UNL A   1      44.491  28.975  35.694  1.00  0.00    -0.014 A 
ATOM     60  C   UNL A   1      44.257  27.917  36.591  1.00  0.00     0.010 A 
ATOM     61  C   UNL A   1      45.808  29.406  35.458  1.00  0.00     0.010 A 
ATOM     62  C   UNL A   1      45.321  27.334  37.280  1.00  0.00     0.020 A 
ATOM     63  C   UNL A   1      46.876  28.803  36.122  1.00  0.00     0.020 A 
ATOM     64  C   UNL A   1      46.623  27.785  37.044  1.00  0.00     0.054 A 
BRANCH  64  65
ATOM     65  S   UNL A   1      47.990  27.004  37.940  1.00  0.00     0.124 S 
ATOM     66  O   UNL A   1      47.924  27.674  39.236  1.00  0.00    -0.237 OA
ATOM     67  O   UNL A   1      47.610  25.594  37.940  1.00  0.00    -0.237 OA
ATOM     68  O   UNL A   1      49.163  27.326  37.130  1.00  0.00    -0.744 OA
ENDBRANCH  64  65
ENDBRANCH  38  59
ENDBRANCH  12  13
ENDBRANCH   5   7
ENDBRANCH   2   3
ENDBRANCH   1   2
BRANCH   1  69
ATOM     69  C   UNL A   1      32.107  28.173  26.335  1.00  0.00     0.117 C 
BRANCH  69  70
ATOM     70  N   UNL A   1      31.247  26.873  26.741  1.00  0.00    -0.355 N 
ATOM     71  C   UNL A   1      30.797  25.793  26.016  1.00  0.00     0.227 C 
ATOM     72  H   UNL A   1      30.993  26.846  27.691  1.00  0.00     0.163 HD
ATOM     73  O   UNL A   1      30.221  24.907  26.647  1.00  0.00    -0.274 OA
BRANCH  71  74
ATOM     74  C   UNL A   1      31.139  25.701  24.517  1.00  0.00     0.114 C 
BRANCH  74  75
ATOM     75  C   UNL A   1      31.927  24.480  24.032  1.00  0.00    -0.021 A 
ATOM     76  C   UNL A   1      31.157  23.490  23.381  1.00  0.00     0.006 A 
ATOM     77  C   UNL A   1      33.262  24.160  24.348  1.00  0.00     0.021 A 
ATOM     78  C   UNL A   1      31.674  22.231  23.084  1.00  0.00     0.000 A 
ATOM     79  C   UNL A   1      33.792  22.906  23.999  1.00  0.00     0.016 A 
ATOM     80  Br  UNL A   1      34.415  25.275  25.371  1.00  0.00    -0.051 Br
ATOM     81  C   UNL A   1      32.996  21.939  23.390  1.00  0.00     0.001 A 
ENDBRANCH  74  75
BRANCH  74  82
ATOM     82  C   UNL A   1      29.986  25.901  23.508  1.00  0.00     0.053 C 
BRANCH  82  83
ATOM     83  C   UNL A   1      29.603  27.341  23.453  1.00  0.00    -0.046 A 
ATOM     84  C   UNL A   1      30.769  28.462  22.637  1.00  0.00     0.011 A 
ATOM     85  C   UNL A   1      27.852  27.783  23.597  1.00  0.00     0.011 A 
ATOM     86  C   UNL A   1      30.127  29.937  21.804  1.00  0.00     0.086 A 
ATOM     87  C   UNL A   1      27.244  29.280  22.813  1.00  0.00     0.086 A 
ATOM     88  C   UNL A   1      28.392  30.384  21.982  1.00  0.00     0.269 A 
BRANCH  88  89
ATOM     89  N   UNL A   1      27.939  31.680  21.542  1.00  0.00     0.062 N 
ATOM     90  O   UNL A   1      27.532  31.757  20.378  1.00  0.00    -0.258 OA
ATOM     91  O   UNL A   1      28.015  32.602  22.360  1.00  0.00    -0.258 OA
ENDBRANCH  88  89
ENDBRANCH  82  83
ENDBRANCH  74  82
ENDBRANCH  71  74
ENDBRANCH  69  70
ENDBRANCH   1  69
TORSDOF 17
ENDMDL
MODEL 3
REMARK VINA RESULT:     -13.3      4.630      9.032
REMARK SMILES O=C(NCCCNC(=O)[C@H](Cc1ccc([N+](=O)[O-])cc1)c1ccccc1Br)c1ccc(-c2c3nc(c(-c4ccc(S(=O)(=O)[O-])cc4)c4ccc([nH]4)c(-c4ccc(S(=O)(=O)[O-])cc4)c4nc(c(-c5ccc(S(=O)(=O)[O-])cc5)c5ccc2[nH]5)C=C4)C=C3)cc1
REMARK SMILES IDX 5 1 4 2 3 3 1 4 2 5 28 7 29 8 87 9 30 10 86 11 31 12 32 13
REMARK SMILES IDX 33 14 80 15 34 16 85 17 79 18 81 19 35 20 84 21 78 22 77 23
REMARK SMILES IDX 36 25 66 26 47 27 65 28 48 29 51 30 64 31 82 32 49 33 50 34
REMARK SMILES IDX 63 36 83 37 52 38 37 39 38 40 46 41 39 42 45 43 40 44 41 45
REMARK SMILES IDX 42 46 43 47 44 48 67 49 68 50 76 51 69 52 75 53 70 54 71 55
REMARK SMILES IDX 72 56 73 57 74 58 53 59 54 60 62 61 55 62 61 63 56 64 57 65
REMARK SMILES IDX 58 66 59 67 60 68 6 69 7 70 8 71 9 73 10 74 21 75 22 76
REMARK SMILES IDX 26 77 23 78 25 79 27 80 24 81 11 82 12 83 13 84 20 85 14 86
REMARK SMILES IDX 19 87 15 88 16 89 17 90 18 91
REMARK H PARENT 3 6 81 24 51 35 7 72
REMARK Flexibility Score: inf
ROOT
ATOM      1  C   UNL A   1      34.996  24.088  25.850  1.00  0.00     0.042 C 
ENDROOT
BRANCH   1   2
ATOM      2  C   UNL A   1      36.654  23.959  25.369  1.00  0.00     0.118 C 
BRANCH   2   3
ATOM      3  N   UNL A   1      37.528  22.910  25.923  1.00  0.00    -0.352 N 
ATOM      4  O   UNL A   1      39.441  21.956  26.652  1.00  0.00    -0.269 OA
ATOM      5  C   UNL A   1      38.777  22.969  26.477  1.00  0.00     0.251 C 
ATOM      6  H   UNL A   1      37.144  22.004  25.888  1.00  0.00     0.163 HD
BRANCH   5   7
ATOM      7  C   UNL A   1      39.236  24.267  26.958  1.00  0.00     0.039 A 
ATOM      8  C   UNL A   1      38.901  24.590  28.274  1.00  0.00     0.014 A 
ATOM      9  C   UNL A   1      39.986  25.123  26.153  1.00  0.00     0.014 A 
ATOM     10  C   UNL A   1      39.187  25.844  28.747  1.00  0.00     0.010 A 
ATOM     11  C   UNL A   1      40.387  26.348  26.680  1.00  0.00     0.010 A 
ATOM     12  C   UNL A   1      39.983  26.703  27.976  1.00  0.00    -0.014 A 
BRANCH  12  13
ATOM     13  C   UNL A   1      40.495  27.893  28.671  1.00  0.00     0.031 A 
ATOM     14  C   UNL A   1      39.610  29.061  28.936  1.00  0.00     0.074 A 
ATOM     15  C   UNL A   1      41.732  27.778  29.190  1.00  0.00     0.049 A 
ATOM     16  N   UNL A   1      39.853  30.105  29.679  1.00  0.00    -0.248 NA
ATOM     17  C   UNL A   1      38.286  29.065  28.293  1.00  0.00     0.031 C 
ATOM     18  C   UNL A   1      42.627  26.630  28.975  1.00  0.00     0.029 A 
ATOM     19  N   UNL A   1      42.420  28.572  30.061  1.00  0.00    -0.354 N 
ATOM     20  C   UNL A   1      38.720  30.901  29.588  1.00  0.00     0.074 A 
ATOM     21  C   UNL A   1      37.794  30.227  28.705  1.00  0.00     0.031 C 
ATOM     22  C   UNL A   1      43.696  26.749  29.771  1.00  0.00     0.029 A 
ATOM     23  C   UNL A   1      43.610  28.020  30.472  1.00  0.00     0.049 A 
ATOM     24  H   UNL A   1      42.098  29.451  30.363  1.00  0.00     0.167 HD
ATOM     25  C   UNL A   1      38.496  32.090  30.194  1.00  0.00     0.031 A 
ATOM     26  C   UNL A   1      44.541  28.501  31.313  1.00  0.00     0.031 A 
ATOM     27  C   UNL A   1      39.464  32.732  31.046  1.00  0.00     0.049 A 
ATOM     28  C   UNL A   1      44.272  29.834  31.941  1.00  0.00     0.074 A 
ATOM     29  C   UNL A   1      39.377  33.955  31.684  1.00  0.00     0.029 A 
ATOM     30  N   UNL A   1      40.702  32.193  31.380  1.00  0.00    -0.354 N 
ATOM     31  N   UNL A   1      43.205  30.592  31.827  1.00  0.00    -0.248 NA
ATOM     32  C   UNL A   1      45.324  30.383  32.798  1.00  0.00     0.031 C 
ATOM     33  C   UNL A   1      40.580  34.175  32.366  1.00  0.00     0.029 A 
ATOM     34  C   UNL A   1      41.393  33.063  32.204  1.00  0.00     0.049 A 
ATOM     35  H   UNL A   1      41.038  31.319  31.075  1.00  0.00     0.167 HD
ATOM     36  C   UNL A   1      43.460  31.717  32.594  1.00  0.00     0.074 A 
ATOM     37  C   UNL A   1      44.763  31.514  33.202  1.00  0.00     0.031 C 
ATOM     38  C   UNL A   1      42.698  32.825  32.771  1.00  0.00     0.031 A 
BRANCH  25  39
ATOM     39  C   UNL A   1      37.187  32.778  29.921  1.00  0.00    -0.014 A 
ATOM     40  C   UNL A   1      36.194  32.876  30.913  1.00  0.00     0.010 A 
ATOM     41  C   UNL A   1      36.958  33.371  28.666  1.00  0.00     0.010 A 
ATOM     42  C   UNL A   1      34.990  33.534  30.647  1.00  0.00     0.020 A 
ATOM     43  C   UNL A   1      35.764  34.050  28.403  1.00  0.00     0.020 A 
ATOM     44  C   UNL A   1      34.782  34.117  29.393  1.00  0.00     0.054 A 
BRANCH  44  45
ATOM     45  S   UNL A   1      33.224  34.996  29.090  1.00  0.00     0.124 S 
ATOM     46  O   UNL A   1      32.597  34.155  28.073  1.00  0.00    -0.237 OA
ATOM     47  O   UNL A   1      32.583  34.973  30.403  1.00  0.00    -0.237 OA
ATOM     48  O   UNL A   1      33.651  36.315  28.631  1.00  0.00    -0.744 OA
ENDBRANCH  44  45
ENDBRANCH  25  39
BRANCH  26  49
ATOM     49  C   UNL A   1      45.804  27.748  31.532  1.00  0.00    -0.014 A 
ATOM     50  C   UNL A   1      46.916  27.916  30.690  1.00  0.00     0.010 A 
ATOM     51  C   UNL A   1      45.906  26.868  32.628  1.00  0.00     0.010 A 
ATOM     52  C   UNL A   1      48.096  27.202  30.928  1.00  0.00     0.020 A 
ATOM     53  C   UNL A   1      47.093  26.183  32.891  1.00  0.00     0.020 A 
ATOM     54  C   UNL A   1      48.175  26.340  32.027  1.00  0.00     0.054 A 
BRANCH  54  55
ATOM     55  S   UNL A   1      49.721  25.445  32.338  1.00  0.00     0.124 S 
ATOM     56  O   UNL A   1      50.561  26.488  32.919  1.00  0.00    -0.237 OA
ATOM     57  O   UNL A   1      49.299  24.388  33.253  1.00  0.00    -0.237 OA
ATOM     58  O   UNL A   1      50.124  24.985  31.011  1.00  0.00    -0.744 OA
ENDBRANCH  54  55
ENDBRANCH  26  49
BRANCH  38  59
ATOM     59  C   UNL A   1      43.272  33.882  33.671  1.00  0.00    -0.014 A 
ATOM     60  C   UNL A   1      44.067  34.920  33.154  1.00  0.00     0.010 A 
ATOM     61  C   UNL A   1      43.002  33.834  35.050  1.00  0.00     0.010 A 
ATOM     62  C   UNL A   1      44.628  35.866  34.012  1.00  0.00     0.020 A 
ATOM     63  C   UNL A   1      43.536  34.798  35.906  1.00  0.00     0.020 A 
ATOM     64  C   UNL A   1      44.362  35.796  35.382  1.00  0.00     0.054 A 
BRANCH  64  65
ATOM     65  S   UNL A   1      45.090  37.044  36.476  1.00  0.00     0.124 S 
ATOM     66  O   UNL A   1      44.199  36.991  37.631  1.00  0.00    -0.237 OA
ATOM     67  O   UNL A   1      46.439  36.529  36.696  1.00  0.00    -0.237 OA
ATOM     68  O   UNL A   1      45.020  38.274  35.690  1.00  0.00    -0.744 OA
ENDBRANCH  64  65
ENDBRANCH  38  59
ENDBRANCH  12  13
ENDBRANCH   5   7
ENDBRANCH   2   3
ENDBRANCH   1   2
BRANCH   1  69
ATOM     69  C   UNL A   1      33.565  25.728  26.168  1.00  0.00     0.117 C 
BRANCH  69  70
ATOM     70  N   UNL A   1      32.017  25.717  26.613  1.00  0.00    -0.355 N 
ATOM     71  C   UNL A   1      30.846  25.613  25.899  1.00  0.00     0.227 C 
ATOM     72  H   UNL A   1      31.883  25.801  27.585  1.00  0.00     0.163 HD
ATOM     73  O   UNL A   1      29.804  25.554  26.552  1.00  0.00    -0.274 OA
BRANCH  71  74
ATOM     74  C   UNL A   1      30.912  25.459  24.367  1.00  0.00     0.114 C 
BRANCH  74  75
ATOM     75  C   UNL A   1      31.517  24.170  23.800  1.00  0.00    -0.021 A 
ATOM     76  C   UNL A   1      31.349  23.024  24.610  1.00  0.00     0.006 A 
ATOM     77  C   UNL A   1      32.378  24.062  22.691  1.00  0.00     0.021 A 
ATOM     78  C   UNL A   1      32.026  21.834  24.350  1.00  0.00     0.000 A 
ATOM     79  C   UNL A   1      33.017  22.843  22.407  1.00  0.00     0.016 A 
ATOM     80  Br  UNL A   1      32.878  25.521  21.579  1.00  0.00    -0.051 Br
ATOM     81  C   UNL A   1      32.859  21.741  23.245  1.00  0.00     0.001 A 
ENDBRANCH  74  75
BRANCH  74  82
ATOM     82  C   UNL A   1      29.617  25.719  23.567  1.00  0.00     0.053 C 
BRANCH  82  83
ATOM     83  C   UNL A   1      29.335  27.182  23.518  1.00  0.00    -0.046 A 
ATOM     84  C   UNL A   1      30.578  28.224  22.710  1.00  0.00     0.011 A 
ATOM     85  C   UNL A   1      27.619  27.745  23.660  1.00  0.00     0.011 A 
ATOM     86  C   UNL A   1      30.042  29.743  21.882  1.00  0.00     0.086 A 
ATOM     87  C   UNL A   1      27.118  29.283  22.881  1.00  0.00     0.086 A 
ATOM     88  C   UNL A   1      28.342  30.309  22.058  1.00  0.00     0.269 A 
BRANCH  88  89
ATOM     89  N   UNL A   1      27.982  31.635  21.624  1.00  0.00     0.062 N 
ATOM     90  O   UNL A   1      28.075  32.536  22.465  1.00  0.00    -0.258 OA
ATOM     91  O   UNL A   1      27.595  31.752  20.457  1.00  0.00    -0.258 OA
ENDBRANCH  88  89
ENDBRANCH  82  83
ENDBRANCH  74  82
ENDBRANCH  71  74
ENDBRANCH  69  70
ENDBRANCH   1  69
TORSDOF 17
ENDMDL
