MODEL 1
REMARK VINA RESULT:     -12.1      0.000      0.000
REMARK SMILES CCc1ccc(S(=O)(=O)c2nnn(-c3ccc(C(=O)NCCCNC(=O)c4ccc(-c5c6nc(c(-c7ccc(S(=O)(=O)[O-])cc7)c7ccc([nH]7)c(-c7ccc(S(=O)(=O)[O-])cc7)c7nc(c(-c8ccc(S(=O)(=O)[O-])cc8)c8ccc5[nH]8)C=C7)C=C6)cc4)cc3)c2C)cc1
REMARK SMILES IDX 21 1 20 2 18 3 19 4 17 6 14 7 15 8 88 9 16 10 87 11 13 12
REMARK SMILES IDX 10 13 11 14 89 15 12 16 90 17 7 18 8 19 9 20 6 21 3 22 4 23
REMARK SMILES IDX 92 24 5 25 91 26 2 27 1 28 22 29 23 30 24 31 25 32 26 34
REMARK SMILES IDX 27 35 28 36 86 37 29 38 85 39 30 40 31 41 32 42 79 43 33 44
REMARK SMILES IDX 84 45 78 46 80 47 34 48 83 49 77 50 76 51 35 53 65 54 46 55
REMARK SMILES IDX 64 56 47 57 50 58 63 59 81 60 48 61 49 62 62 64 82 65 51 66
REMARK SMILES IDX 36 67 37 68 45 69 38 70 44 71 39 72 40 73 41 74 42 75 43 76
REMARK SMILES IDX 66 77 67 78 75 79 68 80 74 81 69 82 70 83 71 84 72 85 73 86
REMARK SMILES IDX 52 87 53 88 61 89 54 90 60 91 55 92 56 93 57 94 58 95 59 96
REMARK H PARENT 20 5 24 33 80 52 50 63
REMARK Flexibility Score: inf
ROOT
ATOM      1  C   UNL A   1      41.045  19.224  26.186  1.00  0.00     0.118 C 
ENDROOT
BRANCH   1   2
ATOM      2  N   UNL A   1      41.242  20.397  27.025  1.00  0.00    -0.352 N 
ATOM      3  C   UNL A   1      40.533  21.567  27.169  1.00  0.00     0.251 C 
ATOM      4  O   UNL A   1      40.874  22.335  28.066  1.00  0.00    -0.269 OA
ATOM      5  H   UNL A   1      42.038  20.342  27.602  1.00  0.00     0.163 HD
BRANCH   3   6
ATOM      6  C   UNL A   1      39.348  21.920  26.334  1.00  0.00     0.039 A 
ATOM      7  C   UNL A   1      37.013  22.653  24.972  1.00  0.00     0.067 A 
ATOM      8  C   UNL A   1      37.710  23.620  25.696  1.00  0.00     0.029 A 
ATOM      9  C   UNL A   1      37.533  21.368  24.827  1.00  0.00     0.029 A 
ATOM     10  C   UNL A   1      38.861  23.239  26.399  1.00  0.00     0.016 A 
ATOM     11  C   UNL A   1      38.713  21.024  25.476  1.00  0.00     0.016 A 
BRANCH   7  12
ATOM     12  N   UNL A   1      35.759  22.939  24.405  1.00  0.00    -0.216 N 
ATOM     13  C   UNL A   1      33.633  23.132  24.010  1.00  0.00     0.205 A 
ATOM     14  N   UNL A   1      34.318  23.365  22.847  1.00  0.00    -0.117 NA
ATOM     15  C   UNL A   1      34.532  22.952  25.047  1.00  0.00     0.081 A 
ATOM     16  N   UNL A   1      35.616  23.336  23.123  1.00  0.00    -0.061 NA
ATOM     17  C   UNL A   1      34.359  22.962  26.523  1.00  0.00     0.070 C 
BRANCH  13  18
ATOM     18  S   UNL A   1      31.923  23.329  24.128  1.00  0.00     0.227 S 
ATOM     19  O   UNL A   1      31.582  22.791  25.426  1.00  0.00    -0.217 OA
ATOM     20  O   UNL A   1      31.368  22.796  22.896  1.00  0.00    -0.217 OA
BRANCH  18  21
ATOM     21  C   UNL A   1      31.608  25.072  24.162  1.00  0.00     0.073 A 
ATOM     22  C   UNL A   1      31.004  27.811  24.268  1.00  0.00    -0.048 A 
ATOM     23  C   UNL A   1      29.985  26.862  24.099  1.00  0.00     0.005 A 
ATOM     24  C   UNL A   1      32.328  27.362  24.393  1.00  0.00     0.005 A 
ATOM     25  C   UNL A   1      30.282  25.497  24.053  1.00  0.00     0.021 A 
ATOM     26  C   UNL A   1      32.635  26.003  24.330  1.00  0.00     0.021 A 
BRANCH  22  27
ATOM     27  C   UNL A   1      30.764  29.304  24.318  1.00  0.00     0.032 C 
ATOM     28  C   UNL A   1      29.839  29.886  23.260  1.00  0.00     0.009 C 
ENDBRANCH  22  27
ENDBRANCH  18  21
ENDBRANCH  13  18
ENDBRANCH   7  12
ENDBRANCH   3   6
ENDBRANCH   1   2
BRANCH   1  29
ATOM     29  C   UNL A   1      42.375  18.592  25.754  1.00  0.00     0.042 C 
BRANCH  29  30
ATOM     30  C   UNL A   1      43.586  19.392  26.206  1.00  0.00     0.118 C 
BRANCH  30  31
ATOM     31  N   UNL A   1      44.357  19.893  25.072  1.00  0.00    -0.352 N 
ATOM     32  C   UNL A   1      44.430  21.183  24.599  1.00  0.00     0.251 C 
ATOM     33  H   UNL A   1      44.891  19.224  24.586  1.00  0.00     0.163 HD
ATOM     34  O   UNL A   1      44.820  21.399  23.457  1.00  0.00    -0.269 OA
BRANCH  32  35
ATOM     35  C   UNL A   1      44.004  22.290  25.473  1.00  0.00     0.039 A 
ATOM     36  C   UNL A   1      44.685  22.537  26.667  1.00  0.00     0.014 A 
ATOM     37  C   UNL A   1      42.952  23.110  25.066  1.00  0.00     0.014 A 
ATOM     38  C   UNL A   1      44.365  23.675  27.402  1.00  0.00     0.010 A 
ATOM     39  C   UNL A   1      42.704  24.287  25.741  1.00  0.00     0.010 A 
ATOM     40  C   UNL A   1      43.396  24.570  26.919  1.00  0.00    -0.014 A 
BRANCH  40  41
ATOM     41  C   UNL A   1      43.217  25.865  27.577  1.00  0.00     0.031 A 
ATOM     42  C   UNL A   1      44.241  26.897  27.245  1.00  0.00     0.074 A 
ATOM     43  C   UNL A   1      42.110  26.225  28.259  1.00  0.00     0.049 A 
ATOM     44  N   UNL A   1      45.138  27.407  28.024  1.00  0.00    -0.248 NA
ATOM     45  C   UNL A   1      44.348  27.339  25.845  1.00  0.00     0.031 C 
ATOM     46  C   UNL A   1      40.856  25.481  28.406  1.00  0.00     0.029 A 
ATOM     47  N   UNL A   1      41.831  27.414  28.863  1.00  0.00    -0.354 N 
ATOM     48  C   UNL A   1      45.791  28.385  27.278  1.00  0.00     0.074 A 
ATOM     49  C   UNL A   1      45.383  28.182  25.910  1.00  0.00     0.031 C 
ATOM     50  C   UNL A   1      39.885  26.320  28.831  1.00  0.00     0.029 A 
ATOM     51  C   UNL A   1      40.485  27.602  29.150  1.00  0.00     0.049 A 
ATOM     52  H   UNL A   1      42.523  28.081  29.078  1.00  0.00     0.167 HD
ATOM     53  C   UNL A   1      46.441  29.430  27.867  1.00  0.00     0.031 A 
ATOM     54  C   UNL A   1      39.895  28.741  29.586  1.00  0.00     0.031 A 
ATOM     55  C   UNL A   1      46.599  29.230  29.284  1.00  0.00     0.049 A 
ATOM     56  C   UNL A   1      40.955  29.592  30.176  1.00  0.00     0.074 A 
ATOM     57  C   UNL A   1      47.203  28.278  30.080  1.00  0.00     0.029 A 
ATOM     58  N   UNL A   1      45.741  29.926  30.105  1.00  0.00    -0.354 N 
ATOM     59  N   UNL A   1      41.600  29.285  31.266  1.00  0.00    -0.248 NA
ATOM     60  C   UNL A   1      41.589  30.598  29.341  1.00  0.00     0.031 C 
ATOM     61  C   UNL A   1      46.339  28.141  31.207  1.00  0.00     0.029 A 
ATOM     62  C   UNL A   1      45.294  29.057  31.065  1.00  0.00     0.049 A 
ATOM     63  H   UNL A   1      45.495  30.876  30.019  1.00  0.00     0.167 HD
ATOM     64  C   UNL A   1      42.898  29.719  31.045  1.00  0.00     0.074 A 
ATOM     65  C   UNL A   1      42.801  30.625  29.904  1.00  0.00     0.031 C 
ATOM     66  C   UNL A   1      43.961  29.090  31.630  1.00  0.00     0.031 A 
BRANCH  53  67
ATOM     67  C   UNL A   1      46.584  30.805  27.254  1.00  0.00    -0.014 A 
ATOM     68  C   UNL A   1      47.843  31.443  27.302  1.00  0.00     0.010 A 
ATOM     69  C   UNL A   1      45.480  31.605  26.898  1.00  0.00     0.010 A 
ATOM     70  C   UNL A   1      47.973  32.823  27.092  1.00  0.00     0.020 A 
ATOM     71  C   UNL A   1      45.606  32.973  26.639  1.00  0.00     0.020 A 
ATOM     72  C   UNL A   1      46.847  33.581  26.778  1.00  0.00     0.054 A 
BRANCH  72  73
ATOM     73  S   UNL A   1      46.999  35.378  26.627  1.00  0.00     0.124 S 
ATOM     74  O   UNL A   1      45.602  35.789  26.537  1.00  0.00    -0.237 OA
ATOM     75  O   UNL A   1      47.688  35.736  27.864  1.00  0.00    -0.237 OA
ATOM     76  O   UNL A   1      47.785  35.551  25.407  1.00  0.00    -0.744 OA
ENDBRANCH  72  73
ENDBRANCH  53  67
BRANCH  54  77
ATOM     77  C   UNL A   1      38.527  29.239  29.307  1.00  0.00    -0.014 A 
ATOM     78  C   UNL A   1      37.740  29.792  30.334  1.00  0.00     0.010 A 
ATOM     79  C   UNL A   1      38.102  29.432  27.977  1.00  0.00     0.010 A 
ATOM     80  C   UNL A   1      36.611  30.572  30.037  1.00  0.00     0.020 A 
ATOM     81  C   UNL A   1      36.972  30.200  27.673  1.00  0.00     0.020 A 
ATOM     82  C   UNL A   1      36.249  30.792  28.706  1.00  0.00     0.054 A 
BRANCH  82  83
ATOM     83  S   UNL A   1      34.915  31.967  28.327  1.00  0.00     0.124 S 
ATOM     84  O   UNL A   1      35.621  33.010  27.588  1.00  0.00    -0.237 OA
ATOM     85  O   UNL A   1      33.989  31.155  27.544  1.00  0.00    -0.237 OA
ATOM     86  O   UNL A   1      34.422  32.366  29.645  1.00  0.00    -0.744 OA
ENDBRANCH  82  83
ENDBRANCH  54  77
BRANCH  66  87
ATOM     87  C   UNL A   1      43.706  28.168  32.798  1.00  0.00    -0.014 A 
ATOM     88  C   UNL A   1      43.360  28.606  34.090  1.00  0.00     0.010 A 
ATOM     89  C   UNL A   1      43.687  26.786  32.532  1.00  0.00     0.010 A 
ATOM     90  C   UNL A   1      43.040  27.683  35.097  1.00  0.00     0.020 A 
ATOM     91  C   UNL A   1      43.348  25.864  33.523  1.00  0.00     0.020 A 
ATOM     92  C   UNL A   1      43.038  26.315  34.805  1.00  0.00     0.054 A 
BRANCH  92  93
ATOM     93  S   UNL A   1      42.590  25.125  36.100  1.00  0.00     0.124 S 
ATOM     94  O   UNL A   1      41.396  25.728  36.686  1.00  0.00    -0.237 OA
ATOM     95  O   UNL A   1      42.368  23.893  35.347  1.00  0.00    -0.237 OA
ATOM     96  O   UNL A   1      43.762  25.103  36.974  1.00  0.00    -0.744 OA
ENDBRANCH  92  93
ENDBRANCH  66  87
ENDBRANCH  40  41
ENDBRANCH  32  35
ENDBRANCH  30  31
ENDBRANCH  29  30
ENDBRANCH   1  29
TORSDOF 17
ENDMDL
MODEL 2
REMARK VINA RESULT:     -11.9      3.302      9.903
REMARK SMILES CCc1ccc(S(=O)(=O)c2nnn(-c3ccc(C(=O)NCCCNC(=O)c4ccc(-c5c6nc(c(-c7ccc(S(=O)(=O)[O-])cc7)c7ccc([nH]7)c(-c7ccc(S(=O)(=O)[O-])cc7)c7nc(c(-c8ccc(S(=O)(=O)[O-])cc8)c8ccc5[nH]8)C=C7)C=C6)cc4)cc3)c2C)cc1
REMARK SMILES IDX 21 1 20 2 18 3 19 4 17 6 14 7 15 8 88 9 16 10 87 11 13 12
REMARK SMILES IDX 10 13 11 14 89 15 12 16 90 17 7 18 8 19 9 20 6 21 3 22 4 23
REMARK SMILES IDX 92 24 5 25 91 26 2 27 1 28 22 29 23 30 24 31 25 32 26 34
REMARK SMILES IDX 27 35 28 36 86 37 29 38 85 39 30 40 31 41 32 42 79 43 33 44
REMARK SMILES IDX 84 45 78 46 80 47 34 48 83 49 77 50 76 51 35 53 65 54 46 55
REMARK SMILES IDX 64 56 47 57 50 58 63 59 81 60 48 61 49 62 62 64 82 65 51 66
REMARK SMILES IDX 36 67 37 68 45 69 38 70 44 71 39 72 40 73 41 74 42 75 43 76
REMARK SMILES IDX 66 77 67 78 75 79 68 80 74 81 69 82 70 83 71 84 72 85 73 86
REMARK SMILES IDX 52 87 53 88 61 89 54 90 60 91 55 92 56 93 57 94 58 95 59 96
REMARK H PARENT 20 5 24 33 80 52 50 63
REMARK Flexibility Score: inf
ROOT
ATOM      1  C   UNL A   1      34.420  35.150  28.356  1.00  0.00     0.118 C 
ENDROOT
BRANCH   1   2
ATOM      2  N   UNL A   1      35.718  34.504  28.476  1.00  0.00    -0.352 N 
ATOM      3  C   UNL A   1      36.129  33.203  28.301  1.00  0.00     0.251 C 
ATOM      4  O   UNL A   1      37.336  32.973  28.346  1.00  0.00    -0.269 OA
ATOM      5  H   UNL A   1      36.445  35.118  28.731  1.00  0.00     0.163 HD
BRANCH   3   6
ATOM      6  C   UNL A   1      35.196  32.077  28.009  1.00  0.00     0.039 A 
ATOM      7  C   UNL A   1      33.570  29.923  27.256  1.00  0.00     0.067 A 
ATOM      8  C   UNL A   1      34.931  29.705  27.472  1.00  0.00     0.029 A 
ATOM      9  C   UNL A   1      33.002  31.167  27.527  1.00  0.00     0.029 A 
ATOM     10  C   UNL A   1      35.742  30.794  27.819  1.00  0.00     0.016 A 
ATOM     11  C   UNL A   1      33.811  32.220  27.937  1.00  0.00     0.016 A 
BRANCH   7  12
ATOM     12  N   UNL A   1      32.751  28.910  26.729  1.00  0.00    -0.216 N 
ATOM     13  C   UNL A   1      31.489  27.687  25.454  1.00  0.00     0.205 A 
ATOM     14  N   UNL A   1      31.374  27.240  26.743  1.00  0.00    -0.117 NA
ATOM     15  C   UNL A   1      32.439  28.693  25.397  1.00  0.00     0.081 A 
ATOM     16  N   UNL A   1      32.219  27.935  27.495  1.00  0.00    -0.061 NA
ATOM     17  C   UNL A   1      33.160  29.313  24.255  1.00  0.00     0.070 C 
BRANCH  13  18
ATOM     18  S   UNL A   1      30.740  26.877  24.127  1.00  0.00     0.227 S 
ATOM     19  O   UNL A   1      29.793  25.972  24.738  1.00  0.00    -0.217 OA
ATOM     20  O   UNL A   1      31.822  26.411  23.275  1.00  0.00    -0.217 OA
BRANCH  18  21
ATOM     21  C   UNL A   1      29.825  28.100  23.229  1.00  0.00     0.073 A 
ATOM     22  C   UNL A   1      28.297  30.042  21.898  1.00  0.00    -0.048 A 
ATOM     23  C   UNL A   1      27.679  29.086  22.716  1.00  0.00     0.005 A 
ATOM     24  C   UNL A   1      29.694  30.013  21.767  1.00  0.00     0.005 A 
ATOM     25  C   UNL A   1      28.438  28.122  23.387  1.00  0.00     0.021 A 
ATOM     26  C   UNL A   1      30.457  29.044  22.417  1.00  0.00     0.021 A 
BRANCH  22  27
ATOM     27  C   UNL A   1      27.545  31.108  21.133  1.00  0.00     0.032 C 
ATOM     28  C   UNL A   1      28.361  31.981  20.191  1.00  0.00     0.009 C 
ENDBRANCH  22  27
ENDBRANCH  18  21
ENDBRANCH  13  18
ENDBRANCH   7  12
ENDBRANCH   3   6
ENDBRANCH   1   2
BRANCH   1  29
ATOM     29  C   UNL A   1      33.651  35.155  29.685  1.00  0.00     0.042 C 
BRANCH  29  30
ATOM     30  C   UNL A   1      34.520  35.544  30.871  1.00  0.00     0.118 C 
BRANCH  30  31
ATOM     31  N   UNL A   1      34.066  34.910  32.104  1.00  0.00    -0.352 N 
ATOM     32  C   UNL A   1      34.415  33.675  32.602  1.00  0.00     0.251 C 
ATOM     33  H   UNL A   1      33.432  35.431  32.648  1.00  0.00     0.163 HD
ATOM     34  O   UNL A   1      33.709  33.127  33.442  1.00  0.00    -0.269 OA
BRANCH  32  35
ATOM     35  C   UNL A   1      35.626  33.014  32.087  1.00  0.00     0.039 A 
ATOM     36  C   UNL A   1      36.858  33.667  32.150  1.00  0.00     0.014 A 
ATOM     37  C   UNL A   1      35.530  31.715  31.587  1.00  0.00     0.014 A 
ATOM     38  C   UNL A   1      38.010  32.970  31.799  1.00  0.00     0.010 A 
ATOM     39  C   UNL A   1      36.679  30.994  31.334  1.00  0.00     0.010 A 
ATOM     40  C   UNL A   1      37.923  31.619  31.424  1.00  0.00    -0.014 A 
BRANCH  40  41
ATOM     41  C   UNL A   1      39.147  30.833  31.265  1.00  0.00     0.031 A 
ATOM     42  C   UNL A   1      39.895  30.555  32.525  1.00  0.00     0.074 A 
ATOM     43  C   UNL A   1      39.498  30.191  30.132  1.00  0.00     0.049 A 
ATOM     44  N   UNL A   1      41.055  31.003  32.876  1.00  0.00    -0.248 NA
ATOM     45  C   UNL A   1      39.222  29.765  33.569  1.00  0.00     0.031 C 
ATOM     46  C   UNL A   1      38.727  30.058  28.892  1.00  0.00     0.029 A 
ATOM     47  N   UNL A   1      40.585  29.403  29.900  1.00  0.00    -0.354 N 
ATOM     48  C   UNL A   1      41.358  30.392  34.090  1.00  0.00     0.074 A 
ATOM     49  C   UNL A   1      40.133  29.781  34.546  1.00  0.00     0.031 C 
ATOM     50  C   UNL A   1      39.243  29.053  28.150  1.00  0.00     0.029 A 
ATOM     51  C   UNL A   1      40.471  28.597  28.774  1.00  0.00     0.049 A 
ATOM     52  H   UNL A   1      41.380  29.404  30.480  1.00  0.00     0.167 HD
ATOM     53  C   UNL A   1      42.643  30.240  34.523  1.00  0.00     0.031 A 
ATOM     54  C   UNL A   1      41.307  27.600  28.397  1.00  0.00     0.031 A 
ATOM     55  C   UNL A   1      43.567  31.015  33.736  1.00  0.00     0.049 A 
ATOM     56  C   UNL A   1      42.603  27.825  29.080  1.00  0.00     0.074 A 
ATOM     57  C   UNL A   1      43.722  32.354  33.440  1.00  0.00     0.029 A 
ATOM     58  N   UNL A   1      44.308  30.329  32.801  1.00  0.00    -0.354 N 
ATOM     59  N   UNL A   1      43.385  28.836  28.823  1.00  0.00    -0.248 NA
ATOM     60  C   UNL A   1      42.855  27.149  30.342  1.00  0.00     0.031 C 
ATOM     61  C   UNL A   1      44.150  32.381  32.081  1.00  0.00     0.029 A 
ATOM     62  C   UNL A   1      44.291  31.062  31.645  1.00  0.00     0.049 A 
ATOM     63  H   UNL A   1      44.767  29.469  32.940  1.00  0.00     0.167 HD
ATOM     64  C   UNL A   1      43.923  29.190  30.051  1.00  0.00     0.074 A 
ATOM     65  C   UNL A   1      43.659  28.046  30.920  1.00  0.00     0.031 C 
ATOM     66  C   UNL A   1      44.281  30.481  30.318  1.00  0.00     0.031 A 
BRANCH  53  67
ATOM     67  C   UNL A   1      43.125  29.097  35.389  1.00  0.00    -0.014 A 
ATOM     68  C   UNL A   1      43.929  29.390  36.513  1.00  0.00     0.010 A 
ATOM     69  C   UNL A   1      43.065  27.749  34.985  1.00  0.00     0.010 A 
ATOM     70  C   UNL A   1      44.698  28.399  37.141  1.00  0.00     0.020 A 
ATOM     71  C   UNL A   1      43.791  26.745  35.633  1.00  0.00     0.020 A 
ATOM     72  C   UNL A   1      44.635  27.085  36.682  1.00  0.00     0.054 A 
BRANCH  72  73
ATOM     73  S   UNL A   1      45.719  25.836  37.416  1.00  0.00     0.124 S 
ATOM     74  O   UNL A   1      45.302  24.628  36.710  1.00  0.00    -0.237 OA
ATOM     75  O   UNL A   1      47.047  26.341  37.079  1.00  0.00    -0.237 OA
ATOM     76  O   UNL A   1      45.380  25.883  38.836  1.00  0.00    -0.744 OA
ENDBRANCH  72  73
ENDBRANCH  53  67
BRANCH  54  77
ATOM     77  C   UNL A   1      40.984  26.343  27.682  1.00  0.00    -0.014 A 
ATOM     78  C   UNL A   1      41.945  25.707  26.874  1.00  0.00     0.010 A 
ATOM     79  C   UNL A   1      39.824  25.617  28.018  1.00  0.00     0.010 A 
ATOM     80  C   UNL A   1      41.786  24.369  26.482  1.00  0.00     0.020 A 
ATOM     81  C   UNL A   1      39.653  24.285  27.621  1.00  0.00     0.020 A 
ATOM     82  C   UNL A   1      40.651  23.658  26.878  1.00  0.00     0.054 A 
BRANCH  82  83
ATOM     83  S   UNL A   1      40.552  21.875  26.542  1.00  0.00     0.124 S 
ATOM     84  O   UNL A   1      39.246  21.751  25.902  1.00  0.00    -0.237 OA
ATOM     85  O   UNL A   1      41.705  21.652  25.674  1.00  0.00    -0.237 OA
ATOM     86  O   UNL A   1      40.653  21.268  27.869  1.00  0.00    -0.744 OA
ENDBRANCH  82  83
ENDBRANCH  54  77
BRANCH  66  87
ATOM     87  C   UNL A   1      44.440  31.443  29.164  1.00  0.00    -0.014 A 
ATOM     88  C   UNL A   1      43.433  32.323  28.724  1.00  0.00     0.010 A 
ATOM     89  C   UNL A   1      45.719  31.548  28.589  1.00  0.00     0.010 A 
ATOM     90  C   UNL A   1      43.692  33.257  27.709  1.00  0.00     0.020 A 
ATOM     91  C   UNL A   1      45.991  32.490  27.595  1.00  0.00     0.020 A 
ATOM     92  C   UNL A   1      44.972  33.332  27.150  1.00  0.00     0.054 A 
BRANCH  92  93
ATOM     93  S   UNL A   1      45.315  34.565  25.864  1.00  0.00     0.124 S 
ATOM     94  O   UNL A   1      45.327  35.816  26.618  1.00  0.00    -0.237 OA
ATOM     95  O   UNL A   1      46.607  34.135  25.337  1.00  0.00    -0.237 OA
ATOM     96  O   UNL A   1      44.196  34.417  24.933  1.00  0.00    -0.744 OA
ENDBRANCH  92  93
ENDBRANCH  66  87
ENDBRANCH  40  41
ENDBRANCH  32  35
ENDBRANCH  30  31
ENDBRANCH  29  30
ENDBRANCH   1  29
TORSDOF 17
ENDMDL
MODEL 3
REMARK VINA RESULT:     -11.9      3.184      9.987
REMARK SMILES CCc1ccc(S(=O)(=O)c2nnn(-c3ccc(C(=O)NCCCNC(=O)c4ccc(-c5c6nc(c(-c7ccc(S(=O)(=O)[O-])cc7)c7ccc([nH]7)c(-c7ccc(S(=O)(=O)[O-])cc7)c7nc(c(-c8ccc(S(=O)(=O)[O-])cc8)c8ccc5[nH]8)C=C7)C=C6)cc4)cc3)c2C)cc1
REMARK SMILES IDX 21 1 20 2 18 3 19 4 17 6 14 7 15 8 88 9 16 10 87 11 13 12
REMARK SMILES IDX 10 13 11 14 89 15 12 16 90 17 7 18 8 19 9 20 6 21 3 22 4 23
REMARK SMILES IDX 92 24 5 25 91 26 2 27 1 28 22 29 23 30 24 31 25 32 26 34
REMARK SMILES IDX 27 35 28 36 86 37 29 38 85 39 30 40 31 41 32 42 79 43 33 44
REMARK SMILES IDX 84 45 78 46 80 47 34 48 83 49 77 50 76 51 35 53 65 54 46 55
REMARK SMILES IDX 64 56 47 57 50 58 63 59 81 60 48 61 49 62 62 64 82 65 51 66
REMARK SMILES IDX 36 67 37 68 45 69 38 70 44 71 39 72 40 73 41 74 42 75 43 76
REMARK SMILES IDX 66 77 67 78 75 79 68 80 74 81 69 82 70 83 71 84 72 85 73 86
REMARK SMILES IDX 52 87 53 88 61 89 54 90 60 91 55 92 56 93 57 94 58 95 59 96
REMARK H PARENT 20 5 24 33 80 52 50 63
REMARK Flexibility Score: inf
ROOT
ATOM      1  C   UNL A   1      34.196  35.027  28.212  1.00  0.00     0.118 C 
ENDROOT
BRANCH   1   2
ATOM      2  N   UNL A   1      35.494  34.379  28.314  1.00  0.00    -0.352 N 
ATOM      3  C   UNL A   1      35.897  33.073  28.160  1.00  0.00     0.251 C 
ATOM      4  O   UNL A   1      37.104  32.840  28.180  1.00  0.00    -0.269 OA
ATOM      5  H   UNL A   1      36.229  34.996  28.537  1.00  0.00     0.163 HD
BRANCH   3   6
ATOM      6  C   UNL A   1      34.953  31.943  27.917  1.00  0.00     0.039 A 
ATOM      7  C   UNL A   1      33.324  29.756  27.277  1.00  0.00     0.067 A 
ATOM      8  C   UNL A   1      34.651  29.532  27.643  1.00  0.00     0.029 A 
ATOM      9  C   UNL A   1      32.780  31.037  27.344  1.00  0.00     0.029 A 
ATOM     10  C   UNL A   1      35.467  30.633  27.933  1.00  0.00     0.016 A 
ATOM     11  C   UNL A   1      33.586  32.112  27.700  1.00  0.00     0.016 A 
BRANCH   7  12
ATOM     12  N   UNL A   1      32.520  28.708  26.799  1.00  0.00    -0.216 N 
ATOM     13  C   UNL A   1      31.350  27.360  25.562  1.00  0.00     0.205 A 
ATOM     14  N   UNL A   1      31.065  27.106  26.877  1.00  0.00    -0.117 NA
ATOM     15  C   UNL A   1      32.350  28.314  25.482  1.00  0.00     0.081 A 
ATOM     16  N   UNL A   1      31.854  27.870  27.622  1.00  0.00    -0.061 NA
ATOM     17  C   UNL A   1      33.227  28.740  24.360  1.00  0.00     0.070 C 
BRANCH  13  18
ATOM     18  S   UNL A   1      30.716  26.397  24.278  1.00  0.00     0.227 S 
ATOM     19  O   UNL A   1      31.108  27.092  23.072  1.00  0.00    -0.217 OA
ATOM     20  O   UNL A   1      29.324  26.144  24.611  1.00  0.00    -0.217 OA
BRANCH  18  21
ATOM     21  C   UNL A   1      31.579  24.850  24.321  1.00  0.00     0.073 A 
ATOM     22  C   UNL A   1      32.843  22.345  24.375  1.00  0.00    -0.048 A 
ATOM     23  C   UNL A   1      31.548  22.502  24.891  1.00  0.00     0.005 A 
ATOM     24  C   UNL A   1      33.487  23.463  23.822  1.00  0.00     0.005 A 
ATOM     25  C   UNL A   1      30.914  23.748  24.860  1.00  0.00     0.021 A 
ATOM     26  C   UNL A   1      32.869  24.712  23.803  1.00  0.00     0.021 A 
BRANCH  22  27
ATOM     27  C   UNL A   1      33.598  21.035  24.382  1.00  0.00     0.032 C 
ATOM     28  C   UNL A   1      32.786  19.773  24.128  1.00  0.00     0.009 C 
ENDBRANCH  22  27
ENDBRANCH  18  21
ENDBRANCH  13  18
ENDBRANCH   7  12
ENDBRANCH   3   6
ENDBRANCH   1   2
BRANCH   1  29
ATOM     29  C   UNL A   1      33.498  35.143  29.574  1.00  0.00     0.042 C 
BRANCH  29  30
ATOM     30  C   UNL A   1      34.447  35.536  30.694  1.00  0.00     0.118 C 
BRANCH  30  31
ATOM     31  N   UNL A   1      34.031  34.977  31.977  1.00  0.00    -0.352 N 
ATOM     32  C   UNL A   1      34.403  33.778  32.540  1.00  0.00     0.251 C 
ATOM     33  H   UNL A   1      33.407  35.527  32.504  1.00  0.00     0.163 HD
ATOM     34  O   UNL A   1      33.724  33.279  33.431  1.00  0.00    -0.269 OA
BRANCH  32  35
ATOM     35  C   UNL A   1      35.606  33.095  32.036  1.00  0.00     0.039 A 
ATOM     36  C   UNL A   1      36.845  33.738  32.082  1.00  0.00     0.014 A 
ATOM     37  C   UNL A   1      35.496  31.787  31.563  1.00  0.00     0.014 A 
ATOM     38  C   UNL A   1      37.989  33.022  31.742  1.00  0.00     0.010 A 
ATOM     39  C   UNL A   1      36.637  31.050  31.321  1.00  0.00     0.010 A 
ATOM     40  C   UNL A   1      37.887  31.665  31.395  1.00  0.00    -0.014 A 
BRANCH  40  41
ATOM     41  C   UNL A   1      39.103  30.863  31.249  1.00  0.00     0.031 A 
ATOM     42  C   UNL A   1      39.832  30.572  32.517  1.00  0.00     0.074 A 
ATOM     43  C   UNL A   1      39.460  30.220  30.118  1.00  0.00     0.049 A 
ATOM     44  N   UNL A   1      40.994  31.005  32.883  1.00  0.00    -0.248 NA
ATOM     45  C   UNL A   1      39.137  29.788  33.550  1.00  0.00     0.031 C 
ATOM     46  C   UNL A   1      38.702  30.100  28.868  1.00  0.00     0.029 A 
ATOM     47  N   UNL A   1      40.540  29.419  29.898  1.00  0.00    -0.354 N 
ATOM     48  C   UNL A   1      41.274  30.387  34.100  1.00  0.00     0.074 A 
ATOM     49  C   UNL A   1      40.036  29.790  34.538  1.00  0.00     0.031 C 
ATOM     50  C   UNL A   1      39.215  29.091  28.130  1.00  0.00     0.029 A 
ATOM     51  C   UNL A   1      40.430  28.618  28.768  1.00  0.00     0.049 A 
ATOM     52  H   UNL A   1      41.328  29.409  30.487  1.00  0.00     0.167 HD
ATOM     53  C   UNL A   1      42.551  30.217  34.547  1.00  0.00     0.031 A 
ATOM     54  C   UNL A   1      41.258  27.611  28.397  1.00  0.00     0.031 A 
ATOM     55  C   UNL A   1      43.494  30.982  33.774  1.00  0.00     0.049 A 
ATOM     56  C   UNL A   1      42.548  27.818  29.097  1.00  0.00     0.074 A 
ATOM     57  C   UNL A   1      43.670  32.320  33.484  1.00  0.00     0.029 A 
ATOM     58  N   UNL A   1      44.238  30.290  32.847  1.00  0.00    -0.354 N 
ATOM     59  N   UNL A   1      43.346  28.820  28.853  1.00  0.00    -0.248 NA
ATOM     60  C   UNL A   1      42.775  27.136  30.360  1.00  0.00     0.031 C 
ATOM     61  C   UNL A   1      44.115  32.346  32.130  1.00  0.00     0.029 A 
ATOM     62  C   UNL A   1      44.245  31.026  31.692  1.00  0.00     0.049 A 
ATOM     63  H   UNL A   1      44.685  29.424  32.988  1.00  0.00     0.167 HD
ATOM     64  C   UNL A   1      43.872  29.164  30.089  1.00  0.00     0.074 A 
ATOM     65  C   UNL A   1      43.584  28.021  30.951  1.00  0.00     0.031 C 
ATOM     66  C   UNL A   1      44.243  30.450  30.363  1.00  0.00     0.031 A 
BRANCH  53  67
ATOM     67  C   UNL A   1      43.008  29.066  35.416  1.00  0.00    -0.014 A 
ATOM     68  C   UNL A   1      43.847  29.340  36.519  1.00  0.00     0.010 A 
ATOM     69  C   UNL A   1      42.888  27.717  35.028  1.00  0.00     0.010 A 
ATOM     70  C   UNL A   1      44.592  28.327  37.141  1.00  0.00     0.020 A 
ATOM     71  C   UNL A   1      43.589  26.693  35.673  1.00  0.00     0.020 A 
ATOM     72  C   UNL A   1      44.468  27.012  36.699  1.00  0.00     0.054 A 
BRANCH  72  73
ATOM     73  S   UNL A   1      45.520  25.729  37.424  1.00  0.00     0.124 S 
ATOM     74  O   UNL A   1      46.762  26.458  37.657  1.00  0.00    -0.237 OA
ATOM     75  O   UNL A   1      44.770  25.353  38.619  1.00  0.00    -0.237 OA
ATOM     76  O   UNL A   1      45.577  24.706  36.381  1.00  0.00    -0.744 OA
ENDBRANCH  72  73
ENDBRANCH  53  67
BRANCH  54  77
ATOM     77  C   UNL A   1      40.927  26.361  27.675  1.00  0.00    -0.014 A 
ATOM     78  C   UNL A   1      41.866  25.755  26.820  1.00  0.00     0.010 A 
ATOM     79  C   UNL A   1      39.794  25.609  28.044  1.00  0.00     0.010 A 
ATOM     80  C   UNL A   1      41.714  24.420  26.411  1.00  0.00     0.020 A 
ATOM     81  C   UNL A   1      39.630  24.281  27.632  1.00  0.00     0.020 A 
ATOM     82  C   UNL A   1      40.607  23.684  26.841  1.00  0.00     0.054 A 
BRANCH  82  83
ATOM     83  S   UNL A   1      40.525  21.905  26.478  1.00  0.00     0.124 S 
ATOM     84  O   UNL A   1      40.579  21.313  27.812  1.00  0.00    -0.237 OA
ATOM     85  O   UNL A   1      39.247  21.781  25.783  1.00  0.00    -0.237 OA
ATOM     86  O   UNL A   1      41.704  21.668  25.646  1.00  0.00    -0.744 OA
ENDBRANCH  82  83
ENDBRANCH  54  77
BRANCH  66  87
ATOM     87  C   UNL A   1      44.429  31.413  29.214  1.00  0.00    -0.014 A 
ATOM     88  C   UNL A   1      43.435  32.299  28.758  1.00  0.00     0.010 A 
ATOM     89  C   UNL A   1      45.719  31.511  28.662  1.00  0.00     0.010 A 
ATOM     90  C   UNL A   1      43.718  33.234  27.750  1.00  0.00     0.020 A 
ATOM     91  C   UNL A   1      46.013  32.453  27.676  1.00  0.00     0.020 A 
ATOM     92  C   UNL A   1      45.008  33.302  27.214  1.00  0.00     0.054 A 
BRANCH  92  93
ATOM     93  S   UNL A   1      45.381  34.535  25.936  1.00  0.00     0.124 S 
ATOM     94  O   UNL A   1      44.300  34.333  24.976  1.00  0.00    -0.237 OA
ATOM     95  O   UNL A   1      45.340  35.794  26.676  1.00  0.00    -0.237 OA
ATOM     96  O   UNL A   1      46.709  34.151  25.458  1.00  0.00    -0.744 OA
ENDBRANCH  92  93
ENDBRANCH  66  87
ENDBRANCH  40  41
ENDBRANCH  32  35
ENDBRANCH  30  31
ENDBRANCH  29  30
ENDBRANCH   1  29
TORSDOF 17
ENDMDL
