MODEL 1
REMARK VINA RESULT:     -11.5      0.000      0.000
REMARK SMILES O=C(NCCCNC(=O)[C@@]1([NH2+]C2CC2)CC[C@@H]([N@@H+]2CC[N@@H+]3CCC[C@@H]3C2)C1)c1ccc(-c2c3nc(c(-c4ccc(S(=O)(=O)[O-])cc4)c4ccc([nH]4)c(-c4ccc(S(=O)(=O)[O-])cc4)c4nc(c(-c5ccc(S(=O)(=O)[O-])cc5)c5ccc2[nH]5)C=C4)C=C3)cc1
REMARK SMILES IDX 4 1 3 2 1 3 2 4 28 6 29 7 87 8 30 9 86 10 31 11 32 12 33 13
REMARK SMILES IDX 80 14 34 15 85 16 79 17 81 18 35 19 84 20 78 21 77 22 36 24
REMARK SMILES IDX 66 25 47 26 65 27 48 28 51 29 64 30 82 31 49 32 50 33 63 35
REMARK SMILES IDX 83 36 52 37 37 38 38 39 46 40 39 41 45 42 40 43 41 44 42 45
REMARK SMILES IDX 43 46 44 47 67 48 68 49 76 50 69 51 75 52 70 53 71 54 72 55
REMARK SMILES IDX 73 56 74 57 53 58 54 59 62 60 55 61 61 62 56 63 57 64 58 65
REMARK SMILES IDX 59 66 60 67 5 68 6 69 7 70 8 71 9 73 10 74 15 75 27 76 16 77
REMARK SMILES IDX 17 78 11 79 12 82 13 83 14 84 18 85 19 86 26 87 20 89 25 90
REMARK SMILES IDX 21 91 24 92 22 93 23 95
REMARK H PARENT 3 5 81 23 51 34 7 72 11 80 11 81 18 88 21 94
REMARK Flexibility Score: inf
ROOT
ATOM      1  C   UNL A   1      33.769  28.918  26.937  1.00  0.00     0.118 C 
ENDROOT
BRANCH   1   2
ATOM      2  N   UNL A   1      33.816  30.262  27.495  1.00  0.00    -0.352 N 
ATOM      3  O   UNL A   1      34.439  31.816  28.995  1.00  0.00    -0.269 OA
ATOM      4  C   UNL A   1      34.735  30.806  28.354  1.00  0.00     0.251 C 
ATOM      5  H   UNL A   1      33.087  30.863  27.218  1.00  0.00     0.163 HD
BRANCH   4   6
ATOM      6  C   UNL A   1      36.075  30.201  28.498  1.00  0.00     0.039 A 
ATOM      7  C   UNL A   1      37.006  30.287  27.458  1.00  0.00     0.014 A 
ATOM      8  C   UNL A   1      36.443  29.636  29.723  1.00  0.00     0.014 A 
ATOM      9  C   UNL A   1      38.281  29.754  27.618  1.00  0.00     0.010 A 
ATOM     10  C   UNL A   1      37.744  29.158  29.905  1.00  0.00     0.010 A 
ATOM     11  C   UNL A   1      38.675  29.222  28.856  1.00  0.00    -0.014 A 
BRANCH  11  12
ATOM     12  C   UNL A   1      40.100  28.883  29.085  1.00  0.00     0.031 A 
ATOM     13  C   UNL A   1      40.664  27.555  28.674  1.00  0.00     0.074 A 
ATOM     14  C   UNL A   1      40.878  29.795  29.703  1.00  0.00     0.049 A 
ATOM     15  N   UNL A   1      41.883  27.102  28.830  1.00  0.00    -0.248 NA
ATOM     16  C   UNL A   1      39.751  26.610  28.014  1.00  0.00     0.031 C 
ATOM     17  C   UNL A   1      40.424  31.111  30.169  1.00  0.00     0.029 A 
ATOM     18  N   UNL A   1      42.204  29.762  30.050  1.00  0.00    -0.354 N 
ATOM     19  C   UNL A   1      41.880  25.814  28.309  1.00  0.00     0.074 A 
ATOM     20  C   UNL A   1      40.535  25.552  27.839  1.00  0.00     0.031 C 
ATOM     21  C   UNL A   1      41.457  31.763  30.721  1.00  0.00     0.029 A 
ATOM     22  C   UNL A   1      42.628  30.896  30.702  1.00  0.00     0.049 A 
ATOM     23  H   UNL A   1      42.795  29.000  29.850  1.00  0.00     0.167 HD
ATOM     24  C   UNL A   1      42.907  24.935  28.236  1.00  0.00     0.031 A 
ATOM     25  C   UNL A   1      43.817  31.195  31.257  1.00  0.00     0.031 A 
ATOM     26  C   UNL A   1      44.242  25.212  28.700  1.00  0.00     0.049 A 
ATOM     27  C   UNL A   1      44.926  30.187  31.186  1.00  0.00     0.074 A 
ATOM     28  C   UNL A   1      45.369  24.413  28.595  1.00  0.00     0.029 A 
ATOM     29  N   UNL A   1      44.628  26.361  29.372  1.00  0.00    -0.354 N 
ATOM     30  N   UNL A   1      44.926  29.008  30.613  1.00  0.00    -0.248 NA
ATOM     31  C   UNL A   1      46.191  30.543  31.842  1.00  0.00     0.031 C 
ATOM     32  C   UNL A   1      46.422  25.055  29.256  1.00  0.00     0.029 A 
ATOM     33  C   UNL A   1      45.963  26.275  29.729  1.00  0.00     0.049 A 
ATOM     34  H   UNL A   1      44.039  27.126  29.566  1.00  0.00     0.167 HD
ATOM     35  C   UNL A   1      46.192  28.481  30.836  1.00  0.00     0.074 A 
ATOM     36  C   UNL A   1      46.938  29.481  31.573  1.00  0.00     0.031 C 
ATOM     37  C   UNL A   1      46.687  27.275  30.471  1.00  0.00     0.031 A 
BRANCH  24  38
ATOM     38  C   UNL A   1      42.637  23.573  27.655  1.00  0.00    -0.014 A 
ATOM     39  C   UNL A   1      42.907  23.290  26.306  1.00  0.00     0.010 A 
ATOM     40  C   UNL A   1      42.194  22.538  28.499  1.00  0.00     0.010 A 
ATOM     41  C   UNL A   1      42.721  21.997  25.805  1.00  0.00     0.020 A 
ATOM     42  C   UNL A   1      42.025  21.240  28.007  1.00  0.00     0.020 A 
ATOM     43  C   UNL A   1      42.281  20.980  26.660  1.00  0.00     0.054 A 
BRANCH  43  44
ATOM     44  S   UNL A   1      42.097  19.302  25.994  1.00  0.00     0.124 S 
ATOM     45  O   UNL A   1      42.589  18.485  27.101  1.00  0.00    -0.237 OA
ATOM     46  O   UNL A   1      40.662  19.213  25.740  1.00  0.00    -0.237 OA
ATOM     47  O   UNL A   1      42.940  19.306  24.802  1.00  0.00    -0.744 OA
ENDBRANCH  43  44
ENDBRANCH  24  38
BRANCH  25  48
ATOM     48  C   UNL A   1      43.995  32.487  31.974  1.00  0.00    -0.014 A 
ATOM     49  C   UNL A   1      44.444  33.632  31.297  1.00  0.00     0.010 A 
ATOM     50  C   UNL A   1      43.699  32.573  33.348  1.00  0.00     0.010 A 
ATOM     51  C   UNL A   1      44.612  34.837  31.984  1.00  0.00     0.020 A 
ATOM     52  C   UNL A   1      43.840  33.783  34.032  1.00  0.00     0.020 A 
ATOM     53  C   UNL A   1      44.310  34.905  33.349  1.00  0.00     0.054 A 
BRANCH  53  54
ATOM     54  S   UNL A   1      44.496  36.487  34.215  1.00  0.00     0.124 S 
ATOM     55  O   UNL A   1      43.117  36.797  34.574  1.00  0.00    -0.237 OA
ATOM     56  O   UNL A   1      45.378  36.140  35.327  1.00  0.00    -0.237 OA
ATOM     57  O   UNL A   1      45.094  37.358  33.207  1.00  0.00    -0.744 OA
ENDBRANCH  53  54
ENDBRANCH  25  48
BRANCH  37  58
ATOM     58  C   UNL A   1      48.104  26.967  30.863  1.00  0.00    -0.014 A 
ATOM     59  C   UNL A   1      48.396  26.416  32.123  1.00  0.00     0.010 A 
ATOM     60  C   UNL A   1      49.146  27.173  29.941  1.00  0.00     0.010 A 
ATOM     61  C   UNL A   1      49.711  26.091  32.463  1.00  0.00     0.020 A 
ATOM     62  C   UNL A   1      50.459  26.827  30.269  1.00  0.00     0.020 A 
ATOM     63  C   UNL A   1      50.734  26.296  31.532  1.00  0.00     0.054 A 
BRANCH  63  64
ATOM     64  S   UNL A   1      52.425  25.805  31.970  1.00  0.00     0.124 S 
ATOM     65  O   UNL A   1      53.162  26.140  30.756  1.00  0.00    -0.237 OA
ATOM     66  O   UNL A   1      52.711  26.643  33.132  1.00  0.00    -0.237 OA
ATOM     67  O   UNL A   1      52.307  24.376  32.254  1.00  0.00    -0.744 OA
ENDBRANCH  63  64
ENDBRANCH  37  58
ENDBRANCH  11  12
ENDBRANCH   4   6
ENDBRANCH   1   2
BRANCH   1  68
ATOM     68  C   UNL A   1      32.679  28.085  27.607  1.00  0.00     0.042 C 
BRANCH  68  69
ATOM     69  C   UNL A   1      31.401  28.019  26.780  1.00  0.00     0.118 C 
BRANCH  69  70
ATOM     70  N   UNL A   1      30.783  26.702  26.777  1.00  0.00    -0.351 N 
ATOM     71  C   UNL A   1      30.963  25.527  26.119  1.00  0.00     0.281 C 
ATOM     72  H   UNL A   1      30.039  26.648  27.420  1.00  0.00     0.163 HD
ATOM     73  O   UNL A   1      30.153  24.644  26.445  1.00  0.00    -0.268 OA
BRANCH  71  74
ATOM     74  C   UNL A   1      32.089  25.214  25.091  1.00  0.00     0.181 C 
ATOM     75  C   UNL A   1      33.505  24.887  25.562  1.00  0.00     0.085 C 
ATOM     76  C   UNL A   1      31.675  23.840  24.468  1.00  0.00     0.144 C 
ATOM     77  C   UNL A   1      34.115  24.032  24.459  1.00  0.00     0.072 C 
ATOM     78  C   UNL A   1      32.962  23.124  24.004  1.00  0.00     0.191 C 
BRANCH  74  79
ATOM     79  N   UNL A   1      32.080  26.173  23.959  1.00  0.00    -0.331 N 
ATOM     80  H   UNL A   1      31.216  26.707  24.063  1.00  0.00     0.347 HD
ATOM     81  H   UNL A   1      32.231  25.534  23.179  1.00  0.00     0.347 HD
BRANCH  79  82
ATOM     82  C   UNL A   1      33.114  27.163  23.683  1.00  0.00     0.183 C 
ATOM     83  C   UNL A   1      33.571  27.652  22.349  1.00  0.00     0.071 C 
ATOM     84  C   UNL A   1      32.763  28.554  23.236  1.00  0.00     0.071 C 
ENDBRANCH  79  82
ENDBRANCH  74  79
BRANCH  78  85
ATOM     85  N   UNL A   1      33.102  21.733  24.460  1.00  0.00    -0.323 N 
ATOM     86  C   UNL A   1      34.411  21.460  25.088  1.00  0.00     0.324 C 
ATOM     87  C   UNL A   1      32.713  20.679  23.516  1.00  0.00     0.328 C 
ATOM     88  H   UNL A   1      32.383  21.674  25.182  1.00  0.00     0.348 HD
ATOM     89  C   UNL A   1      35.009  20.048  24.841  1.00  0.00     0.324 C 
ATOM     90  C   UNL A   1      32.781  19.281  24.171  1.00  0.00     0.240 C 
ATOM     91  N   UNL A   1      34.033  18.955  24.888  1.00  0.00    -0.323 N 
ATOM     92  C   UNL A   1      32.573  18.155  23.158  1.00  0.00     0.077 C 
ATOM     93  C   UNL A   1      34.562  17.699  24.348  1.00  0.00     0.263 C 
ATOM     94  H   UNL A   1      33.831  18.833  25.880  1.00  0.00     0.348 HD
ATOM     95  C   UNL A   1      33.350  17.002  23.758  1.00  0.00     0.068 C 
ENDBRANCH  78  85
ENDBRANCH  71  74
ENDBRANCH  69  70
ENDBRANCH  68  69
ENDBRANCH   1  68
TORSDOF 16
ENDMDL
MODEL 2
REMARK VINA RESULT:     -11.4      0.472      8.155
REMARK SMILES O=C(NCCCNC(=O)[C@@]1([NH2+]C2CC2)CC[C@@H]([N@@H+]2CC[N@@H+]3CCC[C@@H]3C2)C1)c1ccc(-c2c3nc(c(-c4ccc(S(=O)(=O)[O-])cc4)c4ccc([nH]4)c(-c4ccc(S(=O)(=O)[O-])cc4)c4nc(c(-c5ccc(S(=O)(=O)[O-])cc5)c5ccc2[nH]5)C=C4)C=C3)cc1
REMARK SMILES IDX 4 1 3 2 1 3 2 4 28 6 29 7 87 8 30 9 86 10 31 11 32 12 33 13
REMARK SMILES IDX 80 14 34 15 85 16 79 17 81 18 35 19 84 20 78 21 77 22 36 24
REMARK SMILES IDX 66 25 47 26 65 27 48 28 51 29 64 30 82 31 49 32 50 33 63 35
REMARK SMILES IDX 83 36 52 37 37 38 38 39 46 40 39 41 45 42 40 43 41 44 42 45
REMARK SMILES IDX 43 46 44 47 67 48 68 49 76 50 69 51 75 52 70 53 71 54 72 55
REMARK SMILES IDX 73 56 74 57 53 58 54 59 62 60 55 61 61 62 56 63 57 64 58 65
REMARK SMILES IDX 59 66 60 67 5 68 6 69 7 70 8 71 9 73 10 74 15 75 27 76 16 77
REMARK SMILES IDX 17 78 11 79 12 82 13 83 14 84 18 85 19 86 26 87 20 89 25 90
REMARK SMILES IDX 21 91 24 92 22 93 23 95
REMARK H PARENT 3 5 81 23 51 34 7 72 11 80 11 81 18 88 21 94
REMARK Flexibility Score: inf
ROOT
ATOM      1  C   UNL A   1      33.869  28.881  26.454  1.00  0.00     0.118 C 
ENDROOT
BRANCH   1   2
ATOM      2  N   UNL A   1      33.832  30.202  27.066  1.00  0.00    -0.352 N 
ATOM      3  O   UNL A   1      34.270  31.706  28.678  1.00  0.00    -0.269 OA
ATOM      4  C   UNL A   1      34.650  30.727  28.031  1.00  0.00     0.251 C 
ATOM      5  H   UNL A   1      33.120  30.800  26.742  1.00  0.00     0.163 HD
BRANCH   4   6
ATOM      6  C   UNL A   1      35.983  30.143  28.283  1.00  0.00     0.039 A 
ATOM      7  C   UNL A   1      36.987  30.225  27.311  1.00  0.00     0.014 A 
ATOM      8  C   UNL A   1      36.267  29.602  29.540  1.00  0.00     0.014 A 
ATOM      9  C   UNL A   1      38.253  29.711  27.573  1.00  0.00     0.010 A 
ATOM     10  C   UNL A   1      37.557  29.144  29.824  1.00  0.00     0.010 A 
ATOM     11  C   UNL A   1      38.561  29.204  28.846  1.00  0.00    -0.014 A 
BRANCH  11  12
ATOM     12  C   UNL A   1      39.970  28.886  29.183  1.00  0.00     0.031 A 
ATOM     13  C   UNL A   1      40.874  29.907  29.810  1.00  0.00     0.074 A 
ATOM     14  C   UNL A   1      40.431  27.655  28.884  1.00  0.00     0.049 A 
ATOM     15  N   UNL A   1      42.135  29.787  30.139  1.00  0.00    -0.248 NA
ATOM     16  C   UNL A   1      40.299  31.230  30.098  1.00  0.00     0.031 C 
ATOM     17  C   UNL A   1      39.644  26.592  28.248  1.00  0.00     0.029 A 
ATOM     18  N   UNL A   1      41.666  27.086  29.066  1.00  0.00    -0.354 N 
ATOM     19  C   UNL A   1      42.513  31.022  30.652  1.00  0.00     0.074 A 
ATOM     20  C   UNL A   1      41.350  31.881  30.584  1.00  0.00     0.031 C 
ATOM     21  C   UNL A   1      40.408  25.498  28.112  1.00  0.00     0.029 A 
ATOM     22  C   UNL A   1      41.750  25.797  28.596  1.00  0.00     0.049 A 
ATOM     23  H   UNL A   1      42.418  27.556  29.494  1.00  0.00     0.167 HD
ATOM     24  C   UNL A   1      43.722  31.397  31.132  1.00  0.00     0.031 A 
ATOM     25  C   UNL A   1      42.798  24.956  28.525  1.00  0.00     0.031 A 
ATOM     26  C   UNL A   1      44.870  30.530  31.202  1.00  0.00     0.049 A 
ATOM     27  C   UNL A   1      44.132  25.414  29.037  1.00  0.00     0.074 A 
ATOM     28  C   UNL A   1      46.115  30.796  31.746  1.00  0.00     0.029 A 
ATOM     29  N   UNL A   1      44.922  29.239  30.698  1.00  0.00    -0.354 N 
ATOM     30  N   UNL A   1      44.446  26.557  29.596  1.00  0.00    -0.248 NA
ATOM     31  C   UNL A   1      45.254  24.475  28.901  1.00  0.00     0.031 C 
ATOM     32  C   UNL A   1      46.938  29.688  31.518  1.00  0.00     0.029 A 
ATOM     33  C   UNL A   1      46.190  28.714  30.876  1.00  0.00     0.049 A 
ATOM     34  H   UNL A   1      44.168  28.767  30.275  1.00  0.00     0.167 HD
ATOM     35  C   UNL A   1      45.803  26.475  29.883  1.00  0.00     0.074 A 
ATOM     36  C   UNL A   1      46.243  25.161  29.459  1.00  0.00     0.031 C 
ATOM     37  C   UNL A   1      46.613  27.407  30.439  1.00  0.00     0.031 A 
BRANCH  24  38
ATOM     38  C   UNL A   1      43.890  32.818  31.600  1.00  0.00    -0.014 A 
ATOM     39  C   UNL A   1      43.694  33.169  32.946  1.00  0.00     0.010 A 
ATOM     40  C   UNL A   1      44.344  33.795  30.695  1.00  0.00     0.010 A 
ATOM     41  C   UNL A   1      43.930  34.479  33.376  1.00  0.00     0.020 A 
ATOM     42  C   UNL A   1      44.599  35.101  31.124  1.00  0.00     0.020 A 
ATOM     43  C   UNL A   1      44.381  35.437  32.461  1.00  0.00     0.054 A 
BRANCH  43  44
ATOM     44  S   UNL A   1      44.727  37.116  33.057  1.00  0.00     0.124 S 
ATOM     45  O   UNL A   1      46.178  37.081  33.226  1.00  0.00    -0.237 OA
ATOM     46  O   UNL A   1      44.243  37.951  31.962  1.00  0.00    -0.237 OA
ATOM     47  O   UNL A   1      43.959  37.210  34.296  1.00  0.00    -0.744 OA
ENDBRANCH  43  44
ENDBRANCH  24  38
BRANCH  25  48
ATOM     48  C   UNL A   1      42.633  23.617  27.897  1.00  0.00    -0.014 A 
ATOM     49  C   UNL A   1      42.999  23.397  26.560  1.00  0.00     0.010 A 
ATOM     50  C   UNL A   1      42.115  22.547  28.651  1.00  0.00     0.010 A 
ATOM     51  C   UNL A   1      42.833  22.137  25.980  1.00  0.00     0.020 A 
ATOM     52  C   UNL A   1      41.973  21.279  28.085  1.00  0.00     0.020 A 
ATOM     53  C   UNL A   1      42.320  21.085  26.747  1.00  0.00     0.054 A 
BRANCH  53  54
ATOM     54  S   UNL A   1      42.149  19.445  25.991  1.00  0.00     0.124 S 
ATOM     55  O   UNL A   1      42.704  18.578  27.023  1.00  0.00    -0.237 OA
ATOM     56  O   UNL A   1      40.706  19.339  25.782  1.00  0.00    -0.237 OA
ATOM     57  O   UNL A   1      42.940  19.552  24.767  1.00  0.00    -0.744 OA
ENDBRANCH  53  54
ENDBRANCH  25  48
BRANCH  37  58
ATOM     58  C   UNL A   1      48.058  27.041  30.621  1.00  0.00    -0.014 A 
ATOM     59  C   UNL A   1      49.028  27.466  29.696  1.00  0.00     0.010 A 
ATOM     60  C   UNL A   1      48.459  26.319  31.759  1.00  0.00     0.010 A 
ATOM     61  C   UNL A   1      50.376  27.161  29.897  1.00  0.00     0.020 A 
ATOM     62  C   UNL A   1      49.809  26.031  31.975  1.00  0.00     0.020 A 
ATOM     63  C   UNL A   1      50.758  26.447  31.037  1.00  0.00     0.054 A 
BRANCH  63  64
ATOM     64  S   UNL A   1      52.521  26.117  31.311  1.00  0.00     0.124 S 
ATOM     65  O   UNL A   1      52.916  27.251  32.140  1.00  0.00    -0.237 OA
ATOM     66  O   UNL A   1      52.505  24.820  31.984  1.00  0.00    -0.237 OA
ATOM     67  O   UNL A   1      53.083  26.105  29.961  1.00  0.00    -0.744 OA
ENDBRANCH  63  64
ENDBRANCH  37  58
ENDBRANCH  11  12
ENDBRANCH   4   6
ENDBRANCH   1   2
BRANCH   1  68
ATOM     68  C   UNL A   1      33.002  27.893  27.232  1.00  0.00     0.042 C 
BRANCH  68  69
ATOM     69  C   UNL A   1      31.538  27.945  26.813  1.00  0.00     0.118 C 
BRANCH  69  70
ATOM     70  N   UNL A   1      30.885  26.645  26.835  1.00  0.00    -0.351 N 
ATOM     71  C   UNL A   1      30.993  25.473  26.157  1.00  0.00     0.281 C 
ATOM     72  H   UNL A   1      30.180  26.604  27.522  1.00  0.00     0.163 HD
ATOM     73  O   UNL A   1      30.180  24.608  26.523  1.00  0.00    -0.268 OA
BRANCH  71  74
ATOM     74  C   UNL A   1      32.046  25.141  25.060  1.00  0.00     0.181 C 
ATOM     75  C   UNL A   1      33.490  24.819  25.438  1.00  0.00     0.085 C 
ATOM     76  C   UNL A   1      31.588  23.758  24.490  1.00  0.00     0.144 C 
ATOM     77  C   UNL A   1      34.022  23.945  24.310  1.00  0.00     0.072 C 
ATOM     78  C   UNL A   1      32.840  23.032  23.951  1.00  0.00     0.191 C 
BRANCH  74  79
ATOM     79  N   UNL A   1      31.959  26.081  23.915  1.00  0.00    -0.331 N 
ATOM     80  H   UNL A   1      31.115  26.631  24.079  1.00  0.00     0.347 HD
ATOM     81  H   UNL A   1      32.037  25.427  23.137  1.00  0.00     0.347 HD
BRANCH  79  82
ATOM     82  C   UNL A   1      32.982  27.049  23.539  1.00  0.00     0.183 C 
ATOM     83  C   UNL A   1      33.529  27.310  22.175  1.00  0.00     0.071 C 
ATOM     84  C   UNL A   1      32.627  28.321  22.822  1.00  0.00     0.071 C 
ENDBRANCH  79  82
ENDBRANCH  74  79
BRANCH  78  85
ATOM     85  N   UNL A   1      33.010  21.648  24.419  1.00  0.00    -0.323 N 
ATOM     86  C   UNL A   1      34.321  21.412  25.060  1.00  0.00     0.324 C 
ATOM     87  C   UNL A   1      32.656  20.577  23.480  1.00  0.00     0.328 C 
ATOM     88  H   UNL A   1      32.287  21.577  25.135  1.00  0.00     0.348 HD
ATOM     89  C   UNL A   1      34.955  20.014  24.830  1.00  0.00     0.324 C 
ATOM     90  C   UNL A   1      32.752  19.187  24.147  1.00  0.00     0.240 C 
ATOM     91  N   UNL A   1      34.005  18.897  24.877  1.00  0.00    -0.323 N 
ATOM     92  C   UNL A   1      32.581  18.048  23.141  1.00  0.00     0.077 C 
ATOM     93  C   UNL A   1      34.570  17.651  24.352  1.00  0.00     0.263 C 
ATOM     94  H   UNL A   1      33.798  18.778  25.869  1.00  0.00     0.348 HD
ATOM     95  C   UNL A   1      33.380  16.919  23.757  1.00  0.00     0.068 C 
ENDBRANCH  78  85
ENDBRANCH  71  74
ENDBRANCH  69  70
ENDBRANCH  68  69
ENDBRANCH   1  68
TORSDOF 16
ENDMDL
MODEL 3
REMARK VINA RESULT:     -11.4      4.449     10.063
REMARK SMILES O=C(NCCCNC(=O)[C@@]1([NH2+]C2CC2)CC[C@@H]([N@@H+]2CC[N@@H+]3CCC[C@@H]3C2)C1)c1ccc(-c2c3nc(c(-c4ccc(S(=O)(=O)[O-])cc4)c4ccc([nH]4)c(-c4ccc(S(=O)(=O)[O-])cc4)c4nc(c(-c5ccc(S(=O)(=O)[O-])cc5)c5ccc2[nH]5)C=C4)C=C3)cc1
REMARK SMILES IDX 4 1 3 2 1 3 2 4 28 6 29 7 87 8 30 9 86 10 31 11 32 12 33 13
REMARK SMILES IDX 80 14 34 15 85 16 79 17 81 18 35 19 84 20 78 21 77 22 36 24
REMARK SMILES IDX 66 25 47 26 65 27 48 28 51 29 64 30 82 31 49 32 50 33 63 35
REMARK SMILES IDX 83 36 52 37 37 38 38 39 46 40 39 41 45 42 40 43 41 44 42 45
REMARK SMILES IDX 43 46 44 47 67 48 68 49 76 50 69 51 75 52 70 53 71 54 72 55
REMARK SMILES IDX 73 56 74 57 53 58 54 59 62 60 55 61 61 62 56 63 57 64 58 65
REMARK SMILES IDX 59 66 60 67 5 68 6 69 7 70 8 71 9 73 10 74 15 75 27 76 16 77
REMARK SMILES IDX 17 78 11 79 12 82 13 83 14 84 18 85 19 86 26 87 20 89 25 90
REMARK SMILES IDX 21 91 24 92 22 93 23 95
REMARK H PARENT 3 5 81 23 51 34 7 72 11 80 11 81 18 88 21 94
REMARK Flexibility Score: inf
ROOT
ATOM      1  C   UNL A   1      38.800  23.966  26.533  1.00  0.00     0.118 C 
ENDROOT
BRANCH   1   2
ATOM      2  N   UNL A   1      40.218  23.998  26.200  1.00  0.00    -0.352 N 
ATOM      3  O   UNL A   1      42.176  25.007  25.754  1.00  0.00    -0.269 OA
ATOM      4  C   UNL A   1      41.127  25.003  26.402  1.00  0.00     0.251 C 
ATOM      5  H   UNL A   1      40.571  23.186  25.772  1.00  0.00     0.163 HD
BRANCH   4   6
ATOM      6  C   UNL A   1      40.865  26.062  27.398  1.00  0.00     0.039 A 
ATOM      7  C   UNL A   1      39.981  25.833  28.459  1.00  0.00     0.014 A 
ATOM      8  C   UNL A   1      41.588  27.256  27.335  1.00  0.00     0.014 A 
ATOM      9  C   UNL A   1      39.773  26.819  29.417  1.00  0.00     0.010 A 
ATOM     10  C   UNL A   1      41.427  28.220  28.334  1.00  0.00     0.010 A 
ATOM     11  C   UNL A   1      40.525  28.005  29.387  1.00  0.00    -0.014 A 
BRANCH  11  12
ATOM     12  C   UNL A   1      40.470  28.934  30.541  1.00  0.00     0.031 A 
ATOM     13  C   UNL A   1      41.350  28.745  31.741  1.00  0.00     0.074 A 
ATOM     14  C   UNL A   1      39.580  29.946  30.498  1.00  0.00     0.049 A 
ATOM     15  N   UNL A   1      41.399  29.458  32.838  1.00  0.00    -0.248 NA
ATOM     16  C   UNL A   1      42.288  27.612  31.717  1.00  0.00     0.031 C 
ATOM     17  C   UNL A   1      38.655  30.208  29.388  1.00  0.00     0.029 A 
ATOM     18  N   UNL A   1      39.300  30.940  31.401  1.00  0.00    -0.354 N 
ATOM     19  C   UNL A   1      42.355  28.851  33.644  1.00  0.00     0.074 A 
ATOM     20  C   UNL A   1      42.856  27.705  32.914  1.00  0.00     0.031 C 
ATOM     21  C   UNL A   1      37.927  31.298  29.670  1.00  0.00     0.029 A 
ATOM     22  C   UNL A   1      38.289  31.780  30.996  1.00  0.00     0.049 A 
ATOM     23  H   UNL A   1      39.778  31.042  32.256  1.00  0.00     0.167 HD
ATOM     24  C   UNL A   1      42.768  29.220  34.879  1.00  0.00     0.031 A 
ATOM     25  C   UNL A   1      37.691  32.803  31.634  1.00  0.00     0.031 A 
ATOM     26  C   UNL A   1      42.266  30.367  35.591  1.00  0.00     0.049 A 
ATOM     27  C   UNL A   1      38.152  33.167  33.015  1.00  0.00     0.074 A 
ATOM     28  C   UNL A   1      42.682  30.867  36.814  1.00  0.00     0.029 A 
ATOM     29  N   UNL A   1      41.230  31.180  35.158  1.00  0.00    -0.354 N 
ATOM     30  N   UNL A   1      39.115  32.631  33.724  1.00  0.00    -0.248 NA
ATOM     31  C   UNL A   1      37.441  34.263  33.685  1.00  0.00     0.031 C 
ATOM     32  C   UNL A   1      41.857  31.946  37.147  1.00  0.00     0.029 A 
ATOM     33  C   UNL A   1      40.961  32.149  36.110  1.00  0.00     0.049 A 
ATOM     34  H   UNL A   1      40.756  31.082  34.301  1.00  0.00     0.167 HD
ATOM     35  C   UNL A   1      39.130  33.329  34.926  1.00  0.00     0.074 A 
ATOM     36  C   UNL A   1      38.096  34.341  34.836  1.00  0.00     0.031 C 
ATOM     37  C   UNL A   1      39.922  33.142  36.008  1.00  0.00     0.031 A 
BRANCH  24  38
ATOM     38  C   UNL A   1      43.799  28.366  35.567  1.00  0.00    -0.014 A 
ATOM     39  C   UNL A   1      43.423  27.293  36.392  1.00  0.00     0.010 A 
ATOM     40  C   UNL A   1      45.165  28.586  35.306  1.00  0.00     0.010 A 
ATOM     41  C   UNL A   1      44.397  26.464  36.959  1.00  0.00     0.020 A 
ATOM     42  C   UNL A   1      46.140  27.749  35.856  1.00  0.00     0.020 A 
ATOM     43  C   UNL A   1      45.750  26.698  36.688  1.00  0.00     0.054 A 
BRANCH  43  44
ATOM     44  S   UNL A   1      46.988  25.577  37.398  1.00  0.00     0.124 S 
ATOM     45  O   UNL A   1      46.262  25.009  38.532  1.00  0.00    -0.237 OA
ATOM     46  O   UNL A   1      47.253  24.655  36.298  1.00  0.00    -0.237 OA
ATOM     47  O   UNL A   1      48.096  26.461  37.748  1.00  0.00    -0.744 OA
ENDBRANCH  43  44
ENDBRANCH  24  38
BRANCH  25  48
ATOM     48  C   UNL A   1      36.556  33.516  30.988  1.00  0.00    -0.014 A 
ATOM     49  C   UNL A   1      36.681  34.050  29.696  1.00  0.00     0.010 A 
ATOM     50  C   UNL A   1      35.332  33.649  31.670  1.00  0.00     0.010 A 
ATOM     51  C   UNL A   1      35.610  34.723  29.103  1.00  0.00     0.020 A 
ATOM     52  C   UNL A   1      34.249  34.296  31.070  1.00  0.00     0.020 A 
ATOM     53  C   UNL A   1      34.400  34.843  29.795  1.00  0.00     0.054 A 
BRANCH  53  54
ATOM     54  S   UNL A   1      33.006  35.683  28.995  1.00  0.00     0.124 S 
ATOM     55  O   UNL A   1      33.682  36.714  28.216  1.00  0.00    -0.237 OA
ATOM     56  O   UNL A   1      32.387  34.608  28.222  1.00  0.00    -0.237 OA
ATOM     57  O   UNL A   1      32.209  36.165  30.120  1.00  0.00    -0.744 OA
ENDBRANCH  53  54
ENDBRANCH  25  48
BRANCH  37  58
ATOM     58  C   UNL A   1      39.703  34.050  37.184  1.00  0.00    -0.014 A 
ATOM     59  C   UNL A   1      38.923  33.632  38.277  1.00  0.00     0.010 A 
ATOM     60  C   UNL A   1      40.333  35.307  37.226  1.00  0.00     0.010 A 
ATOM     61  C   UNL A   1      38.762  34.465  39.387  1.00  0.00     0.020 A 
ATOM     62  C   UNL A   1      40.192  36.132  38.344  1.00  0.00     0.020 A 
ATOM     63  C   UNL A   1      39.400  35.709  39.414  1.00  0.00     0.054 A 
BRANCH  63  64
ATOM     64  S   UNL A   1      39.229  36.745  40.893  1.00  0.00     0.124 S 
ATOM     65  O   UNL A   1      38.355  35.932  41.733  1.00  0.00    -0.237 OA
ATOM     66  O   UNL A   1      40.608  36.873  41.357  1.00  0.00    -0.237 OA
ATOM     67  O   UNL A   1      38.633  37.979  40.383  1.00  0.00    -0.744 OA
ENDBRANCH  63  64
ENDBRANCH  37  58
ENDBRANCH  11  12
ENDBRANCH   4   6
ENDBRANCH   1   2
BRANCH   1  68
ATOM     68  C   UNL A   1      38.124  22.735  25.934  1.00  0.00     0.042 C 
BRANCH  68  69
ATOM     69  C   UNL A   1      36.663  22.982  25.580  1.00  0.00     0.118 C 
BRANCH  69  70
ATOM     70  N   UNL A   1      35.742  22.616  26.646  1.00  0.00    -0.351 N 
ATOM     71  C   UNL A   1      34.432  22.826  26.935  1.00  0.00     0.281 C 
ATOM     72  H   UNL A   1      36.184  22.072  27.338  1.00  0.00     0.163 HD
ATOM     73  O   UNL A   1      34.069  22.315  28.007  1.00  0.00    -0.268 OA
BRANCH  71  74
ATOM     74  C   UNL A   1      33.401  23.570  26.036  1.00  0.00     0.181 C 
ATOM     75  C   UNL A   1      32.013  23.920  26.568  1.00  0.00     0.085 C 
ATOM     76  C   UNL A   1      34.005  25.003  25.859  1.00  0.00     0.144 C 
ATOM     77  C   UNL A   1      31.563  25.134  25.765  1.00  0.00     0.072 C 
ATOM     78  C   UNL A   1      32.835  25.981  25.617  1.00  0.00     0.191 C 
BRANCH  74  79
ATOM     79  N   UNL A   1      33.353  22.997  24.669  1.00  0.00    -0.331 N 
ATOM     80  H   UNL A   1      34.182  22.406  24.593  1.00  0.00     0.347 HD
ATOM     81  H   UNL A   1      33.242  23.849  24.119  1.00  0.00     0.347 HD
BRANCH  79  82
ATOM     82  C   UNL A   1      32.260  22.198  24.126  1.00  0.00     0.183 C 
ATOM     83  C   UNL A   1      32.048  21.792  22.706  1.00  0.00     0.071 C 
ATOM     84  C   UNL A   1      32.466  20.767  23.719  1.00  0.00     0.071 C 
ENDBRANCH  79  82
ENDBRANCH  74  79
BRANCH  78  85
ATOM     85  N   UNL A   1      32.838  27.181  26.468  1.00  0.00    -0.323 N 
ATOM     86  C   UNL A   1      31.649  28.035  26.267  1.00  0.00     0.324 C 
ATOM     87  C   UNL A   1      34.078  27.966  26.511  1.00  0.00     0.328 C 
ATOM     88  H   UNL A   1      32.788  26.777  27.403  1.00  0.00     0.348 HD
ATOM     89  C   UNL A   1      31.877  29.566  26.381  1.00  0.00     0.324 C 
ATOM     90  C   UNL A   1      33.985  29.112  27.543  1.00  0.00     0.240 C 
ATOM     91  N   UNL A   1      32.783  29.970  27.460  1.00  0.00    -0.323 N 
ATOM     92  C   UNL A   1      35.182  30.059  27.467  1.00  0.00     0.077 C 
ATOM     93  C   UNL A   1      33.217  31.365  27.343  1.00  0.00     0.263 C 
ATOM     94  H   UNL A   1      32.233  29.863  28.313  1.00  0.00     0.348 HD
ATOM     95  C   UNL A   1      34.611  31.378  27.945  1.00  0.00     0.068 C 
ENDBRANCH  78  85
ENDBRANCH  71  74
ENDBRANCH  69  70
ENDBRANCH  68  69
ENDBRANCH   1  68
TORSDOF 16
ENDMDL
