MODEL 1
REMARK VINA RESULT:     -12.0      0.000      0.000
REMARK SMILES CCc1ccc2[nH]c(C(=O)c3cc(C)ccn3)c(CC(=O)NCCCNC(=O)c3ccc(-c4c5nc(c(-c6ccc(S(=O)(=O)[O-])cc6)c6ccc([nH]6)c(-c6ccc(S(=O)(=O)[O-])cc6)c6nc(c(-c7ccc(S(=O)(=O)[O-])cc7)c7ccc4[nH]7)C=C6)C=C5)cc3)c2c1
REMARK SMILES IDX 24 1 23 2 22 3 20 4 21 5 19 7 18 8 3 9 4 10 90 11 5 12 89 13
REMARK SMILES IDX 6 14 7 15 8 16 2 18 1 19 9 20 10 21 11 22 12 23 17 24 13 25
REMARK SMILES IDX 16 26 14 27 15 28 25 29 26 30 27 31 28 33 29 34 30 35 88 36
REMARK SMILES IDX 31 37 87 38 32 39 33 40 34 41 81 42 35 43 86 44 80 45 82 46
REMARK SMILES IDX 36 47 85 48 79 49 78 50 37 52 67 53 48 54 66 55 49 56 52 57
REMARK SMILES IDX 65 58 83 59 50 60 51 61 64 63 84 64 53 65 38 66 39 67 47 68
REMARK SMILES IDX 40 69 46 70 41 71 42 72 43 73 44 74 45 75 68 76 69 77 77 78
REMARK SMILES IDX 70 79 76 80 71 81 72 82 73 83 74 84 75 85 54 86 55 87 63 88
REMARK SMILES IDX 56 89 62 90 57 91 58 92 59 93 60 94 61 95
REMARK H PARENT 22 6 7 17 26 32 82 51 52 62
REMARK Flexibility Score: inf
ROOT
ATOM      1  C   UNL A   1      33.119  27.582  26.889  1.00  0.00     0.042 C 
ENDROOT
BRANCH   1   2
ATOM      2  C   UNL A   1      31.732  27.240  26.355  1.00  0.00     0.117 C 
BRANCH   2   3
ATOM      3  N   UNL A   1      31.250  25.947  26.796  1.00  0.00    -0.356 N 
ATOM      4  C   UNL A   1      31.765  24.701  26.578  1.00  0.00     0.224 C 
ATOM      5  O   UNL A   1      31.304  23.783  27.263  1.00  0.00    -0.275 OA
ATOM      6  H   UNL A   1      30.427  25.970  27.335  1.00  0.00     0.163 HD
BRANCH   4   7
ATOM      7  C   UNL A   1      32.946  24.478  25.639  1.00  0.00     0.138 C 
BRANCH   7   8
ATOM      8  C   UNL A   1      32.619  23.765  24.353  1.00  0.00    -0.002 A 
ATOM      9  C   UNL A   1      32.493  19.927  24.612  1.00  0.00    -0.048 A 
ATOM     10  C   UNL A   1      32.257  19.715  23.250  1.00  0.00     0.006 A 
ATOM     11  C   UNL A   1      32.611  21.244  25.088  1.00  0.00     0.014 A 
ATOM     12  C   UNL A   1      32.128  20.783  22.353  1.00  0.00     0.027 A 
ATOM     13  C   UNL A   1      32.499  22.340  24.204  1.00  0.00     0.004 A 
ATOM     14  C   UNL A   1      32.256  22.080  22.861  1.00  0.00     0.046 A 
ATOM     15  N   UNL A   1      32.203  23.293  22.219  1.00  0.00    -0.352 N 
ATOM     16  C   UNL A   1      32.324  24.337  23.113  1.00  0.00     0.093 A 
ATOM     17  H   UNL A   1      32.093  23.403  21.247  1.00  0.00     0.167 HD
BRANCH   9  18
ATOM     18  C   UNL A   1      32.691  18.753  25.543  1.00  0.00     0.032 C 
ATOM     19  C   UNL A   1      32.422  17.404  24.889  1.00  0.00     0.009 C 
ENDBRANCH   9  18
BRANCH  16  20
ATOM     20  C   UNL A   1      32.187  25.751  22.777  1.00  0.00     0.227 C 
ATOM     21  O   UNL A   1      33.117  26.433  22.343  1.00  0.00    -0.285 OA
BRANCH  20  22
ATOM     22  C   UNL A   1      30.896  26.442  23.034  1.00  0.00     0.113 A 
ATOM     23  C   UNL A   1      30.700  27.740  22.566  1.00  0.00     0.036 A 
ATOM     24  N   UNL A   1      29.952  25.726  23.694  1.00  0.00    -0.253 NA
ATOM     25  C   UNL A   1      29.464  28.348  22.795  1.00  0.00    -0.047 A 
ATOM     26  C   UNL A   1      28.758  26.327  23.878  1.00  0.00     0.112 A 
ATOM     27  C   UNL A   1      29.180  29.738  22.314  1.00  0.00     0.044 C 
ATOM     28  C   UNL A   1      28.472  27.616  23.454  1.00  0.00     0.023 A 
ENDBRANCH  20  22
ENDBRANCH  16  20
ENDBRANCH   7   8
ENDBRANCH   4   7
ENDBRANCH   2   3
ENDBRANCH   1   2
BRANCH   1  29
ATOM     29  C   UNL A   1      33.837  28.694  26.127  1.00  0.00     0.118 C 
BRANCH  29  30
ATOM     30  N   UNL A   1      33.630  30.009  26.718  1.00  0.00    -0.352 N 
ATOM     31  C   UNL A   1      34.380  30.713  27.626  1.00  0.00     0.251 C 
ATOM     32  H   UNL A   1      32.815  30.470  26.415  1.00  0.00     0.163 HD
ATOM     33  O   UNL A   1      33.914  31.744  28.107  1.00  0.00    -0.269 OA
BRANCH  31  34
ATOM     34  C   UNL A   1      35.724  30.251  28.046  1.00  0.00     0.039 A 
ATOM     35  C   UNL A   1      36.769  30.312  27.117  1.00  0.00     0.014 A 
ATOM     36  C   UNL A   1      35.957  29.701  29.310  1.00  0.00     0.014 A 
ATOM     37  C   UNL A   1      38.049  29.876  27.468  1.00  0.00     0.010 A 
ATOM     38  C   UNL A   1      37.248  29.321  29.681  1.00  0.00     0.010 A 
ATOM     39  C   UNL A   1      38.306  29.402  28.764  1.00  0.00    -0.014 A 
BRANCH  39  40
ATOM     40  C   UNL A   1      39.674  28.989  29.172  1.00  0.00     0.031 A 
ATOM     41  C   UNL A   1      40.573  29.946  29.909  1.00  0.00     0.074 A 
ATOM     42  C   UNL A   1      40.129  27.767  28.833  1.00  0.00     0.049 A 
ATOM     43  N   UNL A   1      41.814  29.782  30.292  1.00  0.00    -0.248 NA
ATOM     44  C   UNL A   1      40.009  31.263  30.243  1.00  0.00     0.031 C 
ATOM     45  C   UNL A   1      39.373  26.755  28.091  1.00  0.00     0.029 A 
ATOM     46  N   UNL A   1      41.345  27.170  29.063  1.00  0.00    -0.354 N 
ATOM     47  C   UNL A   1      42.186  30.979  30.892  1.00  0.00     0.074 A 
ATOM     48  C   UNL A   1      41.051  31.871  30.792  1.00  0.00     0.031 C 
ATOM     49  C   UNL A   1      40.132  25.657  27.948  1.00  0.00     0.029 A 
ATOM     50  C   UNL A   1      41.438  25.897  28.555  1.00  0.00     0.049 A 
ATOM     51  H   UNL A   1      42.079  27.613  29.546  1.00  0.00     0.167 HD
ATOM     52  C   UNL A   1      43.361  31.304  31.484  1.00  0.00     0.031 A 
ATOM     53  C   UNL A   1      42.459  25.018  28.571  1.00  0.00     0.031 A 
ATOM     54  C   UNL A   1      44.487  30.415  31.598  1.00  0.00     0.049 A 
ATOM     55  C   UNL A   1      43.748  25.397  29.243  1.00  0.00     0.074 A 
ATOM     56  C   UNL A   1      45.705  30.642  32.216  1.00  0.00     0.029 A 
ATOM     57  N   UNL A   1      44.533  29.127  31.087  1.00  0.00    -0.354 N 
ATOM     58  N   UNL A   1      44.067  26.522  29.837  1.00  0.00    -0.248 NA
ATOM     59  C   UNL A   1      44.810  24.382  29.257  1.00  0.00     0.031 C 
ATOM     60  C   UNL A   1      46.499  29.500  32.053  1.00  0.00     0.029 A 
ATOM     61  C   UNL A   1      45.760  28.550  31.367  1.00  0.00     0.049 A 
ATOM     62  H   UNL A   1      43.801  28.688  30.597  1.00  0.00     0.167 HD
ATOM     63  C   UNL A   1      45.361  26.343  30.313  1.00  0.00     0.074 A 
ATOM     64  C   UNL A   1      45.760  24.998  29.949  1.00  0.00     0.031 C 
ATOM     65  C   UNL A   1      46.145  27.214  30.993  1.00  0.00     0.031 A 
BRANCH  52  66
ATOM     66  C   UNL A   1      43.486  32.694  32.049  1.00  0.00    -0.014 A 
ATOM     67  C   UNL A   1      43.148  32.963  33.387  1.00  0.00     0.010 A 
ATOM     68  C   UNL A   1      43.965  33.739  31.239  1.00  0.00     0.010 A 
ATOM     69  C   UNL A   1      43.242  34.262  33.893  1.00  0.00     0.020 A 
ATOM     70  C   UNL A   1      44.083  35.035  31.748  1.00  0.00     0.020 A 
ATOM     71  C   UNL A   1      43.700  35.293  33.066  1.00  0.00     0.054 A 
BRANCH  71  72
ATOM     72  S   UNL A   1      43.819  36.971  33.744  1.00  0.00     0.124 S 
ATOM     73  O   UNL A   1      42.538  37.106  34.434  1.00  0.00    -0.237 OA
ATOM     74  O   UNL A   1      44.993  36.890  34.610  1.00  0.00    -0.237 OA
ATOM     75  O   UNL A   1      43.982  37.811  32.560  1.00  0.00    -0.744 OA
ENDBRANCH  71  72
ENDBRANCH  52  66
BRANCH  53  76
ATOM     76  C   UNL A   1      42.291  23.682  27.944  1.00  0.00    -0.014 A 
ATOM     77  C   UNL A   1      42.770  23.443  26.644  1.00  0.00     0.010 A 
ATOM     78  C   UNL A   1      41.675  22.635  28.653  1.00  0.00     0.010 A 
ATOM     79  C   UNL A   1      42.625  22.182  26.058  1.00  0.00     0.020 A 
ATOM     80  C   UNL A   1      41.547  21.368  28.078  1.00  0.00     0.020 A 
ATOM     81  C   UNL A   1      42.015  21.152  26.780  1.00  0.00     0.054 A 
BRANCH  81  82
ATOM     82  S   UNL A   1      41.896  19.504  26.032  1.00  0.00     0.124 S 
ATOM     83  O   UNL A   1      40.467  19.401  25.751  1.00  0.00    -0.237 OA
ATOM     84  O   UNL A   1      42.764  19.619  24.863  1.00  0.00    -0.237 OA
ATOM     85  O   UNL A   1      42.395  18.619  27.082  1.00  0.00    -0.744 OA
ENDBRANCH  81  82
ENDBRANCH  53  76
BRANCH  65  86
ATOM     86  C   UNL A   1      47.505  26.729  31.412  1.00  0.00    -0.014 A 
ATOM     87  C   UNL A   1      47.711  26.145  32.674  1.00  0.00     0.010 A 
ATOM     88  C   UNL A   1      48.585  26.830  30.516  1.00  0.00     0.010 A 
ATOM     89  C   UNL A   1      48.981  25.697  33.045  1.00  0.00     0.020 A 
ATOM     90  C   UNL A   1      49.852  26.364  30.877  1.00  0.00     0.020 A 
ATOM     91  C   UNL A   1      50.045  25.814  32.146  1.00  0.00     0.054 A 
BRANCH  91  92
ATOM     92  S   UNL A   1      51.681  25.198  32.634  1.00  0.00     0.124 S 
ATOM     93  O   UNL A   1      51.657  25.389  34.081  1.00  0.00    -0.237 OA
ATOM     94  O   UNL A   1      51.650  23.808  32.183  1.00  0.00    -0.237 OA
ATOM     95  O   UNL A   1      52.606  26.062  31.904  1.00  0.00    -0.744 OA
ENDBRANCH  91  92
ENDBRANCH  65  86
ENDBRANCH  39  40
ENDBRANCH  31  34
ENDBRANCH  29  30
ENDBRANCH   1  29
TORSDOF 17
ENDMDL
MODEL 2
REMARK VINA RESULT:     -11.9      3.226      5.242
REMARK SMILES CCc1ccc2[nH]c(C(=O)c3cc(C)ccn3)c(CC(=O)NCCCNC(=O)c3ccc(-c4c5nc(c(-c6ccc(S(=O)(=O)[O-])cc6)c6ccc([nH]6)c(-c6ccc(S(=O)(=O)[O-])cc6)c6nc(c(-c7ccc(S(=O)(=O)[O-])cc7)c7ccc4[nH]7)C=C6)C=C5)cc3)c2c1
REMARK SMILES IDX 24 1 23 2 22 3 20 4 21 5 19 7 18 8 3 9 4 10 90 11 5 12 89 13
REMARK SMILES IDX 6 14 7 15 8 16 2 18 1 19 9 20 10 21 11 22 12 23 17 24 13 25
REMARK SMILES IDX 16 26 14 27 15 28 25 29 26 30 27 31 28 33 29 34 30 35 88 36
REMARK SMILES IDX 31 37 87 38 32 39 33 40 34 41 81 42 35 43 86 44 80 45 82 46
REMARK SMILES IDX 36 47 85 48 79 49 78 50 37 52 67 53 48 54 66 55 49 56 52 57
REMARK SMILES IDX 65 58 83 59 50 60 51 61 64 63 84 64 53 65 38 66 39 67 47 68
REMARK SMILES IDX 40 69 46 70 41 71 42 72 43 73 44 74 45 75 68 76 69 77 77 78
REMARK SMILES IDX 70 79 76 80 71 81 72 82 73 83 74 84 75 85 54 86 55 87 63 88
REMARK SMILES IDX 56 89 62 90 57 91 58 92 59 93 60 94 61 95
REMARK H PARENT 22 6 7 17 26 32 82 51 52 62
REMARK Flexibility Score: inf
ROOT
ATOM      1  C   UNL A   1      34.294  31.400  27.685  1.00  0.00     0.042 C 
ENDROOT
BRANCH   1   2
ATOM      2  C   UNL A   1      33.457  30.437  26.848  1.00  0.00     0.117 C 
BRANCH   2   3
ATOM      3  N   UNL A   1      32.560  29.620  27.639  1.00  0.00    -0.356 N 
ATOM      4  C   UNL A   1      32.153  28.331  27.447  1.00  0.00     0.224 C 
ATOM      5  O   UNL A   1      31.577  27.785  28.393  1.00  0.00    -0.275 OA
ATOM      6  H   UNL A   1      32.189  30.061  28.437  1.00  0.00     0.163 HD
BRANCH   4   7
ATOM      7  C   UNL A   1      32.513  27.560  26.182  1.00  0.00     0.138 C 
BRANCH   7   8
ATOM      8  C   UNL A   1      31.356  26.898  25.481  1.00  0.00    -0.002 A 
ATOM      9  C   UNL A   1      29.230  29.239  23.288  1.00  0.00    -0.048 A 
ATOM     10  C   UNL A   1      28.291  28.264  22.935  1.00  0.00     0.006 A 
ATOM     11  C   UNL A   1      30.305  28.882  24.120  1.00  0.00     0.014 A 
ATOM     12  C   UNL A   1      28.401  26.942  23.384  1.00  0.00     0.027 A 
ATOM     13  C   UNL A   1      30.434  27.559  24.599  1.00  0.00     0.004 A 
ATOM     14  C   UNL A   1      29.481  26.624  24.214  1.00  0.00     0.046 A 
ATOM     15  N   UNL A   1      29.818  25.435  24.813  1.00  0.00    -0.352 N 
ATOM     16  C   UNL A   1      31.004  25.546  25.511  1.00  0.00     0.093 A 
ATOM     17  H   UNL A   1      29.284  24.610  24.752  1.00  0.00     0.167 HD
BRANCH   9  18
ATOM     18  C   UNL A   1      29.048  30.670  22.840  1.00  0.00     0.032 C 
ATOM     19  C   UNL A   1      27.848  31.361  23.474  1.00  0.00     0.009 C 
ENDBRANCH   9  18
BRANCH  16  20
ATOM     20  C   UNL A   1      31.705  24.441  26.158  1.00  0.00     0.227 C 
ATOM     21  O   UNL A   1      31.405  24.016  27.275  1.00  0.00    -0.285 OA
BRANCH  20  22
ATOM     22  C   UNL A   1      32.887  23.833  25.492  1.00  0.00     0.113 A 
ATOM     23  C   UNL A   1      34.170  24.166  25.921  1.00  0.00     0.036 A 
ATOM     24  N   UNL A   1      32.628  22.940  24.506  1.00  0.00    -0.253 NA
ATOM     25  C   UNL A   1      35.258  23.552  25.296  1.00  0.00    -0.047 A 
ATOM     26  C   UNL A   1      33.695  22.342  23.938  1.00  0.00     0.112 A 
ATOM     27  C   UNL A   1      36.665  23.856  25.711  1.00  0.00     0.044 C 
ATOM     28  C   UNL A   1      35.009  22.612  24.293  1.00  0.00     0.023 A 
ENDBRANCH  20  22
ENDBRANCH  16  20
ENDBRANCH   7   8
ENDBRANCH   4   7
ENDBRANCH   2   3
ENDBRANCH   1   2
BRANCH   1  29
ATOM     29  C   UNL A   1      35.558  30.787  28.284  1.00  0.00     0.118 C 
BRANCH  29  30
ATOM     30  N   UNL A   1      35.516  30.712  29.738  1.00  0.00    -0.352 N 
ATOM     31  C   UNL A   1      36.427  30.217  30.637  1.00  0.00     0.251 C 
ATOM     32  H   UNL A   1      34.697  31.078  30.144  1.00  0.00     0.163 HD
ATOM     33  O   UNL A   1      36.097  30.110  31.816  1.00  0.00    -0.269 OA
BRANCH  31  34
ATOM     34  C   UNL A   1      37.784  29.798  30.215  1.00  0.00     0.039 A 
ATOM     35  C   UNL A   1      38.129  29.923  28.864  1.00  0.00     0.014 A 
ATOM     36  C   UNL A   1      38.695  29.227  31.109  1.00  0.00     0.014 A 
ATOM     37  C   UNL A   1      39.395  29.531  28.422  1.00  0.00     0.010 A 
ATOM     38  C   UNL A   1      39.979  28.889  30.679  1.00  0.00     0.010 A 
ATOM     39  C   UNL A   1      40.342  29.034  29.332  1.00  0.00    -0.014 A 
BRANCH  39  40
ATOM     40  C   UNL A   1      41.712  28.666  28.889  1.00  0.00     0.031 A 
ATOM     41  C   UNL A   1      42.803  29.701  28.842  1.00  0.00     0.074 A 
ATOM     42  C   UNL A   1      41.962  27.408  28.477  1.00  0.00     0.049 A 
ATOM     43  N   UNL A   1      44.039  29.578  28.427  1.00  0.00    -0.248 NA
ATOM     44  C   UNL A   1      42.456  31.055  29.303  1.00  0.00     0.031 C 
ATOM     45  C   UNL A   1      40.985  26.316  28.442  1.00  0.00     0.029 A 
ATOM     46  N   UNL A   1      43.117  26.836  28.002  1.00  0.00    -0.354 N 
ATOM     47  C   UNL A   1      44.610  30.839  28.558  1.00  0.00     0.074 A 
ATOM     48  C   UNL A   1      43.576  31.719  29.058  1.00  0.00     0.031 C 
ATOM     49  C   UNL A   1      41.587  25.203  27.993  1.00  0.00     0.029 A 
ATOM     50  C   UNL A   1      42.980  25.508  27.677  1.00  0.00     0.049 A 
ATOM     51  H   UNL A   1      43.962  27.331  27.905  1.00  0.00     0.167 HD
ATOM     52  C   UNL A   1      45.883  31.227  28.298  1.00  0.00     0.031 A 
ATOM     53  C   UNL A   1      43.872  24.631  27.176  1.00  0.00     0.031 A 
ATOM     54  C   UNL A   1      46.917  30.351  27.814  1.00  0.00     0.049 A 
ATOM     55  C   UNL A   1      45.279  25.081  26.907  1.00  0.00     0.074 A 
ATOM     56  C   UNL A   1      48.245  30.645  27.560  1.00  0.00     0.029 A 
ATOM     57  N   UNL A   1      46.741  29.008  27.516  1.00  0.00    -0.354 N 
ATOM     58  N   UNL A   1      45.808  26.270  27.072  1.00  0.00    -0.248 NA
ATOM     59  C   UNL A   1      46.211  24.068  26.394  1.00  0.00     0.031 C 
ATOM     60  C   UNL A   1      48.866  29.485  27.079  1.00  0.00     0.029 A 
ATOM     61  C   UNL A   1      47.933  28.462  27.071  1.00  0.00     0.049 A 
ATOM     62  H   UNL A   1      45.893  28.517  27.606  1.00  0.00     0.167 HD
ATOM     63  C   UNL A   1      47.142  26.143  26.702  1.00  0.00     0.074 A 
ATOM     64  C   UNL A   1      47.341  24.760  26.316  1.00  0.00     0.031 C 
ATOM     65  C   UNL A   1      48.114  27.086  26.686  1.00  0.00     0.031 A 
BRANCH  52  66
ATOM     66  C   UNL A   1      46.220  32.676  28.527  1.00  0.00    -0.014 A 
ATOM     67  C   UNL A   1      46.718  33.114  29.767  1.00  0.00     0.010 A 
ATOM     68  C   UNL A   1      46.056  33.607  27.486  1.00  0.00     0.010 A 
ATOM     69  C   UNL A   1      47.003  34.466  29.976  1.00  0.00     0.020 A 
ATOM     70  C   UNL A   1      46.362  34.956  27.684  1.00  0.00     0.020 A 
ATOM     71  C   UNL A   1      46.813  35.381  28.936  1.00  0.00     0.054 A 
BRANCH  71  72
ATOM     72  S   UNL A   1      47.193  37.130  29.229  1.00  0.00     0.124 S 
ATOM     73  O   UNL A   1      46.512  37.376  30.497  1.00  0.00    -0.237 OA
ATOM     74  O   UNL A   1      48.653  37.140  29.288  1.00  0.00    -0.237 OA
ATOM     75  O   UNL A   1      46.617  37.807  28.069  1.00  0.00    -0.744 OA
ENDBRANCH  71  72
ENDBRANCH  52  66
BRANCH  53  76
ATOM     76  C   UNL A   1      43.459  23.227  26.917  1.00  0.00    -0.014 A 
ATOM     77  C   UNL A   1      43.596  22.673  25.633  1.00  0.00     0.010 A 
ATOM     78  C   UNL A   1      42.950  22.431  27.959  1.00  0.00     0.010 A 
ATOM     79  C   UNL A   1      43.221  21.348  25.391  1.00  0.00     0.020 A 
ATOM     80  C   UNL A   1      42.593  21.100  27.726  1.00  0.00     0.020 A 
ATOM     81  C   UNL A   1      42.723  20.569  26.440  1.00  0.00     0.054 A 
BRANCH  81  82
ATOM     82  S   UNL A   1      42.305  18.833  26.126  1.00  0.00     0.124 S 
ATOM     83  O   UNL A   1      43.222  18.491  25.043  1.00  0.00    -0.237 OA
ATOM     84  O   UNL A   1      42.580  18.199  27.413  1.00  0.00    -0.237 OA
ATOM     85  O   UNL A   1      40.891  18.886  25.758  1.00  0.00    -0.744 OA
ENDBRANCH  81  82
ENDBRANCH  53  76
BRANCH  65  86
ATOM     86  C   UNL A   1      49.489  26.648  26.263  1.00  0.00    -0.014 A 
ATOM     87  C   UNL A   1      49.979  26.939  24.979  1.00  0.00     0.010 A 
ATOM     88  C   UNL A   1      50.312  25.966  27.176  1.00  0.00     0.010 A 
ATOM     89  C   UNL A   1      51.261  26.527  24.603  1.00  0.00     0.020 A 
ATOM     90  C   UNL A   1      51.602  25.570  26.810  1.00  0.00     0.020 A 
ATOM     91  C   UNL A   1      52.062  25.840  25.519  1.00  0.00     0.054 A 
BRANCH  91  92
ATOM     92  S   UNL A   1      53.735  25.341  25.025  1.00  0.00     0.124 S 
ATOM     93  O   UNL A   1      54.563  26.075  25.977  1.00  0.00    -0.237 OA
ATOM     94  O   UNL A   1      53.706  23.891  25.202  1.00  0.00    -0.237 OA
ATOM     95  O   UNL A   1      53.832  25.790  23.637  1.00  0.00    -0.744 OA
ENDBRANCH  91  92
ENDBRANCH  65  86
ENDBRANCH  39  40
ENDBRANCH  31  34
ENDBRANCH  29  30
ENDBRANCH   1  29
TORSDOF 17
ENDMDL
MODEL 3
REMARK VINA RESULT:     -11.6      2.276      2.895
REMARK SMILES CCc1ccc2[nH]c(C(=O)c3cc(C)ccn3)c(CC(=O)NCCCNC(=O)c3ccc(-c4c5nc(c(-c6ccc(S(=O)(=O)[O-])cc6)c6ccc([nH]6)c(-c6ccc(S(=O)(=O)[O-])cc6)c6nc(c(-c7ccc(S(=O)(=O)[O-])cc7)c7ccc4[nH]7)C=C6)C=C5)cc3)c2c1
REMARK SMILES IDX 24 1 23 2 22 3 20 4 21 5 19 7 18 8 3 9 4 10 90 11 5 12 89 13
REMARK SMILES IDX 6 14 7 15 8 16 2 18 1 19 9 20 10 21 11 22 12 23 17 24 13 25
REMARK SMILES IDX 16 26 14 27 15 28 25 29 26 30 27 31 28 33 29 34 30 35 88 36
REMARK SMILES IDX 31 37 87 38 32 39 33 40 34 41 81 42 35 43 86 44 80 45 82 46
REMARK SMILES IDX 36 47 85 48 79 49 78 50 37 52 67 53 48 54 66 55 49 56 52 57
REMARK SMILES IDX 65 58 83 59 50 60 51 61 64 63 84 64 53 65 38 66 39 67 47 68
REMARK SMILES IDX 40 69 46 70 41 71 42 72 43 73 44 74 45 75 68 76 69 77 77 78
REMARK SMILES IDX 70 79 76 80 71 81 72 82 73 83 74 84 75 85 54 86 55 87 63 88
REMARK SMILES IDX 56 89 62 90 57 91 58 92 59 93 60 94 61 95
REMARK H PARENT 22 6 7 17 26 32 82 51 52 62
REMARK Flexibility Score: inf
ROOT
ATOM      1  C   UNL A   1      33.128  28.036  26.801  1.00  0.00     0.042 C 
ENDROOT
BRANCH   1   2
ATOM      2  C   UNL A   1      32.733  26.860  25.912  1.00  0.00     0.117 C 
BRANCH   2   3
ATOM      3  N   UNL A   1      32.915  25.573  26.551  1.00  0.00    -0.356 N 
ATOM      4  C   UNL A   1      33.659  24.498  26.155  1.00  0.00     0.224 C 
ATOM      5  O   UNL A   1      33.840  23.610  26.994  1.00  0.00    -0.275 OA
ATOM      6  H   UNL A   1      32.430  25.455  27.398  1.00  0.00     0.163 HD
BRANCH   4   7
ATOM      7  C   UNL A   1      34.346  24.459  24.795  1.00  0.00     0.138 C 
BRANCH   7   8
ATOM      8  C   UNL A   1      33.552  23.810  23.691  1.00  0.00    -0.002 A 
ATOM      9  C   UNL A   1      32.842  20.061  24.191  1.00  0.00    -0.048 A 
ATOM     10  C   UNL A   1      32.200  19.888  22.961  1.00  0.00     0.006 A 
ATOM     11  C   UNL A   1      33.315  21.337  24.541  1.00  0.00     0.014 A 
ATOM     12  C   UNL A   1      32.011  20.956  22.075  1.00  0.00     0.027 A 
ATOM     13  C   UNL A   1      33.151  22.430  23.662  1.00  0.00     0.004 A 
ATOM     14  C   UNL A   1      32.499  22.211  22.454  1.00  0.00     0.046 A 
ATOM     15  N   UNL A   1      32.478  23.409  21.784  1.00  0.00    -0.352 N 
ATOM     16  C   UNL A   1      33.025  24.419  22.550  1.00  0.00     0.093 A 
ATOM     17  H   UNL A   1      32.120  23.532  20.875  1.00  0.00     0.167 HD
BRANCH   9  18
ATOM     18  C   UNL A   1      33.087  18.876  25.096  1.00  0.00     0.032 C 
ATOM     19  C   UNL A   1      34.081  17.870  24.530  1.00  0.00     0.009 C 
ENDBRANCH   9  18
BRANCH  16  20
ATOM     20  C   UNL A   1      33.046  25.833  22.186  1.00  0.00     0.227 C 
ATOM     21  O   UNL A   1      33.979  26.357  21.575  1.00  0.00    -0.285 OA
BRANCH  20  22
ATOM     22  C   UNL A   1      31.936  26.719  22.627  1.00  0.00     0.113 A 
ATOM     23  C   UNL A   1      30.744  26.160  23.081  1.00  0.00     0.036 A 
ATOM     24  N   UNL A   1      32.183  28.052  22.594  1.00  0.00    -0.253 NA
ATOM     25  C   UNL A   1      29.734  27.019  23.520  1.00  0.00    -0.047 A 
ATOM     26  C   UNL A   1      31.201  28.858  23.049  1.00  0.00     0.112 A 
ATOM     27  C   UNL A   1      28.429  26.489  24.029  1.00  0.00     0.044 C 
ATOM     28  C   UNL A   1      29.979  28.395  23.514  1.00  0.00     0.023 A 
ENDBRANCH  20  22
ENDBRANCH  16  20
ENDBRANCH   7   8
ENDBRANCH   4   7
ENDBRANCH   2   3
ENDBRANCH   1   2
BRANCH   1  29
ATOM     29  C   UNL A   1      33.992  29.091  26.112  1.00  0.00     0.118 C 
BRANCH  29  30
ATOM     30  N   UNL A   1      33.723  30.440  26.589  1.00  0.00    -0.352 N 
ATOM     31  C   UNL A   1      34.321  31.177  27.581  1.00  0.00     0.251 C 
ATOM     32  H   UNL A   1      32.990  30.902  26.121  1.00  0.00     0.163 HD
ATOM     33  O   UNL A   1      33.809  32.243  27.917  1.00  0.00    -0.269 OA
BRANCH  31  34
ATOM     34  C   UNL A   1      35.553  30.709  28.259  1.00  0.00     0.039 A 
ATOM     35  C   UNL A   1      36.779  31.253  27.859  1.00  0.00     0.014 A 
ATOM     36  C   UNL A   1      35.528  29.704  29.230  1.00  0.00     0.014 A 
ATOM     37  C   UNL A   1      37.966  30.832  28.465  1.00  0.00     0.010 A 
ATOM     38  C   UNL A   1      36.706  29.327  29.876  1.00  0.00     0.010 A 
ATOM     39  C   UNL A   1      37.937  29.884  29.499  1.00  0.00    -0.014 A 
BRANCH  39  40
ATOM     40  C   UNL A   1      39.184  29.469  30.194  1.00  0.00     0.031 A 
ATOM     41  C   UNL A   1      39.637  30.180  31.440  1.00  0.00     0.074 A 
ATOM     42  C   UNL A   1      39.938  28.481  29.672  1.00  0.00     0.049 A 
ATOM     43  N   UNL A   1      40.725  29.996  32.145  1.00  0.00    -0.248 NA
ATOM     44  C   UNL A   1      38.764  31.250  31.949  1.00  0.00     0.031 C 
ATOM     45  C   UNL A   1      39.629  27.731  28.452  1.00  0.00     0.029 A 
ATOM     46  N   UNL A   1      41.126  27.943  30.101  1.00  0.00    -0.354 N 
ATOM     47  C   UNL A   1      40.678  30.937  33.166  1.00  0.00     0.074 A 
ATOM     48  C   UNL A   1      39.472  31.713  32.970  1.00  0.00     0.031 C 
ATOM     49  C   UNL A   1      40.590  26.816  28.245  1.00  0.00     0.029 A 
ATOM     50  C   UNL A   1      41.598  26.936  29.294  1.00  0.00     0.049 A 
ATOM     51  H   UNL A   1      41.595  28.249  30.911  1.00  0.00     0.167 HD
ATOM     52  C   UNL A   1      41.552  31.132  34.184  1.00  0.00     0.031 A 
ATOM     53  C   UNL A   1      42.719  26.193  29.382  1.00  0.00     0.031 A 
ATOM     54  C   UNL A   1      42.744  30.354  34.391  1.00  0.00     0.049 A 
ATOM     55  C   UNL A   1      43.666  26.419  30.525  1.00  0.00     0.074 A 
ATOM     56  C   UNL A   1      43.669  30.451  35.417  1.00  0.00     0.029 A 
ATOM     57  N   UNL A   1      43.176  29.331  33.560  1.00  0.00    -0.354 N 
ATOM     58  N   UNL A   1      43.585  27.291  31.501  1.00  0.00    -0.248 NA
ATOM     59  C   UNL A   1      44.852  25.553  30.583  1.00  0.00     0.031 C 
ATOM     60  C   UNL A   1      44.677  29.505  35.189  1.00  0.00     0.029 A 
ATOM     61  C   UNL A   1      44.357  28.795  34.043  1.00  0.00     0.049 A 
ATOM     62  H   UNL A   1      42.710  29.031  32.747  1.00  0.00     0.167 HD
ATOM     63  C   UNL A   1      44.698  27.064  32.302  1.00  0.00     0.074 A 
ATOM     64  C   UNL A   1      45.431  25.967  31.703  1.00  0.00     0.031 C 
ATOM     65  C   UNL A   1      45.077  27.706  33.434  1.00  0.00     0.031 A 
BRANCH  52  66
ATOM     66  C   UNL A   1      41.246  32.245  35.150  1.00  0.00    -0.014 A 
ATOM     67  C   UNL A   1      41.724  33.548  34.924  1.00  0.00     0.010 A 
ATOM     68  C   UNL A   1      40.456  31.992  36.285  1.00  0.00     0.010 A 
ATOM     69  C   UNL A   1      41.456  34.568  35.841  1.00  0.00     0.020 A 
ATOM     70  C   UNL A   1      40.166  33.014  37.192  1.00  0.00     0.020 A 
ATOM     71  C   UNL A   1      40.687  34.292  36.975  1.00  0.00     0.054 A 
BRANCH  71  72
ATOM     72  S   UNL A   1      40.347  35.632  38.149  1.00  0.00     0.124 S 
ATOM     73  O   UNL A   1      39.828  36.676  37.270  1.00  0.00    -0.237 OA
ATOM     74  O   UNL A   1      39.372  35.031  39.056  1.00  0.00    -0.237 OA
ATOM     75  O   UNL A   1      41.654  35.909  38.743  1.00  0.00    -0.744 OA
ENDBRANCH  71  72
ENDBRANCH  52  66
BRANCH  53  76
ATOM     76  C   UNL A   1      42.991  25.148  28.362  1.00  0.00    -0.014 A 
ATOM     77  C   UNL A   1      43.748  25.454  27.217  1.00  0.00     0.010 A 
ATOM     78  C   UNL A   1      42.518  23.836  28.543  1.00  0.00     0.010 A 
ATOM     79  C   UNL A   1      44.016  24.468  26.263  1.00  0.00     0.020 A 
ATOM     80  C   UNL A   1      42.802  22.843  27.601  1.00  0.00     0.020 A 
ATOM     81  C   UNL A   1      43.543  23.168  26.463  1.00  0.00     0.054 A 
BRANCH  81  82
ATOM     82  S   UNL A   1      43.958  21.884  25.250  1.00  0.00     0.124 S 
ATOM     83  O   UNL A   1      42.943  20.872  25.520  1.00  0.00    -0.237 OA
ATOM     84  O   UNL A   1      43.827  22.591  23.978  1.00  0.00    -0.237 OA
ATOM     85  O   UNL A   1      45.326  21.513  25.607  1.00  0.00    -0.744 OA
ENDBRANCH  81  82
ENDBRANCH  53  76
BRANCH  65  86
ATOM     86  C   UNL A   1      46.327  27.220  34.113  1.00  0.00    -0.014 A 
ATOM     87  C   UNL A   1      47.579  27.788  33.821  1.00  0.00     0.010 A 
ATOM     88  C   UNL A   1      46.241  26.203  35.081  1.00  0.00     0.010 A 
ATOM     89  C   UNL A   1      48.730  27.325  34.464  1.00  0.00     0.020 A 
ATOM     90  C   UNL A   1      47.388  25.753  35.741  1.00  0.00     0.020 A 
ATOM     91  C   UNL A   1      48.628  26.307  35.416  1.00  0.00     0.054 A 
BRANCH  91  92
ATOM     92  S   UNL A   1      50.130  25.742  36.264  1.00  0.00     0.124 S 
ATOM     93  O   UNL A   1      51.178  26.415  35.503  1.00  0.00    -0.237 OA
ATOM     94  O   UNL A   1      49.933  26.227  37.628  1.00  0.00    -0.237 OA
ATOM     95  O   UNL A   1      50.083  24.289  36.115  1.00  0.00    -0.744 OA
ENDBRANCH  91  92
ENDBRANCH  65  86
ENDBRANCH  39  40
ENDBRANCH  31  34
ENDBRANCH  29  30
ENDBRANCH   1  29
TORSDOF 17
ENDMDL
