MODEL 1
REMARK VINA RESULT:      -9.7      0.000      0.000
REMARK SMILES CC(=O)/C=C(/C)NCC(=O)NCCCNC(=O)c1ccc(-c2c3nc(c(-c4ccc(S(=O)(=O)[O-])cc4)c4ccc([nH]4)c(-c4ccc(S(=O)(=O)[O-])cc4)c4nc(c(-c5ccc(S(=O)(=O)[O-])cc5)c5ccc2[nH]5)C=C4)C=C3)cc1
REMARK SMILES IDX 13 1 12 2 11 3 9 4 10 5 8 7 7 8 5 10 4 11 6 12 2 13 1 14
REMARK SMILES IDX 3 15 14 16 15 17 16 18 17 20 18 21 19 22 77 23 20 24 76 25
REMARK SMILES IDX 21 26 22 27 23 28 70 29 24 30 75 31 69 32 71 33 25 34 74 35
REMARK SMILES IDX 68 36 67 37 26 39 56 40 37 41 55 42 38 43 41 44 54 45 72 46
REMARK SMILES IDX 39 47 40 48 53 50 73 51 42 52 27 53 28 54 36 55 29 56 35 57
REMARK SMILES IDX 30 58 31 59 32 60 33 61 34 62 57 63 58 64 66 65 59 66 65 67
REMARK SMILES IDX 60 68 61 69 62 70 63 71 64 72 43 73 44 74 52 75 45 76 51 77
REMARK SMILES IDX 46 78 47 79 48 80 49 81 50 82
REMARK H PARENT 11 6 7 9 15 19 71 38 41 49
REMARK Flexibility Score: inf
ROOT
ATOM      1  C   UNL A   1      34.511  34.514  27.975  1.00  0.00     0.042 C 
ENDROOT
BRANCH   1   2
ATOM      2  C   UNL A   1      33.193  34.606  28.731  1.00  0.00     0.117 C 
BRANCH   2   3
ATOM      3  N   UNL A   1      32.993  35.902  29.350  1.00  0.00    -0.355 N 
ATOM      4  C   UNL A   1      33.100  36.291  30.650  1.00  0.00     0.239 C 
ATOM      5  O   UNL A   1      32.885  37.485  30.892  1.00  0.00    -0.273 OA
ATOM      6  H   UNL A   1      32.739  36.619  28.725  1.00  0.00     0.163 HD
BRANCH   4   7
ATOM      7  C   UNL A   1      33.551  35.353  31.780  1.00  0.00     0.213 C 
BRANCH   7   8
ATOM      8  N   UNL A   1      34.965  35.035  31.797  1.00  0.00    -0.380 N 
ATOM      9  H   UNL A   1      35.537  35.824  31.935  1.00  0.00     0.160 HD
BRANCH   8  10
ATOM     10  C   UNL A   1      35.682  33.860  31.661  1.00  0.00     0.011 C 
ATOM     11  C   UNL A   1      36.962  33.582  31.338  1.00  0.00     0.067 C 
ATOM     12  C   UNL A   1      34.778  32.634  31.830  1.00  0.00     0.064 C 
BRANCH  11  13
ATOM     13  C   UNL A   1      38.221  34.293  30.957  1.00  0.00     0.154 C 
ATOM     14  C   UNL A   1      38.637  34.525  29.538  1.00  0.00     0.093 C 
ATOM     15  O   UNL A   1      38.928  34.722  31.875  1.00  0.00    -0.295 OA
ENDBRANCH  11  13
ENDBRANCH   8  10
ENDBRANCH   7   8
ENDBRANCH   4   7
ENDBRANCH   2   3
ENDBRANCH   1   2
BRANCH   1  16
ATOM     16  C   UNL A   1      35.183  33.155  28.113  1.00  0.00     0.118 C 
BRANCH  16  17
ATOM     17  N   UNL A   1      34.252  32.050  27.933  1.00  0.00    -0.352 N 
ATOM     18  C   UNL A   1      34.489  30.696  27.893  1.00  0.00     0.251 C 
ATOM     19  H   UNL A   1      33.310  32.311  27.824  1.00  0.00     0.163 HD
ATOM     20  O   UNL A   1      33.589  29.934  27.563  1.00  0.00    -0.269 OA
BRANCH  18  21
ATOM     21  C   UNL A   1      35.831  30.169  28.222  1.00  0.00     0.039 A 
ATOM     22  C   UNL A   1      36.806  30.141  27.222  1.00  0.00     0.014 A 
ATOM     23  C   UNL A   1      36.128  29.703  29.505  1.00  0.00     0.014 A 
ATOM     24  C   UNL A   1      38.097  29.706  27.528  1.00  0.00     0.010 A 
ATOM     25  C   UNL A   1      37.434  29.352  29.829  1.00  0.00     0.010 A 
ATOM     26  C   UNL A   1      38.432  29.344  28.844  1.00  0.00    -0.014 A 
BRANCH  26  27
ATOM     27  C   UNL A   1      39.819  28.959  29.208  1.00  0.00     0.031 A 
ATOM     28  C   UNL A   1      40.725  29.948  29.891  1.00  0.00     0.074 A 
ATOM     29  C   UNL A   1      40.283  27.739  28.868  1.00  0.00     0.049 A 
ATOM     30  N   UNL A   1      41.982  29.818  30.230  1.00  0.00    -0.248 NA
ATOM     31  C   UNL A   1      40.152  31.267  30.211  1.00  0.00     0.031 C 
ATOM     32  C   UNL A   1      39.515  26.705  28.170  1.00  0.00     0.029 A 
ATOM     33  N   UNL A   1      41.514  27.164  29.057  1.00  0.00    -0.354 N 
ATOM     34  C   UNL A   1      42.353  31.035  30.788  1.00  0.00     0.074 A 
ATOM     35  C   UNL A   1      41.205  31.911  30.693  1.00  0.00     0.031 C 
ATOM     36  C   UNL A   1      40.282  25.613  28.018  1.00  0.00     0.029 A 
ATOM     37  C   UNL A   1      41.608  25.883  28.563  1.00  0.00     0.049 A 
ATOM     38  H   UNL A   1      42.260  27.624  29.505  1.00  0.00     0.167 HD
ATOM     39  C   UNL A   1      43.534  31.387  31.349  1.00  0.00     0.031 A 
ATOM     40  C   UNL A   1      42.647  25.026  28.541  1.00  0.00     0.031 A 
ATOM     41  C   UNL A   1      44.669  30.509  31.449  1.00  0.00     0.049 A 
ATOM     42  C   UNL A   1      43.956  25.448  29.152  1.00  0.00     0.074 A 
ATOM     43  C   UNL A   1      45.895  30.753  32.044  1.00  0.00     0.029 A 
ATOM     44  N   UNL A   1      44.723  29.220  30.939  1.00  0.00    -0.354 N 
ATOM     45  N   UNL A   1      44.267  26.583  29.733  1.00  0.00    -0.248 NA
ATOM     46  C   UNL A   1      45.052  24.470  29.113  1.00  0.00     0.031 C 
ATOM     47  C   UNL A   1      46.709  29.634  31.843  1.00  0.00     0.029 A 
ATOM     48  C   UNL A   1      45.969  28.667  31.183  1.00  0.00     0.049 A 
ATOM     49  H   UNL A   1      43.984  28.765  30.473  1.00  0.00     0.167 HD
ATOM     50  C   UNL A   1      45.583  26.442  30.156  1.00  0.00     0.074 A 
ATOM     51  C   UNL A   1      46.004  25.108  29.779  1.00  0.00     0.031 C 
ATOM     52  C   UNL A   1      46.372  27.336  30.803  1.00  0.00     0.031 A 
BRANCH  39  53
ATOM     53  C   UNL A   1      43.660  32.785  31.895  1.00  0.00    -0.014 A 
ATOM     54  C   UNL A   1      44.321  33.794  31.170  1.00  0.00     0.010 A 
ATOM     55  C   UNL A   1      43.066  33.111  33.129  1.00  0.00     0.010 A 
ATOM     56  C   UNL A   1      44.421  35.089  31.684  1.00  0.00     0.020 A 
ATOM     57  C   UNL A   1      43.136  34.414  33.632  1.00  0.00     0.020 A 
ATOM     58  C   UNL A   1      43.826  35.391  32.914  1.00  0.00     0.054 A 
BRANCH  58  59
ATOM     59  S   UNL A   1      43.946  37.088  33.541  1.00  0.00     0.124 S 
ATOM     60  O   UNL A   1      45.314  37.126  34.051  1.00  0.00    -0.237 OA
ATOM     61  O   UNL A   1      43.700  37.889  32.344  1.00  0.00    -0.237 OA
ATOM     62  O   UNL A   1      42.899  37.157  34.559  1.00  0.00    -0.744 OA
ENDBRANCH  58  59
ENDBRANCH  39  53
BRANCH  40  63
ATOM     63  C   UNL A   1      42.489  23.678  27.928  1.00  0.00    -0.014 A 
ATOM     64  C   UNL A   1      42.038  22.590  28.695  1.00  0.00     0.010 A 
ATOM     65  C   UNL A   1      42.791  23.475  26.568  1.00  0.00     0.010 A 
ATOM     66  C   UNL A   1      41.915  21.320  28.122  1.00  0.00     0.020 A 
ATOM     67  C   UNL A   1      42.638  22.215  25.984  1.00  0.00     0.020 A 
ATOM     68  C   UNL A   1      42.215  21.142  26.769  1.00  0.00     0.054 A 
BRANCH  68  69
ATOM     69  S   UNL A   1      42.008  19.495  26.036  1.00  0.00     0.124 S 
ATOM     70  O   UNL A   1      42.833  19.592  24.836  1.00  0.00    -0.237 OA
ATOM     71  O   UNL A   1      42.517  18.616  27.086  1.00  0.00    -0.237 OA
ATOM     72  O   UNL A   1      40.569  19.404  25.801  1.00  0.00    -0.744 OA
ENDBRANCH  68  69
ENDBRANCH  40  63
BRANCH  52  73
ATOM     73  C   UNL A   1      47.761  26.891  31.181  1.00  0.00    -0.014 A 
ATOM     74  C   UNL A   1      48.032  26.324  32.438  1.00  0.00     0.010 A 
ATOM     75  C   UNL A   1      48.799  26.991  30.235  1.00  0.00     0.010 A 
ATOM     76  C   UNL A   1      49.324  25.896  32.755  1.00  0.00     0.020 A 
ATOM     77  C   UNL A   1      50.084  26.534  30.537  1.00  0.00     0.020 A 
ATOM     78  C   UNL A   1      50.342  26.002  31.802  1.00  0.00     0.054 A 
BRANCH  78  79
ATOM     79  S   UNL A   1      51.999  25.399  32.223  1.00  0.00     0.124 S 
ATOM     80  O   UNL A   1      52.206  25.978  33.547  1.00  0.00    -0.237 OA
ATOM     81  O   UNL A   1      51.828  23.947  32.191  1.00  0.00    -0.237 OA
ATOM     82  O   UNL A   1      52.846  25.944  31.165  1.00  0.00    -0.744 OA
ENDBRANCH  78  79
ENDBRANCH  52  73
ENDBRANCH  26  27
ENDBRANCH  18  21
ENDBRANCH  16  17
ENDBRANCH   1  16
TORSDOF 16
ENDMDL
MODEL 2
REMARK VINA RESULT:      -9.4      2.803     11.649
REMARK SMILES CC(=O)/C=C(/C)NCC(=O)NCCCNC(=O)c1ccc(-c2c3nc(c(-c4ccc(S(=O)(=O)[O-])cc4)c4ccc([nH]4)c(-c4ccc(S(=O)(=O)[O-])cc4)c4nc(c(-c5ccc(S(=O)(=O)[O-])cc5)c5ccc2[nH]5)C=C4)C=C3)cc1
REMARK SMILES IDX 13 1 12 2 11 3 9 4 10 5 8 7 7 8 5 10 4 11 6 12 2 13 1 14
REMARK SMILES IDX 3 15 14 16 15 17 16 18 17 20 18 21 19 22 77 23 20 24 76 25
REMARK SMILES IDX 21 26 22 27 23 28 70 29 24 30 75 31 69 32 71 33 25 34 74 35
REMARK SMILES IDX 68 36 67 37 26 39 56 40 37 41 55 42 38 43 41 44 54 45 72 46
REMARK SMILES IDX 39 47 40 48 53 50 73 51 42 52 27 53 28 54 36 55 29 56 35 57
REMARK SMILES IDX 30 58 31 59 32 60 33 61 34 62 57 63 58 64 66 65 59 66 65 67
REMARK SMILES IDX 60 68 61 69 62 70 63 71 64 72 43 73 44 74 52 75 45 76 51 77
REMARK SMILES IDX 46 78 47 79 48 80 49 81 50 82
REMARK H PARENT 11 6 7 9 15 19 71 38 41 49
REMARK Flexibility Score: inf
ROOT
ATOM      1  C   UNL A   1      41.509  20.362  27.321  1.00  0.00     0.042 C 
ENDROOT
BRANCH   1   2
ATOM      2  C   UNL A   1      41.545  19.496  26.071  1.00  0.00     0.117 C 
BRANCH   2   3
ATOM      3  N   UNL A   1      42.722  18.652  26.010  1.00  0.00    -0.355 N 
ATOM      4  C   UNL A   1      43.956  18.887  25.485  1.00  0.00     0.239 C 
ATOM      5  O   UNL A   1      44.787  17.977  25.591  1.00  0.00    -0.273 OA
ATOM      6  H   UNL A   1      42.611  17.762  26.417  1.00  0.00     0.163 HD
BRANCH   4   7
ATOM      7  C   UNL A   1      44.370  20.230  24.864  1.00  0.00     0.213 C 
BRANCH   7   8
ATOM      8  N   UNL A   1      44.708  21.274  25.810  1.00  0.00    -0.380 N 
ATOM      9  H   UNL A   1      45.307  20.966  26.528  1.00  0.00     0.160 HD
BRANCH   8  10
ATOM     10  C   UNL A   1      44.370  22.611  25.920  1.00  0.00     0.011 C 
ATOM     11  C   UNL A   1      44.383  23.495  26.939  1.00  0.00     0.067 C 
ATOM     12  C   UNL A   1      43.773  23.142  24.612  1.00  0.00     0.064 C 
BRANCH  11  13
ATOM     13  C   UNL A   1      44.713  23.547  28.396  1.00  0.00     0.154 C 
ATOM     14  C   UNL A   1      43.832  22.970  29.460  1.00  0.00     0.093 C 
ATOM     15  O   UNL A   1      45.782  24.080  28.716  1.00  0.00    -0.295 OA
ENDBRANCH  11  13
ENDBRANCH   8  10
ENDBRANCH   7   8
ENDBRANCH   4   7
ENDBRANCH   2   3
ENDBRANCH   1   2
BRANCH   1  16
ATOM     16  C   UNL A   1      41.174  21.818  27.027  1.00  0.00     0.118 C 
BRANCH  16  17
ATOM     17  N   UNL A   1      39.953  21.965  26.247  1.00  0.00    -0.352 N 
ATOM     18  C   UNL A   1      39.081  23.024  26.166  1.00  0.00     0.251 C 
ATOM     19  H   UNL A   1      39.715  21.187  25.693  1.00  0.00     0.163 HD
ATOM     20  O   UNL A   1      38.016  22.887  25.577  1.00  0.00    -0.269 OA
BRANCH  18  21
ATOM     21  C   UNL A   1      39.420  24.313  26.808  1.00  0.00     0.039 A 
ATOM     22  C   UNL A   1      38.982  24.550  28.113  1.00  0.00     0.014 A 
ATOM     23  C   UNL A   1      40.161  25.283  26.129  1.00  0.00     0.014 A 
ATOM     24  C   UNL A   1      39.344  25.733  28.759  1.00  0.00     0.010 A 
ATOM     25  C   UNL A   1      40.592  26.421  26.803  1.00  0.00     0.010 A 
ATOM     26  C   UNL A   1      40.185  26.662  28.123  1.00  0.00    -0.014 A 
BRANCH  26  27
ATOM     27  C   UNL A   1      40.649  27.886  28.822  1.00  0.00     0.031 A 
ATOM     28  C   UNL A   1      42.030  27.939  29.418  1.00  0.00     0.074 A 
ATOM     29  C   UNL A   1      39.805  28.927  28.976  1.00  0.00     0.049 A 
ATOM     30  N   UNL A   1      42.590  28.893  30.117  1.00  0.00    -0.248 NA
ATOM     31  C   UNL A   1      42.885  26.756  29.227  1.00  0.00     0.031 C 
ATOM     32  C   UNL A   1      38.428  28.982  28.477  1.00  0.00     0.029 A 
ATOM     33  N   UNL A   1      39.978  30.137  29.599  1.00  0.00    -0.354 N 
ATOM     34  C   UNL A   1      43.852  28.422  30.459  1.00  0.00     0.074 A 
ATOM     35  C   UNL A   1      43.956  27.076  29.939  1.00  0.00     0.031 C 
ATOM     36  C   UNL A   1      37.895  30.175  28.787  1.00  0.00     0.029 A 
ATOM     37  C   UNL A   1      38.870  30.950  29.546  1.00  0.00     0.049 A 
ATOM     38  H   UNL A   1      40.817  30.398  30.043  1.00  0.00     0.167 HD
ATOM     39  C   UNL A   1      44.844  29.058  31.128  1.00  0.00     0.031 A 
ATOM     40  C   UNL A   1      38.658  32.177  30.059  1.00  0.00     0.031 A 
ATOM     41  C   UNL A   1      44.738  30.400  31.635  1.00  0.00     0.049 A 
ATOM     42  C   UNL A   1      39.768  32.855  30.817  1.00  0.00     0.074 A 
ATOM     43  C   UNL A   1      45.703  31.153  32.281  1.00  0.00     0.029 A 
ATOM     44  N   UNL A   1      43.600  31.190  31.559  1.00  0.00    -0.354 N 
ATOM     45  N   UNL A   1      40.978  32.417  31.074  1.00  0.00    -0.248 NA
ATOM     46  C   UNL A   1      39.488  34.198  31.343  1.00  0.00     0.031 C 
ATOM     47  C   UNL A   1      45.131  32.375  32.647  1.00  0.00     0.029 A 
ATOM     48  C   UNL A   1      43.832  32.412  32.169  1.00  0.00     0.049 A 
ATOM     49  H   UNL A   1      42.754  30.922  31.132  1.00  0.00     0.167 HD
ATOM     50  C   UNL A   1      41.612  33.443  31.765  1.00  0.00     0.074 A 
ATOM     51  C   UNL A   1      40.659  34.528  31.870  1.00  0.00     0.031 C 
ATOM     52  C   UNL A   1      42.873  33.483  32.264  1.00  0.00     0.031 A 
BRANCH  39  53
ATOM     53  C   UNL A   1      46.130  28.307  31.352  1.00  0.00    -0.014 A 
ATOM     54  C   UNL A   1      46.274  27.415  32.432  1.00  0.00     0.010 A 
ATOM     55  C   UNL A   1      47.194  28.454  30.444  1.00  0.00     0.010 A 
ATOM     56  C   UNL A   1      47.469  26.717  32.621  1.00  0.00     0.020 A 
ATOM     57  C   UNL A   1      48.381  27.733  30.612  1.00  0.00     0.020 A 
ATOM     58  C   UNL A   1      48.516  26.881  31.709  1.00  0.00     0.054 A 
BRANCH  58  59
ATOM     59  S   UNL A   1      50.043  25.937  31.964  1.00  0.00     0.124 S 
ATOM     60  O   UNL A   1      49.894  25.489  33.346  1.00  0.00    -0.237 OA
ATOM     61  O   UNL A   1      49.945  24.889  30.950  1.00  0.00    -0.237 OA
ATOM     62  O   UNL A   1      51.101  26.921  31.739  1.00  0.00    -0.744 OA
ENDBRANCH  58  59
ENDBRANCH  39  53
BRANCH  40  63
ATOM     63  C   UNL A   1      37.343  32.850  29.867  1.00  0.00    -0.014 A 
ATOM     64  C   UNL A   1      37.089  33.608  28.710  1.00  0.00     0.010 A 
ATOM     65  C   UNL A   1      36.335  32.735  30.842  1.00  0.00     0.010 A 
ATOM     66  C   UNL A   1      35.862  34.258  28.544  1.00  0.00     0.020 A 
ATOM     67  C   UNL A   1      35.097  33.357  30.665  1.00  0.00     0.020 A 
ATOM     68  C   UNL A   1      34.873  34.127  29.522  1.00  0.00     0.054 A 
BRANCH  68  69
ATOM     69  S   UNL A   1      33.274  34.946  29.266  1.00  0.00     0.124 S 
ATOM     70  O   UNL A   1      32.646  34.078  28.274  1.00  0.00    -0.237 OA
ATOM     71  O   UNL A   1      32.685  34.912  30.602  1.00  0.00    -0.237 OA
ATOM     72  O   UNL A   1      33.644  36.276  28.789  1.00  0.00    -0.744 OA
ENDBRANCH  68  69
ENDBRANCH  40  63
BRANCH  52  73
ATOM     73  C   UNL A   1      43.311  34.758  32.938  1.00  0.00    -0.014 A 
ATOM     74  C   UNL A   1      43.211  34.922  34.330  1.00  0.00     0.010 A 
ATOM     75  C   UNL A   1      43.886  35.784  32.165  1.00  0.00     0.010 A 
ATOM     76  C   UNL A   1      43.649  36.105  34.934  1.00  0.00     0.020 A 
ATOM     77  C   UNL A   1      44.354  36.953  32.769  1.00  0.00     0.020 A 
ATOM     78  C   UNL A   1      44.218  37.113  34.150  1.00  0.00     0.054 A 
BRANCH  78  79
ATOM     79  S   UNL A   1      44.818  38.618  34.963  1.00  0.00     0.124 S 
ATOM     80  O   UNL A   1      46.251  38.357  35.068  1.00  0.00    -0.237 OA
ATOM     81  O   UNL A   1      44.437  39.665  34.018  1.00  0.00    -0.237 OA
ATOM     82  O   UNL A   1      44.095  38.639  36.232  1.00  0.00    -0.744 OA
ENDBRANCH  78  79
ENDBRANCH  52  73
ENDBRANCH  26  27
ENDBRANCH  18  21
ENDBRANCH  16  17
ENDBRANCH   1  16
TORSDOF 16
ENDMDL
MODEL 3
REMARK VINA RESULT:      -9.3      0.964      2.074
REMARK SMILES CC(=O)/C=C(/C)NCC(=O)NCCCNC(=O)c1ccc(-c2c3nc(c(-c4ccc(S(=O)(=O)[O-])cc4)c4ccc([nH]4)c(-c4ccc(S(=O)(=O)[O-])cc4)c4nc(c(-c5ccc(S(=O)(=O)[O-])cc5)c5ccc2[nH]5)C=C4)C=C3)cc1
REMARK SMILES IDX 13 1 12 2 11 3 9 4 10 5 8 7 7 8 5 10 4 11 6 12 2 13 1 14
REMARK SMILES IDX 3 15 14 16 15 17 16 18 17 20 18 21 19 22 77 23 20 24 76 25
REMARK SMILES IDX 21 26 22 27 23 28 70 29 24 30 75 31 69 32 71 33 25 34 74 35
REMARK SMILES IDX 68 36 67 37 26 39 56 40 37 41 55 42 38 43 41 44 54 45 72 46
REMARK SMILES IDX 39 47 40 48 53 50 73 51 42 52 27 53 28 54 36 55 29 56 35 57
REMARK SMILES IDX 30 58 31 59 32 60 33 61 34 62 57 63 58 64 66 65 59 66 65 67
REMARK SMILES IDX 60 68 61 69 62 70 63 71 64 72 43 73 44 74 52 75 45 76 51 77
REMARK SMILES IDX 46 78 47 79 48 80 49 81 50 82
REMARK H PARENT 11 6 7 9 15 19 71 38 41 49
REMARK Flexibility Score: inf
ROOT
ATOM      1  C   UNL A   1      33.649  33.652  28.459  1.00  0.00     0.042 C 
ENDROOT
BRANCH   1   2
ATOM      2  C   UNL A   1      34.086  34.022  29.869  1.00  0.00     0.117 C 
BRANCH   2   3
ATOM      3  N   UNL A   1      34.473  32.866  30.654  1.00  0.00    -0.355 N 
ATOM      4  C   UNL A   1      35.596  32.625  31.385  1.00  0.00     0.239 C 
ATOM      5  O   UNL A   1      35.651  31.540  31.976  1.00  0.00    -0.273 OA
ATOM      6  H   UNL A   1      33.813  32.135  30.659  1.00  0.00     0.163 HD
BRANCH   4   7
ATOM      7  C   UNL A   1      36.721  33.654  31.571  1.00  0.00     0.213 C 
BRANCH   7   8
ATOM      8  N   UNL A   1      36.367  34.830  32.340  1.00  0.00    -0.380 N 
ATOM      9  H   UNL A   1      36.839  35.643  32.045  1.00  0.00     0.160 HD
BRANCH   8  10
ATOM     10  C   UNL A   1      35.508  35.056  33.401  1.00  0.00     0.011 C 
ATOM     11  C   UNL A   1      34.429  35.847  33.573  1.00  0.00     0.067 C 
ATOM     12  C   UNL A   1      35.963  34.301  34.655  1.00  0.00     0.064 C 
BRANCH  11  13
ATOM     13  C   UNL A   1      33.621  36.852  32.817  1.00  0.00     0.154 C 
ATOM     14  C   UNL A   1      32.453  36.488  31.955  1.00  0.00     0.093 C 
ATOM     15  O   UNL A   1      33.938  38.040  32.941  1.00  0.00    -0.295 OA
ENDBRANCH  11  13
ENDBRANCH   8  10
ENDBRANCH   7   8
ENDBRANCH   4   7
ENDBRANCH   2   3
ENDBRANCH   1   2
BRANCH   1  16
ATOM     16  C   UNL A   1      34.530  32.586  27.823  1.00  0.00     0.118 C 
BRANCH  16  17
ATOM     17  N   UNL A   1      33.860  31.298  27.714  1.00  0.00    -0.352 N 
ATOM     18  C   UNL A   1      34.381  30.027  27.765  1.00  0.00     0.251 C 
ATOM     19  H   UNL A   1      32.886  31.343  27.585  1.00  0.00     0.163 HD
ATOM     20  O   UNL A   1      33.670  29.070  27.484  1.00  0.00    -0.269 OA
BRANCH  18  21
ATOM     21  C   UNL A   1      35.799  29.822  28.131  1.00  0.00     0.039 A 
ATOM     22  C   UNL A   1      36.104  29.392  29.425  1.00  0.00     0.014 A 
ATOM     23  C   UNL A   1      36.823  30.054  27.209  1.00  0.00     0.014 A 
ATOM     24  C   UNL A   1      37.431  29.132  29.772  1.00  0.00     0.010 A 
ATOM     25  C   UNL A   1      38.133  29.713  27.530  1.00  0.00     0.010 A 
ATOM     26  C   UNL A   1      38.453  29.254  28.815  1.00  0.00    -0.014 A 
BRANCH  26  27
ATOM     27  C   UNL A   1      39.859  28.903  29.140  1.00  0.00     0.031 A 
ATOM     28  C   UNL A   1      40.765  29.921  29.779  1.00  0.00     0.074 A 
ATOM     29  C   UNL A   1      40.337  27.688  28.801  1.00  0.00     0.049 A 
ATOM     30  N   UNL A   1      42.034  29.822  30.078  1.00  0.00    -0.248 NA
ATOM     31  C   UNL A   1      40.175  31.231  30.099  1.00  0.00     0.031 C 
ATOM     32  C   UNL A   1      39.569  26.628  28.143  1.00  0.00     0.029 A 
ATOM     33  N   UNL A   1      41.586  27.142  28.959  1.00  0.00    -0.354 N 
ATOM     34  C   UNL A   1      42.397  31.054  30.608  1.00  0.00     0.074 A 
ATOM     35  C   UNL A   1      41.228  31.905  30.538  1.00  0.00     0.031 C 
ATOM     36  C   UNL A   1      40.354  25.550  27.982  1.00  0.00     0.029 A 
ATOM     37  C   UNL A   1      41.691  25.856  28.479  1.00  0.00     0.049 A 
ATOM     38  H   UNL A   1      42.336  27.624  29.376  1.00  0.00     0.167 HD
ATOM     39  C   UNL A   1      43.588  31.439  31.125  1.00  0.00     0.031 A 
ATOM     40  C   UNL A   1      42.747  25.021  28.436  1.00  0.00     0.031 A 
ATOM     41  C   UNL A   1      44.744  30.587  31.201  1.00  0.00     0.049 A 
ATOM     42  C   UNL A   1      44.066  25.479  28.998  1.00  0.00     0.074 A 
ATOM     43  C   UNL A   1      45.982  30.865  31.752  1.00  0.00     0.029 A 
ATOM     44  N   UNL A   1      44.809  29.292  30.707  1.00  0.00    -0.354 N 
ATOM     45  N   UNL A   1      44.371  26.628  29.553  1.00  0.00    -0.248 NA
ATOM     46  C   UNL A   1      45.181  24.523  28.937  1.00  0.00     0.031 C 
ATOM     47  C   UNL A   1      46.813  29.760  31.540  1.00  0.00     0.029 A 
ATOM     48  C   UNL A   1      46.073  28.768  30.918  1.00  0.00     0.049 A 
ATOM     49  H   UNL A   1      44.065  28.815  30.271  1.00  0.00     0.167 HD
ATOM     50  C   UNL A   1      45.703  26.521  29.935  1.00  0.00     0.074 A 
ATOM     51  C   UNL A   1      46.139  25.191  29.564  1.00  0.00     0.031 C 
ATOM     52  C   UNL A   1      46.493  27.441  30.543  1.00  0.00     0.031 A 
BRANCH  39  53
ATOM     53  C   UNL A   1      43.701  32.847  31.648  1.00  0.00    -0.014 A 
ATOM     54  C   UNL A   1      44.136  33.899  30.819  1.00  0.00     0.010 A 
ATOM     55  C   UNL A   1      43.321  33.136  32.971  1.00  0.00     0.010 A 
ATOM     56  C   UNL A   1      44.226  35.202  31.315  1.00  0.00     0.020 A 
ATOM     57  C   UNL A   1      43.379  34.444  33.462  1.00  0.00     0.020 A 
ATOM     58  C   UNL A   1      43.846  35.466  32.634  1.00  0.00     0.054 A 
BRANCH  58  59
ATOM     59  S   UNL A   1      43.945  37.173  33.239  1.00  0.00     0.124 S 
ATOM     60  O   UNL A   1      42.756  37.263  34.083  1.00  0.00    -0.237 OA
ATOM     61  O   UNL A   1      45.221  37.187  33.950  1.00  0.00    -0.237 OA
ATOM     62  O   UNL A   1      43.905  37.977  32.019  1.00  0.00    -0.744 OA
ENDBRANCH  58  59
ENDBRANCH  39  53
BRANCH  40  63
ATOM     63  C   UNL A   1      42.598  23.661  27.847  1.00  0.00    -0.014 A 
ATOM     64  C   UNL A   1      42.159  22.582  28.635  1.00  0.00     0.010 A 
ATOM     65  C   UNL A   1      42.897  23.437  26.489  1.00  0.00     0.010 A 
ATOM     66  C   UNL A   1      42.045  21.302  28.084  1.00  0.00     0.020 A 
ATOM     67  C   UNL A   1      42.752  22.166  25.928  1.00  0.00     0.020 A 
ATOM     68  C   UNL A   1      42.341  21.103  26.733  1.00  0.00     0.054 A 
BRANCH  68  69
ATOM     69  S   UNL A   1      42.146  19.441  26.030  1.00  0.00     0.124 S 
ATOM     70  O   UNL A   1      42.633  18.595  27.116  1.00  0.00    -0.237 OA
ATOM     71  O   UNL A   1      40.710  19.375  25.770  1.00  0.00    -0.237 OA
ATOM     72  O   UNL A   1      42.988  19.474  24.837  1.00  0.00    -0.744 OA
ENDBRANCH  68  69
ENDBRANCH  40  63
BRANCH  52  73
ATOM     73  C   UNL A   1      47.902  27.030  30.882  1.00  0.00    -0.014 A 
ATOM     74  C   UNL A   1      48.203  26.364  32.083  1.00  0.00     0.010 A 
ATOM     75  C   UNL A   1      48.932  27.267  29.953  1.00  0.00     0.010 A 
ATOM     76  C   UNL A   1      49.515  25.971  32.362  1.00  0.00     0.020 A 
ATOM     77  C   UNL A   1      50.238  26.846  30.214  1.00  0.00     0.020 A 
ATOM     78  C   UNL A   1      50.524  26.214  31.426  1.00  0.00     0.054 A 
BRANCH  78  79
ATOM     79  S   UNL A   1      52.209  25.654  31.794  1.00  0.00     0.124 S 
ATOM     80  O   UNL A   1      52.002  24.238  32.085  1.00  0.00    -0.237 OA
ATOM     81  O   UNL A   1      52.920  25.942  30.550  1.00  0.00    -0.237 OA
ATOM     82  O   UNL A   1      52.606  26.474  32.936  1.00  0.00    -0.744 OA
ENDBRANCH  78  79
ENDBRANCH  52  73
ENDBRANCH  26  27
ENDBRANCH  18  21
ENDBRANCH  16  17
ENDBRANCH   1  16
TORSDOF 16
ENDMDL
