MODEL 1
REMARK VINA RESULT:     -12.0      0.000      0.000
REMARK SMILES CCc1[nH]nc(-n2cccc2)c1C(=O)NCCCNC(=O)c1ccc(-c2c3nc(c(-c4ccc(S(=O)(=O)[O-])cc4)c4ccc([nH]4)c(-c4ccc(S(=O)(=O)[O-])cc4)c4nc(c(-c5ccc(S(=O)(=O)[O-])cc5)c5ccc2[nH]5)C=C4)C=C3)cc1
REMARK SMILES IDX 18 1 17 2 16 3 15 4 13 5 14 6 12 8 3 9 4 10 5 11 6 13 2 14
REMARK SMILES IDX 1 15 7 16 8 17 11 18 9 19 10 20 19 21 20 22 21 24 22 25
REMARK SMILES IDX 23 26 81 27 24 28 80 29 25 30 26 31 27 32 74 33 28 34 79 35
REMARK SMILES IDX 73 36 75 37 29 38 78 39 72 40 71 41 30 43 60 44 41 45 59 46
REMARK SMILES IDX 42 47 45 48 58 49 76 50 43 51 44 52 57 54 77 55 46 56 31 57
REMARK SMILES IDX 32 58 40 59 33 60 39 61 34 62 35 63 36 64 37 65 38 66 61 67
REMARK SMILES IDX 62 68 70 69 63 70 69 71 64 72 65 73 66 74 67 75 68 76 47 77
REMARK SMILES IDX 48 78 56 79 49 80 55 81 50 82 51 83 52 84 53 85 54 86
REMARK H PARENT 15 7 4 12 19 23 75 42 45 53
REMARK Flexibility Score: inf
ROOT
ATOM      1  C   UNL A   1      34.394  29.149  26.646  1.00  0.00     0.118 C 
ENDROOT
BRANCH   1   2
ATOM      2  C   UNL A   1      33.100  28.395  26.915  1.00  0.00     0.042 C 
BRANCH   2   3
ATOM      3  C   UNL A   1      31.972  28.676  25.932  1.00  0.00     0.118 C 
BRANCH   3   4
ATOM      4  N   UNL A   1      32.344  28.858  24.552  1.00  0.00    -0.352 N 
ATOM      5  C   UNL A   1      31.599  28.717  23.404  1.00  0.00     0.256 C 
ATOM      6  O   UNL A   1      32.143  29.099  22.367  1.00  0.00    -0.269 OA
ATOM      7  H   UNL A   1      33.281  29.126  24.408  1.00  0.00     0.163 HD
BRANCH   5   8
ATOM      8  C   UNL A   1      30.250  28.140  23.378  1.00  0.00     0.105 A 
ATOM      9  C   UNL A   1      29.750  26.907  23.826  1.00  0.00     0.050 A 
ATOM     10  N   UNL A   1      28.401  26.938  23.582  1.00  0.00    -0.280 N 
ATOM     11  N   UNL A   1      27.933  28.139  23.265  1.00  0.00    -0.156 NA
ATOM     12  H   UNL A   1      27.829  26.139  23.637  1.00  0.00     0.190 HD
ATOM     13  C   UNL A   1      29.043  28.869  23.097  1.00  0.00     0.171 A 
BRANCH   9  14
ATOM     14  C   UNL A   1      30.292  25.699  24.519  1.00  0.00     0.053 C 
ATOM     15  C   UNL A   1      29.876  25.615  25.979  1.00  0.00     0.011 C 
ENDBRANCH   9  14
BRANCH  13  16
ATOM     16  N   UNL A   1      28.849  30.241  22.731  1.00  0.00    -0.307 N 
ATOM     17  C   UNL A   1      28.981  31.366  23.518  1.00  0.00     0.093 A 
ATOM     18  C   UNL A   1      28.499  30.672  21.460  1.00  0.00     0.093 A 
ATOM     19  C   UNL A   1      28.653  32.480  22.773  1.00  0.00     0.020 A 
ATOM     20  C   UNL A   1      28.314  32.036  21.477  1.00  0.00     0.020 A 
ENDBRANCH  13  16
ENDBRANCH   5   8
ENDBRANCH   3   4
ENDBRANCH   2   3
ENDBRANCH   1   2
BRANCH   1  21
ATOM     21  N   UNL A   1      34.484  30.448  27.301  1.00  0.00    -0.352 N 
ATOM     22  C   UNL A   1      35.477  30.873  28.167  1.00  0.00     0.251 C 
ATOM     23  H   UNL A   1      33.764  31.090  27.106  1.00  0.00     0.163 HD
ATOM     24  O   UNL A   1      35.353  31.899  28.811  1.00  0.00    -0.269 OA
BRANCH  22  25
ATOM     25  C   UNL A   1      36.664  30.008  28.336  1.00  0.00     0.039 A 
ATOM     26  C   UNL A   1      37.713  30.107  27.418  1.00  0.00     0.014 A 
ATOM     27  C   UNL A   1      36.766  29.184  29.461  1.00  0.00     0.014 A 
ATOM     28  C   UNL A   1      38.915  29.463  27.693  1.00  0.00     0.010 A 
ATOM     29  C   UNL A   1      37.983  28.598  29.769  1.00  0.00     0.010 A 
ATOM     30  C   UNL A   1      39.065  28.750  28.892  1.00  0.00    -0.014 A 
BRANCH  30  31
ATOM     31  C   UNL A   1      40.393  28.209  29.262  1.00  0.00     0.031 A 
ATOM     32  C   UNL A   1      40.770  26.935  28.478  1.00  0.00     0.074 A 
ATOM     33  C   UNL A   1      41.053  28.888  30.242  1.00  0.00     0.049 A 
ATOM     34  N   UNL A   1      41.411  25.866  28.856  1.00  0.00    -0.248 NA
ATOM     35  C   UNL A   1      40.247  26.792  27.093  1.00  0.00     0.031 C 
ATOM     36  C   UNL A   1      40.547  30.101  30.927  1.00  0.00     0.029 A 
ATOM     37  N   UNL A   1      42.257  28.705  30.873  1.00  0.00    -0.354 N 
ATOM     38  C   UNL A   1      41.441  24.969  27.759  1.00  0.00     0.074 A 
ATOM     39  C   UNL A   1      40.640  25.568  26.729  1.00  0.00     0.031 C 
ATOM     40  C   UNL A   1      41.388  30.490  31.906  1.00  0.00     0.029 A 
ATOM     41  C   UNL A   1      42.491  29.559  31.975  1.00  0.00     0.049 A 
ATOM     42  H   UNL A   1      42.911  28.029  30.579  1.00  0.00     0.167 HD
ATOM     43  C   UNL A   1      42.196  23.830  27.709  1.00  0.00     0.031 A 
ATOM     44  C   UNL A   1      43.435  29.442  32.954  1.00  0.00     0.031 A 
ATOM     45  C   UNL A   1      43.022  23.692  28.863  1.00  0.00     0.049 A 
ATOM     46  C   UNL A   1      44.098  28.153  32.677  1.00  0.00     0.074 A 
ATOM     47  C   UNL A   1      43.018  23.018  30.059  1.00  0.00     0.029 A 
ATOM     48  N   UNL A   1      44.204  24.383  28.799  1.00  0.00    -0.354 N 
ATOM     49  N   UNL A   1      44.946  27.909  31.729  1.00  0.00    -0.248 NA
ATOM     50  C   UNL A   1      43.564  26.988  33.383  1.00  0.00     0.031 C 
ATOM     51  C   UNL A   1      44.105  23.556  30.804  1.00  0.00     0.029 A 
ATOM     52  C   UNL A   1      44.560  24.661  30.092  1.00  0.00     0.049 A 
ATOM     53  H   UNL A   1      44.699  24.630  27.986  1.00  0.00     0.167 HD
ATOM     54  C   UNL A   1      44.857  26.547  31.537  1.00  0.00     0.074 A 
ATOM     55  C   UNL A   1      44.092  26.016  32.652  1.00  0.00     0.031 C 
ATOM     56  C   UNL A   1      45.113  25.964  30.340  1.00  0.00     0.031 A 
BRANCH  43  57
ATOM     57  C   UNL A   1      42.541  22.884  26.566  1.00  0.00    -0.014 A 
ATOM     58  C   UNL A   1      42.157  21.525  26.728  1.00  0.00     0.010 A 
ATOM     59  C   UNL A   1      43.504  23.156  25.582  1.00  0.00     0.010 A 
ATOM     60  C   UNL A   1      42.808  20.478  26.070  1.00  0.00     0.020 A 
ATOM     61  C   UNL A   1      44.134  22.106  24.877  1.00  0.00     0.020 A 
ATOM     62  C   UNL A   1      43.825  20.775  25.172  1.00  0.00     0.054 A 
BRANCH  62  63
ATOM     63  S   UNL A   1      44.773  19.394  24.468  1.00  0.00     0.124 S 
ATOM     64  O   UNL A   1      44.538  19.554  23.036  1.00  0.00    -0.237 OA
ATOM     65  O   UNL A   1      46.137  19.684  24.910  1.00  0.00    -0.237 OA
ATOM     66  O   UNL A   1      44.169  18.215  25.081  1.00  0.00    -0.744 OA
ENDBRANCH  62  63
ENDBRANCH  43  57
BRANCH  44  67
ATOM     67  C   UNL A   1      43.655  30.076  34.300  1.00  0.00    -0.014 A 
ATOM     68  C   UNL A   1      42.754  30.050  35.373  1.00  0.00     0.010 A 
ATOM     69  C   UNL A   1      44.908  30.697  34.555  1.00  0.00     0.010 A 
ATOM     70  C   UNL A   1      43.143  30.468  36.665  1.00  0.00     0.020 A 
ATOM     71  C   UNL A   1      45.314  31.093  35.832  1.00  0.00     0.020 A 
ATOM     72  C   UNL A   1      44.435  30.947  36.892  1.00  0.00     0.054 A 
BRANCH  72  73
ATOM     73  S   UNL A   1      45.023  31.269  38.579  1.00  0.00     0.124 S 
ATOM     74  O   UNL A   1      46.473  31.205  38.422  1.00  0.00    -0.237 OA
ATOM     75  O   UNL A   1      44.477  32.593  38.869  1.00  0.00    -0.237 OA
ATOM     76  O   UNL A   1      44.429  30.182  39.357  1.00  0.00    -0.744 OA
ENDBRANCH  72  73
ENDBRANCH  44  67
BRANCH  56  77
ATOM     77  C   UNL A   1      45.527  26.917  29.233  1.00  0.00    -0.014 A 
ATOM     78  C   UNL A   1      46.872  27.202  28.983  1.00  0.00     0.010 A 
ATOM     79  C   UNL A   1      44.554  27.578  28.445  1.00  0.00     0.010 A 
ATOM     80  C   UNL A   1      47.236  28.096  27.962  1.00  0.00     0.020 A 
ATOM     81  C   UNL A   1      44.906  28.458  27.416  1.00  0.00     0.020 A 
ATOM     82  C   UNL A   1      46.253  28.712  27.178  1.00  0.00     0.054 A 
BRANCH  82  83
ATOM     83  S   UNL A   1      46.757  29.850  25.855  1.00  0.00     0.124 S 
ATOM     84  O   UNL A   1      48.091  30.263  26.280  1.00  0.00    -0.237 OA
ATOM     85  O   UNL A   1      46.711  28.996  24.671  1.00  0.00    -0.237 OA
ATOM     86  O   UNL A   1      45.744  30.906  25.895  1.00  0.00    -0.744 OA
ENDBRANCH  82  83
ENDBRANCH  56  77
ENDBRANCH  30  31
ENDBRANCH  22  25
ENDBRANCH   1  21
TORSDOF 15
ENDMDL
MODEL 2
REMARK VINA RESULT:     -11.9      3.228      9.152
REMARK SMILES CCc1[nH]nc(-n2cccc2)c1C(=O)NCCCNC(=O)c1ccc(-c2c3nc(c(-c4ccc(S(=O)(=O)[O-])cc4)c4ccc([nH]4)c(-c4ccc(S(=O)(=O)[O-])cc4)c4nc(c(-c5ccc(S(=O)(=O)[O-])cc5)c5ccc2[nH]5)C=C4)C=C3)cc1
REMARK SMILES IDX 18 1 17 2 16 3 15 4 13 5 14 6 12 8 3 9 4 10 5 11 6 13 2 14
REMARK SMILES IDX 1 15 7 16 8 17 11 18 9 19 10 20 19 21 20 22 21 24 22 25
REMARK SMILES IDX 23 26 81 27 24 28 80 29 25 30 26 31 27 32 74 33 28 34 79 35
REMARK SMILES IDX 73 36 75 37 29 38 78 39 72 40 71 41 30 43 60 44 41 45 59 46
REMARK SMILES IDX 42 47 45 48 58 49 76 50 43 51 44 52 57 54 77 55 46 56 31 57
REMARK SMILES IDX 32 58 40 59 33 60 39 61 34 62 35 63 36 64 37 65 38 66 61 67
REMARK SMILES IDX 62 68 70 69 63 70 69 71 64 72 65 73 66 74 67 75 68 76 47 77
REMARK SMILES IDX 48 78 56 79 49 80 55 81 50 82 51 83 52 84 53 85 54 86
REMARK H PARENT 15 7 4 12 19 23 75 42 45 53
REMARK Flexibility Score: inf
ROOT
ATOM      1  C   UNL A   1      33.145  29.183  27.404  1.00  0.00     0.118 C 
ENDROOT
BRANCH   1   2
ATOM      2  C   UNL A   1      31.892  28.791  26.636  1.00  0.00     0.042 C 
BRANCH   2   3
ATOM      3  C   UNL A   1      31.519  29.719  25.488  1.00  0.00     0.118 C 
BRANCH   3   4
ATOM      4  N   UNL A   1      32.007  29.360  24.180  1.00  0.00    -0.352 N 
ATOM      5  C   UNL A   1      31.347  28.810  23.105  1.00  0.00     0.256 C 
ATOM      6  O   UNL A   1      31.989  28.762  22.056  1.00  0.00    -0.269 OA
ATOM      7  H   UNL A   1      32.964  29.537  24.032  1.00  0.00     0.163 HD
BRANCH   5   8
ATOM      8  C   UNL A   1      29.976  28.290  23.174  1.00  0.00     0.105 A 
ATOM      9  C   UNL A   1      29.454  27.091  23.685  1.00  0.00     0.050 A 
ATOM     10  N   UNL A   1      28.095  27.173  23.519  1.00  0.00    -0.280 N 
ATOM     11  N   UNL A   1      27.659  28.384  23.196  1.00  0.00    -0.156 NA
ATOM     12  H   UNL A   1      27.496  26.400  23.630  1.00  0.00     0.190 HD
ATOM     13  C   UNL A   1      28.786  29.062  22.943  1.00  0.00     0.171 A 
BRANCH   9  14
ATOM     14  C   UNL A   1      29.986  25.879  24.379  1.00  0.00     0.053 C 
ATOM     15  C   UNL A   1      30.550  24.844  23.419  1.00  0.00     0.011 C 
ENDBRANCH   9  14
BRANCH  13  16
ATOM     16  N   UNL A   1      28.627  30.431  22.552  1.00  0.00    -0.307 N 
ATOM     17  C   UNL A   1      28.340  30.939  21.302  1.00  0.00     0.093 A 
ATOM     18  C   UNL A   1      28.725  31.511  23.417  1.00  0.00     0.093 A 
ATOM     19  C   UNL A   1      28.325  32.318  21.367  1.00  0.00     0.020 A 
ATOM     20  C   UNL A   1      28.604  32.680  22.702  1.00  0.00     0.020 A 
ENDBRANCH  13  16
ENDBRANCH   5   8
ENDBRANCH   3   4
ENDBRANCH   2   3
ENDBRANCH   1   2
BRANCH   1  21
ATOM     21  N   UNL A   1      33.252  30.606  27.702  1.00  0.00    -0.352 N 
ATOM     22  C   UNL A   1      34.329  31.252  28.281  1.00  0.00     0.251 C 
ATOM     23  H   UNL A   1      32.476  31.165  27.465  1.00  0.00     0.163 HD
ATOM     24  O   UNL A   1      34.239  32.405  28.667  1.00  0.00    -0.269 OA
BRANCH  22  25
ATOM     25  C   UNL A   1      35.575  30.481  28.478  1.00  0.00     0.039 A 
ATOM     26  C   UNL A   1      36.512  30.428  27.443  1.00  0.00     0.014 A 
ATOM     27  C   UNL A   1      35.844  29.906  29.724  1.00  0.00     0.014 A 
ATOM     28  C   UNL A   1      37.772  29.895  27.698  1.00  0.00     0.010 A 
ATOM     29  C   UNL A   1      37.118  29.437  29.998  1.00  0.00     0.010 A 
ATOM     30  C   UNL A   1      38.089  29.445  28.988  1.00  0.00    -0.014 A 
BRANCH  30  31
ATOM     31  C   UNL A   1      39.478  29.035  29.300  1.00  0.00     0.031 A 
ATOM     32  C   UNL A   1      40.349  30.193  29.828  1.00  0.00     0.074 A 
ATOM     33  C   UNL A   1      39.778  27.730  29.048  1.00  0.00     0.049 A 
ATOM     34  N   UNL A   1      41.606  30.469  29.625  1.00  0.00    -0.248 NA
ATOM     35  C   UNL A   1      39.678  31.268  30.608  1.00  0.00     0.031 C 
ATOM     36  C   UNL A   1      38.827  26.725  28.513  1.00  0.00     0.029 A 
ATOM     37  N   UNL A   1      40.921  26.981  29.169  1.00  0.00    -0.354 N 
ATOM     38  C   UNL A   1      41.898  31.680  30.300  1.00  0.00     0.074 A 
ATOM     39  C   UNL A   1      40.649  32.161  30.821  1.00  0.00     0.031 C 
ATOM     40  C   UNL A   1      39.443  25.547  28.293  1.00  0.00     0.029 A 
ATOM     41  C   UNL A   1      40.843  25.679  28.625  1.00  0.00     0.049 A 
ATOM     42  H   UNL A   1      41.735  27.326  29.603  1.00  0.00     0.167 HD
ATOM     43  C   UNL A   1      43.157  32.182  30.485  1.00  0.00     0.031 A 
ATOM     44  C   UNL A   1      41.862  24.816  28.340  1.00  0.00     0.031 A 
ATOM     45  C   UNL A   1      44.157  31.295  29.990  1.00  0.00     0.049 A 
ATOM     46  C   UNL A   1      43.088  25.586  28.619  1.00  0.00     0.074 A 
ATOM     47  C   UNL A   1      44.940  31.145  28.873  1.00  0.00     0.029 A 
ATOM     48  N   UNL A   1      44.512  30.298  30.862  1.00  0.00    -0.354 N 
ATOM     49  N   UNL A   1      43.567  25.881  29.786  1.00  0.00    -0.248 NA
ATOM     50  C   UNL A   1      43.682  26.288  27.480  1.00  0.00     0.031 C 
ATOM     51  C   UNL A   1      45.563  29.872  29.010  1.00  0.00     0.029 A 
ATOM     52  C   UNL A   1      44.951  29.252  30.096  1.00  0.00     0.049 A 
ATOM     53  H   UNL A   1      44.461  30.329  31.845  1.00  0.00     0.167 HD
ATOM     54  C   UNL A   1      44.341  26.999  29.562  1.00  0.00     0.074 A 
ATOM     55  C   UNL A   1      44.476  27.134  28.122  1.00  0.00     0.031 C 
ATOM     56  C   UNL A   1      44.556  27.936  30.518  1.00  0.00     0.031 A 
BRANCH  43  57
ATOM     57  C   UNL A   1      43.687  33.310  31.360  1.00  0.00    -0.014 A 
ATOM     58  C   UNL A   1      43.441  33.201  32.756  1.00  0.00     0.010 A 
ATOM     59  C   UNL A   1      44.048  34.577  30.879  1.00  0.00     0.010 A 
ATOM     60  C   UNL A   1      43.391  34.316  33.597  1.00  0.00     0.020 A 
ATOM     61  C   UNL A   1      44.048  35.703  31.733  1.00  0.00     0.020 A 
ATOM     62  C   UNL A   1      43.658  35.572  33.070  1.00  0.00     0.054 A 
BRANCH  62  63
ATOM     63  S   UNL A   1      43.412  37.019  34.140  1.00  0.00     0.124 S 
ATOM     64  O   UNL A   1      43.430  38.120  33.182  1.00  0.00    -0.237 OA
ATOM     65  O   UNL A   1      42.111  36.748  34.751  1.00  0.00    -0.237 OA
ATOM     66  O   UNL A   1      44.544  36.962  35.060  1.00  0.00    -0.744 OA
ENDBRANCH  62  63
ENDBRANCH  43  57
BRANCH  44  67
ATOM     67  C   UNL A   1      41.989  23.547  27.542  1.00  0.00    -0.014 A 
ATOM     68  C   UNL A   1      43.169  23.058  26.965  1.00  0.00     0.010 A 
ATOM     69  C   UNL A   1      40.842  22.718  27.410  1.00  0.00     0.010 A 
ATOM     70  C   UNL A   1      43.238  21.750  26.438  1.00  0.00     0.020 A 
ATOM     71  C   UNL A   1      40.901  21.413  26.912  1.00  0.00     0.020 A 
ATOM     72  C   UNL A   1      42.112  20.922  26.454  1.00  0.00     0.054 A 
BRANCH  72  73
ATOM     73  S   UNL A   1      42.241  19.171  25.996  1.00  0.00     0.124 S 
ATOM     74  O   UNL A   1      42.733  18.562  27.228  1.00  0.00    -0.237 OA
ATOM     75  O   UNL A   1      40.869  18.828  25.627  1.00  0.00    -0.237 OA
ATOM     76  O   UNL A   1      43.187  19.181  24.882  1.00  0.00    -0.744 OA
ENDBRANCH  72  73
ENDBRANCH  44  67
BRANCH  56  77
ATOM     77  C   UNL A   1      43.902  27.653  31.858  1.00  0.00    -0.014 A 
ATOM     78  C   UNL A   1      44.439  26.718  32.748  1.00  0.00     0.010 A 
ATOM     79  C   UNL A   1      42.701  28.304  32.230  1.00  0.00     0.010 A 
ATOM     80  C   UNL A   1      43.814  26.461  33.979  1.00  0.00     0.020 A 
ATOM     81  C   UNL A   1      42.078  28.067  33.460  1.00  0.00     0.020 A 
ATOM     82  C   UNL A   1      42.643  27.141  34.333  1.00  0.00     0.054 A 
BRANCH  82  83
ATOM     83  S   UNL A   1      41.867  26.798  35.939  1.00  0.00     0.124 S 
ATOM     84  O   UNL A   1      40.898  25.757  35.609  1.00  0.00    -0.237 OA
ATOM     85  O   UNL A   1      43.001  26.366  36.751  1.00  0.00    -0.237 OA
ATOM     86  O   UNL A   1      41.281  28.082  36.328  1.00  0.00    -0.744 OA
ENDBRANCH  82  83
ENDBRANCH  56  77
ENDBRANCH  30  31
ENDBRANCH  22  25
ENDBRANCH   1  21
TORSDOF 15
ENDMDL
MODEL 3
REMARK VINA RESULT:     -11.8      0.949      2.420
REMARK SMILES CCc1[nH]nc(-n2cccc2)c1C(=O)NCCCNC(=O)c1ccc(-c2c3nc(c(-c4ccc(S(=O)(=O)[O-])cc4)c4ccc([nH]4)c(-c4ccc(S(=O)(=O)[O-])cc4)c4nc(c(-c5ccc(S(=O)(=O)[O-])cc5)c5ccc2[nH]5)C=C4)C=C3)cc1
REMARK SMILES IDX 18 1 17 2 16 3 15 4 13 5 14 6 12 8 3 9 4 10 5 11 6 13 2 14
REMARK SMILES IDX 1 15 7 16 8 17 11 18 9 19 10 20 19 21 20 22 21 24 22 25
REMARK SMILES IDX 23 26 81 27 24 28 80 29 25 30 26 31 27 32 74 33 28 34 79 35
REMARK SMILES IDX 73 36 75 37 29 38 78 39 72 40 71 41 30 43 60 44 41 45 59 46
REMARK SMILES IDX 42 47 45 48 58 49 76 50 43 51 44 52 57 54 77 55 46 56 31 57
REMARK SMILES IDX 32 58 40 59 33 60 39 61 34 62 35 63 36 64 37 65 38 66 61 67
REMARK SMILES IDX 62 68 70 69 63 70 69 71 64 72 65 73 66 74 67 75 68 76 47 77
REMARK SMILES IDX 48 78 56 79 49 80 55 81 50 82 51 83 52 84 53 85 54 86
REMARK H PARENT 15 7 4 12 19 23 75 42 45 53
REMARK Flexibility Score: inf
ROOT
ATOM      1  C   UNL A   1      34.242  29.042  27.337  1.00  0.00     0.118 C 
ENDROOT
BRANCH   1   2
ATOM      2  C   UNL A   1      32.802  28.672  27.016  1.00  0.00     0.042 C 
BRANCH   2   3
ATOM      3  C   UNL A   1      32.072  29.646  26.101  1.00  0.00     0.118 C 
BRANCH   3   4
ATOM      4  N   UNL A   1      32.385  29.575  24.696  1.00  0.00    -0.352 N 
ATOM      5  C   UNL A   1      31.757  28.894  23.678  1.00  0.00     0.256 C 
ATOM      6  O   UNL A   1      32.156  29.151  22.543  1.00  0.00    -0.269 OA
ATOM      7  H   UNL A   1      33.174  30.096  24.421  1.00  0.00     0.163 HD
BRANCH   5   8
ATOM      8  C   UNL A   1      30.691  27.909  23.898  1.00  0.00     0.105 A 
ATOM      9  C   UNL A   1      29.335  27.901  23.536  1.00  0.00     0.050 A 
ATOM     10  N   UNL A   1      28.839  26.697  23.966  1.00  0.00    -0.280 N 
ATOM     11  N   UNL A   1      29.770  25.826  24.336  1.00  0.00    -0.156 NA
ATOM     12  H   UNL A   1      27.876  26.496  23.999  1.00  0.00     0.190 HD
ATOM     13  C   UNL A   1      30.892  26.556  24.340  1.00  0.00     0.171 A 
BRANCH   9  14
ATOM     14  C   UNL A   1      28.402  28.794  22.783  1.00  0.00     0.053 C 
ATOM     15  C   UNL A   1      26.959  28.671  23.244  1.00  0.00     0.011 C 
ENDBRANCH   9  14
BRANCH  13  16
ATOM     16  N   UNL A   1      32.092  25.870  24.717  1.00  0.00    -0.307 N 
ATOM     17  C   UNL A   1      33.296  25.813  24.046  1.00  0.00     0.093 A 
ATOM     18  C   UNL A   1      32.242  25.135  25.884  1.00  0.00     0.093 A 
ATOM     19  C   UNL A   1      34.165  25.000  24.745  1.00  0.00     0.020 A 
ATOM     20  C   UNL A   1      33.484  24.542  25.893  1.00  0.00     0.020 A 
ENDBRANCH  13  16
ENDBRANCH   5   8
ENDBRANCH   3   4
ENDBRANCH   2   3
ENDBRANCH   1   2
BRANCH   1  21
ATOM     21  N   UNL A   1      34.421  30.402  27.829  1.00  0.00    -0.352 N 
ATOM     22  C   UNL A   1      35.508  30.893  28.531  1.00  0.00     0.251 C 
ATOM     23  H   UNL A   1      33.694  31.039  27.641  1.00  0.00     0.163 HD
ATOM     24  O   UNL A   1      35.471  31.987  29.067  1.00  0.00    -0.269 OA
BRANCH  22  25
ATOM     25  C   UNL A   1      36.694  30.021  28.669  1.00  0.00     0.039 A 
ATOM     26  C   UNL A   1      37.713  30.105  27.717  1.00  0.00     0.014 A 
ATOM     27  C   UNL A   1      36.827  29.205  29.797  1.00  0.00     0.014 A 
ATOM     28  C   UNL A   1      38.919  29.454  27.958  1.00  0.00     0.010 A 
ATOM     29  C   UNL A   1      38.049  28.613  30.070  1.00  0.00     0.010 A 
ATOM     30  C   UNL A   1      39.102  28.749  29.158  1.00  0.00    -0.014 A 
BRANCH  30  31
ATOM     31  C   UNL A   1      40.438  28.201  29.489  1.00  0.00     0.031 A 
ATOM     32  C   UNL A   1      40.790  26.931  28.688  1.00  0.00     0.074 A 
ATOM     33  C   UNL A   1      41.127  28.872  30.455  1.00  0.00     0.049 A 
ATOM     34  N   UNL A   1      41.436  25.858  29.043  1.00  0.00    -0.248 NA
ATOM     35  C   UNL A   1      40.229  26.798  27.316  1.00  0.00     0.031 C 
ATOM     36  C   UNL A   1      40.644  30.084  31.160  1.00  0.00     0.029 A 
ATOM     37  N   UNL A   1      42.347  28.681  31.052  1.00  0.00    -0.354 N 
ATOM     38  C   UNL A   1      41.434  24.967  27.940  1.00  0.00     0.074 A 
ATOM     39  C   UNL A   1      40.607  25.574  26.935  1.00  0.00     0.031 C 
ATOM     40  C   UNL A   1      41.512  30.464  32.118  1.00  0.00     0.029 A 
ATOM     41  C   UNL A   1      42.613  29.528  32.152  1.00  0.00     0.049 A 
ATOM     42  H   UNL A   1      42.989  28.005  30.737  1.00  0.00     0.167 HD
ATOM     43  C   UNL A   1      42.183  23.825  27.863  1.00  0.00     0.031 A 
ATOM     44  C   UNL A   1      43.583  29.402  33.105  1.00  0.00     0.031 A 
ATOM     45  C   UNL A   1      43.039  23.677  28.994  1.00  0.00     0.049 A 
ATOM     46  C   UNL A   1      44.233  28.113  32.803  1.00  0.00     0.074 A 
ATOM     47  C   UNL A   1      43.064  22.997  30.186  1.00  0.00     0.029 A 
ATOM     48  N   UNL A   1      44.221  24.365  28.903  1.00  0.00    -0.354 N 
ATOM     49  N   UNL A   1      45.054  27.872  31.831  1.00  0.00    -0.248 NA
ATOM     50  C   UNL A   1      43.714  26.946  33.517  1.00  0.00     0.031 C 
ATOM     51  C   UNL A   1      44.172  23.526  30.905  1.00  0.00     0.029 A 
ATOM     52  C   UNL A   1      44.612  24.634  30.187  1.00  0.00     0.049 A 
ATOM     53  H   UNL A   1      44.695  24.615  28.077  1.00  0.00     0.167 HD
ATOM     54  C   UNL A   1      44.956  26.511  31.634  1.00  0.00     0.074 A 
ATOM     55  C   UNL A   1      44.219  25.976  32.766  1.00  0.00     0.031 C 
ATOM     56  C   UNL A   1      45.177  25.934  30.427  1.00  0.00     0.031 A 
BRANCH  43  57
ATOM     57  C   UNL A   1      42.494  22.885  26.707  1.00  0.00    -0.014 A 
ATOM     58  C   UNL A   1      42.153  21.517  26.890  1.00  0.00     0.010 A 
ATOM     59  C   UNL A   1      43.398  23.177  25.674  1.00  0.00     0.010 A 
ATOM     60  C   UNL A   1      42.796  20.485  26.202  1.00  0.00     0.020 A 
ATOM     61  C   UNL A   1      44.018  22.142  24.940  1.00  0.00     0.020 A 
ATOM     62  C   UNL A   1      43.758  20.804  25.253  1.00  0.00     0.054 A 
BRANCH  62  63
ATOM     63  S   UNL A   1      44.705  19.446  24.504  1.00  0.00     0.124 S 
ATOM     64  O   UNL A   1      44.514  19.684  23.077  1.00  0.00    -0.237 OA
ATOM     65  O   UNL A   1      46.059  19.688  25.000  1.00  0.00    -0.237 OA
ATOM     66  O   UNL A   1      44.065  18.247  25.037  1.00  0.00    -0.744 OA
ENDBRANCH  62  63
ENDBRANCH  43  57
BRANCH  44  67
ATOM     67  C   UNL A   1      43.841  30.028  34.448  1.00  0.00    -0.014 A 
ATOM     68  C   UNL A   1      42.935  30.073  35.517  1.00  0.00     0.010 A 
ATOM     69  C   UNL A   1      45.134  30.560  34.706  1.00  0.00     0.010 A 
ATOM     70  C   UNL A   1      43.346  30.471  36.808  1.00  0.00     0.020 A 
ATOM     71  C   UNL A   1      45.561  30.933  35.983  1.00  0.00     0.020 A 
ATOM     72  C   UNL A   1      44.669  30.858  37.039  1.00  0.00     0.054 A 
BRANCH  72  73
ATOM     73  S   UNL A   1      45.270  31.148  38.727  1.00  0.00     0.124 S 
ATOM     74  O   UNL A   1      44.101  30.817  39.536  1.00  0.00    -0.237 OA
ATOM     75  O   UNL A   1      46.396  30.222  38.836  1.00  0.00    -0.237 OA
ATOM     76  O   UNL A   1      45.644  32.561  38.715  1.00  0.00    -0.744 OA
ENDBRANCH  72  73
ENDBRANCH  44  67
BRANCH  56  77
ATOM     77  C   UNL A   1      45.565  26.892  29.315  1.00  0.00    -0.014 A 
ATOM     78  C   UNL A   1      44.605  27.652  28.641  1.00  0.00     0.010 A 
ATOM     79  C   UNL A   1      46.914  27.014  28.902  1.00  0.00     0.010 A 
ATOM     80  C   UNL A   1      44.981  28.525  27.607  1.00  0.00     0.020 A 
ATOM     81  C   UNL A   1      47.301  27.892  27.884  1.00  0.00     0.020 A 
ATOM     82  C   UNL A   1      46.326  28.647  27.240  1.00  0.00     0.054 A 
BRANCH  82  83
ATOM     83  S   UNL A   1      46.782  29.798  25.910  1.00  0.00     0.124 S 
ATOM     84  O   UNL A   1      45.739  30.815  25.996  1.00  0.00    -0.237 OA
ATOM     85  O   UNL A   1      48.117  30.232  26.313  1.00  0.00    -0.237 OA
ATOM     86  O   UNL A   1      46.739  28.973  24.702  1.00  0.00    -0.744 OA
ENDBRANCH  82  83
ENDBRANCH  56  77
ENDBRANCH  30  31
ENDBRANCH  22  25
ENDBRANCH   1  21
TORSDOF 15
ENDMDL
