MODEL 1
REMARK VINA RESULT:     -11.6      0.000      0.000
REMARK SMILES COc1cccc(CC2(CO)CCN(c3nc(C)ccc3C(=O)NCCCNC(=O)c3ccc(-c4c5nc(c(-c6ccc(S(=O)(=O)[O-])cc6)c6ccc([nH]6)c(-c6ccc(S(=O)(=O)[O-])cc6)c6nc(c(-c7ccc(S(=O)(=O)[O-])cc7)c7ccc4[nH]7)C=C6)C=C5)cc3)CC2)c1
REMARK SMILES IDX 25 1 24 2 22 3 23 4 21 6 15 7 16 8 17 9 20 10 18 11 19 12
REMARK SMILES IDX 14 13 9 14 12 15 92 16 13 17 91 18 8 19 7 20 3 21 4 22 93 23
REMARK SMILES IDX 5 24 6 25 2 26 1 27 10 28 11 29 26 31 27 32 28 33 29 34
REMARK SMILES IDX 30 36 31 37 32 38 90 39 33 40 89 41 34 42 35 43 36 44 83 45
REMARK SMILES IDX 37 46 88 47 82 48 84 49 38 50 87 51 81 52 80 53 39 55 69 56
REMARK SMILES IDX 50 57 68 58 51 59 54 60 67 61 85 62 52 63 53 64 66 66 86 67
REMARK SMILES IDX 55 68 40 69 41 70 49 71 42 72 48 73 43 74 44 75 45 76 46 77
REMARK SMILES IDX 47 78 70 79 71 80 79 81 72 82 78 83 73 84 74 85 75 86 76 87
REMARK SMILES IDX 77 88 56 89 57 90 65 91 58 92 64 93 59 94 60 95 61 96 62 97
REMARK SMILES IDX 63 98
REMARK H PARENT 24 5 11 30 28 35 84 54 54 65
REMARK Flexibility Score: inf
ROOT
ATOM      1  C   UNL A   1      34.033  26.987  24.561  1.00  0.00     0.118 C 
ENDROOT
BRANCH   1   2
ATOM      2  N   UNL A   1      33.751  26.785  23.155  1.00  0.00    -0.352 N 
ATOM      3  C   UNL A   1      32.666  26.900  22.321  1.00  0.00     0.255 C 
ATOM      4  O   UNL A   1      32.958  26.522  21.187  1.00  0.00    -0.269 OA
ATOM      5  H   UNL A   1      34.551  26.486  22.666  1.00  0.00     0.163 HD
BRANCH   3   6
ATOM      6  C   UNL A   1      31.309  27.449  22.713  1.00  0.00     0.082 A 
ATOM      7  C   UNL A   1      30.353  26.792  23.528  1.00  0.00     0.141 A 
ATOM      8  N   UNL A   1      29.076  27.277  23.575  1.00  0.00    -0.235 NA
ATOM      9  C   UNL A   1      28.701  28.399  22.947  1.00  0.00     0.040 A 
ATOM     10  C   UNL A   1      30.918  28.696  22.186  1.00  0.00     0.019 A 
ATOM     11  C   UNL A   1      27.260  28.767  23.084  1.00  0.00     0.067 C 
ATOM     12  C   UNL A   1      29.613  29.173  22.282  1.00  0.00     0.024 A 
BRANCH   7  13
ATOM     13  N   UNL A   1      30.502  25.726  24.391  1.00  0.00    -0.356 N 
ATOM     14  C   UNL A   1      31.267  23.685  26.428  1.00  0.00     0.001 C 
ATOM     15  C   UNL A   1      31.374  25.215  26.671  1.00  0.00     0.031 C 
ATOM     16  C   UNL A   1      31.556  23.557  24.914  1.00  0.00     0.031 C 
ATOM     17  C   UNL A   1      30.294  25.954  25.826  1.00  0.00     0.119 C 
ATOM     18  C   UNL A   1      30.685  24.355  23.968  1.00  0.00     0.119 C 
BRANCH  14  19
ATOM     19  C   UNL A   1      32.356  22.780  27.146  1.00  0.00     0.045 C 
BRANCH  19  20
ATOM     20  C   UNL A   1      33.603  22.573  26.263  1.00  0.00    -0.044 A 
ATOM     21  C   UNL A   1      35.153  21.017  25.227  1.00  0.00     0.119 A 
ATOM     22  C   UNL A   1      36.211  21.890  25.448  1.00  0.00     0.046 A 
ATOM     23  C   UNL A   1      33.850  21.357  25.602  1.00  0.00     0.050 A 
ATOM     24  C   UNL A   1      35.951  23.158  25.955  1.00  0.00     0.004 A 
ATOM     25  C   UNL A   1      34.650  23.509  26.330  1.00  0.00     0.004 A 
BRANCH  21  26
ATOM     26  O   UNL A   1      35.443  19.756  24.782  1.00  0.00    -0.497 OA
ATOM     27  C   UNL A   1      34.247  19.000  24.615  1.00  0.00     0.278 C 
ENDBRANCH  21  26
ENDBRANCH  19  20
ENDBRANCH  14  19
BRANCH  14  28
ATOM     28  C   UNL A   1      29.859  23.292  26.976  1.00  0.00     0.163 C 
BRANCH  28  29
ATOM     29  O   UNL A   1      29.455  21.988  26.625  1.00  0.00    -0.396 OA
ATOM     30  H   UNL A   1      30.229  21.406  26.598  1.00  0.00     0.210 HD
ENDBRANCH  28  29
ENDBRANCH  14  28
ENDBRANCH   7  13
ENDBRANCH   3   6
ENDBRANCH   1   2
BRANCH   1  31
ATOM     31  C   UNL A   1      33.562  28.372  25.007  1.00  0.00     0.042 C 
BRANCH  31  32
ATOM     32  C   UNL A   1      34.098  28.783  26.379  1.00  0.00     0.118 C 
BRANCH  32  33
ATOM     33  N   UNL A   1      33.853  30.192  26.659  1.00  0.00    -0.352 N 
ATOM     34  C   UNL A   1      34.412  31.002  27.606  1.00  0.00     0.251 C 
ATOM     35  H   UNL A   1      33.184  30.624  26.080  1.00  0.00     0.163 HD
ATOM     36  O   UNL A   1      33.864  32.080  27.880  1.00  0.00    -0.269 OA
BRANCH  34  37
ATOM     37  C   UNL A   1      35.657  30.614  28.295  1.00  0.00     0.039 A 
ATOM     38  C   UNL A   1      36.873  31.159  27.871  1.00  0.00     0.014 A 
ATOM     39  C   UNL A   1      35.637  29.665  29.321  1.00  0.00     0.014 A 
ATOM     40  C   UNL A   1      38.061  30.776  28.496  1.00  0.00     0.010 A 
ATOM     41  C   UNL A   1      36.810  29.346  29.998  1.00  0.00     0.010 A 
ATOM     42  C   UNL A   1      38.037  29.879  29.576  1.00  0.00    -0.014 A 
BRANCH  42  43
ATOM     43  C   UNL A   1      39.289  29.451  30.252  1.00  0.00     0.031 A 
ATOM     44  C   UNL A   1      39.738  30.148  31.509  1.00  0.00     0.074 A 
ATOM     45  C   UNL A   1      40.043  28.476  29.709  1.00  0.00     0.049 A 
ATOM     46  N   UNL A   1      40.823  29.960  32.215  1.00  0.00    -0.248 NA
ATOM     47  C   UNL A   1      38.866  31.217  32.025  1.00  0.00     0.031 C 
ATOM     48  C   UNL A   1      39.729  27.750  28.476  1.00  0.00     0.029 A 
ATOM     49  N   UNL A   1      41.231  27.930  30.123  1.00  0.00    -0.354 N 
ATOM     50  C   UNL A   1      40.774  30.896  33.243  1.00  0.00     0.074 A 
ATOM     51  C   UNL A   1      39.584  31.690  33.034  1.00  0.00     0.031 C 
ATOM     52  C   UNL A   1      40.683  26.831  28.254  1.00  0.00     0.029 A 
ATOM     53  C   UNL A   1      41.694  26.930  29.301  1.00  0.00     0.049 A 
ATOM     54  H   UNL A   1      41.707  28.225  30.933  1.00  0.00     0.167 HD
ATOM     55  C   UNL A   1      41.629  31.067  34.279  1.00  0.00     0.031 A 
ATOM     56  C   UNL A   1      42.809  26.178  29.381  1.00  0.00     0.031 A 
ATOM     57  C   UNL A   1      42.808  30.267  34.486  1.00  0.00     0.049 A 
ATOM     58  C   UNL A   1      43.747  26.388  30.538  1.00  0.00     0.074 A 
ATOM     59  C   UNL A   1      43.718  30.327  35.525  1.00  0.00     0.029 A 
ATOM     60  N   UNL A   1      43.235  29.258  33.636  1.00  0.00    -0.354 N 
ATOM     61  N   UNL A   1      43.659  27.247  31.527  1.00  0.00    -0.248 NA
ATOM     62  C   UNL A   1      44.926  25.513  30.600  1.00  0.00     0.031 C 
ATOM     63  C   UNL A   1      44.724  29.387  35.277  1.00  0.00     0.029 A 
ATOM     64  C   UNL A   1      44.404  28.697  34.118  1.00  0.00     0.049 A 
ATOM     65  H   UNL A   1      42.775  28.982  32.810  1.00  0.00     0.167 HD
ATOM     66  C   UNL A   1      44.752  26.989  32.349  1.00  0.00     0.074 A 
ATOM     67  C   UNL A   1      45.478  25.891  31.745  1.00  0.00     0.031 C 
ATOM     68  C   UNL A   1      45.114  27.602  33.504  1.00  0.00     0.031 A 
BRANCH  55  69
ATOM     69  C   UNL A   1      41.317  32.168  35.261  1.00  0.00    -0.014 A 
ATOM     70  C   UNL A   1      40.551  31.920  36.416  1.00  0.00     0.010 A 
ATOM     71  C   UNL A   1      41.807  33.468  35.036  1.00  0.00     0.010 A 
ATOM     72  C   UNL A   1      40.234  32.959  37.295  1.00  0.00     0.020 A 
ATOM     73  C   UNL A   1      41.520  34.504  35.930  1.00  0.00     0.020 A 
ATOM     74  C   UNL A   1      40.715  34.247  37.043  1.00  0.00     0.054 A 
BRANCH  74  75
ATOM     75  S   UNL A   1      40.290  35.576  38.201  1.00  0.00     0.124 S 
ATOM     76  O   UNL A   1      41.476  35.624  39.052  1.00  0.00    -0.237 OA
ATOM     77  O   UNL A   1      40.105  36.724  37.318  1.00  0.00    -0.237 OA
ATOM     78  O   UNL A   1      39.076  35.093  38.853  1.00  0.00    -0.744 OA
ENDBRANCH  74  75
ENDBRANCH  55  69
BRANCH  56  79
ATOM     79  C   UNL A   1      43.073  25.133  28.356  1.00  0.00    -0.014 A 
ATOM     80  C   UNL A   1      43.813  25.440  27.200  1.00  0.00     0.010 A 
ATOM     81  C   UNL A   1      42.609  23.817  28.539  1.00  0.00     0.010 A 
ATOM     82  C   UNL A   1      44.070  24.457  26.240  1.00  0.00     0.020 A 
ATOM     83  C   UNL A   1      42.888  22.825  27.595  1.00  0.00     0.020 A 
ATOM     84  C   UNL A   1      43.608  23.154  26.445  1.00  0.00     0.054 A 
BRANCH  84  85
ATOM     85  S   UNL A   1      44.004  21.883  25.212  1.00  0.00     0.124 S 
ATOM     86  O   UNL A   1      42.979  20.876  25.475  1.00  0.00    -0.237 OA
ATOM     87  O   UNL A   1      43.868  22.612  23.953  1.00  0.00    -0.237 OA
ATOM     88  O   UNL A   1      45.369  21.491  25.553  1.00  0.00    -0.744 OA
ENDBRANCH  84  85
ENDBRANCH  56  79
BRANCH  68  89
ATOM     89  C   UNL A   1      46.324  27.063  34.221  1.00  0.00    -0.014 A 
ATOM     90  C   UNL A   1      47.614  27.560  33.966  1.00  0.00     0.010 A 
ATOM     91  C   UNL A   1      46.154  26.066  35.200  1.00  0.00     0.010 A 
ATOM     92  C   UNL A   1      48.717  27.041  34.649  1.00  0.00     0.020 A 
ATOM     93  C   UNL A   1      47.250  25.567  35.907  1.00  0.00     0.020 A 
ATOM     94  C   UNL A   1      48.528  26.046  35.614  1.00  0.00     0.054 A 
BRANCH  94  95
ATOM     95  S   UNL A   1      49.972  25.409  36.508  1.00  0.00     0.124 S 
ATOM     96  O   UNL A   1      50.479  26.613  37.160  1.00  0.00    -0.237 OA
ATOM     97  O   UNL A   1      49.384  24.412  37.398  1.00  0.00    -0.237 OA
ATOM     98  O   UNL A   1      50.824  24.868  35.451  1.00  0.00    -0.744 OA
ENDBRANCH  94  95
ENDBRANCH  68  89
ENDBRANCH  42  43
ENDBRANCH  34  37
ENDBRANCH  32  33
ENDBRANCH  31  32
ENDBRANCH   1  31
TORSDOF 19
ENDMDL
MODEL 2
REMARK VINA RESULT:     -11.4      2.468      3.184
REMARK SMILES COc1cccc(CC2(CO)CCN(c3nc(C)ccc3C(=O)NCCCNC(=O)c3ccc(-c4c5nc(c(-c6ccc(S(=O)(=O)[O-])cc6)c6ccc([nH]6)c(-c6ccc(S(=O)(=O)[O-])cc6)c6nc(c(-c7ccc(S(=O)(=O)[O-])cc7)c7ccc4[nH]7)C=C6)C=C5)cc3)CC2)c1
REMARK SMILES IDX 25 1 24 2 22 3 23 4 21 6 15 7 16 8 17 9 20 10 18 11 19 12
REMARK SMILES IDX 14 13 9 14 12 15 92 16 13 17 91 18 8 19 7 20 3 21 4 22 93 23
REMARK SMILES IDX 5 24 6 25 2 26 1 27 10 28 11 29 26 31 27 32 28 33 29 34
REMARK SMILES IDX 30 36 31 37 32 38 90 39 33 40 89 41 34 42 35 43 36 44 83 45
REMARK SMILES IDX 37 46 88 47 82 48 84 49 38 50 87 51 81 52 80 53 39 55 69 56
REMARK SMILES IDX 50 57 68 58 51 59 54 60 67 61 85 62 52 63 53 64 66 66 86 67
REMARK SMILES IDX 55 68 40 69 41 70 49 71 42 72 48 73 43 74 44 75 45 76 46 77
REMARK SMILES IDX 47 78 70 79 71 80 79 81 72 82 78 83 73 84 74 85 75 86 76 87
REMARK SMILES IDX 77 88 56 89 57 90 65 91 58 92 64 93 59 94 60 95 61 96 62 97
REMARK SMILES IDX 63 98
REMARK H PARENT 24 5 11 30 28 35 84 54 54 65
REMARK Flexibility Score: inf
ROOT
ATOM      1  C   UNL A   1      34.086  26.744  24.872  1.00  0.00     0.118 C 
ENDROOT
BRANCH   1   2
ATOM      2  N   UNL A   1      33.941  26.759  23.431  1.00  0.00    -0.352 N 
ATOM      3  C   UNL A   1      32.937  26.991  22.524  1.00  0.00     0.255 C 
ATOM      4  O   UNL A   1      33.342  26.795  21.379  1.00  0.00    -0.269 OA
ATOM      5  H   UNL A   1      34.790  26.544  22.981  1.00  0.00     0.163 HD
BRANCH   3   6
ATOM      6  C   UNL A   1      31.537  27.462  22.864  1.00  0.00     0.082 A 
ATOM      7  C   UNL A   1      30.570  26.728  23.595  1.00  0.00     0.141 A 
ATOM      8  N   UNL A   1      29.271  27.156  23.592  1.00  0.00    -0.235 NA
ATOM      9  C   UNL A   1      28.880  28.288  22.993  1.00  0.00     0.040 A 
ATOM     10  C   UNL A   1      31.118  28.714  22.371  1.00  0.00     0.019 A 
ATOM     11  C   UNL A   1      27.418  28.587  23.066  1.00  0.00     0.067 C 
ATOM     12  C   UNL A   1      29.789  29.130  22.415  1.00  0.00     0.024 A 
BRANCH   7  13
ATOM     13  N   UNL A   1      30.721  25.631  24.418  1.00  0.00    -0.356 N 
ATOM     14  C   UNL A   1      31.351  23.590  26.501  1.00  0.00     0.001 C 
ATOM     15  C   UNL A   1      31.026  25.073  26.829  1.00  0.00     0.031 C 
ATOM     16  C   UNL A   1      32.067  23.691  25.133  1.00  0.00     0.031 C 
ATOM     17  C   UNL A   1      30.078  25.653  25.737  1.00  0.00     0.119 C 
ATOM     18  C   UNL A   1      31.328  24.384  24.008  1.00  0.00     0.119 C 
BRANCH  14  19
ATOM     19  C   UNL A   1      32.380  22.864  27.466  1.00  0.00     0.045 C 
BRANCH  19  20
ATOM     20  C   UNL A   1      33.259  21.848  26.709  1.00  0.00    -0.044 A 
ATOM     21  C   UNL A   1      35.421  21.326  25.732  1.00  0.00     0.119 A 
ATOM     22  C   UNL A   1      34.808  20.644  24.688  1.00  0.00     0.046 A 
ATOM     23  C   UNL A   1      34.664  21.903  26.756  1.00  0.00     0.050 A 
ATOM     24  C   UNL A   1      33.432  20.448  24.720  1.00  0.00     0.004 A 
ATOM     25  C   UNL A   1      32.666  21.019  25.741  1.00  0.00     0.004 A 
BRANCH  21  26
ATOM     26  O   UNL A   1      36.766  21.555  25.647  1.00  0.00    -0.497 OA
ATOM     27  C   UNL A   1      37.162  21.700  24.286  1.00  0.00     0.278 C 
ENDBRANCH  21  26
ENDBRANCH  19  20
ENDBRANCH  14  19
BRANCH  14  28
ATOM     28  C   UNL A   1      29.979  22.851  26.595  1.00  0.00     0.163 C 
BRANCH  28  29
ATOM     29  O   UNL A   1      29.514  22.679  27.915  1.00  0.00    -0.396 OA
ATOM     30  H   UNL A   1      29.104  23.502  28.222  1.00  0.00     0.210 HD
ENDBRANCH  28  29
ENDBRANCH  14  28
ENDBRANCH   7  13
ENDBRANCH   3   6
ENDBRANCH   1   2
BRANCH   1  31
ATOM     31  C   UNL A   1      33.473  28.005  25.483  1.00  0.00     0.042 C 
BRANCH  31  32
ATOM     32  C   UNL A   1      33.935  28.271  26.916  1.00  0.00     0.118 C 
BRANCH  32  33
ATOM     33  N   UNL A   1      33.799  29.676  27.280  1.00  0.00    -0.352 N 
ATOM     34  C   UNL A   1      34.616  30.462  28.041  1.00  0.00     0.251 C 
ATOM     35  H   UNL A   1      32.999  30.125  26.923  1.00  0.00     0.163 HD
ATOM     36  O   UNL A   1      34.184  31.539  28.479  1.00  0.00    -0.269 OA
BRANCH  34  37
ATOM     37  C   UNL A   1      36.001  30.050  28.339  1.00  0.00     0.039 A 
ATOM     38  C   UNL A   1      36.316  29.586  29.620  1.00  0.00     0.014 A 
ATOM     39  C   UNL A   1      37.006  30.179  27.376  1.00  0.00     0.014 A 
ATOM     40  C   UNL A   1      37.630  29.222  29.923  1.00  0.00     0.010 A 
ATOM     41  C   UNL A   1      38.297  29.739  27.653  1.00  0.00     0.010 A 
ATOM     42  C   UNL A   1      38.627  29.280  28.936  1.00  0.00    -0.014 A 
BRANCH  42  43
ATOM     43  C   UNL A   1      40.032  28.905  29.237  1.00  0.00     0.031 A 
ATOM     44  C   UNL A   1      40.947  29.898  29.904  1.00  0.00     0.074 A 
ATOM     45  C   UNL A   1      40.497  27.696  28.864  1.00  0.00     0.049 A 
ATOM     46  N   UNL A   1      42.216  29.782  30.201  1.00  0.00    -0.248 NA
ATOM     47  C   UNL A   1      40.366  31.203  30.261  1.00  0.00     0.031 C 
ATOM     48  C   UNL A   1      39.716  26.663  28.180  1.00  0.00     0.029 A 
ATOM     49  N   UNL A   1      41.740  27.135  29.005  1.00  0.00    -0.354 N 
ATOM     50  C   UNL A   1      42.588  31.001  30.758  1.00  0.00     0.074 A 
ATOM     51  C   UNL A   1      41.427  31.861  30.703  1.00  0.00     0.031 C 
ATOM     52  C   UNL A   1      40.489  25.581  27.993  1.00  0.00     0.029 A 
ATOM     53  C   UNL A   1      41.828  25.858  28.503  1.00  0.00     0.049 A 
ATOM     54  H   UNL A   1      42.498  27.601  29.426  1.00  0.00     0.167 HD
ATOM     55  C   UNL A   1      43.780  31.365  31.288  1.00  0.00     0.031 A 
ATOM     56  C   UNL A   1      42.870  25.005  28.459  1.00  0.00     0.031 A 
ATOM     57  C   UNL A   1      44.929  30.500  31.347  1.00  0.00     0.049 A 
ATOM     58  C   UNL A   1      44.187  25.433  29.048  1.00  0.00     0.074 A 
ATOM     59  C   UNL A   1      46.171  30.754  31.900  1.00  0.00     0.029 A 
ATOM     60  N   UNL A   1      44.972  29.211  30.837  1.00  0.00    -0.354 N 
ATOM     61  N   UNL A   1      44.506  26.574  29.613  1.00  0.00    -0.248 NA
ATOM     62  C   UNL A   1      45.278  24.451  29.010  1.00  0.00     0.031 C 
ATOM     63  C   UNL A   1      46.982  29.636  31.680  1.00  0.00     0.029 A 
ATOM     64  C   UNL A   1      46.225  28.661  31.049  1.00  0.00     0.049 A 
ATOM     65  H   UNL A   1      44.224  28.755  30.389  1.00  0.00     0.167 HD
ATOM     66  C   UNL A   1      45.825  26.431  30.033  1.00  0.00     0.074 A 
ATOM     67  C   UNL A   1      46.237  25.093  29.662  1.00  0.00     0.031 C 
ATOM     68  C   UNL A   1      46.618  27.325  30.675  1.00  0.00     0.031 A 
BRANCH  55  69
ATOM     69  C   UNL A   1      43.895  32.765  31.837  1.00  0.00    -0.014 A 
ATOM     70  C   UNL A   1      44.324  33.834  31.026  1.00  0.00     0.010 A 
ATOM     71  C   UNL A   1      43.558  33.022  33.179  1.00  0.00     0.010 A 
ATOM     72  C   UNL A   1      44.466  35.117  31.560  1.00  0.00     0.020 A 
ATOM     73  C   UNL A   1      43.668  34.311  33.709  1.00  0.00     0.020 A 
ATOM     74  C   UNL A   1      44.143  35.347  32.901  1.00  0.00     0.054 A 
BRANCH  74  75
ATOM     75  S   UNL A   1      44.336  37.022  33.566  1.00  0.00     0.124 S 
ATOM     76  O   UNL A   1      43.825  36.867  34.926  1.00  0.00    -0.237 OA
ATOM     77  O   UNL A   1      45.775  37.247  33.458  1.00  0.00    -0.237 OA
ATOM     78  O   UNL A   1      43.513  37.843  32.682  1.00  0.00    -0.744 OA
ENDBRANCH  74  75
ENDBRANCH  55  69
BRANCH  56  79
ATOM     79  C   UNL A   1      42.695  23.651  27.868  1.00  0.00    -0.014 A 
ATOM     80  C   UNL A   1      42.233  22.584  28.658  1.00  0.00     0.010 A 
ATOM     81  C   UNL A   1      42.968  23.424  26.507  1.00  0.00     0.010 A 
ATOM     82  C   UNL A   1      42.060  21.313  28.103  1.00  0.00     0.020 A 
ATOM     83  C   UNL A   1      42.769  22.160  25.941  1.00  0.00     0.020 A 
ATOM     84  C   UNL A   1      42.326  21.110  26.746  1.00  0.00     0.054 A 
BRANCH  84  85
ATOM     85  S   UNL A   1      42.038  19.465  26.036  1.00  0.00     0.124 S 
ATOM     86  O   UNL A   1      42.524  18.587  27.097  1.00  0.00    -0.237 OA
ATOM     87  O   UNL A   1      40.593  19.462  25.823  1.00  0.00    -0.237 OA
ATOM     88  O   UNL A   1      42.841  19.475  24.815  1.00  0.00    -0.744 OA
ENDBRANCH  84  85
ENDBRANCH  56  79
BRANCH  68  89
ATOM     89  C   UNL A   1      47.999  26.867  31.066  1.00  0.00    -0.014 A 
ATOM     90  C   UNL A   1      48.241  26.219  32.289  1.00  0.00     0.010 A 
ATOM     91  C   UNL A   1      49.064  27.056  30.166  1.00  0.00     0.010 A 
ATOM     92  C   UNL A   1      49.533  25.804  32.623  1.00  0.00     0.020 A 
ATOM     93  C   UNL A   1      50.351  26.614  30.483  1.00  0.00     0.020 A 
ATOM     94  C   UNL A   1      50.580  26.006  31.719  1.00  0.00     0.054 A 
BRANCH  94  95
ATOM     95  S   UNL A   1      52.242  25.432  32.162  1.00  0.00     0.124 S 
ATOM     96  O   UNL A   1      52.035  23.995  32.317  1.00  0.00    -0.237 OA
ATOM     97  O   UNL A   1      53.039  25.831  31.005  1.00  0.00    -0.237 OA
ATOM     98  O   UNL A   1      52.541  26.154  33.397  1.00  0.00    -0.744 OA
ENDBRANCH  94  95
ENDBRANCH  68  89
ENDBRANCH  42  43
ENDBRANCH  34  37
ENDBRANCH  32  33
ENDBRANCH  31  32
ENDBRANCH   1  31
TORSDOF 19
ENDMDL
MODEL 3
REMARK VINA RESULT:     -11.1      0.952      7.994
REMARK SMILES COc1cccc(CC2(CO)CCN(c3nc(C)ccc3C(=O)NCCCNC(=O)c3ccc(-c4c5nc(c(-c6ccc(S(=O)(=O)[O-])cc6)c6ccc([nH]6)c(-c6ccc(S(=O)(=O)[O-])cc6)c6nc(c(-c7ccc(S(=O)(=O)[O-])cc7)c7ccc4[nH]7)C=C6)C=C5)cc3)CC2)c1
REMARK SMILES IDX 25 1 24 2 22 3 23 4 21 6 15 7 16 8 17 9 20 10 18 11 19 12
REMARK SMILES IDX 14 13 9 14 12 15 92 16 13 17 91 18 8 19 7 20 3 21 4 22 93 23
REMARK SMILES IDX 5 24 6 25 2 26 1 27 10 28 11 29 26 31 27 32 28 33 29 34
REMARK SMILES IDX 30 36 31 37 32 38 90 39 33 40 89 41 34 42 35 43 36 44 83 45
REMARK SMILES IDX 37 46 88 47 82 48 84 49 38 50 87 51 81 52 80 53 39 55 69 56
REMARK SMILES IDX 50 57 68 58 51 59 54 60 67 61 85 62 52 63 53 64 66 66 86 67
REMARK SMILES IDX 55 68 40 69 41 70 49 71 42 72 48 73 43 74 44 75 45 76 46 77
REMARK SMILES IDX 47 78 70 79 71 80 79 81 72 82 78 83 73 84 74 85 75 86 76 87
REMARK SMILES IDX 77 88 56 89 57 90 65 91 58 92 64 93 59 94 60 95 61 96 62 97
REMARK SMILES IDX 63 98
REMARK H PARENT 24 5 11 30 28 35 84 54 54 65
REMARK Flexibility Score: inf
ROOT
ATOM      1  C   UNL A   1      33.933  26.591  24.662  1.00  0.00     0.118 C 
ENDROOT
BRANCH   1   2
ATOM      2  N   UNL A   1      33.748  26.690  23.229  1.00  0.00    -0.352 N 
ATOM      3  C   UNL A   1      32.722  26.988  22.367  1.00  0.00     0.255 C 
ATOM      4  O   UNL A   1      33.092  26.851  21.201  1.00  0.00    -0.269 OA
ATOM      5  H   UNL A   1      34.580  26.489  22.743  1.00  0.00     0.163 HD
BRANCH   3   6
ATOM      6  C   UNL A   1      31.340  27.460  22.773  1.00  0.00     0.082 A 
ATOM      7  C   UNL A   1      30.382  26.699  23.487  1.00  0.00     0.141 A 
ATOM      8  N   UNL A   1      29.091  27.146  23.546  1.00  0.00    -0.235 NA
ATOM      9  C   UNL A   1      28.702  28.318  23.026  1.00  0.00     0.040 A 
ATOM     10  C   UNL A   1      30.929  28.745  22.365  1.00  0.00     0.019 A 
ATOM     11  C   UNL A   1      27.249  28.634  23.158  1.00  0.00     0.067 C 
ATOM     12  C   UNL A   1      29.610  29.178  22.471  1.00  0.00     0.024 A 
BRANCH   7  13
ATOM     13  N   UNL A   1      30.536  25.554  24.240  1.00  0.00    -0.356 N 
ATOM     14  C   UNL A   1      31.294  23.337  26.087  1.00  0.00     0.001 C 
ATOM     15  C   UNL A   1      31.327  24.836  26.494  1.00  0.00     0.031 C 
ATOM     16  C   UNL A   1      31.655  23.382  24.583  1.00  0.00     0.031 C 
ATOM     17  C   UNL A   1      30.255  25.620  25.679  1.00  0.00     0.119 C 
ATOM     18  C   UNL A   1      30.794  24.243  23.685  1.00  0.00     0.119 C 
BRANCH  14  19
ATOM     19  C   UNL A   1      32.387  22.401  26.758  1.00  0.00     0.045 C 
BRANCH  19  20
ATOM     20  C   UNL A   1      33.082  21.496  25.721  1.00  0.00    -0.044 A 
ATOM     21  C   UNL A   1      33.289  19.288  24.730  1.00  0.00     0.119 A 
ATOM     22  C   UNL A   1      34.662  19.454  24.595  1.00  0.00     0.046 A 
ATOM     23  C   UNL A   1      32.491  20.306  25.261  1.00  0.00     0.050 A 
ATOM     24  C   UNL A   1      35.230  20.686  24.898  1.00  0.00     0.004 A 
ATOM     25  C   UNL A   1      34.440  21.711  25.428  1.00  0.00     0.004 A 
BRANCH  21  26
ATOM     26  O   UNL A   1      32.764  18.050  24.480  1.00  0.00    -0.497 OA
ATOM     27  C   UNL A   1      32.602  17.324  25.696  1.00  0.00     0.278 C 
ENDBRANCH  21  26
ENDBRANCH  19  20
ENDBRANCH  14  19
BRANCH  14  28
ATOM     28  C   UNL A   1      29.881  22.836  26.522  1.00  0.00     0.163 C 
BRANCH  28  29
ATOM     29  O   UNL A   1      29.732  22.690  27.916  1.00  0.00    -0.396 OA
ATOM     30  H   UNL A   1      29.116  21.966  28.101  1.00  0.00     0.210 HD
ENDBRANCH  28  29
ENDBRANCH  14  28
ENDBRANCH   7  13
ENDBRANCH   3   6
ENDBRANCH   1   2
BRANCH   1  31
ATOM     31  C   UNL A   1      33.357  27.824  25.361  1.00  0.00     0.042 C 
BRANCH  31  32
ATOM     32  C   UNL A   1      34.319  28.456  26.367  1.00  0.00     0.118 C 
BRANCH  32  33
ATOM     33  N   UNL A   1      33.942  29.826  26.693  1.00  0.00    -0.352 N 
ATOM     34  C   UNL A   1      34.448  30.666  27.644  1.00  0.00     0.251 C 
ATOM     35  H   UNL A   1      33.214  30.201  26.147  1.00  0.00     0.163 HD
ATOM     36  O   UNL A   1      33.803  31.676  27.964  1.00  0.00    -0.269 OA
BRANCH  34  37
ATOM     37  C   UNL A   1      35.748  30.391  28.283  1.00  0.00     0.039 A 
ATOM     38  C   UNL A   1      35.791  29.592  29.430  1.00  0.00     0.014 A 
ATOM     39  C   UNL A   1      36.921  30.971  27.791  1.00  0.00     0.014 A 
ATOM     40  C   UNL A   1      37.013  29.350  30.061  1.00  0.00     0.010 A 
ATOM     41  C   UNL A   1      38.147  30.663  28.372  1.00  0.00     0.010 A 
ATOM     42  C   UNL A   1      38.204  29.870  29.527  1.00  0.00    -0.014 A 
BRANCH  42  43
ATOM     43  C   UNL A   1      39.513  29.632  30.185  1.00  0.00     0.031 A 
ATOM     44  C   UNL A   1      40.411  28.527  29.691  1.00  0.00     0.074 A 
ATOM     45  C   UNL A   1      39.869  30.371  31.254  1.00  0.00     0.049 A 
ATOM     46  N   UNL A   1      41.564  28.127  30.163  1.00  0.00    -0.248 NA
ATOM     47  C   UNL A   1      39.937  27.754  28.531  1.00  0.00     0.031 C 
ATOM     48  C   UNL A   1      39.070  31.446  31.845  1.00  0.00     0.029 A 
ATOM     49  N   UNL A   1      40.996  30.328  32.034  1.00  0.00    -0.354 N 
ATOM     50  C   UNL A   1      41.941  27.047  29.373  1.00  0.00     0.074 A 
ATOM     51  C   UNL A   1      40.869  26.817  28.431  1.00  0.00     0.031 C 
ATOM     52  C   UNL A   1      39.747  31.982  32.874  1.00  0.00     0.029 A 
ATOM     53  C   UNL A   1      41.006  31.264  33.040  1.00  0.00     0.049 A 
ATOM     54  H   UNL A   1      41.730  29.687  31.887  1.00  0.00     0.167 HD
ATOM     55  C   UNL A   1      43.087  26.324  29.412  1.00  0.00     0.031 A 
ATOM     56  C   UNL A   1      41.926  31.516  33.992  1.00  0.00     0.031 A 
ATOM     57  C   UNL A   1      44.154  26.564  30.347  1.00  0.00     0.049 A 
ATOM     58  C   UNL A   1      43.188  30.698  34.020  1.00  0.00     0.074 A 
ATOM     59  C   UNL A   1      45.374  25.920  30.446  1.00  0.00     0.029 A 
ATOM     60  N   UNL A   1      44.128  27.529  31.343  1.00  0.00    -0.354 N 
ATOM     61  N   UNL A   1      43.549  29.710  33.234  1.00  0.00    -0.248 NA
ATOM     62  C   UNL A   1      44.175  31.041  35.052  1.00  0.00     0.031 C 
ATOM     63  C   UNL A   1      46.066  26.462  31.534  1.00  0.00     0.029 A 
ATOM     64  C   UNL A   1      45.304  27.488  32.071  1.00  0.00     0.049 A 
ATOM     65  H   UNL A   1      43.383  28.150  31.508  1.00  0.00     0.167 HD
ATOM     66  C   UNL A   1      44.823  29.340  33.653  1.00  0.00     0.074 A 
ATOM     67  C   UNL A   1      45.169  30.215  34.755  1.00  0.00     0.031 C 
ATOM     68  C   UNL A   1      45.634  28.369  33.164  1.00  0.00     0.031 A 
BRANCH  55  69
ATOM     69  C   UNL A   1      43.232  25.201  28.415  1.00  0.00    -0.014 A 
ATOM     70  C   UNL A   1      42.910  23.875  28.759  1.00  0.00     0.010 A 
ATOM     71  C   UNL A   1      43.684  25.476  27.111  1.00  0.00     0.010 A 
ATOM     72  C   UNL A   1      43.090  22.839  27.838  1.00  0.00     0.020 A 
ATOM     73  C   UNL A   1      43.834  24.447  26.176  1.00  0.00     0.020 A 
ATOM     74  C   UNL A   1      43.558  23.131  26.553  1.00  0.00     0.054 A 
BRANCH  74  75
ATOM     75  S   UNL A   1      43.780  21.769  25.378  1.00  0.00     0.124 S 
ATOM     76  O   UNL A   1      42.615  20.934  25.662  1.00  0.00    -0.237 OA
ATOM     77  O   UNL A   1      43.763  22.452  24.088  1.00  0.00    -0.237 OA
ATOM     78  O   UNL A   1      45.067  21.191  25.757  1.00  0.00    -0.744 OA
ENDBRANCH  74  75
ENDBRANCH  55  69
BRANCH  56  79
ATOM     79  C   UNL A   1      41.701  32.616  34.968  1.00  0.00    -0.014 A 
ATOM     80  C   UNL A   1      40.999  32.376  36.163  1.00  0.00     0.010 A 
ATOM     81  C   UNL A   1      42.206  33.906  34.721  1.00  0.00     0.010 A 
ATOM     82  C   UNL A   1      40.794  33.406  37.085  1.00  0.00     0.020 A 
ATOM     83  C   UNL A   1      42.027  34.932  35.654  1.00  0.00     0.020 A 
ATOM     84  C   UNL A   1      41.313  34.678  36.826  1.00  0.00     0.054 A 
BRANCH  84  85
ATOM     85  S   UNL A   1      41.083  35.984  38.065  1.00  0.00     0.124 S 
ATOM     86  O   UNL A   1      42.301  36.773  37.903  1.00  0.00    -0.237 OA
ATOM     87  O   UNL A   1      39.848  36.626  37.620  1.00  0.00    -0.237 OA
ATOM     88  O   UNL A   1      40.976  35.247  39.321  1.00  0.00    -0.744 OA
ENDBRANCH  84  85
ENDBRANCH  56  79
BRANCH  68  89
ATOM     89  C   UNL A   1      47.001  28.235  33.782  1.00  0.00    -0.014 A 
ATOM     90  C   UNL A   1      47.239  27.371  34.865  1.00  0.00     0.010 A 
ATOM     91  C   UNL A   1      48.075  28.963  33.236  1.00  0.00     0.010 A 
ATOM     92  C   UNL A   1      48.519  27.267  35.415  1.00  0.00     0.020 A 
ATOM     93  C   UNL A   1      49.362  28.838  33.763  1.00  0.00     0.020 A 
ATOM     94  C   UNL A   1      49.572  28.003  34.863  1.00  0.00     0.054 A 
BRANCH  94  95
ATOM     95  S   UNL A   1      51.230  27.829  35.577  1.00  0.00     0.124 S 
ATOM     96  O   UNL A   1      52.023  27.448  34.412  1.00  0.00    -0.237 OA
ATOM     97  O   UNL A   1      51.493  29.165  36.107  1.00  0.00    -0.237 OA
ATOM     98  O   UNL A   1      51.066  26.786  36.587  1.00  0.00    -0.744 OA
ENDBRANCH  94  95
ENDBRANCH  68  89
ENDBRANCH  42  43
ENDBRANCH  34  37
ENDBRANCH  32  33
ENDBRANCH  31  32
ENDBRANCH   1  31
TORSDOF 19
ENDMDL
