MODEL 1
REMARK VINA RESULT:     -10.7      0.000      0.000
REMARK SMILES CCN(Cc1c(C)nn(CC)c1C)C(=O)Cn1ccc(C(=O)NCCCNC(=O)c2ccc(-c3c4nc(c(-c5ccc(S(=O)(=O)[O-])cc5)c5ccc([nH]5)c(-c5ccc(S(=O)(=O)[O-])cc5)c5nc(c(-c6ccc(S(=O)(=O)[O-])cc6)c6ccc3[nH]6)C=C5)C=C4)cc2)n1
REMARK SMILES IDX 21 1 22 2 23 3 20 5 17 6 18 7 90 8 19 9 16 10 14 11 15 12
REMARK SMILES IDX 3 13 2 14 1 15 4 16 5 17 6 18 12 19 7 20 8 21 9 22 13 23
REMARK SMILES IDX 10 24 11 25 24 26 25 27 26 28 27 29 28 30 29 32 30 33 31 34
REMARK SMILES IDX 89 35 32 36 88 37 33 38 34 39 35 40 82 41 36 42 87 43 81 44
REMARK SMILES IDX 83 45 37 46 86 47 80 48 79 49 38 51 68 52 49 53 67 54 50 55
REMARK SMILES IDX 53 56 66 57 84 58 51 59 52 60 65 62 85 63 54 64 39 65 40 66
REMARK SMILES IDX 48 67 41 68 47 69 42 70 43 71 44 72 45 73 46 74 69 75 70 76
REMARK SMILES IDX 78 77 71 78 77 79 72 80 73 81 74 82 75 83 76 84 55 85 56 86
REMARK SMILES IDX 64 87 57 88 63 89 58 90 59 91 60 92 61 93 62 94
REMARK H PARENT 23 4 27 31 83 50 53 61
REMARK Flexibility Score: inf
ROOT
ATOM      1  C   UNL A   1      33.818  29.183  27.192  1.00  0.00     0.271 C 
ATOM      2  O   UNL A   1      34.800  29.074  27.927  1.00  0.00    -0.267 OA
ATOM      3  N   UNL A   1      32.917  30.190  27.472  1.00  0.00    -0.351 N 
ATOM      4  H   UNL A   1      33.095  30.685  28.304  1.00  0.00     0.163 HD
ENDROOT
BRANCH   1   5
ATOM      5  C   UNL A   1      33.622  28.283  26.041  1.00  0.00     0.150 A 
ATOM      6  N   UNL A   1      33.032  27.549  24.122  1.00  0.00    -0.263 N 
ATOM      7  C   UNL A   1      33.676  26.497  24.702  1.00  0.00     0.110 A 
ATOM      8  N   UNL A   1      32.952  28.619  24.927  1.00  0.00    -0.167 NA
ATOM      9  C   UNL A   1      34.105  26.949  25.929  1.00  0.00     0.056 A 
BRANCH   6  10
ATOM     10  C   UNL A   1      32.479  27.695  22.787  1.00  0.00     0.244 C 
BRANCH  10  11
ATOM     11  C   UNL A   1      31.681  26.518  22.286  1.00  0.00     0.244 C 
ATOM     12  O   UNL A   1      31.972  26.024  21.190  1.00  0.00    -0.273 OA
BRANCH  11  13
ATOM     13  N   UNL A   1      30.648  25.988  23.056  1.00  0.00    -0.337 N 
BRANCH  13  14
ATOM     14  C   UNL A   1      29.801  26.941  23.778  1.00  0.00     0.116 C 
ATOM     15  C   UNL A   1      28.360  26.461  23.923  1.00  0.00     0.027 C 
ENDBRANCH  13  14
BRANCH  13  16
ATOM     16  C   UNL A   1      30.357  24.554  23.210  1.00  0.00     0.159 C 
BRANCH  16  17
ATOM     17  C   UNL A   1      31.321  23.884  24.141  1.00  0.00     0.015 A 
ATOM     18  C   UNL A   1      32.500  23.161  23.777  1.00  0.00     0.065 A 
ATOM     19  C   UNL A   1      31.308  23.829  25.531  1.00  0.00     0.041 A 
ATOM     20  C   UNL A   1      33.072  22.889  22.432  1.00  0.00     0.069 C 
ATOM     21  N   UNL A   1      33.134  22.674  24.846  1.00  0.00    -0.178 NA
ATOM     22  N   UNL A   1      32.383  23.053  25.890  1.00  0.00    -0.270 N 
ATOM     23  C   UNL A   1      30.375  24.415  26.525  1.00  0.00     0.067 C 
BRANCH  22  24
ATOM     24  C   UNL A   1      32.785  22.631  27.220  1.00  0.00     0.141 C 
ATOM     25  C   UNL A   1      33.759  21.465  27.196  1.00  0.00     0.029 C 
ENDBRANCH  22  24
ENDBRANCH  16  17
ENDBRANCH  13  16
ENDBRANCH  11  13
ENDBRANCH  10  11
ENDBRANCH   6  10
ENDBRANCH   1   5
BRANCH   3  26
ATOM     26  C   UNL A   1      31.744  30.635  26.733  1.00  0.00     0.118 C 
BRANCH  26  27
ATOM     27  C   UNL A   1      31.582  32.158  26.698  1.00  0.00     0.042 C 
BRANCH  27  28
ATOM     28  C   UNL A   1      32.828  32.875  27.198  1.00  0.00     0.118 C 
BRANCH  28  29
ATOM     29  N   UNL A   1      32.514  34.092  27.956  1.00  0.00    -0.352 N 
ATOM     30  C   UNL A   1      33.132  34.604  29.084  1.00  0.00     0.251 C 
ATOM     31  H   UNL A   1      31.755  34.619  27.615  1.00  0.00     0.163 HD
ATOM     32  O   UNL A   1      32.573  35.436  29.776  1.00  0.00    -0.269 OA
BRANCH  30  33
ATOM     33  C   UNL A   1      34.476  34.109  29.439  1.00  0.00     0.039 A 
ATOM     34  C   UNL A   1      34.658  33.172  30.460  1.00  0.00     0.014 A 
ATOM     35  C   UNL A   1      35.556  34.556  28.689  1.00  0.00     0.014 A 
ATOM     36  C   UNL A   1      35.924  32.618  30.641  1.00  0.00     0.010 A 
ATOM     37  C   UNL A   1      36.747  33.879  28.743  1.00  0.00     0.010 A 
ATOM     38  C   UNL A   1      36.961  32.950  29.752  1.00  0.00    -0.014 A 
BRANCH  38  39
ATOM     39  C   UNL A   1      38.245  32.259  29.802  1.00  0.00     0.031 A 
ATOM     40  C   UNL A   1      38.229  30.865  29.287  1.00  0.00     0.074 A 
ATOM     41  C   UNL A   1      39.414  32.864  30.107  1.00  0.00     0.049 A 
ATOM     42  N   UNL A   1      38.295  29.782  29.985  1.00  0.00    -0.248 NA
ATOM     43  C   UNL A   1      37.966  30.637  27.857  1.00  0.00     0.031 C 
ATOM     44  C   UNL A   1      39.674  34.287  30.358  1.00  0.00     0.029 A 
ATOM     45  N   UNL A   1      40.664  32.329  30.139  1.00  0.00    -0.354 N 
ATOM     46  C   UNL A   1      38.326  28.736  29.071  1.00  0.00     0.074 A 
ATOM     47  C   UNL A   1      37.927  29.303  27.806  1.00  0.00     0.031 C 
ATOM     48  C   UNL A   1      40.998  34.532  30.260  1.00  0.00     0.029 A 
ATOM     49  C   UNL A   1      41.692  33.264  30.131  1.00  0.00     0.049 A 
ATOM     50  H   UNL A   1      40.827  31.358  30.165  1.00  0.00     0.167 HD
ATOM     51  C   UNL A   1      38.920  27.548  29.377  1.00  0.00     0.031 A 
ATOM     52  C   UNL A   1      43.019  33.014  30.007  1.00  0.00     0.031 A 
ATOM     53  C   UNL A   1      39.220  27.450  30.786  1.00  0.00     0.049 A 
ATOM     54  C   UNL A   1      43.231  31.609  30.430  1.00  0.00     0.074 A 
ATOM     55  C   UNL A   1      38.476  27.532  31.948  1.00  0.00     0.029 A 
ATOM     56  N   UNL A   1      40.528  27.663  31.161  1.00  0.00    -0.354 N 
ATOM     57  N   UNL A   1      43.045  31.202  31.655  1.00  0.00    -0.248 NA
ATOM     58  C   UNL A   1      43.199  30.565  29.419  1.00  0.00     0.031 C 
ATOM     59  C   UNL A   1      39.293  28.277  32.851  1.00  0.00     0.029 A 
ATOM     60  C   UNL A   1      40.514  28.531  32.224  1.00  0.00     0.049 A 
ATOM     61  H   UNL A   1      41.326  27.265  30.744  1.00  0.00     0.167 HD
ATOM     62  C   UNL A   1      42.418  29.971  31.526  1.00  0.00     0.074 A 
ATOM     63  C   UNL A   1      42.643  29.582  30.133  1.00  0.00     0.031 C 
ATOM     64  C   UNL A   1      41.542  29.520  32.473  1.00  0.00     0.031 A 
BRANCH  51  65
ATOM     65  C   UNL A   1      39.602  26.660  28.365  1.00  0.00    -0.014 A 
ATOM     66  C   UNL A   1      39.275  25.288  28.340  1.00  0.00     0.010 A 
ATOM     67  C   UNL A   1      40.743  27.059  27.640  1.00  0.00     0.010 A 
ATOM     68  C   UNL A   1      40.096  24.356  27.693  1.00  0.00     0.020 A 
ATOM     69  C   UNL A   1      41.544  26.144  26.953  1.00  0.00     0.020 A 
ATOM     70  C   UNL A   1      41.236  24.792  27.017  1.00  0.00     0.054 A 
BRANCH  70  71
ATOM     71  S   UNL A   1      42.349  23.571  26.281  1.00  0.00     0.124 S 
ATOM     72  O   UNL A   1      41.437  22.466  26.001  1.00  0.00    -0.237 OA
ATOM     73  O   UNL A   1      42.860  24.283  25.113  1.00  0.00    -0.237 OA
ATOM     74  O   UNL A   1      43.331  23.326  27.334  1.00  0.00    -0.744 OA
ENDBRANCH  70  71
ENDBRANCH  51  65
BRANCH  52  75
ATOM     75  C   UNL A   1      44.032  33.797  29.257  1.00  0.00    -0.014 A 
ATOM     76  C   UNL A   1      45.307  34.028  29.807  1.00  0.00     0.010 A 
ATOM     77  C   UNL A   1      43.856  34.050  27.881  1.00  0.00     0.010 A 
ATOM     78  C   UNL A   1      46.389  34.400  28.991  1.00  0.00     0.020 A 
ATOM     79  C   UNL A   1      44.928  34.431  27.064  1.00  0.00     0.020 A 
ATOM     80  C   UNL A   1      46.197  34.569  27.619  1.00  0.00     0.054 A 
BRANCH  80  81
ATOM     81  S   UNL A   1      47.640  34.812  26.537  1.00  0.00     0.124 S 
ATOM     82  O   UNL A   1      48.006  36.198  26.813  1.00  0.00    -0.237 OA
ATOM     83  O   UNL A   1      48.575  33.801  27.022  1.00  0.00    -0.237 OA
ATOM     84  O   UNL A   1      47.108  34.566  25.197  1.00  0.00    -0.744 OA
ENDBRANCH  80  81
ENDBRANCH  52  75
BRANCH  64  85
ATOM     85  C   UNL A   1      41.484  30.245  33.802  1.00  0.00    -0.014 A 
ATOM     86  C   UNL A   1      42.231  29.876  34.940  1.00  0.00     0.010 A 
ATOM     87  C   UNL A   1      40.715  31.420  33.867  1.00  0.00     0.010 A 
ATOM     88  C   UNL A   1      42.160  30.628  36.124  1.00  0.00     0.020 A 
ATOM     89  C   UNL A   1      40.657  32.186  35.034  1.00  0.00     0.020 A 
ATOM     90  C   UNL A   1      41.363  31.775  36.165  1.00  0.00     0.054 A 
BRANCH  90  91
ATOM     91  S   UNL A   1      41.260  32.738  37.700  1.00  0.00     0.124 S 
ATOM     92  O   UNL A   1      41.827  31.825  38.688  1.00  0.00    -0.237 OA
ATOM     93  O   UNL A   1      42.066  33.919  37.399  1.00  0.00    -0.237 OA
ATOM     94  O   UNL A   1      39.829  32.998  37.852  1.00  0.00    -0.744 OA
ENDBRANCH  90  91
ENDBRANCH  64  85
ENDBRANCH  38  39
ENDBRANCH  30  33
ENDBRANCH  28  29
ENDBRANCH  27  28
ENDBRANCH  26  27
ENDBRANCH   3  26
TORSDOF 20
ENDMDL
MODEL 2
REMARK VINA RESULT:     -10.7      2.736      8.362
REMARK SMILES CCN(Cc1c(C)nn(CC)c1C)C(=O)Cn1ccc(C(=O)NCCCNC(=O)c2ccc(-c3c4nc(c(-c5ccc(S(=O)(=O)[O-])cc5)c5ccc([nH]5)c(-c5ccc(S(=O)(=O)[O-])cc5)c5nc(c(-c6ccc(S(=O)(=O)[O-])cc6)c6ccc3[nH]6)C=C5)C=C4)cc2)n1
REMARK SMILES IDX 21 1 22 2 23 3 20 5 17 6 18 7 90 8 19 9 16 10 14 11 15 12
REMARK SMILES IDX 3 13 2 14 1 15 4 16 5 17 6 18 12 19 7 20 8 21 9 22 13 23
REMARK SMILES IDX 10 24 11 25 24 26 25 27 26 28 27 29 28 30 29 32 30 33 31 34
REMARK SMILES IDX 89 35 32 36 88 37 33 38 34 39 35 40 82 41 36 42 87 43 81 44
REMARK SMILES IDX 83 45 37 46 86 47 80 48 79 49 38 51 68 52 49 53 67 54 50 55
REMARK SMILES IDX 53 56 66 57 84 58 51 59 52 60 65 62 85 63 54 64 39 65 40 66
REMARK SMILES IDX 48 67 41 68 47 69 42 70 43 71 44 72 45 73 46 74 69 75 70 76
REMARK SMILES IDX 78 77 71 78 77 79 72 80 73 81 74 82 75 83 76 84 55 85 56 86
REMARK SMILES IDX 64 87 57 88 63 89 58 90 59 91 60 92 61 93 62 94
REMARK H PARENT 23 4 27 31 83 50 53 61
REMARK Flexibility Score: inf
ROOT
ATOM      1  C   UNL A   1      32.852  22.810  23.154  1.00  0.00     0.271 C 
ATOM      2  O   UNL A   1      32.137  21.887  22.763  1.00  0.00    -0.267 OA
ATOM      3  N   UNL A   1      34.081  22.486  23.691  1.00  0.00    -0.351 N 
ATOM      4  H   UNL A   1      34.243  21.521  23.798  1.00  0.00     0.163 HD
ENDROOT
BRANCH   1   5
ATOM      5  C   UNL A   1      32.419  24.214  23.035  1.00  0.00     0.150 A 
ATOM      6  N   UNL A   1      31.626  26.137  23.528  1.00  0.00    -0.263 N 
ATOM      7  C   UNL A   1      32.014  26.255  22.226  1.00  0.00     0.110 A 
ATOM      8  N   UNL A   1      31.824  24.905  24.021  1.00  0.00    -0.167 NA
ATOM      9  C   UNL A   1      32.567  25.041  21.887  1.00  0.00     0.056 A 
BRANCH   6  10
ATOM     10  C   UNL A   1      31.094  27.129  24.446  1.00  0.00     0.244 C 
BRANCH  10  11
ATOM     11  C   UNL A   1      31.861  27.297  25.731  1.00  0.00     0.244 C 
ATOM     12  O   UNL A   1      31.537  26.618  26.712  1.00  0.00    -0.273 OA
BRANCH  11  13
ATOM     13  N   UNL A   1      32.929  28.189  25.803  1.00  0.00    -0.337 N 
BRANCH  13  14
ATOM     14  C   UNL A   1      33.163  29.042  24.635  1.00  0.00     0.116 C 
ATOM     15  C   UNL A   1      34.255  28.504  23.717  1.00  0.00     0.027 C 
ENDBRANCH  13  14
BRANCH  13  16
ATOM     16  C   UNL A   1      33.843  28.326  26.949  1.00  0.00     0.159 C 
BRANCH  16  17
ATOM     17  C   UNL A   1      34.155  29.761  27.248  1.00  0.00     0.015 A 
ATOM     18  C   UNL A   1      35.444  30.318  27.515  1.00  0.00     0.065 A 
ATOM     19  C   UNL A   1      33.296  30.854  27.310  1.00  0.00     0.041 A 
ATOM     20  C   UNL A   1      36.775  29.656  27.565  1.00  0.00     0.069 C 
ATOM     21  N   UNL A   1      35.378  31.630  27.757  1.00  0.00    -0.178 NA
ATOM     22  N   UNL A   1      34.074  31.927  27.666  1.00  0.00    -0.270 N 
ATOM     23  C   UNL A   1      31.832  30.963  27.088  1.00  0.00     0.067 C 
BRANCH  22  24
ATOM     24  C   UNL A   1      33.658  33.294  27.929  1.00  0.00     0.141 C 
ATOM     25  C   UNL A   1      34.764  34.136  28.542  1.00  0.00     0.029 C 
ENDBRANCH  22  24
ENDBRANCH  16  17
ENDBRANCH  13  16
ENDBRANCH  11  13
ENDBRANCH  10  11
ENDBRANCH   6  10
ENDBRANCH   1   5
BRANCH   3  26
ATOM     26  C   UNL A   1      35.174  23.343  24.125  1.00  0.00     0.118 C 
BRANCH  26  27
ATOM     27  C   UNL A   1      35.957  22.785  25.319  1.00  0.00     0.042 C 
BRANCH  27  28
ATOM     28  C   UNL A   1      37.459  22.822  25.082  1.00  0.00     0.118 C 
BRANCH  28  29
ATOM     29  N   UNL A   1      38.196  21.924  25.979  1.00  0.00    -0.352 N 
ATOM     30  C   UNL A   1      39.302  22.188  26.768  1.00  0.00     0.251 C 
ATOM     31  H   UNL A   1      37.853  21.001  26.028  1.00  0.00     0.163 HD
ATOM     32  O   UNL A   1      39.984  21.279  27.207  1.00  0.00    -0.269 OA
BRANCH  30  33
ATOM     33  C   UNL A   1      39.648  23.595  27.050  1.00  0.00     0.039 A 
ATOM     34  C   UNL A   1      38.659  24.564  27.231  1.00  0.00     0.014 A 
ATOM     35  C   UNL A   1      40.992  23.920  27.189  1.00  0.00     0.014 A 
ATOM     36  C   UNL A   1      39.038  25.836  27.657  1.00  0.00     0.010 A 
ATOM     37  C   UNL A   1      41.345  25.105  27.783  1.00  0.00     0.010 A 
ATOM     38  C   UNL A   1      40.385  26.091  27.968  1.00  0.00    -0.014 A 
BRANCH  38  39
ATOM     39  C   UNL A   1      40.789  27.351  28.582  1.00  0.00     0.031 A 
ATOM     40  C   UNL A   1      41.940  28.027  27.929  1.00  0.00     0.074 A 
ATOM     41  C   UNL A   1      40.083  27.979  29.548  1.00  0.00     0.049 A 
ATOM     42  N   UNL A   1      43.147  28.108  28.381  1.00  0.00    -0.248 NA
ATOM     43  C   UNL A   1      41.780  28.546  26.562  1.00  0.00     0.031 C 
ATOM     44  C   UNL A   1      38.777  27.616  30.114  1.00  0.00     0.029 A 
ATOM     45  N   UNL A   1      40.344  29.168  30.153  1.00  0.00    -0.354 N 
ATOM     46  C   UNL A   1      43.845  28.895  27.473  1.00  0.00     0.074 A 
ATOM     47  C   UNL A   1      43.018  28.969  26.293  1.00  0.00     0.031 C 
ATOM     48  C   UNL A   1      38.257  28.676  30.770  1.00  0.00     0.029 A 
ATOM     49  C   UNL A   1      39.265  29.718  30.835  1.00  0.00     0.049 A 
ATOM     50  H   UNL A   1      41.226  29.604  30.112  1.00  0.00     0.167 HD
ATOM     51  C   UNL A   1      44.928  29.628  27.860  1.00  0.00     0.031 A 
ATOM     52  C   UNL A   1      39.197  30.951  31.394  1.00  0.00     0.031 A 
ATOM     53  C   UNL A   1      45.379  29.255  29.179  1.00  0.00     0.049 A 
ATOM     54  C   UNL A   1      40.594  31.384  31.643  1.00  0.00     0.074 A 
ATOM     55  C   UNL A   1      45.796  28.076  29.769  1.00  0.00     0.029 A 
ATOM     56  N   UNL A   1      45.032  30.090  30.217  1.00  0.00    -0.354 N 
ATOM     57  N   UNL A   1      41.375  30.795  32.505  1.00  0.00    -0.248 NA
ATOM     58  C   UNL A   1      41.273  32.163  30.621  1.00  0.00     0.031 C 
ATOM     59  C   UNL A   1      45.208  28.090  31.069  1.00  0.00     0.029 A 
ATOM     60  C   UNL A   1      44.542  29.306  31.230  1.00  0.00     0.049 A 
ATOM     61  H   UNL A   1      45.121  31.071  30.230  1.00  0.00     0.167 HD
ATOM     62  C   UNL A   1      42.610  30.736  31.876  1.00  0.00     0.074 A 
ATOM     63  C   UNL A   1      42.514  31.692  30.773  1.00  0.00     0.031 C 
ATOM     64  C   UNL A   1      43.488  29.720  32.134  1.00  0.00     0.031 A 
BRANCH  51  65
ATOM     65  C   UNL A   1      45.320  30.946  27.239  1.00  0.00    -0.014 A 
ATOM     66  C   UNL A   1      46.679  31.177  26.943  1.00  0.00     0.010 A 
ATOM     67  C   UNL A   1      44.458  32.061  27.199  1.00  0.00     0.010 A 
ATOM     68  C   UNL A   1      47.163  32.469  26.704  1.00  0.00     0.020 A 
ATOM     69  C   UNL A   1      44.923  33.348  26.916  1.00  0.00     0.020 A 
ATOM     70  C   UNL A   1      46.280  33.549  26.709  1.00  0.00     0.054 A 
BRANCH  70  71
ATOM     71  S   UNL A   1      46.931  35.224  26.511  1.00  0.00     0.124 S 
ATOM     72  O   UNL A   1      47.718  35.097  25.288  1.00  0.00    -0.237 OA
ATOM     73  O   UNL A   1      45.711  36.019  26.400  1.00  0.00    -0.237 OA
ATOM     74  O   UNL A   1      47.699  35.439  27.734  1.00  0.00    -0.744 OA
ENDBRANCH  70  71
ENDBRANCH  51  65
BRANCH  52  75
ATOM     75  C   UNL A   1      38.042  31.881  31.424  1.00  0.00    -0.014 A 
ATOM     76  C   UNL A   1      36.754  31.433  31.074  1.00  0.00     0.010 A 
ATOM     77  C   UNL A   1      38.146  33.119  32.091  1.00  0.00     0.010 A 
ATOM     78  C   UNL A   1      35.609  32.146  31.466  1.00  0.00     0.020 A 
ATOM     79  C   UNL A   1      37.009  33.841  32.476  1.00  0.00     0.020 A 
ATOM     80  C   UNL A   1      35.745  33.332  32.192  1.00  0.00     0.054 A 
BRANCH  80  81
ATOM     81  S   UNL A   1      34.267  34.120  32.902  1.00  0.00     0.124 S 
ATOM     82  O   UNL A   1      34.790  34.713  34.128  1.00  0.00    -0.237 OA
ATOM     83  O   UNL A   1      33.878  35.064  31.858  1.00  0.00    -0.237 OA
ATOM     84  O   UNL A   1      33.343  33.004  33.097  1.00  0.00    -0.744 OA
ENDBRANCH  80  81
ENDBRANCH  52  75
BRANCH  64  85
ATOM     85  C   UNL A   1      43.218  28.822  33.324  1.00  0.00    -0.014 A 
ATOM     86  C   UNL A   1      43.802  28.995  34.597  1.00  0.00     0.010 A 
ATOM     87  C   UNL A   1      42.246  27.817  33.173  1.00  0.00     0.010 A 
ATOM     88  C   UNL A   1      43.464  28.148  35.665  1.00  0.00     0.020 A 
ATOM     89  C   UNL A   1      41.889  26.986  34.237  1.00  0.00     0.020 A 
ATOM     90  C   UNL A   1      42.516  27.141  35.474  1.00  0.00     0.054 A 
BRANCH  90  91
ATOM     91  S   UNL A   1      42.091  26.038  36.851  1.00  0.00     0.124 S 
ATOM     92  O   UNL A   1      40.657  26.262  37.008  1.00  0.00    -0.237 OA
ATOM     93  O   UNL A   1      42.471  24.721  36.345  1.00  0.00    -0.237 OA
ATOM     94  O   UNL A   1      42.915  26.528  37.956  1.00  0.00    -0.744 OA
ENDBRANCH  90  91
ENDBRANCH  64  85
ENDBRANCH  38  39
ENDBRANCH  30  33
ENDBRANCH  28  29
ENDBRANCH  27  28
ENDBRANCH  26  27
ENDBRANCH   3  26
TORSDOF 20
ENDMDL
MODEL 3
REMARK VINA RESULT:     -10.7      2.972      7.072
REMARK SMILES CCN(Cc1c(C)nn(CC)c1C)C(=O)Cn1ccc(C(=O)NCCCNC(=O)c2ccc(-c3c4nc(c(-c5ccc(S(=O)(=O)[O-])cc5)c5ccc([nH]5)c(-c5ccc(S(=O)(=O)[O-])cc5)c5nc(c(-c6ccc(S(=O)(=O)[O-])cc6)c6ccc3[nH]6)C=C5)C=C4)cc2)n1
REMARK SMILES IDX 21 1 22 2 23 3 20 5 17 6 18 7 90 8 19 9 16 10 14 11 15 12
REMARK SMILES IDX 3 13 2 14 1 15 4 16 5 17 6 18 12 19 7 20 8 21 9 22 13 23
REMARK SMILES IDX 10 24 11 25 24 26 25 27 26 28 27 29 28 30 29 32 30 33 31 34
REMARK SMILES IDX 89 35 32 36 88 37 33 38 34 39 35 40 82 41 36 42 87 43 81 44
REMARK SMILES IDX 83 45 37 46 86 47 80 48 79 49 38 51 68 52 49 53 67 54 50 55
REMARK SMILES IDX 53 56 66 57 84 58 51 59 52 60 65 62 85 63 54 64 39 65 40 66
REMARK SMILES IDX 48 67 41 68 47 69 42 70 43 71 44 72 45 73 46 74 69 75 70 76
REMARK SMILES IDX 78 77 71 78 77 79 72 80 73 81 74 82 75 83 76 84 55 85 56 86
REMARK SMILES IDX 64 87 57 88 63 89 58 90 59 91 60 92 61 93 62 94
REMARK H PARENT 23 4 27 31 83 50 53 61
REMARK Flexibility Score: inf
ROOT
ATOM      1  C   UNL A   1      30.984  29.276  23.019  1.00  0.00     0.271 C 
ATOM      2  O   UNL A   1      30.238  29.752  22.162  1.00  0.00    -0.267 OA
ATOM      3  N   UNL A   1      30.928  29.814  24.289  1.00  0.00    -0.351 N 
ATOM      4  H   UNL A   1      30.350  30.606  24.376  1.00  0.00     0.163 HD
ENDROOT
BRANCH   1   5
ATOM      5  C   UNL A   1      31.891  28.157  22.706  1.00  0.00     0.150 A 
ATOM      6  N   UNL A   1      32.612  26.182  22.321  1.00  0.00    -0.263 N 
ATOM      7  C   UNL A   1      33.712  26.976  22.183  1.00  0.00     0.110 A 
ATOM      8  N   UNL A   1      31.516  26.868  22.675  1.00  0.00    -0.167 NA
ATOM      9  C   UNL A   1      33.273  28.264  22.387  1.00  0.00     0.056 A 
BRANCH   6  10
ATOM     10  C   UNL A   1      32.446  24.756  22.100  1.00  0.00     0.244 C 
BRANCH  10  11
ATOM     11  C   UNL A   1      33.400  23.869  22.859  1.00  0.00     0.244 C 
ATOM     12  O   UNL A   1      34.313  23.309  22.241  1.00  0.00    -0.273 OA
BRANCH  11  13
ATOM     13  N   UNL A   1      33.263  23.703  24.235  1.00  0.00    -0.337 N 
BRANCH  13  14
ATOM     14  C   UNL A   1      31.970  24.062  24.823  1.00  0.00     0.116 C 
ATOM     15  C   UNL A   1      32.094  25.086  25.947  1.00  0.00     0.027 C 
ENDBRANCH  13  14
BRANCH  13  16
ATOM     16  C   UNL A   1      34.317  23.213  25.138  1.00  0.00     0.159 C 
BRANCH  16  17
ATOM     17  C   UNL A   1      34.530  21.736  24.999  1.00  0.00     0.015 A 
ATOM     18  C   UNL A   1      35.786  21.054  24.937  1.00  0.00     0.065 A 
ATOM     19  C   UNL A   1      33.588  20.714  24.925  1.00  0.00     0.041 A 
ATOM     20  C   UNL A   1      37.168  21.599  24.994  1.00  0.00     0.069 C 
ATOM     21  N   UNL A   1      35.628  19.735  24.799  1.00  0.00    -0.178 NA
ATOM     22  N   UNL A   1      34.301  19.553  24.755  1.00  0.00    -0.270 N 
ATOM     23  C   UNL A   1      32.105  20.745  24.976  1.00  0.00     0.067 C 
BRANCH  22  24
ATOM     24  C   UNL A   1      33.795  18.206  24.559  1.00  0.00     0.141 C 
ATOM     25  C   UNL A   1      34.901  17.164  24.514  1.00  0.00     0.029 C 
ENDBRANCH  22  24
ENDBRANCH  16  17
ENDBRANCH  13  16
ENDBRANCH  11  13
ENDBRANCH  10  11
ENDBRANCH   6  10
ENDBRANCH   1   5
BRANCH   3  26
ATOM     26  C   UNL A   1      31.588  29.399  25.517  1.00  0.00     0.118 C 
BRANCH  26  27
ATOM     27  C   UNL A   1      33.093  29.686  25.534  1.00  0.00     0.042 C 
BRANCH  27  28
ATOM     28  C   UNL A   1      33.600  29.983  26.938  1.00  0.00     0.118 C 
BRANCH  28  29
ATOM     29  N   UNL A   1      33.811  31.417  27.171  1.00  0.00    -0.352 N 
ATOM     30  C   UNL A   1      34.742  32.044  27.982  1.00  0.00     0.251 C 
ATOM     31  H   UNL A   1      33.206  32.019  26.680  1.00  0.00     0.163 HD
ATOM     32  O   UNL A   1      34.593  33.207  28.314  1.00  0.00    -0.269 OA
BRANCH  30  33
ATOM     33  C   UNL A   1      35.908  31.269  28.449  1.00  0.00     0.039 A 
ATOM     34  C   UNL A   1      36.099  29.940  28.063  1.00  0.00     0.014 A 
ATOM     35  C   UNL A   1      36.847  31.918  29.240  1.00  0.00     0.014 A 
ATOM     36  C   UNL A   1      37.297  29.312  28.399  1.00  0.00     0.010 A 
ATOM     37  C   UNL A   1      38.092  31.367  29.407  1.00  0.00     0.010 A 
ATOM     38  C   UNL A   1      38.309  30.045  29.042  1.00  0.00    -0.014 A 
BRANCH  38  39
ATOM     39  C   UNL A   1      39.635  29.474  29.249  1.00  0.00     0.031 A 
ATOM     40  C   UNL A   1      39.957  29.127  30.657  1.00  0.00     0.074 A 
ATOM     41  C   UNL A   1      40.460  29.102  28.245  1.00  0.00     0.049 A 
ATOM     42  N   UNL A   1      40.760  29.759  31.446  1.00  0.00    -0.248 NA
ATOM     43  C   UNL A   1      39.202  28.050  31.315  1.00  0.00     0.031 C 
ATOM     44  C   UNL A   1      40.203  29.097  26.799  1.00  0.00     0.029 A 
ATOM     45  N   UNL A   1      41.688  28.524  28.326  1.00  0.00    -0.354 N 
ATOM     46  C   UNL A   1      40.800  29.024  32.624  1.00  0.00     0.074 A 
ATOM     47  C   UNL A   1      39.688  28.108  32.558  1.00  0.00     0.031 C 
ATOM     48  C   UNL A   1      41.117  28.321  26.178  1.00  0.00     0.029 A 
ATOM     49  C   UNL A   1      42.127  27.935  27.146  1.00  0.00     0.049 A 
ATOM     50  H   UNL A   1      42.223  28.523  29.152  1.00  0.00     0.167 HD
ATOM     51  C   UNL A   1      41.892  29.056  33.440  1.00  0.00     0.031 A 
ATOM     52  C   UNL A   1      43.232  27.166  26.981  1.00  0.00     0.031 A 
ATOM     53  C   UNL A   1      42.800  30.117  33.072  1.00  0.00     0.049 A 
ATOM     54  C   UNL A   1      44.159  27.507  28.087  1.00  0.00     0.074 A 
ATOM     55  C   UNL A   1      42.691  31.489  32.938  1.00  0.00     0.029 A 
ATOM     56  N   UNL A   1      43.924  29.758  32.364  1.00  0.00    -0.354 N 
ATOM     57  N   UNL A   1      44.721  28.678  28.204  1.00  0.00    -0.248 NA
ATOM     58  C   UNL A   1      44.104  26.721  29.308  1.00  0.00     0.031 C 
ATOM     59  C   UNL A   1      43.444  31.800  31.766  1.00  0.00     0.029 A 
ATOM     60  C   UNL A   1      44.036  30.624  31.305  1.00  0.00     0.049 A 
ATOM     61  H   UNL A   1      44.537  29.018  32.578  1.00  0.00     0.167 HD
ATOM     62  C   UNL A   1      44.662  28.963  29.560  1.00  0.00     0.074 A 
ATOM     63  C   UNL A   1      44.377  27.678  30.200  1.00  0.00     0.031 C 
ATOM     64  C   UNL A   1      44.568  30.251  30.010  1.00  0.00     0.031 A 
BRANCH  51  65
ATOM     65  C   UNL A   1      42.344  27.895  34.291  1.00  0.00    -0.014 A 
ATOM     66  C   UNL A   1      42.454  28.080  35.685  1.00  0.00     0.010 A 
ATOM     67  C   UNL A   1      42.930  26.731  33.752  1.00  0.00     0.010 A 
ATOM     68  C   UNL A   1      43.185  27.191  36.482  1.00  0.00     0.020 A 
ATOM     69  C   UNL A   1      43.623  25.814  34.545  1.00  0.00     0.020 A 
ATOM     70  C   UNL A   1      43.779  26.070  35.900  1.00  0.00     0.054 A 
BRANCH  70  71
ATOM     71  S   UNL A   1      44.814  24.990  36.916  1.00  0.00     0.124 S 
ATOM     72  O   UNL A   1      44.223  25.168  38.240  1.00  0.00    -0.237 OA
ATOM     73  O   UNL A   1      44.600  23.685  36.297  1.00  0.00    -0.237 OA
ATOM     74  O   UNL A   1      46.155  25.542  36.746  1.00  0.00    -0.744 OA
ENDBRANCH  70  71
ENDBRANCH  51  65
BRANCH  52  75
ATOM     75  C   UNL A   1      43.389  25.958  26.135  1.00  0.00    -0.014 A 
ATOM     76  C   UNL A   1      44.592  25.720  25.444  1.00  0.00     0.010 A 
ATOM     77  C   UNL A   1      42.478  24.887  26.252  1.00  0.00     0.010 A 
ATOM     78  C   UNL A   1      44.917  24.435  24.978  1.00  0.00     0.020 A 
ATOM     79  C   UNL A   1      42.791  23.606  25.781  1.00  0.00     0.020 A 
ATOM     80  C   UNL A   1      44.025  23.379  25.177  1.00  0.00     0.054 A 
BRANCH  80  81
ATOM     81  S   UNL A   1      44.549  21.681  24.790  1.00  0.00     0.124 S 
ATOM     82  O   UNL A   1      45.836  21.590  25.471  1.00  0.00    -0.237 OA
ATOM     83  O   UNL A   1      43.471  20.877  25.362  1.00  0.00    -0.237 OA
ATOM     84  O   UNL A   1      44.617  21.667  23.330  1.00  0.00    -0.744 OA
ENDBRANCH  80  81
ENDBRANCH  52  75
BRANCH  64  85
ATOM     85  C   UNL A   1      44.821  31.375  29.027  1.00  0.00    -0.014 A 
ATOM     86  C   UNL A   1      43.851  31.888  28.141  1.00  0.00     0.010 A 
ATOM     87  C   UNL A   1      46.073  32.013  29.079  1.00  0.00     0.010 A 
ATOM     88  C   UNL A   1      44.148  32.966  27.292  1.00  0.00     0.020 A 
ATOM     89  C   UNL A   1      46.369  33.100  28.253  1.00  0.00     0.020 A 
ATOM     90  C   UNL A   1      45.412  33.559  27.347  1.00  0.00     0.054 A 
BRANCH  90  91
ATOM     91  S   UNL A   1      45.800  34.943  26.239  1.00  0.00     0.124 S 
ATOM     92  O   UNL A   1      47.141  35.329  26.670  1.00  0.00    -0.237 OA
ATOM     93  O   UNL A   1      45.716  34.334  24.914  1.00  0.00    -0.237 OA
ATOM     94  O   UNL A   1      44.755  35.924  26.528  1.00  0.00    -0.744 OA
ENDBRANCH  90  91
ENDBRANCH  64  85
ENDBRANCH  38  39
ENDBRANCH  30  33
ENDBRANCH  28  29
ENDBRANCH  27  28
ENDBRANCH  26  27
ENDBRANCH   3  26
TORSDOF 20
ENDMDL
