MODEL 1
REMARK VINA RESULT:     -10.5      0.000      0.000
REMARK SMILES CC(C)(C)N(CC(=O)NCCCNC(=O)c1ccc(-c2c3nc(c(-c4ccc(S(=O)(=O)[O-])cc4)c4ccc([nH]4)c(-c4ccc(S(=O)(=O)[O-])cc4)c4nc(c(-c5ccc(S(=O)(=O)[O-])cc5)c5ccc2[nH]5)C=C4)C=C3)cc1)C(=O)NCCc1cnc[nH]1
REMARK SMILES IDX 10 1 9 2 7 3 8 4 6 6 5 7 2 8 1 9 3 10 4 11 76 12 77 13 78 14
REMARK SMILES IDX 79 16 80 17 81 18 82 19 85 20 83 21 84 22 11 24 12 25 13 26
REMARK SMILES IDX 14 27 15 29 16 30 17 31 75 32 18 33 74 34 19 35 20 36 21 37
REMARK SMILES IDX 68 38 22 39 73 40 67 41 69 42 23 43 72 44 66 45 65 46 24 48
REMARK SMILES IDX 54 49 35 50 53 51 36 52 39 53 52 54 70 55 37 56 38 57 51 59
REMARK SMILES IDX 71 60 40 61 25 62 26 63 34 64 27 65 33 66 28 67 29 68 30 69
REMARK SMILES IDX 31 70 32 71 55 72 56 73 64 74 57 75 63 76 58 77 59 78 60 79
REMARK SMILES IDX 61 80 62 81 41 82 42 83 50 84 43 85 49 86 44 87 45 88 46 89
REMARK SMILES IDX 47 90 48 91
REMARK H PARENT 9 5 78 15 85 23 13 28 69 47 39 58
REMARK Flexibility Score: inf
ROOT
ATOM      1  C   UNL A   1      32.151  26.916  25.946  1.00  0.00     0.117 C 
ENDROOT
BRANCH   1   2
ATOM      2  N   UNL A   1      31.299  25.924  26.560  1.00  0.00    -0.354 N 
ATOM      3  C   UNL A   1      31.304  24.576  26.370  1.00  0.00     0.239 C 
ATOM      4  O   UNL A   1      30.795  23.886  27.262  1.00  0.00    -0.273 OA
ATOM      5  H   UNL A   1      30.630  26.267  27.196  1.00  0.00     0.163 HD
BRANCH   3   6
ATOM      6  C   UNL A   1      32.060  23.916  25.202  1.00  0.00     0.221 C 
BRANCH   6   7
ATOM      7  N   UNL A   1      33.209  23.050  25.514  1.00  0.00    -0.311 N 
BRANCH   7   8
ATOM      8  C   UNL A   1      34.599  23.435  24.996  1.00  0.00     0.037 C 
ATOM      9  C   UNL A   1      35.772  22.617  25.605  1.00  0.00     0.034 C 
ATOM     10  C   UNL A   1      34.942  24.920  25.279  1.00  0.00     0.034 C 
ATOM     11  C   UNL A   1      34.689  23.181  23.471  1.00  0.00     0.034 C 
ENDBRANCH   7   8
BRANCH   7  12
ATOM     12  C   UNL A   1      33.155  22.052  26.466  1.00  0.00     0.318 C 
ATOM     13  O   UNL A   1      33.393  22.263  27.658  1.00  0.00    -0.249 OA
ATOM     14  N   UNL A   1      32.826  20.774  26.230  1.00  0.00    -0.338 N 
ATOM     15  H   UNL A   1      32.948  20.246  27.052  1.00  0.00     0.165 HD
BRANCH  14  16
ATOM     16  C   UNL A   1      32.352  19.906  25.160  1.00  0.00     0.124 C 
BRANCH  16  17
ATOM     17  C   UNL A   1      33.512  19.273  24.379  1.00  0.00     0.077 C 
BRANCH  17  18
ATOM     18  C   UNL A   1      33.616  17.804  24.617  1.00  0.00     0.036 A 
ATOM     19  C   UNL A   1      34.693  16.951  24.725  1.00  0.00     0.134 A 
ATOM     20  N   UNL A   1      32.517  16.994  24.770  1.00  0.00    -0.348 N 
ATOM     21  N   UNL A   1      34.274  15.667  24.964  1.00  0.00    -0.245 NA
ATOM     22  C   UNL A   1      32.964  15.723  24.984  1.00  0.00     0.196 A 
ATOM     23  H   UNL A   1      31.575  17.280  24.733  1.00  0.00     0.167 HD
ENDBRANCH  17  18
ENDBRANCH  16  17
ENDBRANCH  14  16
ENDBRANCH   7  12
ENDBRANCH   6   7
ENDBRANCH   3   6
ENDBRANCH   1   2
BRANCH   1  24
ATOM     24  C   UNL A   1      33.005  27.677  26.946  1.00  0.00     0.042 C 
BRANCH  24  25
ATOM     25  C   UNL A   1      33.868  28.755  26.307  1.00  0.00     0.118 C 
BRANCH  25  26
ATOM     26  N   UNL A   1      33.740  30.040  26.992  1.00  0.00    -0.352 N 
ATOM     27  C   UNL A   1      34.543  30.621  27.944  1.00  0.00     0.251 C 
ATOM     28  H   UNL A   1      32.956  30.573  26.729  1.00  0.00     0.163 HD
ATOM     29  O   UNL A   1      34.125  31.586  28.583  1.00  0.00    -0.269 OA
BRANCH  27  30
ATOM     30  C   UNL A   1      35.893  30.083  28.208  1.00  0.00     0.039 A 
ATOM     31  C   UNL A   1      36.863  30.115  27.202  1.00  0.00     0.014 A 
ATOM     32  C   UNL A   1      36.197  29.535  29.454  1.00  0.00     0.014 A 
ATOM     33  C   UNL A   1      38.162  29.676  27.478  1.00  0.00     0.010 A 
ATOM     34  C   UNL A   1      37.509  29.198  29.757  1.00  0.00     0.010 A 
ATOM     35  C   UNL A   1      38.506  29.257  28.771  1.00  0.00    -0.014 A 
BRANCH  35  36
ATOM     36  C   UNL A   1      39.884  28.848  29.145  1.00  0.00     0.031 A 
ATOM     37  C   UNL A   1      40.820  29.869  29.736  1.00  0.00     0.074 A 
ATOM     38  C   UNL A   1      40.330  27.613  28.839  1.00  0.00     0.049 A 
ATOM     39  N   UNL A   1      42.109  29.789  29.939  1.00  0.00    -0.248 NA
ATOM     40  C   UNL A   1      40.232  31.167  30.112  1.00  0.00     0.031 C 
ATOM     41  C   UNL A   1      39.529  26.542  28.244  1.00  0.00     0.029 A 
ATOM     42  N   UNL A   1      41.581  27.059  28.964  1.00  0.00    -0.354 N 
ATOM     43  C   UNL A   1      42.491  31.034  30.428  1.00  0.00     0.074 A 
ATOM     44  C   UNL A   1      41.308  31.863  30.448  1.00  0.00     0.031 C 
ATOM     45  C   UNL A   1      40.304  25.459  28.066  1.00  0.00     0.029 A 
ATOM     46  C   UNL A   1      41.667  25.776  28.476  1.00  0.00     0.049 A 
ATOM     47  H   UNL A   1      42.344  27.536  29.365  1.00  0.00     0.167 HD
ATOM     48  C   UNL A   1      43.714  31.443  30.837  1.00  0.00     0.031 A 
ATOM     49  C   UNL A   1      42.730  24.956  28.347  1.00  0.00     0.031 A 
ATOM     50  C   UNL A   1      44.881  30.603  30.833  1.00  0.00     0.049 A 
ATOM     51  C   UNL A   1      44.086  25.440  28.787  1.00  0.00     0.074 A 
ATOM     52  C   UNL A   1      46.156  30.904  31.281  1.00  0.00     0.029 A 
ATOM     53  N   UNL A   1      44.916  29.301  30.358  1.00  0.00    -0.354 N 
ATOM     54  N   UNL A   1      44.419  26.603  29.297  1.00  0.00    -0.248 NA
ATOM     55  C   UNL A   1      45.209  24.503  28.642  1.00  0.00     0.031 C 
ATOM     56  C   UNL A   1      46.975  29.801  31.025  1.00  0.00     0.029 A 
ATOM     57  C   UNL A   1      46.196  28.790  30.483  1.00  0.00     0.049 A 
ATOM     58  H   UNL A   1      44.146  28.813  29.988  1.00  0.00     0.167 HD
ATOM     59  C   UNL A   1      45.781  26.521  29.568  1.00  0.00     0.074 A 
ATOM     60  C   UNL A   1      46.209  25.197  29.170  1.00  0.00     0.031 C 
ATOM     61  C   UNL A   1      46.600  27.459  30.105  1.00  0.00     0.031 A 
BRANCH  48  62
ATOM     62  C   UNL A   1      43.854  32.864  31.316  1.00  0.00    -0.014 A 
ATOM     63  C   UNL A   1      44.175  33.906  30.426  1.00  0.00     0.010 A 
ATOM     64  C   UNL A   1      43.620  33.171  32.669  1.00  0.00     0.010 A 
ATOM     65  C   UNL A   1      44.302  35.218  30.888  1.00  0.00     0.020 A 
ATOM     66  C   UNL A   1      43.714  34.488  33.129  1.00  0.00     0.020 A 
ATOM     67  C   UNL A   1      44.071  35.501  32.237  1.00  0.00     0.054 A 
BRANCH  67  68
ATOM     68  S   UNL A   1      44.218  37.219  32.800  1.00  0.00     0.124 S 
ATOM     69  O   UNL A   1      43.027  37.365  33.634  1.00  0.00    -0.237 OA
ATOM     70  O   UNL A   1      45.490  37.212  33.518  1.00  0.00    -0.237 OA
ATOM     71  O   UNL A   1      44.208  37.993  31.561  1.00  0.00    -0.744 OA
ENDBRANCH  67  68
ENDBRANCH  48  62
BRANCH  49  72
ATOM     72  C   UNL A   1      42.553  23.589  27.780  1.00  0.00    -0.014 A 
ATOM     73  C   UNL A   1      42.673  23.373  26.396  1.00  0.00     0.010 A 
ATOM     74  C   UNL A   1      42.276  22.494  28.620  1.00  0.00     0.010 A 
ATOM     75  C   UNL A   1      42.499  22.093  25.860  1.00  0.00     0.020 A 
ATOM     76  C   UNL A   1      42.133  21.207  28.091  1.00  0.00     0.020 A 
ATOM     77  C   UNL A   1      42.233  21.017  26.712  1.00  0.00     0.054 A 
BRANCH  77  78
ATOM     78  S   UNL A   1      42.058  19.359  25.995  1.00  0.00     0.124 S 
ATOM     79  O   UNL A   1      42.890  19.454  24.800  1.00  0.00    -0.237 OA
ATOM     80  O   UNL A   1      42.574  18.501  27.058  1.00  0.00    -0.237 OA
ATOM     81  O   UNL A   1      40.623  19.241  25.751  1.00  0.00    -0.744 OA
ENDBRANCH  77  78
ENDBRANCH  49  72
BRANCH  61  82
ATOM     82  C   UNL A   1      48.035  27.082  30.360  1.00  0.00    -0.014 A 
ATOM     83  C   UNL A   1      49.038  27.322  29.407  1.00  0.00     0.010 A 
ATOM     84  C   UNL A   1      48.395  26.587  31.628  1.00  0.00     0.010 A 
ATOM     85  C   UNL A   1      50.377  27.070  29.716  1.00  0.00     0.020 A 
ATOM     86  C   UNL A   1      49.735  26.363  31.951  1.00  0.00     0.020 A 
ATOM     87  C   UNL A   1      50.718  26.603  30.990  1.00  0.00     0.054 A 
BRANCH  87  88
ATOM     88  S   UNL A   1      52.471  26.381  31.399  1.00  0.00     0.124 S 
ATOM     89  O   UNL A   1      53.104  26.463  30.084  1.00  0.00    -0.237 OA
ATOM     90  O   UNL A   1      52.735  27.504  32.295  1.00  0.00    -0.237 OA
ATOM     91  O   UNL A   1      52.517  25.064  32.030  1.00  0.00    -0.744 OA
ENDBRANCH  87  88
ENDBRANCH  61  82
ENDBRANCH  35  36
ENDBRANCH  27  30
ENDBRANCH  25  26
ENDBRANCH  24  25
ENDBRANCH   1  24
TORSDOF 19
ENDMDL
MODEL 2
REMARK VINA RESULT:     -10.1      3.665      5.629
REMARK SMILES CC(C)(C)N(CC(=O)NCCCNC(=O)c1ccc(-c2c3nc(c(-c4ccc(S(=O)(=O)[O-])cc4)c4ccc([nH]4)c(-c4ccc(S(=O)(=O)[O-])cc4)c4nc(c(-c5ccc(S(=O)(=O)[O-])cc5)c5ccc2[nH]5)C=C4)C=C3)cc1)C(=O)NCCc1cnc[nH]1
REMARK SMILES IDX 10 1 9 2 7 3 8 4 6 6 5 7 2 8 1 9 3 10 4 11 76 12 77 13 78 14
REMARK SMILES IDX 79 16 80 17 81 18 82 19 85 20 83 21 84 22 11 24 12 25 13 26
REMARK SMILES IDX 14 27 15 29 16 30 17 31 75 32 18 33 74 34 19 35 20 36 21 37
REMARK SMILES IDX 68 38 22 39 73 40 67 41 69 42 23 43 72 44 66 45 65 46 24 48
REMARK SMILES IDX 54 49 35 50 53 51 36 52 39 53 52 54 70 55 37 56 38 57 51 59
REMARK SMILES IDX 71 60 40 61 25 62 26 63 34 64 27 65 33 66 28 67 29 68 30 69
REMARK SMILES IDX 31 70 32 71 55 72 56 73 64 74 57 75 63 76 58 77 59 78 60 79
REMARK SMILES IDX 61 80 62 81 41 82 42 83 50 84 43 85 49 86 44 87 45 88 46 89
REMARK SMILES IDX 47 90 48 91
REMARK H PARENT 9 5 78 15 85 23 13 28 69 47 39 58
REMARK Flexibility Score: inf
ROOT
ATOM      1  C   UNL A   1      33.467  28.639  26.083  1.00  0.00     0.117 C 
ENDROOT
BRANCH   1   2
ATOM      2  N   UNL A   1      33.893  28.952  24.738  1.00  0.00    -0.354 N 
ATOM      3  C   UNL A   1      33.896  28.140  23.646  1.00  0.00     0.239 C 
ATOM      4  O   UNL A   1      33.909  28.694  22.540  1.00  0.00    -0.273 OA
ATOM      5  H   UNL A   1      34.224  29.868  24.595  1.00  0.00     0.163 HD
BRANCH   3   6
ATOM      6  C   UNL A   1      33.709  26.615  23.757  1.00  0.00     0.221 C 
BRANCH   6   7
ATOM      7  N   UNL A   1      32.432  26.034  23.312  1.00  0.00    -0.311 N 
BRANCH   7   8
ATOM      8  C   UNL A   1      31.550  25.298  24.327  1.00  0.00     0.037 C 
ATOM      9  C   UNL A   1      30.643  26.217  25.192  1.00  0.00     0.034 C 
ATOM     10  C   UNL A   1      32.381  24.469  25.338  1.00  0.00     0.034 C 
ATOM     11  C   UNL A   1      30.566  24.353  23.592  1.00  0.00     0.034 C 
ENDBRANCH   7   8
BRANCH   7  12
ATOM     12  C   UNL A   1      31.856  26.339  22.095  1.00  0.00     0.318 C 
ATOM     13  O   UNL A   1      32.096  25.694  21.070  1.00  0.00    -0.249 OA
ATOM     14  N   UNL A   1      30.977  27.328  21.881  1.00  0.00    -0.338 N 
ATOM     15  H   UNL A   1      30.786  27.396  20.917  1.00  0.00     0.165 HD
BRANCH  14  16
ATOM     16  C   UNL A   1      30.212  28.338  22.601  1.00  0.00     0.124 C 
BRANCH  16  17
ATOM     17  C   UNL A   1      30.579  29.760  22.154  1.00  0.00     0.077 C 
BRANCH  17  18
ATOM     18  C   UNL A   1      29.432  30.706  22.285  1.00  0.00     0.036 A 
ATOM     19  C   UNL A   1      28.502  30.911  23.280  1.00  0.00     0.134 A 
ATOM     20  N   UNL A   1      29.096  31.608  21.306  1.00  0.00    -0.348 N 
ATOM     21  N   UNL A   1      27.641  31.922  22.940  1.00  0.00    -0.245 NA
ATOM     22  C   UNL A   1      28.020  32.321  21.750  1.00  0.00     0.196 A 
ATOM     23  H   UNL A   1      29.550  31.723  20.439  1.00  0.00     0.167 HD
ENDBRANCH  17  18
ENDBRANCH  16  17
ENDBRANCH  14  16
ENDBRANCH   7  12
ENDBRANCH   6   7
ENDBRANCH   3   6
ENDBRANCH   1   2
BRANCH   1  24
ATOM     24  C   UNL A   1      33.780  29.738  27.084  1.00  0.00     0.042 C 
BRANCH  24  25
ATOM     25  C   UNL A   1      35.148  29.592  27.733  1.00  0.00     0.118 C 
BRANCH  25  26
ATOM     26  N   UNL A   1      35.257  30.372  28.966  1.00  0.00    -0.352 N 
ATOM     27  C   UNL A   1      36.281  30.445  29.880  1.00  0.00     0.251 C 
ATOM     28  H   UNL A   1      34.475  30.932  29.173  1.00  0.00     0.163 HD
ATOM     29  O   UNL A   1      36.075  30.956  30.981  1.00  0.00    -0.269 OA
BRANCH  27  30
ATOM     30  C   UNL A   1      37.615  29.905  29.549  1.00  0.00     0.039 A 
ATOM     31  C   UNL A   1      38.079  29.957  28.231  1.00  0.00     0.014 A 
ATOM     32  C   UNL A   1      38.406  29.333  30.545  1.00  0.00     0.014 A 
ATOM     33  C   UNL A   1      39.373  29.515  27.934  1.00  0.00     0.010 A 
ATOM     34  C   UNL A   1      39.723  28.992  30.269  1.00  0.00     0.010 A 
ATOM     35  C   UNL A   1      40.220  29.071  28.959  1.00  0.00    -0.014 A 
BRANCH  35  36
ATOM     36  C   UNL A   1      41.626  28.657  28.719  1.00  0.00     0.031 A 
ATOM     37  C   UNL A   1      42.708  29.704  28.695  1.00  0.00     0.074 A 
ATOM     38  C   UNL A   1      41.910  27.379  28.398  1.00  0.00     0.049 A 
ATOM     39  N   UNL A   1      43.951  29.599  28.304  1.00  0.00    -0.248 NA
ATOM     40  C   UNL A   1      42.328  31.059  29.135  1.00  0.00     0.031 C 
ATOM     41  C   UNL A   1      40.947  26.276  28.363  1.00  0.00     0.029 A 
ATOM     42  N   UNL A   1      43.092  26.797  28.013  1.00  0.00    -0.354 N 
ATOM     43  C   UNL A   1      44.488  30.878  28.413  1.00  0.00     0.074 A 
ATOM     44  C   UNL A   1      43.426  31.748  28.863  1.00  0.00     0.031 C 
ATOM     45  C   UNL A   1      41.579  25.151  27.989  1.00  0.00     0.029 A 
ATOM     46  C   UNL A   1      42.974  25.462  27.699  1.00  0.00     0.049 A 
ATOM     47  H   UNL A   1      43.945  27.288  27.965  1.00  0.00     0.167 HD
ATOM     48  C   UNL A   1      45.757  31.286  28.174  1.00  0.00     0.031 A 
ATOM     49  C   UNL A   1      43.880  24.593  27.206  1.00  0.00     0.031 A 
ATOM     50  C   UNL A   1      46.811  30.408  27.747  1.00  0.00     0.049 A 
ATOM     51  C   UNL A   1      45.278  25.074  26.925  1.00  0.00     0.074 A 
ATOM     52  C   UNL A   1      48.145  30.710  27.532  1.00  0.00     0.029 A 
ATOM     53  N   UNL A   1      46.654  29.058  27.470  1.00  0.00    -0.354 N 
ATOM     54  N   UNL A   1      45.784  26.275  27.084  1.00  0.00    -0.248 NA
ATOM     55  C   UNL A   1      46.233  24.084  26.405  1.00  0.00     0.031 C 
ATOM     56  C   UNL A   1      48.782  29.555  27.071  1.00  0.00     0.029 A 
ATOM     57  C   UNL A   1      47.862  28.517  27.066  1.00  0.00     0.049 A 
ATOM     58  H   UNL A   1      45.809  28.560  27.549  1.00  0.00     0.167 HD
ATOM     59  C   UNL A   1      47.122  26.174  26.720  1.00  0.00     0.074 A 
ATOM     60  C   UNL A   1      47.350  24.798  26.336  1.00  0.00     0.031 C 
ATOM     61  C   UNL A   1      48.077  27.137  26.711  1.00  0.00     0.031 A 
BRANCH  48  62
ATOM     62  C   UNL A   1      46.070  32.747  28.361  1.00  0.00    -0.014 A 
ATOM     63  C   UNL A   1      46.526  33.243  29.596  1.00  0.00     0.010 A 
ATOM     64  C   UNL A   1      45.946  33.632  27.274  1.00  0.00     0.010 A 
ATOM     65  C   UNL A   1      46.811  34.602  29.752  1.00  0.00     0.020 A 
ATOM     66  C   UNL A   1      46.262  34.987  27.417  1.00  0.00     0.020 A 
ATOM     67  C   UNL A   1      46.676  35.466  28.661  1.00  0.00     0.054 A 
BRANCH  67  68
ATOM     68  S   UNL A   1      47.079  37.220  28.889  1.00  0.00     0.124 S 
ATOM     69  O   UNL A   1      46.242  37.855  27.873  1.00  0.00    -0.237 OA
ATOM     70  O   UNL A   1      46.678  37.462  30.273  1.00  0.00    -0.237 OA
ATOM     71  O   UNL A   1      48.516  37.282  28.639  1.00  0.00    -0.744 OA
ENDBRANCH  67  68
ENDBRANCH  48  62
BRANCH  49  72
ATOM     72  C   UNL A   1      43.492  23.177  26.950  1.00  0.00    -0.014 A 
ATOM     73  C   UNL A   1      43.159  22.327  28.018  1.00  0.00     0.010 A 
ATOM     74  C   UNL A   1      43.443  22.673  25.636  1.00  0.00     0.010 A 
ATOM     75  C   UNL A   1      42.804  20.995  27.782  1.00  0.00     0.020 A 
ATOM     76  C   UNL A   1      43.057  21.351  25.394  1.00  0.00     0.020 A 
ATOM     77  C   UNL A   1      42.752  20.516  26.470  1.00  0.00     0.054 A 
BRANCH  77  78
ATOM     78  S   UNL A   1      42.243  18.797  26.188  1.00  0.00     0.124 S 
ATOM     79  O   UNL A   1      40.864  18.957  25.737  1.00  0.00    -0.237 OA
ATOM     80  O   UNL A   1      43.193  18.351  25.172  1.00  0.00    -0.237 OA
ATOM     81  O   UNL A   1      42.405  18.173  27.499  1.00  0.00    -0.744 OA
ENDBRANCH  77  78
ENDBRANCH  49  72
BRANCH  61  82
ATOM     82  C   UNL A   1      49.479  26.739  26.337  1.00  0.00    -0.014 A 
ATOM     83  C   UNL A   1      49.961  26.891  25.026  1.00  0.00     0.010 A 
ATOM     84  C   UNL A   1      50.362  26.315  27.349  1.00  0.00     0.010 A 
ATOM     85  C   UNL A   1      51.301  26.624  24.734  1.00  0.00     0.020 A 
ATOM     86  C   UNL A   1      51.708  26.075  27.066  1.00  0.00     0.020 A 
ATOM     87  C   UNL A   1      52.168  26.228  25.758  1.00  0.00     0.054 A 
BRANCH  87  88
ATOM     88  S   UNL A   1      53.923  25.985  25.370  1.00  0.00     0.124 S 
ATOM     89  O   UNL A   1      53.905  24.709  24.659  1.00  0.00    -0.237 OA
ATOM     90  O   UNL A   1      54.235  27.156  24.553  1.00  0.00    -0.237 OA
ATOM     91  O   UNL A   1      54.569  25.958  26.681  1.00  0.00    -0.744 OA
ENDBRANCH  87  88
ENDBRANCH  61  82
ENDBRANCH  35  36
ENDBRANCH  27  30
ENDBRANCH  25  26
ENDBRANCH  24  25
ENDBRANCH   1  24
TORSDOF 19
ENDMDL
MODEL 3
REMARK VINA RESULT:      -9.7      4.869      7.191
REMARK SMILES CC(C)(C)N(CC(=O)NCCCNC(=O)c1ccc(-c2c3nc(c(-c4ccc(S(=O)(=O)[O-])cc4)c4ccc([nH]4)c(-c4ccc(S(=O)(=O)[O-])cc4)c4nc(c(-c5ccc(S(=O)(=O)[O-])cc5)c5ccc2[nH]5)C=C4)C=C3)cc1)C(=O)NCCc1cnc[nH]1
REMARK SMILES IDX 10 1 9 2 7 3 8 4 6 6 5 7 2 8 1 9 3 10 4 11 76 12 77 13 78 14
REMARK SMILES IDX 79 16 80 17 81 18 82 19 85 20 83 21 84 22 11 24 12 25 13 26
REMARK SMILES IDX 14 27 15 29 16 30 17 31 75 32 18 33 74 34 19 35 20 36 21 37
REMARK SMILES IDX 68 38 22 39 73 40 67 41 69 42 23 43 72 44 66 45 65 46 24 48
REMARK SMILES IDX 54 49 35 50 53 51 36 52 39 53 52 54 70 55 37 56 38 57 51 59
REMARK SMILES IDX 71 60 40 61 25 62 26 63 34 64 27 65 33 66 28 67 29 68 30 69
REMARK SMILES IDX 31 70 32 71 55 72 56 73 64 74 57 75 63 76 58 77 59 78 60 79
REMARK SMILES IDX 61 80 62 81 41 82 42 83 50 84 43 85 49 86 44 87 45 88 46 89
REMARK SMILES IDX 47 90 48 91
REMARK H PARENT 9 5 78 15 85 23 13 28 69 47 39 58
REMARK Flexibility Score: inf
ROOT
ATOM      1  C   UNL A   1      32.903  30.140  27.051  1.00  0.00     0.117 C 
ENDROOT
BRANCH   1   2
ATOM      2  N   UNL A   1      31.846  29.156  27.058  1.00  0.00    -0.354 N 
ATOM      3  C   UNL A   1      31.929  27.831  26.760  1.00  0.00     0.239 C 
ATOM      4  O   UNL A   1      31.034  27.102  27.208  1.00  0.00    -0.273 OA
ATOM      5  H   UNL A   1      30.953  29.486  27.310  1.00  0.00     0.163 HD
BRANCH   3   6
ATOM      6  C   UNL A   1      33.158  27.222  26.060  1.00  0.00     0.221 C 
BRANCH   6   7
ATOM      7  N   UNL A   1      33.194  27.218  24.589  1.00  0.00    -0.311 N 
BRANCH   7   8
ATOM      8  C   UNL A   1      32.950  25.905  23.837  1.00  0.00     0.037 C 
ATOM      9  C   UNL A   1      33.809  24.705  24.324  1.00  0.00     0.034 C 
ATOM     10  C   UNL A   1      33.240  26.032  22.320  1.00  0.00     0.034 C 
ATOM     11  C   UNL A   1      31.483  25.445  24.031  1.00  0.00     0.034 C 
ENDBRANCH   7   8
BRANCH   7  12
ATOM     12  C   UNL A   1      33.173  28.377  23.838  1.00  0.00     0.318 C 
ATOM     13  O   UNL A   1      34.199  28.886  23.379  1.00  0.00    -0.249 OA
ATOM     14  N   UNL A   1      32.071  29.063  23.504  1.00  0.00    -0.338 N 
ATOM     15  H   UNL A   1      32.327  29.895  23.045  1.00  0.00     0.165 HD
BRANCH  14  16
ATOM     16  C   UNL A   1      30.619  28.987  23.597  1.00  0.00     0.124 C 
BRANCH  16  17
ATOM     17  C   UNL A   1      29.937  29.452  22.302  1.00  0.00     0.077 C 
BRANCH  17  18
ATOM     18  C   UNL A   1      29.139  30.697  22.500  1.00  0.00     0.036 A 
ATOM     19  C   UNL A   1      27.945  30.947  23.139  1.00  0.00     0.134 A 
ATOM     20  N   UNL A   1      29.528  31.917  22.002  1.00  0.00    -0.348 N 
ATOM     21  N   UNL A   1      27.622  32.277  23.062  1.00  0.00    -0.245 NA
ATOM     22  C   UNL A   1      28.588  32.834  22.373  1.00  0.00     0.196 A 
ATOM     23  H   UNL A   1      30.338  32.098  21.474  1.00  0.00     0.167 HD
ENDBRANCH  17  18
ENDBRANCH  16  17
ENDBRANCH  14  16
ENDBRANCH   7  12
ENDBRANCH   6   7
ENDBRANCH   3   6
ENDBRANCH   1   2
BRANCH   1  24
ATOM     24  C   UNL A   1      32.404  31.561  27.257  1.00  0.00     0.042 C 
BRANCH  24  25
ATOM     25  C   UNL A   1      33.515  32.599  27.249  1.00  0.00     0.118 C 
BRANCH  25  26
ATOM     26  N   UNL A   1      33.089  33.866  27.840  1.00  0.00    -0.352 N 
ATOM     27  C   UNL A   1      33.373  34.412  29.069  1.00  0.00     0.251 C 
ATOM     28  H   UNL A   1      32.506  34.415  27.268  1.00  0.00     0.163 HD
ATOM     29  O   UNL A   1      32.709  35.364  29.479  1.00  0.00    -0.269 OA
BRANCH  27  30
ATOM     30  C   UNL A   1      34.461  33.853  29.898  1.00  0.00     0.039 A 
ATOM     31  C   UNL A   1      34.157  32.981  30.948  1.00  0.00     0.014 A 
ATOM     32  C   UNL A   1      35.787  34.202  29.641  1.00  0.00     0.014 A 
ATOM     33  C   UNL A   1      35.193  32.393  31.681  1.00  0.00     0.010 A 
ATOM     34  C   UNL A   1      36.813  33.539  30.300  1.00  0.00     0.010 A 
ATOM     35  C   UNL A   1      36.530  32.633  31.333  1.00  0.00    -0.014 A 
BRANCH  35  36
ATOM     36  C   UNL A   1      37.671  31.983  32.026  1.00  0.00     0.031 A 
ATOM     37  C   UNL A   1      38.133  32.527  33.352  1.00  0.00     0.074 A 
ATOM     38  C   UNL A   1      38.364  31.002  31.415  1.00  0.00     0.049 A 
ATOM     39  N   UNL A   1      39.220  32.253  34.024  1.00  0.00    -0.248 NA
ATOM     40  C   UNL A   1      37.274  33.543  33.986  1.00  0.00     0.031 C 
ATOM     41  C   UNL A   1      38.033  30.404  30.120  1.00  0.00     0.029 A 
ATOM     42  N   UNL A   1      39.513  30.351  31.794  1.00  0.00    -0.354 N 
ATOM     43  C   UNL A   1      39.195  33.088  35.137  1.00  0.00     0.074 A 
ATOM     44  C   UNL A   1      38.011  33.908  35.025  1.00  0.00     0.031 C 
ATOM     45  C   UNL A   1      38.948  29.468  29.819  1.00  0.00     0.029 A 
ATOM     46  C   UNL A   1      39.964  29.441  30.865  1.00  0.00     0.049 A 
ATOM     47  H   UNL A   1      39.970  30.519  32.650  1.00  0.00     0.167 HD
ATOM     48  C   UNL A   1      40.073  33.155  36.165  1.00  0.00     0.031 A 
ATOM     49  C   UNL A   1      41.084  28.691  30.844  1.00  0.00     0.031 A 
ATOM     50  C   UNL A   1      41.238  32.320  36.276  1.00  0.00     0.049 A 
ATOM     51  C   UNL A   1      42.058  28.798  31.987  1.00  0.00     0.074 A 
ATOM     52  C   UNL A   1      42.160  32.268  37.307  1.00  0.00     0.029 A 
ATOM     53  N   UNL A   1      41.640  31.392  35.328  1.00  0.00    -0.354 N 
ATOM     54  N   UNL A   1      41.992  29.555  33.057  1.00  0.00    -0.248 NA
ATOM     55  C   UNL A   1      43.255  27.946  31.926  1.00  0.00     0.031 C 
ATOM     56  C   UNL A   1      43.152  31.348  36.954  1.00  0.00     0.029 A 
ATOM     57  C   UNL A   1      42.809  30.776  35.738  1.00  0.00     0.049 A 
ATOM     58  H   UNL A   1      41.164  31.200  34.487  1.00  0.00     0.167 HD
ATOM     59  C   UNL A   1      43.117  29.242  33.813  1.00  0.00     0.074 A 
ATOM     60  C   UNL A   1      43.845  28.227  33.082  1.00  0.00     0.031 C 
ATOM     61  C   UNL A   1      43.507  29.748  35.009  1.00  0.00     0.031 A 
BRANCH  48  62
ATOM     62  C   UNL A   1      39.811  34.170  37.246  1.00  0.00    -0.014 A 
ATOM     63  C   UNL A   1      39.166  33.811  38.443  1.00  0.00     0.010 A 
ATOM     64  C   UNL A   1      40.253  35.496  37.080  1.00  0.00     0.010 A 
ATOM     65  C   UNL A   1      38.930  34.767  39.435  1.00  0.00     0.020 A 
ATOM     66  C   UNL A   1      40.048  36.447  38.083  1.00  0.00     0.020 A 
ATOM     67  C   UNL A   1      39.372  36.079  39.248  1.00  0.00     0.054 A 
BRANCH  67  68
ATOM     68  S   UNL A   1      39.073  37.291  40.565  1.00  0.00     0.124 S 
ATOM     69  O   UNL A   1      38.497  36.455  41.617  1.00  0.00    -0.237 OA
ATOM     70  O   UNL A   1      40.414  37.804  40.836  1.00  0.00    -0.237 OA
ATOM     71  O   UNL A   1      38.153  38.247  39.956  1.00  0.00    -0.744 OA
ENDBRANCH  67  68
ENDBRANCH  48  62
BRANCH  49  72
ATOM     72  C   UNL A   1      41.343  27.767  29.703  1.00  0.00    -0.014 A 
ATOM     73  C   UNL A   1      40.468  26.700  29.440  1.00  0.00     0.010 A 
ATOM     74  C   UNL A   1      42.458  27.957  28.866  1.00  0.00     0.010 A 
ATOM     75  C   UNL A   1      40.712  25.827  28.376  1.00  0.00     0.020 A 
ATOM     76  C   UNL A   1      42.689  27.106  27.781  1.00  0.00     0.020 A 
ATOM     77  C   UNL A   1      41.821  26.038  27.550  1.00  0.00     0.054 A 
BRANCH  77  78
ATOM     78  S   UNL A   1      42.089  24.918  26.147  1.00  0.00     0.124 S 
ATOM     79  O   UNL A   1      41.131  23.852  26.420  1.00  0.00    -0.237 OA
ATOM     80  O   UNL A   1      41.779  25.770  25.002  1.00  0.00    -0.237 OA
ATOM     81  O   UNL A   1      43.496  24.543  26.272  1.00  0.00    -0.744 OA
ENDBRANCH  77  78
ENDBRANCH  49  72
BRANCH  61  82
ATOM     82  C   UNL A   1      44.744  29.177  35.649  1.00  0.00    -0.014 A 
ATOM     83  C   UNL A   1      44.687  28.042  36.473  1.00  0.00     0.010 A 
ATOM     84  C   UNL A   1      45.999  29.724  35.317  1.00  0.00     0.010 A 
ATOM     85  C   UNL A   1      45.864  27.464  36.958  1.00  0.00     0.020 A 
ATOM     86  C   UNL A   1      47.178  29.133  35.776  1.00  0.00     0.020 A 
ATOM     87  C   UNL A   1      47.102  28.007  36.597  1.00  0.00     0.054 A 
BRANCH  87  88
ATOM     88  S   UNL A   1      48.615  27.179  37.158  1.00  0.00     0.124 S 
ATOM     89  O   UNL A   1      48.949  26.343  36.007  1.00  0.00    -0.237 OA
ATOM     90  O   UNL A   1      49.520  28.300  37.404  1.00  0.00    -0.237 OA
ATOM     91  O   UNL A   1      48.193  26.453  38.353  1.00  0.00    -0.744 OA
ENDBRANCH  87  88
ENDBRANCH  61  82
ENDBRANCH  35  36
ENDBRANCH  27  30
ENDBRANCH  25  26
ENDBRANCH  24  25
ENDBRANCH   1  24
TORSDOF 19
ENDMDL
