MODEL 1
REMARK VINA RESULT:     -10.0      0.000      0.000
REMARK SMILES CSc1ccc(-c2ncc(C(=O)NCCCNC(=O)c3ccc(-c4c5nc(c(-c6ccc(S(=O)(=O)[O-])cc6)c6ccc([nH]6)c(-c6ccc(S(=O)(=O)[O-])cc6)c6nc(c(-c7ccc(S(=O)(=O)[O-])cc7)c7ccc4[nH]7)C=C6)C=C5)cc3)c(=O)[nH]2)cc1
REMARK SMILES IDX 15 1 14 2 13 3 11 4 12 5 10 7 7 8 8 9 82 10 9 11 80 12 81 14
REMARK SMILES IDX 6 15 3 16 4 17 84 18 5 19 83 20 2 21 1 22 16 23 17 24 18 25
REMARK SMILES IDX 19 27 20 28 21 29 79 30 22 31 78 32 23 33 24 34 25 35 72 36
REMARK SMILES IDX 26 37 77 38 71 39 73 40 27 41 76 42 70 43 69 44 28 46 58 47
REMARK SMILES IDX 39 48 57 49 40 50 43 51 56 52 74 53 41 54 42 55 55 57 75 58
REMARK SMILES IDX 44 59 29 60 30 61 38 62 31 63 37 64 32 65 33 66 34 67 35 68
REMARK SMILES IDX 36 69 59 70 60 71 68 72 61 73 67 74 62 75 63 76 64 77 65 78
REMARK SMILES IDX 66 79 45 80 46 81 54 82 47 83 53 84 48 85 49 86 50 87 51 88
REMARK SMILES IDX 52 89
REMARK H PARENT 13 6 82 13 17 26 73 45 43 56
REMARK Flexibility Score: inf
ROOT
ATOM      1  C   UNL A   1      33.445  33.913  28.230  1.00  0.00     0.042 C 
ENDROOT
BRANCH   1   2
ATOM      2  C   UNL A   1      33.953  35.007  29.168  1.00  0.00     0.118 C 
BRANCH   2   3
ATOM      3  N   UNL A   1      33.162  35.081  30.384  1.00  0.00    -0.352 N 
ATOM      4  C   UNL A   1      33.376  34.615  31.644  1.00  0.00     0.258 C 
ATOM      5  O   UNL A   1      32.508  34.884  32.480  1.00  0.00    -0.269 OA
ATOM      6  H   UNL A   1      32.308  35.559  30.276  1.00  0.00     0.163 HD
BRANCH   4   7
ATOM      7  C   UNL A   1      34.607  33.893  32.054  1.00  0.00     0.123 A 
ATOM      8  C   UNL A   1      36.696  32.210  32.673  1.00  0.00     0.140 A 
ATOM      9  N   UNL A   1      35.810  31.791  31.833  1.00  0.00    -0.237 NA
ATOM     10  N   UNL A   1      36.657  33.455  33.239  1.00  0.00    -0.306 N 
ATOM     11  C   UNL A   1      34.765  32.647  31.568  1.00  0.00     0.133 A 
ATOM     12  C   UNL A   1      35.725  34.383  32.882  1.00  0.00     0.264 A 
ATOM     13  H   UNL A   1      37.323  33.686  33.926  1.00  0.00     0.171 HD
ATOM     14  O   UNL A   1      35.886  35.552  33.220  1.00  0.00    -0.269 OA
BRANCH   8  15
ATOM     15  C   UNL A   1      37.846  31.388  33.072  1.00  0.00     0.017 A 
ATOM     16  C   UNL A   1      40.096  29.850  33.709  1.00  0.00     0.007 A 
ATOM     17  C   UNL A   1      40.082  31.227  33.967  1.00  0.00     0.016 A 
ATOM     18  C   UNL A   1      38.955  29.252  33.151  1.00  0.00     0.016 A 
ATOM     19  C   UNL A   1      38.965  31.999  33.641  1.00  0.00     0.013 A 
ATOM     20  C   UNL A   1      37.827  30.015  32.837  1.00  0.00     0.013 A 
BRANCH  16  21
ATOM     21  S   UNL A   1      41.481  28.788  34.092  1.00  0.00    -0.130 SA
ATOM     22  C   UNL A   1      42.701  29.961  34.749  1.00  0.00     0.091 C 
ENDBRANCH  16  21
ENDBRANCH   8  15
ENDBRANCH   4   7
ENDBRANCH   2   3
ENDBRANCH   1   2
BRANCH   1  23
ATOM     23  C   UNL A   1      34.414  32.747  28.058  1.00  0.00     0.118 C 
BRANCH  23  24
ATOM     24  N   UNL A   1      33.725  31.493  27.791  1.00  0.00    -0.352 N 
ATOM     25  C   UNL A   1      34.225  30.223  27.648  1.00  0.00     0.251 C 
ATOM     26  H   UNL A   1      32.747  31.567  27.698  1.00  0.00     0.163 HD
ATOM     27  O   UNL A   1      33.495  29.339  27.207  1.00  0.00    -0.269 OA
BRANCH  25  28
ATOM     28  C   UNL A   1      35.628  29.911  28.007  1.00  0.00     0.039 A 
ATOM     29  C   UNL A   1      35.912  29.496  29.312  1.00  0.00     0.014 A 
ATOM     30  C   UNL A   1      36.670  30.075  27.089  1.00  0.00     0.014 A 
ATOM     31  C   UNL A   1      37.227  29.200  29.681  1.00  0.00     0.010 A 
ATOM     32  C   UNL A   1      37.971  29.713  27.437  1.00  0.00     0.010 A 
ATOM     33  C   UNL A   1      38.265  29.280  28.738  1.00  0.00    -0.014 A 
BRANCH  33  34
ATOM     34  C   UNL A   1      39.660  28.918  29.096  1.00  0.00     0.031 A 
ATOM     35  C   UNL A   1      40.560  29.926  29.761  1.00  0.00     0.074 A 
ATOM     36  C   UNL A   1      40.138  27.701  28.769  1.00  0.00     0.049 A 
ATOM     37  N   UNL A   1      41.822  29.816  30.088  1.00  0.00    -0.248 NA
ATOM     38  C   UNL A   1      39.970  31.238  30.074  1.00  0.00     0.031 C 
ATOM     39  C   UNL A   1      39.379  26.648  28.091  1.00  0.00     0.029 A 
ATOM     40  N   UNL A   1      41.381  27.147  28.953  1.00  0.00    -0.354 N 
ATOM     41  C   UNL A   1      42.183  31.046  30.627  1.00  0.00     0.074 A 
ATOM     42  C   UNL A   1      41.018  31.901  30.543  1.00  0.00     0.031 C 
ATOM     43  C   UNL A   1      40.163  25.570  27.936  1.00  0.00     0.029 A 
ATOM     44  C   UNL A   1      41.491  25.866  28.466  1.00  0.00     0.049 A 
ATOM     45  H   UNL A   1      42.122  27.622  29.392  1.00  0.00     0.167 HD
ATOM     46  C   UNL A   1      43.371  31.426  31.159  1.00  0.00     0.031 A 
ATOM     47  C   UNL A   1      42.542  25.025  28.439  1.00  0.00     0.031 A 
ATOM     48  C   UNL A   1      44.523  30.569  31.251  1.00  0.00     0.049 A 
ATOM     49  C   UNL A   1      43.851  25.468  29.033  1.00  0.00     0.074 A 
ATOM     50  C   UNL A   1      45.754  30.842  31.821  1.00  0.00     0.029 A 
ATOM     51  N   UNL A   1      44.589  29.274  30.759  1.00  0.00    -0.354 N 
ATOM     52  N   UNL A   1      44.155  26.616  29.591  1.00  0.00    -0.248 NA
ATOM     53  C   UNL A   1      44.956  24.499  29.003  1.00  0.00     0.031 C 
ATOM     54  C   UNL A   1      46.580  29.727  31.632  1.00  0.00     0.029 A 
ATOM     55  C   UNL A   1      45.845  28.742  30.993  1.00  0.00     0.049 A 
ATOM     56  H   UNL A   1      43.850  28.803  30.309  1.00  0.00     0.167 HD
ATOM     57  C   UNL A   1      45.478  26.498  30.001  1.00  0.00     0.074 A 
ATOM     58  C   UNL A   1      45.911  25.164  29.640  1.00  0.00     0.031 C 
ATOM     59  C   UNL A   1      46.262  27.412  30.623  1.00  0.00     0.031 A 
BRANCH  46  60
ATOM     60  C   UNL A   1      43.481  32.837  31.675  1.00  0.00    -0.014 A 
ATOM     61  C   UNL A   1      43.125  33.158  32.997  1.00  0.00     0.010 A 
ATOM     62  C   UNL A   1      43.975  33.853  30.836  1.00  0.00     0.010 A 
ATOM     63  C   UNL A   1      43.214  34.474  33.456  1.00  0.00     0.020 A 
ATOM     64  C   UNL A   1      44.093  35.166  31.300  1.00  0.00     0.020 A 
ATOM     65  C   UNL A   1      43.692  35.473  32.602  1.00  0.00     0.054 A 
BRANCH  65  66
ATOM     66  S   UNL A   1      43.807  37.171  33.226  1.00  0.00     0.124 S 
ATOM     67  O   UNL A   1      42.593  37.278  34.032  1.00  0.00    -0.237 OA
ATOM     68  O   UNL A   1      45.059  37.154  33.979  1.00  0.00    -0.237 OA
ATOM     69  O   UNL A   1      43.823  37.987  32.014  1.00  0.00    -0.744 OA
ENDBRANCH  65  66
ENDBRANCH  46  60
BRANCH  47  70
ATOM     70  C   UNL A   1      42.391  23.670  27.842  1.00  0.00    -0.014 A 
ATOM     71  C   UNL A   1      42.744  23.440  26.502  1.00  0.00     0.010 A 
ATOM     72  C   UNL A   1      41.921  22.596  28.620  1.00  0.00     0.010 A 
ATOM     73  C   UNL A   1      42.619  22.162  25.945  1.00  0.00     0.020 A 
ATOM     74  C   UNL A   1      41.820  21.313  28.076  1.00  0.00     0.020 A 
ATOM     75  C   UNL A   1      42.161  21.106  26.738  1.00  0.00     0.054 A 
BRANCH  75  76
ATOM     76  S   UNL A   1      42.069  19.445  26.015  1.00  0.00     0.124 S 
ATOM     77  O   UNL A   1      42.577  18.611  27.101  1.00  0.00    -0.237 OA
ATOM     78  O   UNL A   1      40.644  19.305  25.723  1.00  0.00    -0.237 OA
ATOM     79  O   UNL A   1      42.930  19.536  24.838  1.00  0.00    -0.744 OA
ENDBRANCH  75  76
ENDBRANCH  47  70
BRANCH  59  80
ATOM     80  C   UNL A   1      47.664  26.992  30.979  1.00  0.00    -0.014 A 
ATOM     81  C   UNL A   1      48.707  27.065  30.040  1.00  0.00     0.010 A 
ATOM     82  C   UNL A   1      47.948  26.570  32.292  1.00  0.00     0.010 A 
ATOM     83  C   UNL A   1      50.005  26.693  30.399  1.00  0.00     0.020 A 
ATOM     84  C   UNL A   1      49.250  26.223  32.661  1.00  0.00     0.020 A 
ATOM     85  C   UNL A   1      50.269  26.274  31.707  1.00  0.00     0.054 A 
BRANCH  85  86
ATOM     86  S   UNL A   1      51.971  25.840  32.160  1.00  0.00     0.124 S 
ATOM     87  O   UNL A   1      52.740  26.473  31.091  1.00  0.00    -0.237 OA
ATOM     88  O   UNL A   1      52.116  26.445  33.482  1.00  0.00    -0.237 OA
ATOM     89  O   UNL A   1      51.971  24.378  32.147  1.00  0.00    -0.744 OA
ENDBRANCH  85  86
ENDBRANCH  59  80
ENDBRANCH  33  34
ENDBRANCH  25  28
ENDBRANCH  23  24
ENDBRANCH   1  23
TORSDOF 15
ENDMDL
MODEL 2
REMARK VINA RESULT:      -9.8      4.141      7.083
REMARK SMILES CSc1ccc(-c2ncc(C(=O)NCCCNC(=O)c3ccc(-c4c5nc(c(-c6ccc(S(=O)(=O)[O-])cc6)c6ccc([nH]6)c(-c6ccc(S(=O)(=O)[O-])cc6)c6nc(c(-c7ccc(S(=O)(=O)[O-])cc7)c7ccc4[nH]7)C=C6)C=C5)cc3)c(=O)[nH]2)cc1
REMARK SMILES IDX 15 1 14 2 13 3 11 4 12 5 10 7 7 8 8 9 82 10 9 11 80 12 81 14
REMARK SMILES IDX 6 15 3 16 4 17 84 18 5 19 83 20 2 21 1 22 16 23 17 24 18 25
REMARK SMILES IDX 19 27 20 28 21 29 79 30 22 31 78 32 23 33 24 34 25 35 72 36
REMARK SMILES IDX 26 37 77 38 71 39 73 40 27 41 76 42 70 43 69 44 28 46 58 47
REMARK SMILES IDX 39 48 57 49 40 50 43 51 56 52 74 53 41 54 42 55 55 57 75 58
REMARK SMILES IDX 44 59 29 60 30 61 38 62 31 63 37 64 32 65 33 66 34 67 35 68
REMARK SMILES IDX 36 69 59 70 60 71 68 72 61 73 67 74 62 75 63 76 64 77 65 78
REMARK SMILES IDX 66 79 45 80 46 81 54 82 47 83 53 84 48 85 49 86 50 87 51 88
REMARK SMILES IDX 52 89
REMARK H PARENT 13 6 82 13 17 26 73 45 43 56
REMARK Flexibility Score: inf
ROOT
ATOM      1  C   UNL A   1      33.978  27.968  25.481  1.00  0.00     0.042 C 
ENDROOT
BRANCH   1   2
ATOM      2  C   UNL A   1      32.807  27.429  24.659  1.00  0.00     0.118 C 
BRANCH   2   3
ATOM      3  N   UNL A   1      33.165  27.264  23.261  1.00  0.00    -0.352 N 
ATOM      4  C   UNL A   1      33.297  26.161  22.474  1.00  0.00     0.258 C 
ATOM      5  O   UNL A   1      33.581  26.367  21.290  1.00  0.00    -0.269 OA
ATOM      6  H   UNL A   1      33.348  28.110  22.794  1.00  0.00     0.163 HD
BRANCH   4   7
ATOM      7  C   UNL A   1      33.040  24.778  22.950  1.00  0.00     0.123 A 
ATOM      8  C   UNL A   1      32.973  22.149  23.762  1.00  0.00     0.140 A 
ATOM      9  N   UNL A   1      34.122  22.735  23.707  1.00  0.00    -0.237 NA
ATOM     10  N   UNL A   1      31.797  22.782  23.467  1.00  0.00    -0.306 N 
ATOM     11  C   UNL A   1      34.122  24.041  23.270  1.00  0.00     0.133 A 
ATOM     12  C   UNL A   1      31.745  24.114  23.182  1.00  0.00     0.264 A 
ATOM     13  H   UNL A   1      30.963  22.259  23.459  1.00  0.00     0.171 HD
ATOM     14  O   UNL A   1      30.657  24.682  23.180  1.00  0.00    -0.269 OA
BRANCH   8  15
ATOM     15  C   UNL A   1      32.829  20.747  24.179  1.00  0.00     0.017 A 
ATOM     16  C   UNL A   1      32.695  18.063  24.956  1.00  0.00     0.007 A 
ATOM     17  C   UNL A   1      32.966  19.061  25.900  1.00  0.00     0.016 A 
ATOM     18  C   UNL A   1      32.466  18.433  23.621  1.00  0.00     0.016 A 
ATOM     19  C   UNL A   1      33.044  20.401  25.514  1.00  0.00     0.013 A 
ATOM     20  C   UNL A   1      32.527  19.774  23.230  1.00  0.00     0.013 A 
BRANCH  16  21
ATOM     21  S   UNL A   1      32.578  16.326  25.362  1.00  0.00    -0.130 SA
ATOM     22  C   UNL A   1      34.303  15.778  25.231  1.00  0.00     0.091 C 
ENDBRANCH  16  21
ENDBRANCH   8  15
ENDBRANCH   4   7
ENDBRANCH   2   3
ENDBRANCH   1   2
BRANCH   1  23
ATOM     23  C   UNL A   1      33.643  28.208  26.950  1.00  0.00     0.118 C 
BRANCH  23  24
ATOM     24  N   UNL A   1      33.515  29.624  27.261  1.00  0.00    -0.352 N 
ATOM     25  C   UNL A   1      34.369  30.462  27.934  1.00  0.00     0.251 C 
ATOM     26  H   UNL A   1      32.686  30.047  26.939  1.00  0.00     0.163 HD
ATOM     27  O   UNL A   1      33.969  31.571  28.279  1.00  0.00    -0.269 OA
BRANCH  25  28
ATOM     28  C   UNL A   1      35.753  30.043  28.256  1.00  0.00     0.039 A 
ATOM     29  C   UNL A   1      36.727  30.117  27.256  1.00  0.00     0.014 A 
ATOM     30  C   UNL A   1      36.085  29.528  29.512  1.00  0.00     0.014 A 
ATOM     31  C   UNL A   1      38.041  29.724  27.529  1.00  0.00     0.010 A 
ATOM     32  C   UNL A   1      37.409  29.200  29.804  1.00  0.00     0.010 A 
ATOM     33  C   UNL A   1      38.399  29.287  28.815  1.00  0.00    -0.014 A 
BRANCH  33  34
ATOM     34  C   UNL A   1      39.800  28.916  29.139  1.00  0.00     0.031 A 
ATOM     35  C   UNL A   1      40.724  29.921  29.777  1.00  0.00     0.074 A 
ATOM     36  C   UNL A   1      40.260  27.695  28.804  1.00  0.00     0.049 A 
ATOM     37  N   UNL A   1      41.993  29.802  30.073  1.00  0.00    -0.248 NA
ATOM     38  C   UNL A   1      40.152  31.238  30.100  1.00  0.00     0.031 C 
ATOM     39  C   UNL A   1      39.477  26.646  28.149  1.00  0.00     0.029 A 
ATOM     40  N   UNL A   1      41.503  27.133  28.959  1.00  0.00    -0.354 N 
ATOM     41  C   UNL A   1      42.376  31.031  30.598  1.00  0.00     0.074 A 
ATOM     42  C   UNL A   1      41.216  31.895  30.540  1.00  0.00     0.031 C 
ATOM     43  C   UNL A   1      40.249  25.560  27.979  1.00  0.00     0.029 A 
ATOM     44  C   UNL A   1      41.592  25.849  28.475  1.00  0.00     0.049 A 
ATOM     45  H   UNL A   1      42.259  27.604  29.378  1.00  0.00     0.167 HD
ATOM     46  C   UNL A   1      43.579  31.404  31.099  1.00  0.00     0.031 A 
ATOM     47  C   UNL A   1      42.636  25.000  28.425  1.00  0.00     0.031 A 
ATOM     48  C   UNL A   1      44.727  30.539  31.165  1.00  0.00     0.049 A 
ATOM     49  C   UNL A   1      43.963  25.436  28.984  1.00  0.00     0.074 A 
ATOM     50  C   UNL A   1      45.975  30.805  31.703  1.00  0.00     0.029 A 
ATOM     51  N   UNL A   1      44.771  29.242  30.677  1.00  0.00    -0.354 N 
ATOM     52  N   UNL A   1      44.289  26.583  29.530  1.00  0.00    -0.248 NA
ATOM     53  C   UNL A   1      45.059  24.459  28.930  1.00  0.00     0.031 C 
ATOM     54  C   UNL A   1      46.787  29.684  31.498  1.00  0.00     0.029 A 
ATOM     55  C   UNL A   1      46.029  28.701  30.881  1.00  0.00     0.049 A 
ATOM     56  H   UNL A   1      44.018  28.775  30.247  1.00  0.00     0.167 HD
ATOM     57  C   UNL A   1      45.621  26.457  29.908  1.00  0.00     0.074 A 
ATOM     58  C   UNL A   1      46.035  25.118  29.540  1.00  0.00     0.031 C 
ATOM     59  C   UNL A   1      46.427  27.367  30.506  1.00  0.00     0.031 A 
BRANCH  46  60
ATOM     60  C   UNL A   1      43.713  32.817  31.606  1.00  0.00    -0.014 A 
ATOM     61  C   UNL A   1      44.109  33.861  30.751  1.00  0.00     0.010 A 
ATOM     62  C   UNL A   1      43.412  33.111  32.948  1.00  0.00     0.010 A 
ATOM     63  C   UNL A   1      44.248  35.163  31.239  1.00  0.00     0.020 A 
ATOM     64  C   UNL A   1      43.522  34.417  33.434  1.00  0.00     0.020 A 
ATOM     65  C   UNL A   1      43.960  35.432  32.580  1.00  0.00     0.054 A 
BRANCH  65  66
ATOM     66  S   UNL A   1      44.138  37.132  33.186  1.00  0.00     0.124 S 
ATOM     67  O   UNL A   1      44.157  37.894  31.940  1.00  0.00    -0.237 OA
ATOM     68  O   UNL A   1      42.945  37.307  34.010  1.00  0.00    -0.237 OA
ATOM     69  O   UNL A   1      45.401  37.109  33.920  1.00  0.00    -0.744 OA
ENDBRANCH  65  66
ENDBRANCH  46  60
BRANCH  47  70
ATOM     70  C   UNL A   1      42.460  23.644  27.837  1.00  0.00    -0.014 A 
ATOM     71  C   UNL A   1      42.644  23.436  26.459  1.00  0.00     0.010 A 
ATOM     72  C   UNL A   1      42.137  22.548  28.657  1.00  0.00     0.010 A 
ATOM     73  C   UNL A   1      42.496  22.159  25.909  1.00  0.00     0.020 A 
ATOM     74  C   UNL A   1      42.015  21.265  28.116  1.00  0.00     0.020 A 
ATOM     75  C   UNL A   1      42.186  21.080  26.743  1.00  0.00     0.054 A 
BRANCH  75  76
ATOM     76  S   UNL A   1      42.063  19.421  26.018  1.00  0.00     0.124 S 
ATOM     77  O   UNL A   1      40.631  19.309  25.757  1.00  0.00    -0.237 OA
ATOM     78  O   UNL A   1      42.916  19.528  24.837  1.00  0.00    -0.237 OA
ATOM     79  O   UNL A   1      42.579  18.550  27.071  1.00  0.00    -0.744 OA
ENDBRANCH  75  76
ENDBRANCH  47  70
BRANCH  59  80
ATOM     80  C   UNL A   1      47.834  26.938  30.829  1.00  0.00    -0.014 A 
ATOM     81  C   UNL A   1      48.877  27.104  29.901  1.00  0.00     0.010 A 
ATOM     82  C   UNL A   1      48.123  26.411  32.101  1.00  0.00     0.010 A 
ATOM     83  C   UNL A   1      50.180  26.722  30.230  1.00  0.00     0.020 A 
ATOM     84  C   UNL A   1      49.429  26.052  32.443  1.00  0.00     0.020 A 
ATOM     85  C   UNL A   1      50.448  26.197  31.499  1.00  0.00     0.054 A 
BRANCH  85  86
ATOM     86  S   UNL A   1      52.155  25.751  31.918  1.00  0.00     0.124 S 
ATOM     87  O   UNL A   1      52.057  24.302  32.085  1.00  0.00    -0.237 OA
ATOM     88  O   UNL A   1      52.902  26.200  30.746  1.00  0.00    -0.237 OA
ATOM     89  O   UNL A   1      52.419  26.502  33.143  1.00  0.00    -0.744 OA
ENDBRANCH  85  86
ENDBRANCH  59  80
ENDBRANCH  33  34
ENDBRANCH  25  28
ENDBRANCH  23  24
ENDBRANCH   1  23
TORSDOF 15
ENDMDL
MODEL 3
REMARK VINA RESULT:      -9.6      3.056     10.824
REMARK SMILES CSc1ccc(-c2ncc(C(=O)NCCCNC(=O)c3ccc(-c4c5nc(c(-c6ccc(S(=O)(=O)[O-])cc6)c6ccc([nH]6)c(-c6ccc(S(=O)(=O)[O-])cc6)c6nc(c(-c7ccc(S(=O)(=O)[O-])cc7)c7ccc4[nH]7)C=C6)C=C5)cc3)c(=O)[nH]2)cc1
REMARK SMILES IDX 15 1 14 2 13 3 11 4 12 5 10 7 7 8 8 9 82 10 9 11 80 12 81 14
REMARK SMILES IDX 6 15 3 16 4 17 84 18 5 19 83 20 2 21 1 22 16 23 17 24 18 25
REMARK SMILES IDX 19 27 20 28 21 29 79 30 22 31 78 32 23 33 24 34 25 35 72 36
REMARK SMILES IDX 26 37 77 38 71 39 73 40 27 41 76 42 70 43 69 44 28 46 58 47
REMARK SMILES IDX 39 48 57 49 40 50 43 51 56 52 74 53 41 54 42 55 55 57 75 58
REMARK SMILES IDX 44 59 29 60 30 61 38 62 31 63 37 64 32 65 33 66 34 67 35 68
REMARK SMILES IDX 36 69 59 70 60 71 68 72 61 73 67 74 62 75 63 76 64 77 65 78
REMARK SMILES IDX 66 79 45 80 46 81 54 82 47 83 53 84 48 85 49 86 50 87 51 88
REMARK SMILES IDX 52 89
REMARK H PARENT 13 6 82 13 17 26 73 45 43 56
REMARK Flexibility Score: inf
ROOT
ATOM      1  C   UNL A   1      41.612  21.183  26.131  1.00  0.00     0.042 C 
ENDROOT
BRANCH   1   2
ATOM      2  C   UNL A   1      42.753  22.183  26.315  1.00  0.00     0.118 C 
BRANCH   2   3
ATOM      3  N   UNL A   1      43.567  22.295  25.117  1.00  0.00    -0.352 N 
ATOM      4  C   UNL A   1      44.331  23.305  24.620  1.00  0.00     0.258 C 
ATOM      5  O   UNL A   1      44.943  23.064  23.575  1.00  0.00    -0.269 OA
ATOM      6  H   UNL A   1      43.564  21.486  24.556  1.00  0.00     0.163 HD
BRANCH   4   7
ATOM      7  C   UNL A   1      44.514  24.609  25.308  1.00  0.00     0.123 A 
ATOM      8  C   UNL A   1      44.598  27.181  26.287  1.00  0.00     0.140 A 
ATOM      9  N   UNL A   1      43.635  26.870  25.484  1.00  0.00    -0.237 NA
ATOM     10  N   UNL A   1      45.550  26.286  26.690  1.00  0.00    -0.306 N 
ATOM     11  C   UNL A   1      43.640  25.585  24.992  1.00  0.00     0.133 A 
ATOM     12  C   UNL A   1      45.497  24.968  26.347  1.00  0.00     0.264 A 
ATOM     13  H   UNL A   1      46.298  26.605  27.246  1.00  0.00     0.171 HD
ATOM     14  O   UNL A   1      46.217  24.167  26.936  1.00  0.00    -0.269 OA
BRANCH   8  15
ATOM     15  C   UNL A   1      44.734  28.526  26.860  1.00  0.00     0.017 A 
ATOM     16  C   UNL A   1      44.961  31.035  28.078  1.00  0.00     0.007 A 
ATOM     17  C   UNL A   1      46.056  30.162  28.045  1.00  0.00     0.016 A 
ATOM     18  C   UNL A   1      43.759  30.641  27.469  1.00  0.00     0.016 A 
ATOM     19  C   UNL A   1      45.943  28.905  27.447  1.00  0.00     0.013 A 
ATOM     20  C   UNL A   1      43.643  29.392  26.855  1.00  0.00     0.013 A 
BRANCH  16  21
ATOM     21  S   UNL A   1      45.017  32.659  28.823  1.00  0.00    -0.130 SA
ATOM     22  C   UNL A   1      46.616  32.641  29.679  1.00  0.00     0.091 C 
ENDBRANCH  16  21
ENDBRANCH   8  15
ENDBRANCH   4   7
ENDBRANCH   2   3
ENDBRANCH   1   2
BRANCH   1  23
ATOM     23  C   UNL A   1      40.342  21.548  26.891  1.00  0.00     0.118 C 
BRANCH  23  24
ATOM     24  N   UNL A   1      39.286  22.018  26.006  1.00  0.00    -0.352 N 
ATOM     25  C   UNL A   1      38.640  23.228  25.966  1.00  0.00     0.251 C 
ATOM     26  H   UNL A   1      38.987  21.365  25.332  1.00  0.00     0.163 HD
ATOM     27  O   UNL A   1      37.626  23.342  25.282  1.00  0.00    -0.269 OA
BRANCH  25  28
ATOM     28  C   UNL A   1      39.144  24.388  26.739  1.00  0.00     0.039 A 
ATOM     29  C   UNL A   1      40.012  25.287  26.112  1.00  0.00     0.014 A 
ATOM     30  C   UNL A   1      38.813  24.565  28.085  1.00  0.00     0.014 A 
ATOM     31  C   UNL A   1      40.507  26.388  26.818  1.00  0.00     0.010 A 
ATOM     32  C   UNL A   1      39.252  25.700  28.768  1.00  0.00     0.010 A 
ATOM     33  C   UNL A   1      40.109  26.618  28.145  1.00  0.00    -0.014 A 
BRANCH  33  34
ATOM     34  C   UNL A   1      40.582  27.810  28.894  1.00  0.00     0.031 A 
ATOM     35  C   UNL A   1      41.943  27.811  29.540  1.00  0.00     0.074 A 
ATOM     36  C   UNL A   1      39.763  28.869  29.047  1.00  0.00     0.049 A 
ATOM     37  N   UNL A   1      42.501  28.730  30.287  1.00  0.00    -0.248 NA
ATOM     38  C   UNL A   1      42.773  26.613  29.341  1.00  0.00     0.031 C 
ATOM     39  C   UNL A   1      38.408  28.977  28.502  1.00  0.00     0.029 A 
ATOM     40  N   UNL A   1      39.946  30.055  29.714  1.00  0.00    -0.354 N 
ATOM     41  C   UNL A   1      43.736  28.214  30.663  1.00  0.00     0.074 A 
ATOM     42  C   UNL A   1      43.828  26.885  30.097  1.00  0.00     0.031 C 
ATOM     43  C   UNL A   1      37.892  30.170  28.837  1.00  0.00     0.029 A 
ATOM     44  C   UNL A   1      38.860  30.896  29.653  1.00  0.00     0.049 A 
ATOM     45  H   UNL A   1      40.777  30.281  30.191  1.00  0.00     0.167 HD
ATOM     46  C   UNL A   1      44.713  28.799  31.398  1.00  0.00     0.031 A 
ATOM     47  C   UNL A   1      38.659  32.111  30.199  1.00  0.00     0.031 A 
ATOM     48  C   UNL A   1      44.623  30.125  31.949  1.00  0.00     0.049 A 
ATOM     49  C   UNL A   1      39.757  32.740  31.013  1.00  0.00     0.074 A 
ATOM     50  C   UNL A   1      45.579  30.827  32.662  1.00  0.00     0.029 A 
ATOM     51  N   UNL A   1      43.511  30.949  31.853  1.00  0.00    -0.354 N 
ATOM     52  N   UNL A   1      40.942  32.259  31.307  1.00  0.00    -0.248 NA
ATOM     53  C   UNL A   1      39.494  34.078  31.559  1.00  0.00     0.031 C 
ATOM     54  C   UNL A   1      45.028  32.059  33.036  1.00  0.00     0.029 A 
ATOM     55  C   UNL A   1      43.749  32.144  32.510  1.00  0.00     0.049 A 
ATOM     56  H   UNL A   1      42.676  30.717  31.385  1.00  0.00     0.167 HD
ATOM     57  C   UNL A   1      41.575  33.247  32.052  1.00  0.00     0.074 A 
ATOM     58  C   UNL A   1      40.648  34.356  32.151  1.00  0.00     0.031 C 
ATOM     59  C   UNL A   1      42.814  33.238  32.602  1.00  0.00     0.031 A 
BRANCH  46  60
ATOM     60  C   UNL A   1      45.964  27.998  31.654  1.00  0.00    -0.014 A 
ATOM     61  C   UNL A   1      45.976  26.951  32.594  1.00  0.00     0.010 A 
ATOM     62  C   UNL A   1      47.135  28.274  30.925  1.00  0.00     0.010 A 
ATOM     63  C   UNL A   1      47.147  26.229  32.836  1.00  0.00     0.020 A 
ATOM     64  C   UNL A   1      48.301  27.535  31.143  1.00  0.00     0.020 A 
ATOM     65  C   UNL A   1      48.306  26.530  32.113  1.00  0.00     0.054 A 
BRANCH  65  66
ATOM     66  S   UNL A   1      49.810  25.571  32.439  1.00  0.00     0.124 S 
ATOM     67  O   UNL A   1      50.008  24.882  31.166  1.00  0.00    -0.237 OA
ATOM     68  O   UNL A   1      50.791  26.607  32.750  1.00  0.00    -0.237 OA
ATOM     69  O   UNL A   1      49.439  24.712  33.561  1.00  0.00    -0.744 OA
ENDBRANCH  65  66
ENDBRANCH  46  60
BRANCH  47  70
ATOM     70  C   UNL A   1      37.370  32.818  29.976  1.00  0.00    -0.014 A 
ATOM     71  C   UNL A   1      37.216  33.690  28.884  1.00  0.00     0.010 A 
ATOM     72  C   UNL A   1      36.278  32.601  30.837  1.00  0.00     0.010 A 
ATOM     73  C   UNL A   1      35.998  34.341  28.663  1.00  0.00     0.020 A 
ATOM     74  C   UNL A   1      35.052  33.229  30.604  1.00  0.00     0.020 A 
ATOM     75  C   UNL A   1      34.922  34.103  29.523  1.00  0.00     0.054 A 
BRANCH  75  76
ATOM     76  S   UNL A   1      33.333  34.908  29.181  1.00  0.00     0.124 S 
ATOM     77  O   UNL A   1      32.760  34.030  28.164  1.00  0.00    -0.237 OA
ATOM     78  O   UNL A   1      32.676  34.880  30.485  1.00  0.00    -0.237 OA
ATOM     79  O   UNL A   1      33.717  36.239  28.716  1.00  0.00    -0.744 OA
ENDBRANCH  75  76
ENDBRANCH  47  70
BRANCH  59  80
ATOM     80  C   UNL A   1      43.254  34.475  33.339  1.00  0.00    -0.014 A 
ATOM     81  C   UNL A   1      43.077  34.597  34.728  1.00  0.00     0.010 A 
ATOM     82  C   UNL A   1      43.901  35.507  32.635  1.00  0.00     0.010 A 
ATOM     83  C   UNL A   1      43.514  35.744  35.396  1.00  0.00     0.020 A 
ATOM     84  C   UNL A   1      44.363  36.643  33.304  1.00  0.00     0.020 A 
ATOM     85  C   UNL A   1      44.153  36.761  34.680  1.00  0.00     0.054 A 
BRANCH  85  86
ATOM     86  S   UNL A   1      44.752  38.219  35.576  1.00  0.00     0.124 S 
ATOM     87  O   UNL A   1      44.229  37.984  36.920  1.00  0.00    -0.237 OA
ATOM     88  O   UNL A   1      46.202  38.110  35.437  1.00  0.00    -0.237 OA
ATOM     89  O   UNL A   1      44.146  39.340  34.859  1.00  0.00    -0.744 OA
ENDBRANCH  85  86
ENDBRANCH  59  80
ENDBRANCH  33  34
ENDBRANCH  25  28
ENDBRANCH  23  24
ENDBRANCH   1  23
TORSDOF 15
ENDMDL
