MODEL 1
REMARK VINA RESULT:     -11.4      0.000      0.000
REMARK SMILES C[C@@H](C(=O)NCCCNC(=O)c1ccc(-c2c3nc(c(-c4ccc(S(=O)(=O)[O-])cc4)c4ccc([nH]4)c(-c4ccc(S(=O)(=O)[O-])cc4)c4nc(c(-c5ccc(S(=O)(=O)[O-])cc5)c5ccc2[nH]5)C=C4)C=C3)cc1)c1cc(/C=C/S(C)(=O)=O)cc(C(=O)c2ccccc2)c1
REMARK SMILES IDX 7 1 6 2 5 3 3 4 4 5 2 7 1 8 72 9 73 10 91 11 74 12 82 13
REMARK SMILES IDX 81 14 75 15 76 16 77 17 78 18 79 19 80 20 83 21 84 22 85 23
REMARK SMILES IDX 86 24 90 25 87 26 89 27 88 28 8 29 9 30 10 31 11 33 12 34
REMARK SMILES IDX 13 35 71 36 14 37 70 38 15 39 16 40 17 41 64 42 18 43 69 44
REMARK SMILES IDX 63 45 65 46 19 47 68 48 62 49 61 50 20 52 50 53 31 54 49 55
REMARK SMILES IDX 32 56 35 57 48 58 66 59 33 60 34 61 47 63 67 64 36 65 21 66
REMARK SMILES IDX 22 67 30 68 23 69 29 70 24 71 25 72 26 73 27 74 28 75 51 76
REMARK SMILES IDX 52 77 60 78 53 79 59 80 54 81 55 82 56 83 57 84 58 85 37 86
REMARK SMILES IDX 38 87 46 88 39 89 45 90 40 91 41 92 42 93 43 94 44 95
REMARK H PARENT 5 6 9 32 65 51 35 62
REMARK Flexibility Score: inf
ROOT
ATOM      1  C   UNL A   1      36.251  23.712  24.640  1.00  0.00     0.042 C 
ENDROOT
BRANCH   1   2
ATOM      2  C   UNL A   1      34.852  24.315  24.629  1.00  0.00     0.117 C 
BRANCH   2   3
ATOM      3  N   UNL A   1      34.384  24.549  23.279  1.00  0.00    -0.356 N 
ATOM      4  C   UNL A   1      33.125  24.701  22.784  1.00  0.00     0.227 C 
ATOM      5  O   UNL A   1      33.058  24.852  21.561  1.00  0.00    -0.274 OA
ATOM      6  H   UNL A   1      35.097  24.610  22.604  1.00  0.00     0.163 HD
BRANCH   4   7
ATOM      7  C   UNL A   1      31.906  24.730  23.735  1.00  0.00     0.105 C 
ATOM      8  C   UNL A   1      30.652  24.106  23.128  1.00  0.00     0.023 C 
BRANCH   7   9
ATOM      9  C   UNL A   1      31.555  26.118  24.268  1.00  0.00    -0.035 A 
ATOM     10  C   UNL A   1      30.702  26.985  23.576  1.00  0.00     0.012 A 
ATOM     11  C   UNL A   1      32.064  26.541  25.502  1.00  0.00     0.016 A 
ATOM     12  C   UNL A   1      30.498  28.311  23.978  1.00  0.00    -0.024 A 
ATOM     13  C   UNL A   1      31.809  27.835  25.978  1.00  0.00     0.023 A 
ATOM     14  C   UNL A   1      31.041  28.719  25.201  1.00  0.00     0.020 A 
BRANCH  12  15
ATOM     15  C   UNL A   1      29.769  29.271  23.126  1.00  0.00     0.020 C 
ATOM     16  C   UNL A   1      29.338  30.463  23.571  1.00  0.00     0.106 C 
BRANCH  16  17
ATOM     17  S   UNL A   1      28.380  31.498  22.565  1.00  0.00     0.168 S 
ATOM     18  C   UNL A   1      28.162  30.469  21.131  1.00  0.00     0.163 C 
ATOM     19  O   UNL A   1      27.074  31.662  23.177  1.00  0.00    -0.225 OA
ATOM     20  O   UNL A   1      29.151  32.653  22.149  1.00  0.00    -0.225 OA
ENDBRANCH  16  17
ENDBRANCH  12  15
BRANCH  13  21
ATOM     21  C   UNL A   1      32.308  28.294  27.309  1.00  0.00     0.193 C 
ATOM     22  O   UNL A   1      31.799  27.870  28.342  1.00  0.00    -0.289 OA
BRANCH  21  23
ATOM     23  C   UNL A   1      33.454  29.225  27.422  1.00  0.00     0.022 A 
ATOM     24  C   UNL A   1      34.749  28.698  27.374  1.00  0.00     0.012 A 
ATOM     25  C   UNL A   1      33.259  30.603  27.571  1.00  0.00     0.012 A 
ATOM     26  C   UNL A   1      35.849  29.555  27.427  1.00  0.00     0.001 A 
ATOM     27  C   UNL A   1      34.363  31.456  27.618  1.00  0.00     0.001 A 
ATOM     28  C   UNL A   1      35.654  30.934  27.539  1.00  0.00     0.000 A 
ENDBRANCH  21  23
ENDBRANCH  13  21
ENDBRANCH   7   9
ENDBRANCH   4   7
ENDBRANCH   2   3
ENDBRANCH   1   2
BRANCH   1  29
ATOM     29  C   UNL A   1      36.764  23.345  26.029  1.00  0.00     0.118 C 
BRANCH  29  30
ATOM     30  N   UNL A   1      37.763  22.287  26.000  1.00  0.00    -0.352 N 
ATOM     31  C   UNL A   1      39.106  22.352  26.284  1.00  0.00     0.251 C 
ATOM     32  H   UNL A   1      37.429  21.399  25.740  1.00  0.00     0.163 HD
ATOM     33  O   UNL A   1      39.833  21.397  26.025  1.00  0.00    -0.269 OA
BRANCH  31  34
ATOM     34  C   UNL A   1      39.670  23.581  26.880  1.00  0.00     0.039 A 
ATOM     35  C   UNL A   1      40.426  23.486  28.051  1.00  0.00     0.014 A 
ATOM     36  C   UNL A   1      39.468  24.821  26.271  1.00  0.00     0.014 A 
ATOM     37  C   UNL A   1      41.046  24.627  28.568  1.00  0.00     0.010 A 
ATOM     38  C   UNL A   1      40.152  25.938  26.739  1.00  0.00     0.010 A 
ATOM     39  C   UNL A   1      40.948  25.853  27.892  1.00  0.00    -0.014 A 
BRANCH  39  40
ATOM     40  C   UNL A   1      41.665  27.067  28.359  1.00  0.00     0.031 A 
ATOM     41  C   UNL A   1      40.885  28.239  28.888  1.00  0.00     0.074 A 
ATOM     42  C   UNL A   1      43.001  27.158  28.207  1.00  0.00     0.049 A 
ATOM     43  N   UNL A   1      41.306  29.435  29.206  1.00  0.00    -0.248 NA
ATOM     44  C   UNL A   1      39.434  28.049  29.044  1.00  0.00     0.031 C 
ATOM     45  C   UNL A   1      43.866  26.105  27.671  1.00  0.00     0.029 A 
ATOM     46  N   UNL A   1      43.862  28.197  28.462  1.00  0.00    -0.354 N 
ATOM     47  C   UNL A   1      40.171  30.148  29.575  1.00  0.00     0.074 A 
ATOM     48  C   UNL A   1      39.040  29.265  29.391  1.00  0.00     0.031 C 
ATOM     49  C   UNL A   1      45.132  26.552  27.640  1.00  0.00     0.029 A 
ATOM     50  C   UNL A   1      45.163  27.936  28.104  1.00  0.00     0.049 A 
ATOM     51  H   UNL A   1      43.574  29.049  28.865  1.00  0.00     0.167 HD
ATOM     52  C   UNL A   1      40.080  31.418  30.037  1.00  0.00     0.031 A 
ATOM     53  C   UNL A   1      46.256  28.725  28.117  1.00  0.00     0.031 A 
ATOM     54  C   UNL A   1      41.209  32.291  30.213  1.00  0.00     0.049 A 
ATOM     55  C   UNL A   1      46.135  30.139  28.616  1.00  0.00     0.074 A 
ATOM     56  C   UNL A   1      41.232  33.575  30.728  1.00  0.00     0.029 A 
ATOM     57  N   UNL A   1      42.516  31.973  29.871  1.00  0.00    -0.354 N 
ATOM     58  N   UNL A   1      45.065  30.774  29.029  1.00  0.00    -0.248 NA
ATOM     59  C   UNL A   1      47.367  30.938  28.665  1.00  0.00     0.031 C 
ATOM     60  C   UNL A   1      42.541  34.056  30.639  1.00  0.00     0.029 A 
ATOM     61  C   UNL A   1      43.348  33.048  30.135  1.00  0.00     0.049 A 
ATOM     62  H   UNL A   1      42.808  31.111  29.494  1.00  0.00     0.167 HD
ATOM     63  C   UNL A   1      45.497  32.039  29.412  1.00  0.00     0.074 A 
ATOM     64  C   UNL A   1      46.928  32.076  29.186  1.00  0.00     0.031 C 
ATOM     65  C   UNL A   1      44.774  33.071  29.911  1.00  0.00     0.031 A 
BRANCH  52  66
ATOM     66  C   UNL A   1      38.702  31.941  30.353  1.00  0.00    -0.014 A 
ATOM     67  C   UNL A   1      38.032  32.816  29.477  1.00  0.00     0.010 A 
ATOM     68  C   UNL A   1      38.065  31.552  31.546  1.00  0.00     0.010 A 
ATOM     69  C   UNL A   1      36.787  33.348  29.822  1.00  0.00     0.020 A 
ATOM     70  C   UNL A   1      36.803  32.053  31.878  1.00  0.00     0.020 A 
ATOM     71  C   UNL A   1      36.184  32.970  31.026  1.00  0.00     0.054 A 
BRANCH  71  72
ATOM     72  S   UNL A   1      34.581  33.695  31.460  1.00  0.00     0.124 S 
ATOM     73  O   UNL A   1      34.009  32.664  32.323  1.00  0.00    -0.237 OA
ATOM     74  O   UNL A   1      34.961  34.935  32.132  1.00  0.00    -0.237 OA
ATOM     75  O   UNL A   1      33.916  33.866  30.170  1.00  0.00    -0.744 OA
ENDBRANCH  71  72
ENDBRANCH  52  66
BRANCH  53  76
ATOM     76  C   UNL A   1      47.553  28.181  27.630  1.00  0.00    -0.014 A 
ATOM     77  C   UNL A   1      48.468  27.597  28.523  1.00  0.00     0.010 A 
ATOM     78  C   UNL A   1      47.850  28.189  26.254  1.00  0.00     0.010 A 
ATOM     79  C   UNL A   1      49.653  27.026  28.049  1.00  0.00     0.020 A 
ATOM     80  C   UNL A   1      49.020  27.595  25.773  1.00  0.00     0.020 A 
ATOM     81  C   UNL A   1      49.916  27.019  26.676  1.00  0.00     0.054 A 
BRANCH  81  82
ATOM     82  S   UNL A   1      51.414  26.186  26.076  1.00  0.00     0.124 S 
ATOM     83  O   UNL A   1      51.297  26.351  24.631  1.00  0.00    -0.237 OA
ATOM     84  O   UNL A   1      52.477  26.954  26.719  1.00  0.00    -0.237 OA
ATOM     85  O   UNL A   1      51.263  24.817  26.565  1.00  0.00    -0.744 OA
ENDBRANCH  81  82
ENDBRANCH  53  76
BRANCH  65  86
ATOM     86  C   UNL A   1      45.508  34.327  30.294  1.00  0.00    -0.014 A 
ATOM     87  C   UNL A   1      45.652  35.397  29.393  1.00  0.00     0.010 A 
ATOM     88  C   UNL A   1      45.961  34.480  31.619  1.00  0.00     0.010 A 
ATOM     89  C   UNL A   1      46.239  36.595  29.810  1.00  0.00     0.020 A 
ATOM     90  C   UNL A   1      46.524  35.684  32.046  1.00  0.00     0.020 A 
ATOM     91  C   UNL A   1      46.662  36.735  31.137  1.00  0.00     0.054 A 
BRANCH  91  92
ATOM     92  S   UNL A   1      47.332  38.332  31.675  1.00  0.00     0.124 S 
ATOM     93  O   UNL A   1      47.769  38.921  30.412  1.00  0.00    -0.237 OA
ATOM     94  O   UNL A   1      46.176  38.970  32.301  1.00  0.00    -0.237 OA
ATOM     95  O   UNL A   1      48.407  37.966  32.595  1.00  0.00    -0.744 OA
ENDBRANCH  91  92
ENDBRANCH  65  86
ENDBRANCH  39  40
ENDBRANCH  31  34
ENDBRANCH  29  30
ENDBRANCH   1  29
TORSDOF 18
ENDMDL
MODEL 2
REMARK VINA RESULT:     -11.3      3.755      8.294
REMARK SMILES C[C@@H](C(=O)NCCCNC(=O)c1ccc(-c2c3nc(c(-c4ccc(S(=O)(=O)[O-])cc4)c4ccc([nH]4)c(-c4ccc(S(=O)(=O)[O-])cc4)c4nc(c(-c5ccc(S(=O)(=O)[O-])cc5)c5ccc2[nH]5)C=C4)C=C3)cc1)c1cc(/C=C/S(C)(=O)=O)cc(C(=O)c2ccccc2)c1
REMARK SMILES IDX 7 1 6 2 5 3 3 4 4 5 2 7 1 8 72 9 73 10 91 11 74 12 82 13
REMARK SMILES IDX 81 14 75 15 76 16 77 17 78 18 79 19 80 20 83 21 84 22 85 23
REMARK SMILES IDX 86 24 90 25 87 26 89 27 88 28 8 29 9 30 10 31 11 33 12 34
REMARK SMILES IDX 13 35 71 36 14 37 70 38 15 39 16 40 17 41 64 42 18 43 69 44
REMARK SMILES IDX 63 45 65 46 19 47 68 48 62 49 61 50 20 52 50 53 31 54 49 55
REMARK SMILES IDX 32 56 35 57 48 58 66 59 33 60 34 61 47 63 67 64 36 65 21 66
REMARK SMILES IDX 22 67 30 68 23 69 29 70 24 71 25 72 26 73 27 74 28 75 51 76
REMARK SMILES IDX 52 77 60 78 53 79 59 80 54 81 55 82 56 83 57 84 58 85 37 86
REMARK SMILES IDX 38 87 46 88 39 89 45 90 40 91 41 92 42 93 43 94 44 95
REMARK H PARENT 5 6 9 32 65 51 35 62
REMARK Flexibility Score: inf
ROOT
ATOM      1  C   UNL A   1      32.979  26.930  25.925  1.00  0.00     0.042 C 
ENDROOT
BRANCH   1   2
ATOM      2  C   UNL A   1      32.895  25.520  26.497  1.00  0.00     0.117 C 
BRANCH   2   3
ATOM      3  N   UNL A   1      31.528  25.148  26.797  1.00  0.00    -0.356 N 
ATOM      4  C   UNL A   1      30.950  23.926  26.954  1.00  0.00     0.227 C 
ATOM      5  O   UNL A   1      29.736  23.945  27.171  1.00  0.00    -0.274 OA
ATOM      6  H   UNL A   1      30.912  25.907  26.906  1.00  0.00     0.163 HD
BRANCH   4   7
ATOM      7  C   UNL A   1      31.808  22.640  26.912  1.00  0.00     0.105 C 
ATOM      8  C   UNL A   1      33.105  22.753  27.709  1.00  0.00     0.023 C 
BRANCH   7   9
ATOM      9  C   UNL A   1      32.138  22.148  25.503  1.00  0.00    -0.035 A 
ATOM     10  C   UNL A   1      32.170  20.787  25.182  1.00  0.00     0.012 A 
ATOM     11  C   UNL A   1      32.385  23.072  24.481  1.00  0.00     0.016 A 
ATOM     12  C   UNL A   1      32.620  20.323  23.939  1.00  0.00    -0.024 A 
ATOM     13  C   UNL A   1      32.755  22.642  23.199  1.00  0.00     0.023 A 
ATOM     14  C   UNL A   1      32.888  21.267  22.941  1.00  0.00     0.020 A 
BRANCH  12  15
ATOM     15  C   UNL A   1      32.849  18.887  23.689  1.00  0.00     0.020 C 
ATOM     16  C   UNL A   1      33.369  18.057  24.610  1.00  0.00     0.106 C 
BRANCH  16  17
ATOM     17  S   UNL A   1      33.732  16.408  24.221  1.00  0.00     0.168 S 
ATOM     18  C   UNL A   1      35.226  16.161  25.154  1.00  0.00     0.163 C 
ATOM     19  O   UNL A   1      32.714  15.556  24.807  1.00  0.00    -0.225 OA
ATOM     20  O   UNL A   1      34.080  16.286  22.818  1.00  0.00    -0.225 OA
ENDBRANCH  16  17
ENDBRANCH  12  15
BRANCH  13  21
ATOM     21  C   UNL A   1      32.985  23.609  22.083  1.00  0.00     0.193 C 
ATOM     22  O   UNL A   1      33.391  23.214  20.994  1.00  0.00    -0.289 OA
BRANCH  21  23
ATOM     23  C   UNL A   1      32.683  25.050  22.239  1.00  0.00     0.022 A 
ATOM     24  C   UNL A   1      33.750  25.950  22.320  1.00  0.00     0.012 A 
ATOM     25  C   UNL A   1      31.364  25.513  22.302  1.00  0.00     0.012 A 
ATOM     26  C   UNL A   1      33.497  27.319  22.416  1.00  0.00     0.001 A 
ATOM     27  C   UNL A   1      31.116  26.884  22.392  1.00  0.00     0.001 A 
ATOM     28  C   UNL A   1      32.180  27.784  22.442  1.00  0.00     0.000 A 
ENDBRANCH  21  23
ENDBRANCH  13  21
ENDBRANCH   7   9
ENDBRANCH   4   7
ENDBRANCH   2   3
ENDBRANCH   1   2
BRANCH   1  29
ATOM     29  C   UNL A   1      34.086  27.786  26.530  1.00  0.00     0.118 C 
BRANCH  29  30
ATOM     30  N   UNL A   1      33.647  29.139  26.842  1.00  0.00    -0.352 N 
ATOM     31  C   UNL A   1      34.279  30.110  27.581  1.00  0.00     0.251 C 
ATOM     32  H   UNL A   1      32.772  29.394  26.470  1.00  0.00     0.163 HD
ATOM     33  O   UNL A   1      33.673  31.130  27.897  1.00  0.00    -0.269 OA
BRANCH  31  34
ATOM     34  C   UNL A   1      35.678  29.908  28.011  1.00  0.00     0.039 A 
ATOM     35  C   UNL A   1      35.938  29.545  29.335  1.00  0.00     0.014 A 
ATOM     36  C   UNL A   1      36.728  30.057  27.102  1.00  0.00     0.014 A 
ATOM     37  C   UNL A   1      37.248  29.256  29.727  1.00  0.00     0.010 A 
ATOM     38  C   UNL A   1      38.017  29.689  27.472  1.00  0.00     0.010 A 
ATOM     39  C   UNL A   1      38.291  29.285  28.788  1.00  0.00    -0.014 A 
BRANCH  39  40
ATOM     40  C   UNL A   1      39.680  28.897  29.143  1.00  0.00     0.031 A 
ATOM     41  C   UNL A   1      40.618  29.921  29.718  1.00  0.00     0.074 A 
ATOM     42  C   UNL A   1      40.127  27.660  28.850  1.00  0.00     0.049 A 
ATOM     43  N   UNL A   1      41.900  29.824  29.958  1.00  0.00    -0.248 NA
ATOM     44  C   UNL A   1      40.044  31.239  30.032  1.00  0.00     0.031 C 
ATOM     45  C   UNL A   1      39.326  26.588  28.256  1.00  0.00     0.029 A 
ATOM     46  N   UNL A   1      41.376  27.105  28.985  1.00  0.00    -0.354 N 
ATOM     47  C   UNL A   1      42.291  31.074  30.424  1.00  0.00     0.074 A 
ATOM     48  C   UNL A   1      41.121  31.925  30.385  1.00  0.00     0.031 C 
ATOM     49  C   UNL A   1      40.103  25.506  28.079  1.00  0.00     0.029 A 
ATOM     50  C   UNL A   1      41.465  25.821  28.499  1.00  0.00     0.049 A 
ATOM     51  H   UNL A   1      42.137  27.581  29.392  1.00  0.00     0.167 HD
ATOM     52  C   UNL A   1      43.511  31.475  30.858  1.00  0.00     0.031 A 
ATOM     53  C   UNL A   1      42.525  24.998  28.376  1.00  0.00     0.031 A 
ATOM     54  C   UNL A   1      44.669  30.624  30.891  1.00  0.00     0.049 A 
ATOM     55  C   UNL A   1      43.875  25.463  28.846  1.00  0.00     0.074 A 
ATOM     56  C   UNL A   1      45.936  30.914  31.366  1.00  0.00     0.029 A 
ATOM     57  N   UNL A   1      44.706  29.318  30.422  1.00  0.00    -0.354 N 
ATOM     58  N   UNL A   1      44.213  26.625  29.351  1.00  0.00    -0.248 NA
ATOM     59  C   UNL A   1      44.985  24.505  28.743  1.00  0.00     0.031 C 
ATOM     60  C   UNL A   1      46.755  29.806  31.126  1.00  0.00     0.029 A 
ATOM     61  C   UNL A   1      45.982  28.799  30.568  1.00  0.00     0.049 A 
ATOM     62  H   UNL A   1      43.939  28.832  30.041  1.00  0.00     0.167 HD
ATOM     63  C   UNL A   1      45.567  26.531  29.651  1.00  0.00     0.074 A 
ATOM     64  C   UNL A   1      45.985  25.196  29.276  1.00  0.00     0.031 C 
ATOM     65  C   UNL A   1      46.386  27.465  30.195  1.00  0.00     0.031 A 
BRANCH  52  66
ATOM     66  C   UNL A   1      43.649  32.908  31.302  1.00  0.00    -0.014 A 
ATOM     67  C   UNL A   1      44.114  33.905  30.424  1.00  0.00     0.010 A 
ATOM     68  C   UNL A   1      43.310  33.266  32.620  1.00  0.00     0.010 A 
ATOM     69  C   UNL A   1      44.306  35.214  30.875  1.00  0.00     0.020 A 
ATOM     70  C   UNL A   1      43.465  34.582  33.066  1.00  0.00     0.020 A 
ATOM     71  C   UNL A   1      43.990  35.541  32.197  1.00  0.00     0.054 A 
BRANCH  71  72
ATOM     72  S   UNL A   1      44.273  37.240  32.762  1.00  0.00     0.124 S 
ATOM     73  O   UNL A   1      43.905  38.015  31.579  1.00  0.00    -0.237 OA
ATOM     74  O   UNL A   1      43.359  37.357  33.896  1.00  0.00    -0.237 OA
ATOM     75  O   UNL A   1      45.693  37.261  33.103  1.00  0.00    -0.744 OA
ENDBRANCH  71  72
ENDBRANCH  52  66
BRANCH  53  76
ATOM     76  C   UNL A   1      42.334  23.651  27.771  1.00  0.00    -0.014 A 
ATOM     77  C   UNL A   1      42.657  23.417  26.423  1.00  0.00     0.010 A 
ATOM     78  C   UNL A   1      41.888  22.577  28.563  1.00  0.00     0.010 A 
ATOM     79  C   UNL A   1      42.542  22.133  25.881  1.00  0.00     0.020 A 
ATOM     80  C   UNL A   1      41.798  21.287  28.033  1.00  0.00     0.020 A 
ATOM     81  C   UNL A   1      42.123  21.074  26.692  1.00  0.00     0.054 A 
BRANCH  81  82
ATOM     82  S   UNL A   1      42.075  19.400  25.991  1.00  0.00     0.124 S 
ATOM     83  O   UNL A   1      42.613  18.597  27.083  1.00  0.00    -0.237 OA
ATOM     84  O   UNL A   1      40.652  19.220  25.712  1.00  0.00    -0.237 OA
ATOM     85  O   UNL A   1      42.925  19.501  24.807  1.00  0.00    -0.744 OA
ENDBRANCH  81  82
ENDBRANCH  53  76
BRANCH  65  86
ATOM     86  C   UNL A   1      47.815  27.080  30.465  1.00  0.00    -0.014 A 
ATOM     87  C   UNL A   1      48.847  27.418  29.572  1.00  0.00     0.010 A 
ATOM     88  C   UNL A   1      48.141  26.468  31.691  1.00  0.00     0.010 A 
ATOM     89  C   UNL A   1      50.179  27.148  29.899  1.00  0.00     0.020 A 
ATOM     90  C   UNL A   1      49.472  26.222  32.033  1.00  0.00     0.020 A 
ATOM     91  C   UNL A   1      50.484  26.561  31.132  1.00  0.00     0.054 A 
BRANCH  91  92
ATOM     92  S   UNL A   1      52.226  26.310  31.572  1.00  0.00     0.124 S 
ATOM     93  O   UNL A   1      52.586  27.606  32.141  1.00  0.00    -0.237 OA
ATOM     94  O   UNL A   1      52.160  25.202  32.522  1.00  0.00    -0.237 OA
ATOM     95  O   UNL A   1      52.864  25.990  30.297  1.00  0.00    -0.744 OA
ENDBRANCH  91  92
ENDBRANCH  65  86
ENDBRANCH  39  40
ENDBRANCH  31  34
ENDBRANCH  29  30
ENDBRANCH   1  29
TORSDOF 18
ENDMDL
MODEL 3
REMARK VINA RESULT:     -11.2      2.179      8.075
REMARK SMILES C[C@@H](C(=O)NCCCNC(=O)c1ccc(-c2c3nc(c(-c4ccc(S(=O)(=O)[O-])cc4)c4ccc([nH]4)c(-c4ccc(S(=O)(=O)[O-])cc4)c4nc(c(-c5ccc(S(=O)(=O)[O-])cc5)c5ccc2[nH]5)C=C4)C=C3)cc1)c1cc(/C=C/S(C)(=O)=O)cc(C(=O)c2ccccc2)c1
REMARK SMILES IDX 7 1 6 2 5 3 3 4 4 5 2 7 1 8 72 9 73 10 91 11 74 12 82 13
REMARK SMILES IDX 81 14 75 15 76 16 77 17 78 18 79 19 80 20 83 21 84 22 85 23
REMARK SMILES IDX 86 24 90 25 87 26 89 27 88 28 8 29 9 30 10 31 11 33 12 34
REMARK SMILES IDX 13 35 71 36 14 37 70 38 15 39 16 40 17 41 64 42 18 43 69 44
REMARK SMILES IDX 63 45 65 46 19 47 68 48 62 49 61 50 20 52 50 53 31 54 49 55
REMARK SMILES IDX 32 56 35 57 48 58 66 59 33 60 34 61 47 63 67 64 36 65 21 66
REMARK SMILES IDX 22 67 30 68 23 69 29 70 24 71 25 72 26 73 27 74 28 75 51 76
REMARK SMILES IDX 52 77 60 78 53 79 59 80 54 81 55 82 56 83 57 84 58 85 37 86
REMARK SMILES IDX 38 87 46 88 39 89 45 90 40 91 41 92 42 93 43 94 44 95
REMARK H PARENT 5 6 9 32 65 51 35 62
REMARK Flexibility Score: inf
ROOT
ATOM      1  C   UNL A   1      36.443  23.187  24.244  1.00  0.00     0.042 C 
ENDROOT
BRANCH   1   2
ATOM      2  C   UNL A   1      34.925  23.314  24.227  1.00  0.00     0.117 C 
BRANCH   2   3
ATOM      3  N   UNL A   1      34.453  23.899  22.989  1.00  0.00    -0.356 N 
ATOM      4  C   UNL A   1      33.210  24.303  22.610  1.00  0.00     0.227 C 
ATOM      5  O   UNL A   1      33.128  24.732  21.456  1.00  0.00    -0.274 OA
ATOM      6  H   UNL A   1      35.149  24.027  22.306  1.00  0.00     0.163 HD
BRANCH   4   7
ATOM      7  C   UNL A   1      32.031  24.258  23.609  1.00  0.00     0.105 C 
ATOM      8  C   UNL A   1      30.823  23.486  23.084  1.00  0.00     0.023 C 
BRANCH   7   9
ATOM      9  C   UNL A   1      31.563  25.629  24.095  1.00  0.00    -0.035 A 
ATOM     10  C   UNL A   1      30.692  26.425  23.343  1.00  0.00     0.012 A 
ATOM     11  C   UNL A   1      31.980  26.107  25.343  1.00  0.00     0.016 A 
ATOM     12  C   UNL A   1      30.381  27.741  23.706  1.00  0.00    -0.024 A 
ATOM     13  C   UNL A   1      31.617  27.389  25.778  1.00  0.00     0.023 A 
ATOM     14  C   UNL A   1      30.833  28.207  24.946  1.00  0.00     0.020 A 
BRANCH  12  15
ATOM     15  C   UNL A   1      29.635  28.635  22.800  1.00  0.00     0.020 C 
ATOM     16  C   UNL A   1      29.020  29.755  23.218  1.00  0.00     0.106 C 
BRANCH  16  17
ATOM     17  S   UNL A   1      28.054  30.700  22.135  1.00  0.00     0.168 S 
ATOM     18  C   UNL A   1      29.096  32.123  21.906  1.00  0.00     0.163 C 
ATOM     19  O   UNL A   1      27.979  30.014  20.859  1.00  0.00    -0.225 OA
ATOM     20  O   UNL A   1      26.849  31.156  22.801  1.00  0.00    -0.225 OA
ENDBRANCH  16  17
ENDBRANCH  12  15
BRANCH  13  21
ATOM     21  C   UNL A   1      32.017  27.904  27.122  1.00  0.00     0.193 C 
ATOM     22  O   UNL A   1      31.602  27.362  28.143  1.00  0.00    -0.289 OA
BRANCH  21  23
ATOM     23  C   UNL A   1      32.958  29.039  27.263  1.00  0.00     0.022 A 
ATOM     24  C   UNL A   1      34.323  28.762  27.389  1.00  0.00     0.012 A 
ATOM     25  C   UNL A   1      32.504  30.363  27.270  1.00  0.00     0.012 A 
ATOM     26  C   UNL A   1      35.239  29.812  27.472  1.00  0.00     0.001 A 
ATOM     27  C   UNL A   1      33.424  31.409  27.348  1.00  0.00     0.001 A 
ATOM     28  C   UNL A   1      34.789  31.134  27.442  1.00  0.00     0.000 A 
ENDBRANCH  21  23
ENDBRANCH  13  21
ENDBRANCH   7   9
ENDBRANCH   4   7
ENDBRANCH   2   3
ENDBRANCH   1   2
BRANCH   1  29
ATOM     29  C   UNL A   1      37.089  23.578  25.568  1.00  0.00     0.118 C 
BRANCH  29  30
ATOM     30  N   UNL A   1      38.135  22.653  25.981  1.00  0.00    -0.352 N 
ATOM     31  C   UNL A   1      39.339  22.916  26.589  1.00  0.00     0.251 C 
ATOM     32  H   UNL A   1      37.954  21.704  25.797  1.00  0.00     0.163 HD
ATOM     33  O   UNL A   1      40.179  22.027  26.694  1.00  0.00    -0.269 OA
BRANCH  31  34
ATOM     34  C   UNL A   1      39.622  24.276  27.093  1.00  0.00     0.039 A 
ATOM     35  C   UNL A   1      39.252  24.609  28.399  1.00  0.00     0.014 A 
ATOM     36  C   UNL A   1      40.269  25.212  26.284  1.00  0.00     0.014 A 
ATOM     37  C   UNL A   1      39.603  25.858  28.919  1.00  0.00     0.010 A 
ATOM     38  C   UNL A   1      40.689  26.421  26.829  1.00  0.00     0.010 A 
ATOM     39  C   UNL A   1      40.361  26.757  28.151  1.00  0.00    -0.014 A 
BRANCH  39  40
ATOM     40  C   UNL A   1      40.830  28.056  28.698  1.00  0.00     0.031 A 
ATOM     41  C   UNL A   1      42.230  28.181  29.230  1.00  0.00     0.074 A 
ATOM     42  C   UNL A   1      39.968  29.085  28.816  1.00  0.00     0.049 A 
ATOM     43  N   UNL A   1      42.783  29.175  29.875  1.00  0.00    -0.248 NA
ATOM     44  C   UNL A   1      43.114  27.020  29.039  1.00  0.00     0.031 C 
ATOM     45  C   UNL A   1      38.572  29.076  28.373  1.00  0.00     0.029 A 
ATOM     46  N   UNL A   1      40.132  30.330  29.372  1.00  0.00    -0.354 N 
ATOM     47  C   UNL A   1      44.068  28.750  30.193  1.00  0.00     0.074 A 
ATOM     48  C   UNL A   1      44.194  27.391  29.712  1.00  0.00     0.031 C 
ATOM     49  C   UNL A   1      38.009  30.258  28.674  1.00  0.00     0.029 A 
ATOM     50  C   UNL A   1      38.985  31.089  29.374  1.00  0.00     0.049 A 
ATOM     51  H   UNL A   1      40.990  30.649  29.736  1.00  0.00     0.167 HD
ATOM     52  C   UNL A   1      45.059  29.433  30.815  1.00  0.00     0.031 A 
ATOM     53  C   UNL A   1      38.733  32.303  29.902  1.00  0.00     0.031 A 
ATOM     54  C   UNL A   1      44.924  30.783  31.292  1.00  0.00     0.049 A 
ATOM     55  C   UNL A   1      39.838  33.042  30.605  1.00  0.00     0.074 A 
ATOM     56  C   UNL A   1      45.884  31.585  31.884  1.00  0.00     0.029 A 
ATOM     57  N   UNL A   1      43.755  31.529  31.241  1.00  0.00    -0.354 N 
ATOM     58  N   UNL A   1      41.069  32.653  30.834  1.00  0.00    -0.248 NA
ATOM     59  C   UNL A   1      39.526  34.386  31.112  1.00  0.00     0.031 C 
ATOM     60  C   UNL A   1      45.278  32.792  32.248  1.00  0.00     0.029 A 
ATOM     61  C   UNL A   1      43.960  32.770  31.818  1.00  0.00     0.049 A 
ATOM     62  H   UNL A   1      42.904  31.219  30.852  1.00  0.00     0.167 HD
ATOM     63  C   UNL A   1      41.688  33.713  31.485  1.00  0.00     0.074 A 
ATOM     64  C   UNL A   1      40.697  34.762  31.611  1.00  0.00     0.031 C 
ATOM     65  C   UNL A   1      42.965  33.809  31.933  1.00  0.00     0.031 A 
BRANCH  52  66
ATOM     66  C   UNL A   1      46.362  28.710  31.038  1.00  0.00    -0.014 A 
ATOM     67  C   UNL A   1      46.592  27.956  32.204  1.00  0.00     0.010 A 
ATOM     68  C   UNL A   1      47.377  28.787  30.065  1.00  0.00     0.010 A 
ATOM     69  C   UNL A   1      47.833  27.354  32.425  1.00  0.00     0.020 A 
ATOM     70  C   UNL A   1      48.608  28.155  30.266  1.00  0.00     0.020 A 
ATOM     71  C   UNL A   1      48.837  27.467  31.459  1.00  0.00     0.054 A 
BRANCH  71  72
ATOM     72  S   UNL A   1      50.446  26.698  31.785  1.00  0.00     0.124 S 
ATOM     73  O   UNL A   1      50.580  25.790  30.647  1.00  0.00    -0.237 OA
ATOM     74  O   UNL A   1      51.354  27.842  31.784  1.00  0.00    -0.237 OA
ATOM     75  O   UNL A   1      50.265  26.048  33.081  1.00  0.00    -0.744 OA
ENDBRANCH  71  72
ENDBRANCH  52  66
BRANCH  53  76
ATOM     76  C   UNL A   1      37.365  32.880  29.783  1.00  0.00    -0.014 A 
ATOM     77  C   UNL A   1      36.410  32.678  30.794  1.00  0.00     0.010 A 
ATOM     78  C   UNL A   1      37.034  33.691  28.682  1.00  0.00     0.010 A 
ATOM     79  C   UNL A   1      35.152  33.281  30.709  1.00  0.00     0.020 A 
ATOM     80  C   UNL A   1      35.788  34.317  28.606  1.00  0.00     0.020 A 
ATOM     81  C   UNL A   1      34.852  34.106  29.620  1.00  0.00     0.054 A 
BRANCH  81  82
ATOM     82  S   UNL A   1      33.247  34.954  29.581  1.00  0.00     0.124 S 
ATOM     83  O   UNL A   1      32.795  34.816  30.961  1.00  0.00    -0.237 OA
ATOM     84  O   UNL A   1      33.619  36.305  29.167  1.00  0.00    -0.237 OA
ATOM     85  O   UNL A   1      32.485  34.196  28.591  1.00  0.00    -0.744 OA
ENDBRANCH  81  82
ENDBRANCH  53  76
BRANCH  65  86
ATOM     86  C   UNL A   1      43.395  35.104  32.566  1.00  0.00    -0.014 A 
ATOM     87  C   UNL A   1      43.998  36.126  31.812  1.00  0.00     0.010 A 
ATOM     88  C   UNL A   1      43.085  35.343  33.920  1.00  0.00     0.010 A 
ATOM     89  C   UNL A   1      44.285  37.361  32.400  1.00  0.00     0.020 A 
ATOM     90  C   UNL A   1      43.345  36.584  34.503  1.00  0.00     0.020 A 
ATOM     91  C   UNL A   1      43.947  37.586  33.739  1.00  0.00     0.054 A 
BRANCH  91  92
ATOM     92  S   UNL A   1      44.243  39.228  34.450  1.00  0.00     0.124 S 
ATOM     93  O   UNL A   1      44.406  38.922  35.869  1.00  0.00    -0.237 OA
ATOM     94  O   UNL A   1      45.453  39.664  33.757  1.00  0.00    -0.237 OA
ATOM     95  O   UNL A   1      43.035  39.977  34.110  1.00  0.00    -0.744 OA
ENDBRANCH  91  92
ENDBRANCH  65  86
ENDBRANCH  39  40
ENDBRANCH  31  34
ENDBRANCH  29  30
ENDBRANCH   1  29
TORSDOF 18
ENDMDL
