MODEL 1
REMARK VINA RESULT:     -10.3      0.000      0.000
REMARK SMILES Cc1nc(C[N@H+](C)[C@H](C)c2ccc(C(=O)NCCCNC(=O)c3ccc(-c4c5nc(c(-c6ccc(S(=O)(=O)[O-])cc6)c6ccc([nH]6)c(-c6ccc(S(=O)(=O)[O-])cc6)c6nc(c(-c7ccc(S(=O)(=O)[O-])cc7)c7ccc4[nH]7)C=C6)C=C5)cc3)o2)cs1
REMARK SMILES IDX 17 1 16 2 14 3 15 4 13 6 10 7 11 8 83 9 12 10 8 11 9 12 6 13
REMARK SMILES IDX 7 14 5 16 4 17 1 18 2 19 3 20 85 21 84 22 18 23 19 24 20 25
REMARK SMILES IDX 21 26 22 28 23 29 24 30 82 31 25 32 81 33 26 34 27 35 28 36
REMARK SMILES IDX 75 37 29 38 80 39 74 40 76 41 30 42 79 43 73 44 72 45 31 47
REMARK SMILES IDX 61 48 42 49 60 50 43 51 46 52 59 53 77 54 44 55 45 56 58 58
REMARK SMILES IDX 78 59 47 60 32 61 33 62 41 63 34 64 40 65 35 66 36 67 37 68
REMARK SMILES IDX 38 69 39 70 62 71 63 72 71 73 64 74 70 75 65 76 66 77 67 78
REMARK SMILES IDX 68 79 69 80 48 81 49 82 57 83 50 84 56 85 51 86 52 87 53 88
REMARK SMILES IDX 54 89 55 90
REMARK H PARENT 16 5 6 15 20 27 76 46 46 57
REMARK Flexibility Score: inf
ROOT
ATOM      1  C   UNL A   1      34.770  29.905  27.218  1.00  0.00     0.118 C 
ENDROOT
BRANCH   1   2
ATOM      2  N   UNL A   1      33.631  30.807  27.191  1.00  0.00    -0.349 N 
ATOM      3  C   UNL A   1      32.331  30.561  26.805  1.00  0.00     0.287 C 
ATOM      4  O   UNL A   1      31.587  31.539  26.700  1.00  0.00    -0.266 OA
ATOM      5  H   UNL A   1      33.815  31.726  27.492  1.00  0.00     0.163 HD
BRANCH   3   6
ATOM      6  C   UNL A   1      31.905  29.203  26.555  1.00  0.00     0.191 A 
ATOM      7  C   UNL A   1      31.380  27.494  25.263  1.00  0.00     0.161 A 
ATOM      8  C   UNL A   1      31.288  27.045  26.566  1.00  0.00     0.053 A 
ATOM      9  O   UNL A   1      31.719  28.815  25.253  1.00  0.00    -0.450 OA
ATOM     10  C   UNL A   1      31.602  28.144  27.392  1.00  0.00     0.057 A 
BRANCH   7  11
ATOM     11  C   UNL A   1      31.151  26.796  23.950  1.00  0.00     0.248 C 
ATOM     12  C   UNL A   1      31.740  27.521  22.732  1.00  0.00     0.084 C 
BRANCH  11  13
ATOM     13  N   UNL A   1      31.485  25.355  24.062  1.00  0.00    -0.324 N 
ATOM     14  C   UNL A   1      30.468  24.534  23.399  1.00  0.00     0.333 C 
ATOM     15  H   UNL A   1      31.498  25.201  25.070  1.00  0.00     0.348 HD
BRANCH  13  16
ATOM     16  C   UNL A   1      32.826  24.937  23.596  1.00  0.00     0.320 C 
BRANCH  16  17
ATOM     17  C   UNL A   1      33.708  24.314  24.646  1.00  0.00     0.106 A 
ATOM     18  C   UNL A   1      33.833  22.388  27.761  1.00  0.00     0.079 C 
ATOM     19  C   UNL A   1      34.079  23.142  26.501  1.00  0.00     0.090 A 
ATOM     20  N   UNL A   1      33.138  23.672  25.746  1.00  0.00    -0.241 NA
ATOM     21  S   UNL A   1      35.689  23.374  25.950  1.00  0.00    -0.127 S 
ATOM     22  C   UNL A   1      35.089  24.229  24.600  1.00  0.00     0.096 A 
ENDBRANCH  16  17
ENDBRANCH  13  16
ENDBRANCH  11  13
ENDBRANCH   7  11
ENDBRANCH   3   6
ENDBRANCH   1   2
BRANCH   1  23
ATOM     23  C   UNL A   1      35.460  29.874  28.576  1.00  0.00     0.042 C 
BRANCH  23  24
ATOM     24  C   UNL A   1      35.698  31.242  29.199  1.00  0.00     0.118 C 
BRANCH  24  25
ATOM     25  N   UNL A   1      35.770  31.201  30.652  1.00  0.00    -0.352 N 
ATOM     26  C   UNL A   1      36.790  30.811  31.487  1.00  0.00     0.251 C 
ATOM     27  H   UNL A   1      34.953  31.501  31.113  1.00  0.00     0.163 HD
ATOM     28  O   UNL A   1      36.564  30.698  32.689  1.00  0.00    -0.269 OA
BRANCH  26  29
ATOM     29  C   UNL A   1      38.139  30.502  30.957  1.00  0.00     0.039 A 
ATOM     30  C   UNL A   1      38.996  29.708  31.724  1.00  0.00     0.014 A 
ATOM     31  C   UNL A   1      38.580  31.006  29.731  1.00  0.00     0.014 A 
ATOM     32  C   UNL A   1      40.259  29.364  31.231  1.00  0.00     0.010 A 
ATOM     33  C   UNL A   1      39.797  30.585  29.199  1.00  0.00     0.010 A 
ATOM     34  C   UNL A   1      40.655  29.765  29.945  1.00  0.00    -0.014 A 
BRANCH  34  35
ATOM     35  C   UNL A   1      41.959  29.340  29.370  1.00  0.00     0.031 A 
ATOM     36  C   UNL A   1      43.096  30.322  29.250  1.00  0.00     0.074 A 
ATOM     37  C   UNL A   1      42.105  28.084  28.901  1.00  0.00     0.049 A 
ATOM     38  N   UNL A   1      44.288  30.146  28.737  1.00  0.00    -0.248 NA
ATOM     39  C   UNL A   1      42.856  31.687  29.748  1.00  0.00     0.031 C 
ATOM     40  C   UNL A   1      41.068  27.048  28.912  1.00  0.00     0.029 A 
ATOM     41  N   UNL A   1      43.183  27.463  28.321  1.00  0.00    -0.354 N 
ATOM     42  C   UNL A   1      44.930  31.376  28.834  1.00  0.00     0.074 A 
ATOM     43  C   UNL A   1      43.977  32.303  29.404  1.00  0.00     0.031 C 
ATOM     44  C   UNL A   1      41.571  25.915  28.399  1.00  0.00     0.029 A 
ATOM     45  C   UNL A   1      42.950  26.151  27.982  1.00  0.00     0.049 A 
ATOM     46  H   UNL A   1      44.043  27.916  28.160  1.00  0.00     0.167 HD
ATOM     47  C   UNL A   1      46.203  31.701  28.501  1.00  0.00     0.031 A 
ATOM     48  C   UNL A   1      43.751  25.237  27.401  1.00  0.00     0.031 A 
ATOM     49  C   UNL A   1      47.153  30.773  27.947  1.00  0.00     0.049 A 
ATOM     50  C   UNL A   1      45.160  25.621  27.038  1.00  0.00     0.074 A 
ATOM     51  C   UNL A   1      48.483  30.992  27.627  1.00  0.00     0.029 A 
ATOM     52  N   UNL A   1      46.879  29.451  27.629  1.00  0.00    -0.354 N 
ATOM     53  N   UNL A   1      45.766  26.774  27.197  1.00  0.00    -0.248 NA
ATOM     54  C   UNL A   1      45.996  24.577  26.431  1.00  0.00     0.031 C 
ATOM     55  C   UNL A   1      48.997  29.817  27.070  1.00  0.00     0.029 A 
ATOM     56  C   UNL A   1      48.007  28.849  27.099  1.00  0.00     0.049 A 
ATOM     57  H   UNL A   1      46.010  29.008  27.762  1.00  0.00     0.167 HD
ATOM     58  C   UNL A   1      47.064  26.585  26.734  1.00  0.00     0.074 A 
ATOM     59  C   UNL A   1      47.158  25.204  26.307  1.00  0.00     0.031 C 
ATOM     60  C   UNL A   1      48.085  27.475  26.671  1.00  0.00     0.031 A 
BRANCH  47  61
ATOM     61  C   UNL A   1      46.639  33.125  28.730  1.00  0.00    -0.014 A 
ATOM     62  C   UNL A   1      47.206  33.524  29.955  1.00  0.00     0.010 A 
ATOM     63  C   UNL A   1      46.515  34.071  27.696  1.00  0.00     0.010 A 
ATOM     64  C   UNL A   1      47.598  34.850  30.157  1.00  0.00     0.020 A 
ATOM     65  C   UNL A   1      46.935  35.392  27.883  1.00  0.00     0.020 A 
ATOM     66  C   UNL A   1      47.457  35.777  29.120  1.00  0.00     0.054 A 
BRANCH  66  67
ATOM     67  S   UNL A   1      47.992  37.486  29.404  1.00  0.00     0.124 S 
ATOM     68  O   UNL A   1      48.037  37.549  30.864  1.00  0.00    -0.237 OA
ATOM     69  O   UNL A   1      49.288  37.532  28.734  1.00  0.00    -0.237 OA
ATOM     70  O   UNL A   1      46.942  38.288  28.779  1.00  0.00    -0.744 OA
ENDBRANCH  66  67
ENDBRANCH  47  61
BRANCH  48  71
ATOM     71  C   UNL A   1      43.246  23.860  27.146  1.00  0.00    -0.014 A 
ATOM     72  C   UNL A   1      42.879  23.463  25.849  1.00  0.00     0.010 A 
ATOM     73  C   UNL A   1      43.146  22.931  28.199  1.00  0.00     0.010 A 
ATOM     74  C   UNL A   1      42.403  22.170  25.611  1.00  0.00     0.020 A 
ATOM     75  C   UNL A   1      42.698  21.629  27.960  1.00  0.00     0.020 A 
ATOM     76  C   UNL A   1      42.318  21.261  26.668  1.00  0.00     0.054 A 
BRANCH  76  77
ATOM     77  S   UNL A   1      41.750  19.572  26.325  1.00  0.00     0.124 S 
ATOM     78  O   UNL A   1      42.471  19.253  25.097  1.00  0.00    -0.237 OA
ATOM     79  O   UNL A   1      42.177  18.846  27.519  1.00  0.00    -0.237 OA
ATOM     80  O   UNL A   1      40.303  19.721  26.182  1.00  0.00    -0.744 OA
ENDBRANCH  76  77
ENDBRANCH  48  71
BRANCH  60  81
ATOM     81  C   UNL A   1      49.407  26.973  26.152  1.00  0.00    -0.014 A 
ATOM     82  C   UNL A   1      49.764  27.119  24.799  1.00  0.00     0.010 A 
ATOM     83  C   UNL A   1      50.323  26.384  27.042  1.00  0.00     0.010 A 
ATOM     84  C   UNL A   1      50.996  26.647  24.340  1.00  0.00     0.020 A 
ATOM     85  C   UNL A   1      51.568  25.939  26.593  1.00  0.00     0.020 A 
ATOM     86  C   UNL A   1      51.891  26.057  25.240  1.00  0.00     0.054 A 
BRANCH  86  87
ATOM     87  S   UNL A   1      53.497  25.481  24.625  1.00  0.00     0.124 S 
ATOM     88  O   UNL A   1      53.476  24.070  24.999  1.00  0.00    -0.237 OA
ATOM     89  O   UNL A   1      53.408  25.754  23.193  1.00  0.00    -0.237 OA
ATOM     90  O   UNL A   1      54.461  26.304  25.351  1.00  0.00    -0.744 OA
ENDBRANCH  86  87
ENDBRANCH  60  81
ENDBRANCH  34  35
ENDBRANCH  26  29
ENDBRANCH  24  25
ENDBRANCH  23  24
ENDBRANCH   1  23
TORSDOF 17
ENDMDL
MODEL 2
REMARK VINA RESULT:     -10.3      4.787     11.491
REMARK SMILES Cc1nc(C[N@H+](C)[C@H](C)c2ccc(C(=O)NCCCNC(=O)c3ccc(-c4c5nc(c(-c6ccc(S(=O)(=O)[O-])cc6)c6ccc([nH]6)c(-c6ccc(S(=O)(=O)[O-])cc6)c6nc(c(-c7ccc(S(=O)(=O)[O-])cc7)c7ccc4[nH]7)C=C6)C=C5)cc3)o2)cs1
REMARK SMILES IDX 17 1 16 2 14 3 15 4 13 6 10 7 11 8 83 9 12 10 8 11 9 12 6 13
REMARK SMILES IDX 7 14 5 16 4 17 1 18 2 19 3 20 85 21 84 22 18 23 19 24 20 25
REMARK SMILES IDX 21 26 22 28 23 29 24 30 82 31 25 32 81 33 26 34 27 35 28 36
REMARK SMILES IDX 75 37 29 38 80 39 74 40 76 41 30 42 79 43 73 44 72 45 31 47
REMARK SMILES IDX 61 48 42 49 60 50 43 51 46 52 59 53 77 54 44 55 45 56 58 58
REMARK SMILES IDX 78 59 47 60 32 61 33 62 41 63 34 64 40 65 35 66 36 67 37 68
REMARK SMILES IDX 38 69 39 70 62 71 63 72 71 73 64 74 70 75 65 76 66 77 67 78
REMARK SMILES IDX 68 79 69 80 48 81 49 82 57 83 50 84 56 85 51 86 52 87 53 88
REMARK SMILES IDX 54 89 55 90
REMARK H PARENT 16 5 6 15 20 27 76 46 46 57
REMARK Flexibility Score: inf
ROOT
ATOM      1  C   UNL A   1      42.704  20.113  26.889  1.00  0.00     0.118 C 
ENDROOT
BRANCH   1   2
ATOM      2  N   UNL A   1      43.749  19.865  25.910  1.00  0.00    -0.349 N 
ATOM      3  C   UNL A   1      44.392  20.751  25.074  1.00  0.00     0.287 C 
ATOM      4  O   UNL A   1      45.118  20.269  24.202  1.00  0.00    -0.266 OA
ATOM      5  H   UNL A   1      44.040  18.927  25.834  1.00  0.00     0.163 HD
BRANCH   3   6
ATOM      6  C   UNL A   1      44.199  22.172  25.256  1.00  0.00     0.191 A 
ATOM      7  C   UNL A   1      44.627  24.133  26.173  1.00  0.00     0.161 A 
ATOM      8  C   UNL A   1      43.657  24.350  25.215  1.00  0.00     0.053 A 
ATOM      9  O   UNL A   1      44.933  22.805  26.226  1.00  0.00    -0.450 OA
ATOM     10  C   UNL A   1      43.367  23.094  24.645  1.00  0.00     0.057 A 
BRANCH   7  11
ATOM     11  C   UNL A   1      45.326  25.074  27.115  1.00  0.00     0.248 C 
ATOM     12  C   UNL A   1      46.353  24.405  28.039  1.00  0.00     0.084 C 
BRANCH  11  13
ATOM     13  N   UNL A   1      45.804  26.276  26.390  1.00  0.00    -0.324 N 
ATOM     14  C   UNL A   1      46.667  25.898  25.268  1.00  0.00     0.333 C 
ATOM     15  H   UNL A   1      46.318  26.786  27.108  1.00  0.00     0.348 HD
BRANCH  13  16
ATOM     16  C   UNL A   1      44.776  27.227  25.912  1.00  0.00     0.320 C 
BRANCH  16  17
ATOM     17  C   UNL A   1      44.667  28.508  26.696  1.00  0.00     0.106 A 
ATOM     18  C   UNL A   1      46.460  31.049  28.634  1.00  0.00     0.079 C 
ATOM     19  C   UNL A   1      45.498  30.198  27.881  1.00  0.00     0.090 A 
ATOM     20  N   UNL A   1      45.797  29.049  27.309  1.00  0.00    -0.241 NA
ATOM     21  S   UNL A   1      43.864  30.701  27.723  1.00  0.00    -0.127 S 
ATOM     22  C   UNL A   1      43.533  29.294  26.814  1.00  0.00     0.096 A 
ENDBRANCH  16  17
ENDBRANCH  13  16
ENDBRANCH  11  13
ENDBRANCH   7  11
ENDBRANCH   3   6
ENDBRANCH   1   2
BRANCH   1  23
ATOM     23  C   UNL A   1      41.353  20.393  26.244  1.00  0.00     0.042 C 
BRANCH  23  24
ATOM     24  C   UNL A   1      40.650  21.640  26.758  1.00  0.00     0.118 C 
BRANCH  24  25
ATOM     25  N   UNL A   1      39.495  22.015  25.954  1.00  0.00    -0.352 N 
ATOM     26  C   UNL A   1      38.760  23.176  25.929  1.00  0.00     0.251 C 
ATOM     27  H   UNL A   1      39.191  21.322  25.324  1.00  0.00     0.163 HD
ATOM     28  O   UNL A   1      37.715  23.204  25.283  1.00  0.00    -0.269 OA
BRANCH  26  29
ATOM     29  C   UNL A   1      39.193  24.374  26.685  1.00  0.00     0.039 A 
ATOM     30  C   UNL A   1      38.719  24.554  27.988  1.00  0.00     0.014 A 
ATOM     31  C   UNL A   1      40.036  25.334  26.120  1.00  0.00     0.014 A 
ATOM     32  C   UNL A   1      39.145  25.653  28.741  1.00  0.00     0.010 A 
ATOM     33  C   UNL A   1      40.534  26.375  26.901  1.00  0.00     0.010 A 
ATOM     34  C   UNL A   1      40.089  26.552  28.219  1.00  0.00    -0.014 A 
BRANCH  34  35
ATOM     35  C   UNL A   1      40.617  27.679  29.035  1.00  0.00     0.031 A 
ATOM     36  C   UNL A   1      39.782  28.912  29.262  1.00  0.00     0.074 A 
ATOM     37  C   UNL A   1      41.872  27.618  29.524  1.00  0.00     0.049 A 
ATOM     38  N   UNL A   1      40.089  30.010  29.905  1.00  0.00    -0.248 NA
ATOM     39  C   UNL A   1      38.435  28.926  28.667  1.00  0.00     0.031 C 
ATOM     40  C   UNL A   1      42.803  26.502  29.337  1.00  0.00     0.029 A 
ATOM     41  N   UNL A   1      42.583  28.517  30.280  1.00  0.00    -0.354 N 
ATOM     42  C   UNL A   1      38.986  30.848  29.779  1.00  0.00     0.074 A 
ATOM     43  C   UNL A   1      38.024  30.154  28.950  1.00  0.00     0.031 C 
ATOM     44  C   UNL A   1      43.946  26.768  29.989  1.00  0.00     0.029 A 
ATOM     45  C   UNL A   1      43.849  28.087  30.604  1.00  0.00     0.049 A 
ATOM     46  H   UNL A   1      42.222  29.389  30.561  1.00  0.00     0.167 HD
ATOM     47  C   UNL A   1      38.780  32.073  30.320  1.00  0.00     0.031 A 
ATOM     48  C   UNL A   1      44.824  28.685  31.316  1.00  0.00     0.031 A 
ATOM     49  C   UNL A   1      39.733  32.756  31.155  1.00  0.00     0.049 A 
ATOM     50  C   UNL A   1      44.574  30.046  31.905  1.00  0.00     0.074 A 
ATOM     51  C   UNL A   1      39.596  33.976  31.796  1.00  0.00     0.029 A 
ATOM     52  N   UNL A   1      40.998  32.281  31.468  1.00  0.00    -0.354 N 
ATOM     53  N   UNL A   1      43.499  30.794  31.825  1.00  0.00    -0.248 NA
ATOM     54  C   UNL A   1      45.664  30.637  32.693  1.00  0.00     0.031 C 
ATOM     55  C   UNL A   1      40.797  34.261  32.454  1.00  0.00     0.029 A 
ATOM     56  C   UNL A   1      41.660  33.191  32.274  1.00  0.00     0.049 A 
ATOM     57  H   UNL A   1      41.370  31.422  31.161  1.00  0.00     0.167 HD
ATOM     58  C   UNL A   1      43.773  31.932  32.575  1.00  0.00     0.074 A 
ATOM     59  C   UNL A   1      45.108  31.765  33.114  1.00  0.00     0.031 C 
ATOM     60  C   UNL A   1      42.990  33.016  32.798  1.00  0.00     0.031 A 
BRANCH  47  61
ATOM     61  C   UNL A   1      37.469  32.754  30.022  1.00  0.00    -0.014 A 
ATOM     62  C   UNL A   1      37.271  33.454  28.817  1.00  0.00     0.010 A 
ATOM     63  C   UNL A   1      36.408  32.663  30.941  1.00  0.00     0.010 A 
ATOM     64  C   UNL A   1      36.053  34.089  28.559  1.00  0.00     0.020 A 
ATOM     65  C   UNL A   1      35.177  33.271  30.671  1.00  0.00     0.020 A 
ATOM     66  C   UNL A   1      35.014  33.995  29.489  1.00  0.00     0.054 A 
BRANCH  66  67
ATOM     67  S   UNL A   1      33.439  34.813  29.117  1.00  0.00     0.124 S 
ATOM     68  O   UNL A   1      32.850  33.900  28.139  1.00  0.00    -0.237 OA
ATOM     69  O   UNL A   1      32.780  34.847  30.420  1.00  0.00    -0.237 OA
ATOM     70  O   UNL A   1      33.839  36.116  28.590  1.00  0.00    -0.744 OA
ENDBRANCH  66  67
ENDBRANCH  47  61
BRANCH  48  71
ATOM     71  C   UNL A   1      46.122  27.988  31.530  1.00  0.00    -0.014 A 
ATOM     72  C   UNL A   1      46.311  27.160  32.650  1.00  0.00     0.010 A 
ATOM     73  C   UNL A   1      47.172  28.136  30.605  1.00  0.00     0.010 A 
ATOM     74  C   UNL A   1      47.531  26.508  32.853  1.00  0.00     0.020 A 
ATOM     75  C   UNL A   1      48.383  27.462  30.789  1.00  0.00     0.020 A 
ATOM     76  C   UNL A   1      48.559  26.661  31.918  1.00  0.00     0.054 A 
BRANCH  76  77
ATOM     77  S   UNL A   1      50.113  25.761  32.173  1.00  0.00     0.124 S 
ATOM     78  O   UNL A   1      49.646  24.387  32.330  1.00  0.00    -0.237 OA
ATOM     79  O   UNL A   1      50.848  26.045  30.943  1.00  0.00    -0.237 OA
ATOM     80  O   UNL A   1      50.670  26.375  33.376  1.00  0.00    -0.744 OA
ENDBRANCH  76  77
ENDBRANCH  48  71
BRANCH  60  81
ATOM     81  C   UNL A   1      43.542  34.094  33.693  1.00  0.00    -0.014 A 
ATOM     82  C   UNL A   1      43.279  34.103  35.076  1.00  0.00     0.010 A 
ATOM     83  C   UNL A   1      44.371  35.091  33.148  1.00  0.00     0.010 A 
ATOM     84  C   UNL A   1      43.803  35.113  35.886  1.00  0.00     0.020 A 
ATOM     85  C   UNL A   1      44.921  36.084  33.960  1.00  0.00     0.020 A 
ATOM     86  C   UNL A   1      44.620  36.100  35.324  1.00  0.00     0.054 A 
BRANCH  86  87
ATOM     87  S   UNL A   1      45.313  37.381  36.403  1.00  0.00     0.124 S 
ATOM     88  O   UNL A   1      45.435  36.673  37.674  1.00  0.00    -0.237 OA
ATOM     89  O   UNL A   1      46.573  37.710  35.742  1.00  0.00    -0.237 OA
ATOM     90  O   UNL A   1      44.306  38.440  36.375  1.00  0.00    -0.744 OA
ENDBRANCH  86  87
ENDBRANCH  60  81
ENDBRANCH  34  35
ENDBRANCH  26  29
ENDBRANCH  24  25
ENDBRANCH  23  24
ENDBRANCH   1  23
TORSDOF 17
ENDMDL
MODEL 3
REMARK VINA RESULT:     -10.3      5.019     12.240
REMARK SMILES Cc1nc(C[N@H+](C)[C@H](C)c2ccc(C(=O)NCCCNC(=O)c3ccc(-c4c5nc(c(-c6ccc(S(=O)(=O)[O-])cc6)c6ccc([nH]6)c(-c6ccc(S(=O)(=O)[O-])cc6)c6nc(c(-c7ccc(S(=O)(=O)[O-])cc7)c7ccc4[nH]7)C=C6)C=C5)cc3)o2)cs1
REMARK SMILES IDX 17 1 16 2 14 3 15 4 13 6 10 7 11 8 83 9 12 10 8 11 9 12 6 13
REMARK SMILES IDX 7 14 5 16 4 17 1 18 2 19 3 20 85 21 84 22 18 23 19 24 20 25
REMARK SMILES IDX 21 26 22 28 23 29 24 30 82 31 25 32 81 33 26 34 27 35 28 36
REMARK SMILES IDX 75 37 29 38 80 39 74 40 76 41 30 42 79 43 73 44 72 45 31 47
REMARK SMILES IDX 61 48 42 49 60 50 43 51 46 52 59 53 77 54 44 55 45 56 58 58
REMARK SMILES IDX 78 59 47 60 32 61 33 62 41 63 34 64 40 65 35 66 36 67 37 68
REMARK SMILES IDX 38 69 39 70 62 71 63 72 71 73 64 74 70 75 65 76 66 77 67 78
REMARK SMILES IDX 68 79 69 80 48 81 49 82 57 83 50 84 56 85 51 86 52 87 53 88
REMARK SMILES IDX 54 89 55 90
REMARK H PARENT 16 5 6 15 20 27 76 46 46 57
REMARK Flexibility Score: inf
ROOT
ATOM      1  C   UNL A   1      43.337  20.778  26.203  1.00  0.00     0.118 C 
ENDROOT
BRANCH   1   2
ATOM      2  N   UNL A   1      44.622  20.890  25.534  1.00  0.00    -0.349 N 
ATOM      3  C   UNL A   1      45.545  21.912  25.580  1.00  0.00     0.287 C 
ATOM      4  O   UNL A   1      46.482  21.854  24.780  1.00  0.00    -0.266 OA
ATOM      5  H   UNL A   1      44.869  20.124  24.966  1.00  0.00     0.163 HD
BRANCH   3   6
ATOM      6  C   UNL A   1      45.384  22.976  26.545  1.00  0.00     0.191 A 
ATOM      7  C   UNL A   1      45.138  25.082  27.155  1.00  0.00     0.161 A 
ATOM      8  C   UNL A   1      45.089  24.329  28.311  1.00  0.00     0.053 A 
ATOM      9  O   UNL A   1      45.354  24.267  26.083  1.00  0.00    -0.450 OA
ATOM     10  C   UNL A   1      45.269  22.986  27.923  1.00  0.00     0.057 A 
BRANCH   7  11
ATOM     11  C   UNL A   1      45.023  26.564  26.925  1.00  0.00     0.248 C 
ATOM     12  C   UNL A   1      45.991  27.416  27.758  1.00  0.00     0.084 C 
BRANCH  11  13
ATOM     13  N   UNL A   1      44.991  26.864  25.473  1.00  0.00    -0.324 N 
ATOM     14  C   UNL A   1      43.614  27.064  25.013  1.00  0.00     0.333 C 
ATOM     15  H   UNL A   1      45.412  26.033  25.059  1.00  0.00     0.348 HD
BRANCH  13  16
ATOM     16  C   UNL A   1      45.828  27.989  25.000  1.00  0.00     0.320 C 
BRANCH  16  17
ATOM     17  C   UNL A   1      47.094  27.596  24.284  1.00  0.00     0.106 A 
ATOM     18  C   UNL A   1      48.985  27.743  21.150  1.00  0.00     0.079 C 
ATOM     19  C   UNL A   1      48.462  27.553  22.531  1.00  0.00     0.090 A 
ATOM     20  N   UNL A   1      47.268  27.928  22.941  1.00  0.00    -0.241 NA
ATOM     21  S   UNL A   1      49.445  26.789  23.713  1.00  0.00    -0.127 S 
ATOM     22  C   UNL A   1      48.195  26.984  24.859  1.00  0.00     0.096 A 
ENDBRANCH  16  17
ENDBRANCH  13  16
ENDBRANCH  11  13
ENDBRANCH   7  11
ENDBRANCH   3   6
ENDBRANCH   1   2
BRANCH   1  23
ATOM     23  C   UNL A   1      42.324  21.799  25.700  1.00  0.00     0.042 C 
BRANCH  23  24
ATOM     24  C   UNL A   1      41.188  22.096  26.668  1.00  0.00     0.118 C 
BRANCH  24  25
ATOM     25  N   UNL A   1      39.913  22.313  25.998  1.00  0.00    -0.352 N 
ATOM     26  C   UNL A   1      39.019  23.352  26.091  1.00  0.00     0.251 C 
ATOM     27  H   UNL A   1      39.648  21.596  25.377  1.00  0.00     0.163 HD
ATOM     28  O   UNL A   1      37.919  23.239  25.556  1.00  0.00    -0.269 OA
BRANCH  26  29
ATOM     29  C   UNL A   1      39.351  24.585  26.844  1.00  0.00     0.039 A 
ATOM     30  C   UNL A   1      38.904  24.707  28.162  1.00  0.00     0.014 A 
ATOM     31  C   UNL A   1      40.071  25.630  26.260  1.00  0.00     0.014 A 
ATOM     32  C   UNL A   1      39.239  25.840  28.911  1.00  0.00     0.010 A 
ATOM     33  C   UNL A   1      40.485  26.712  27.035  1.00  0.00     0.010 A 
ATOM     34  C   UNL A   1      40.068  26.835  28.368  1.00  0.00    -0.014 A 
BRANCH  34  35
ATOM     35  C   UNL A   1      40.503  28.006  29.175  1.00  0.00     0.031 A 
ATOM     36  C   UNL A   1      41.845  28.002  29.862  1.00  0.00     0.074 A 
ATOM     37  C   UNL A   1      39.667  29.051  29.341  1.00  0.00     0.049 A 
ATOM     38  N   UNL A   1      42.375  28.910  30.641  1.00  0.00    -0.248 NA
ATOM     39  C   UNL A   1      42.691  26.812  29.669  1.00  0.00     0.031 C 
ATOM     40  C   UNL A   1      38.322  29.160  28.770  1.00  0.00     0.029 A 
ATOM     41  N   UNL A   1      39.825  30.223  30.039  1.00  0.00    -0.354 N 
ATOM     42  C   UNL A   1      43.603  28.397  31.044  1.00  0.00     0.074 A 
ATOM     43  C   UNL A   1      43.715  27.074  30.468  1.00  0.00     0.031 C 
ATOM     44  C   UNL A   1      37.794  30.346  29.111  1.00  0.00     0.029 A 
ATOM     45  C   UNL A   1      38.740  31.064  29.958  1.00  0.00     0.049 A 
ATOM     46  H   UNL A   1      40.637  30.440  30.550  1.00  0.00     0.167 HD
ATOM     47  C   UNL A   1      44.562  28.979  31.804  1.00  0.00     0.031 A 
ATOM     48  C   UNL A   1      38.527  32.277  30.504  1.00  0.00     0.031 A 
ATOM     49  C   UNL A   1      44.455  30.299  32.365  1.00  0.00     0.049 A 
ATOM     50  C   UNL A   1      39.605  32.903  31.346  1.00  0.00     0.074 A 
ATOM     51  C   UNL A   1      45.395  30.999  33.103  1.00  0.00     0.029 A 
ATOM     52  N   UNL A   1      43.344  31.122  32.251  1.00  0.00    -0.354 N 
ATOM     53  N   UNL A   1      40.785  32.425  31.663  1.00  0.00    -0.248 NA
ATOM     54  C   UNL A   1      39.327  34.238  31.893  1.00  0.00     0.031 C 
ATOM     55  C   UNL A   1      44.832  32.224  33.478  1.00  0.00     0.029 A 
ATOM     56  C   UNL A   1      43.566  32.312  32.922  1.00  0.00     0.049 A 
ATOM     57  H   UNL A   1      42.520  30.892  31.764  1.00  0.00     0.167 HD
ATOM     58  C   UNL A   1      41.401  33.413  32.423  1.00  0.00     0.074 A 
ATOM     59  C   UNL A   1      40.470  34.519  32.503  1.00  0.00     0.031 C 
ATOM     60  C   UNL A   1      42.628  33.404  33.000  1.00  0.00     0.031 A 
BRANCH  47  61
ATOM     61  C   UNL A   1      45.815  28.184  32.073  1.00  0.00    -0.014 A 
ATOM     62  C   UNL A   1      45.909  27.332  33.189  1.00  0.00     0.010 A 
ATOM     63  C   UNL A   1      46.899  28.262  31.180  1.00  0.00     0.010 A 
ATOM     64  C   UNL A   1      47.080  26.609  33.431  1.00  0.00     0.020 A 
ATOM     65  C   UNL A   1      48.060  27.515  31.402  1.00  0.00     0.020 A 
ATOM     66  C   UNL A   1      48.150  26.707  32.538  1.00  0.00     0.054 A 
BRANCH  66  67
ATOM     67  S   UNL A   1      49.649  25.741  32.867  1.00  0.00     0.124 S 
ATOM     68  O   UNL A   1      50.325  25.785  31.573  1.00  0.00    -0.237 OA
ATOM     69  O   UNL A   1      50.291  26.501  33.937  1.00  0.00    -0.237 OA
ATOM     70  O   UNL A   1      49.139  24.429  33.259  1.00  0.00    -0.744 OA
ENDBRANCH  66  67
ENDBRANCH  47  61
BRANCH  48  71
ATOM     71  C   UNL A   1      37.245  32.992  30.250  1.00  0.00    -0.014 A 
ATOM     72  C   UNL A   1      36.998  33.592  29.004  1.00  0.00     0.010 A 
ATOM     73  C   UNL A   1      36.258  33.062  31.251  1.00  0.00     0.010 A 
ATOM     74  C   UNL A   1      35.796  34.266  28.767  1.00  0.00     0.020 A 
ATOM     75  C   UNL A   1      35.043  33.709  31.008  1.00  0.00     0.020 A 
ATOM     76  C   UNL A   1      34.825  34.318  29.771  1.00  0.00     0.054 A 
BRANCH  76  77
ATOM     77  S   UNL A   1      33.250  35.149  29.421  1.00  0.00     0.124 S 
ATOM     78  O   UNL A   1      33.693  36.477  29.008  1.00  0.00    -0.237 OA
ATOM     79  O   UNL A   1      32.679  34.314  28.368  1.00  0.00    -0.237 OA
ATOM     80  O   UNL A   1      32.544  35.093  30.700  1.00  0.00    -0.744 OA
ENDBRANCH  76  77
ENDBRANCH  48  71
BRANCH  60  81
ATOM     81  C   UNL A   1      43.051  34.644  33.743  1.00  0.00    -0.014 A 
ATOM     82  C   UNL A   1      42.878  34.758  35.134  1.00  0.00     0.010 A 
ATOM     83  C   UNL A   1      43.670  35.695  33.041  1.00  0.00     0.010 A 
ATOM     84  C   UNL A   1      43.280  35.917  35.802  1.00  0.00     0.020 A 
ATOM     85  C   UNL A   1      44.100  36.843  33.710  1.00  0.00     0.020 A 
ATOM     86  C   UNL A   1      43.886  36.955  35.086  1.00  0.00     0.054 A 
BRANCH  86  87
ATOM     87  S   UNL A   1      44.426  38.436  35.981  1.00  0.00     0.124 S 
ATOM     88  O   UNL A   1      43.684  38.321  37.233  1.00  0.00    -0.237 OA
ATOM     89  O   UNL A   1      45.870  38.240  36.085  1.00  0.00    -0.237 OA
ATOM     90  O   UNL A   1      44.014  39.536  35.112  1.00  0.00    -0.744 OA
ENDBRANCH  86  87
ENDBRANCH  60  81
ENDBRANCH  34  35
ENDBRANCH  26  29
ENDBRANCH  24  25
ENDBRANCH  23  24
ENDBRANCH   1  23
TORSDOF 17
ENDMDL
