MODEL 1
REMARK VINA RESULT:     -10.9      0.000      0.000
REMARK SMILES COC(=O)c1ccc(C[N@@H+](CC(=O)NCCCNC(=O)c2ccc(-c3c4nc(c(-c5ccc(S(=O)(=O)[O-])cc5)c5ccc([nH]5)c(-c5ccc(S(=O)(=O)[O-])cc5)c5nc(c(-c6ccc(S(=O)(=O)[O-])cc6)c6ccc3[nH]6)C=C5)C=C4)cc2)C(C)(C)C)cc1
REMARK SMILES IDX 15 1 14 2 12 3 13 4 11 6 10 7 9 9 8 10 5 11 6 12 86 13 7 14
REMARK SMILES IDX 85 15 3 16 4 17 2 18 1 19 81 20 82 21 83 22 84 23 16 24
REMARK SMILES IDX 17 25 18 26 19 27 20 29 21 30 22 31 80 32 23 33 79 34 24 35
REMARK SMILES IDX 25 36 26 37 73 38 27 39 78 40 72 41 74 42 28 43 77 44 71 45
REMARK SMILES IDX 70 46 29 48 59 49 40 50 58 51 41 52 44 53 57 54 75 55 42 56
REMARK SMILES IDX 43 57 56 59 76 60 45 61 30 62 31 63 39 64 32 65 38 66 33 67
REMARK SMILES IDX 34 68 35 69 36 70 37 71 60 72 61 73 69 74 62 75 68 76 63 77
REMARK SMILES IDX 64 78 65 79 66 80 67 81 46 82 47 83 55 84 48 85 54 86 49 87
REMARK SMILES IDX 50 88 51 89 52 90 53 91
REMARK H PARENT 14 5 10 8 18 28 74 47 44 58
REMARK Flexibility Score: inf
ROOT
ATOM      1  C   UNL A   1      37.099  22.495  25.777  1.00  0.00     0.118 C 
ENDROOT
BRANCH   1   2
ATOM      2  N   UNL A   1      35.930  22.268  26.614  1.00  0.00    -0.351 N 
ATOM      3  C   UNL A   1      34.591  22.241  26.348  1.00  0.00     0.275 C 
ATOM      4  O   UNL A   1      33.868  21.856  27.277  1.00  0.00    -0.269 OA
ATOM      5  H   UNL A   1      36.149  22.100  27.560  1.00  0.00     0.163 HD
BRANCH   3   6
ATOM      6  C   UNL A   1      33.971  22.588  24.981  1.00  0.00     0.364 C 
BRANCH   6   7
ATOM      7  N   UNL A   1      32.475  22.508  24.836  1.00  0.00    -0.319 N 
ATOM      8  H   UNL A   1      32.042  22.209  25.710  1.00  0.00     0.349 HD
BRANCH   7   9
ATOM      9  C   UNL A   1      32.176  21.456  23.863  1.00  0.00     0.299 C 
BRANCH   9  10
ATOM     10  C   UNL A   1      32.487  20.002  24.091  1.00  0.00     0.006 A 
ATOM     11  C   UNL A   1      32.876  17.265  24.581  1.00  0.00     0.060 A 
ATOM     12  C   UNL A   1      32.851  17.755  23.268  1.00  0.00     0.016 A 
ATOM     13  C   UNL A   1      32.702  18.143  25.655  1.00  0.00     0.016 A 
ATOM     14  C   UNL A   1      32.651  19.117  23.022  1.00  0.00     0.010 A 
ATOM     15  C   UNL A   1      32.504  19.498  25.407  1.00  0.00     0.010 A 
BRANCH  11  16
ATOM     16  C   UNL A   1      33.118  15.821  24.796  1.00  0.00     0.337 C 
ATOM     17  O   UNL A   1      32.299  15.078  25.320  1.00  0.00    -0.246 OA
BRANCH  16  18
ATOM     18  O   UNL A   1      34.360  15.490  24.371  1.00  0.00    -0.465 OA
ATOM     19  C   UNL A   1      35.403  15.779  25.306  1.00  0.00     0.282 C 
ENDBRANCH  16  18
ENDBRANCH  11  16
ENDBRANCH   9  10
ENDBRANCH   7   9
BRANCH   7  20
ATOM     20  C   UNL A   1      31.740  23.809  24.789  1.00  0.00     0.090 C 
ATOM     21  C   UNL A   1      30.953  24.174  26.067  1.00  0.00     0.078 C 
ATOM     22  C   UNL A   1      32.676  25.009  24.497  1.00  0.00     0.078 C 
ATOM     23  C   UNL A   1      30.753  23.792  23.592  1.00  0.00     0.078 C 
ENDBRANCH   7  20
ENDBRANCH   6   7
ENDBRANCH   3   6
ENDBRANCH   1   2
BRANCH   1  24
ATOM     24  C   UNL A   1      37.532  23.964  25.761  1.00  0.00     0.042 C 
BRANCH  24  25
ATOM     25  C   UNL A   1      38.631  24.346  26.732  1.00  0.00     0.118 C 
BRANCH  25  26
ATOM     26  N   UNL A   1      39.796  24.886  26.069  1.00  0.00    -0.352 N 
ATOM     27  C   UNL A   1      40.531  26.021  26.317  1.00  0.00     0.251 C 
ATOM     28  H   UNL A   1      40.119  24.350  25.310  1.00  0.00     0.163 HD
ATOM     29  O   UNL A   1      41.351  26.371  25.468  1.00  0.00    -0.269 OA
BRANCH  27  30
ATOM     30  C   UNL A   1      40.363  26.836  27.552  1.00  0.00     0.039 A 
ATOM     31  C   UNL A   1      40.927  28.118  27.579  1.00  0.00     0.014 A 
ATOM     32  C   UNL A   1      39.761  26.347  28.713  1.00  0.00     0.014 A 
ATOM     33  C   UNL A   1      40.882  28.891  28.745  1.00  0.00     0.010 A 
ATOM     34  C   UNL A   1      39.609  27.161  29.836  1.00  0.00     0.010 A 
ATOM     35  C   UNL A   1      40.215  28.422  29.887  1.00  0.00    -0.014 A 
BRANCH  35  36
ATOM     36  C   UNL A   1      40.232  29.191  31.162  1.00  0.00     0.031 A 
ATOM     37  C   UNL A   1      41.326  28.941  32.177  1.00  0.00     0.074 A 
ATOM     38  C   UNL A   1      39.273  30.100  31.423  1.00  0.00     0.049 A 
ATOM     39  N   UNL A   1      41.511  29.496  33.348  1.00  0.00    -0.248 NA
ATOM     40  C   UNL A   1      42.329  27.916  31.843  1.00  0.00     0.031 C 
ATOM     41  C   UNL A   1      38.144  30.417  30.545  1.00  0.00     0.029 A 
ATOM     42  N   UNL A   1      39.097  30.931  32.502  1.00  0.00    -0.354 N 
ATOM     43  C   UNL A   1      42.631  28.874  33.892  1.00  0.00     0.074 A 
ATOM     44  C   UNL A   1      43.046  27.857  32.954  1.00  0.00     0.031 C 
ATOM     45  C   UNL A   1      37.417  31.401  31.102  1.00  0.00     0.029 A 
ATOM     46  C   UNL A   1      38.001  31.755  32.393  1.00  0.00     0.049 A 
ATOM     47  H   UNL A   1      39.699  30.938  33.282  1.00  0.00     0.167 HD
ATOM     48  C   UNL A   1      43.277  29.141  35.053  1.00  0.00     0.031 A 
ATOM     49  C   UNL A   1      37.518  32.691  33.234  1.00  0.00     0.031 A 
ATOM     50  C   UNL A   1      42.878  30.168  35.976  1.00  0.00     0.049 A 
ATOM     51  C   UNL A   1      38.249  32.967  34.521  1.00  0.00     0.074 A 
ATOM     52  C   UNL A   1      43.493  30.552  37.155  1.00  0.00     0.029 A 
ATOM     53  N   UNL A   1      41.764  30.980  35.823  1.00  0.00    -0.354 N 
ATOM     54  N   UNL A   1      39.338  32.404  34.989  1.00  0.00    -0.248 NA
ATOM     55  C   UNL A   1      37.694  34.018  35.386  1.00  0.00     0.031 C 
ATOM     56  C   UNL A   1      42.721  31.557  37.743  1.00  0.00     0.029 A 
ATOM     57  C   UNL A   1      41.663  31.849  36.896  1.00  0.00     0.049 A 
ATOM     58  H   UNL A   1      41.138  30.943  35.064  1.00  0.00     0.167 HD
ATOM     59  C   UNL A   1      39.620  33.060  36.185  1.00  0.00     0.074 A 
ATOM     60  C   UNL A   1      38.593  34.067  36.360  1.00  0.00     0.031 C 
ATOM     61  C   UNL A   1      40.638  32.849  37.055  1.00  0.00     0.031 A 
BRANCH  48  62
ATOM     62  C   UNL A   1      44.485  28.301  35.390  1.00  0.00    -0.014 A 
ATOM     63  C   UNL A   1      45.761  28.624  34.892  1.00  0.00     0.010 A 
ATOM     64  C   UNL A   1      44.349  27.193  36.246  1.00  0.00     0.010 A 
ATOM     65  C   UNL A   1      46.866  27.829  35.203  1.00  0.00     0.020 A 
ATOM     66  C   UNL A   1      45.459  26.414  36.587  1.00  0.00     0.020 A 
ATOM     67  C   UNL A   1      46.708  26.727  36.048  1.00  0.00     0.054 A 
BRANCH  67  68
ATOM     68  S   UNL A   1      48.165  25.724  36.450  1.00  0.00     0.124 S 
ATOM     69  O   UNL A   1      47.662  24.367  36.247  1.00  0.00    -0.237 OA
ATOM     70  O   UNL A   1      49.148  26.182  35.472  1.00  0.00    -0.237 OA
ATOM     71  O   UNL A   1      48.459  26.077  37.836  1.00  0.00    -0.744 OA
ENDBRANCH  67  68
ENDBRANCH  48  62
BRANCH  49  72
ATOM     72  C   UNL A   1      36.289  33.452  32.875  1.00  0.00    -0.014 A 
ATOM     73  C   UNL A   1      36.348  34.833  32.618  1.00  0.00     0.010 A 
ATOM     74  C   UNL A   1      35.050  32.792  32.782  1.00  0.00     0.010 A 
ATOM     75  C   UNL A   1      35.189  35.544  32.295  1.00  0.00     0.020 A 
ATOM     76  C   UNL A   1      33.894  33.494  32.428  1.00  0.00     0.020 A 
ATOM     77  C   UNL A   1      33.969  34.869  32.199  1.00  0.00     0.054 A 
BRANCH  77  78
ATOM     78  S   UNL A   1      32.485  35.800  31.726  1.00  0.00     0.124 S 
ATOM     79  O   UNL A   1      32.213  35.280  30.390  1.00  0.00    -0.237 OA
ATOM     80  O   UNL A   1      31.531  35.418  32.763  1.00  0.00    -0.237 OA
ATOM     81  O   UNL A   1      32.928  37.192  31.782  1.00  0.00    -0.744 OA
ENDBRANCH  77  78
ENDBRANCH  49  72
BRANCH  61  82
ATOM     82  C   UNL A   1      40.729  33.758  38.253  1.00  0.00    -0.014 A 
ATOM     83  C   UNL A   1      41.334  35.024  38.172  1.00  0.00     0.010 A 
ATOM     84  C   UNL A   1      40.147  33.353  39.469  1.00  0.00     0.010 A 
ATOM     85  C   UNL A   1      41.389  35.853  39.297  1.00  0.00     0.020 A 
ATOM     86  C   UNL A   1      40.170  34.190  40.585  1.00  0.00     0.020 A 
ATOM     87  C   UNL A   1      40.807  35.430  40.497  1.00  0.00     0.054 A 
BRANCH  87  88
ATOM     88  S   UNL A   1      40.860  36.537  41.931  1.00  0.00     0.124 S 
ATOM     89  O   UNL A   1      39.702  37.395  41.696  1.00  0.00    -0.237 OA
ATOM     90  O   UNL A   1      40.739  35.612  43.055  1.00  0.00    -0.237 OA
ATOM     91  O   UNL A   1      42.159  37.197  41.813  1.00  0.00    -0.744 OA
ENDBRANCH  87  88
ENDBRANCH  61  82
ENDBRANCH  35  36
ENDBRANCH  27  30
ENDBRANCH  25  26
ENDBRANCH  24  25
ENDBRANCH   1  24
TORSDOF 19
ENDMDL
MODEL 2
REMARK VINA RESULT:     -10.8      5.035     10.543
REMARK SMILES COC(=O)c1ccc(C[N@@H+](CC(=O)NCCCNC(=O)c2ccc(-c3c4nc(c(-c5ccc(S(=O)(=O)[O-])cc5)c5ccc([nH]5)c(-c5ccc(S(=O)(=O)[O-])cc5)c5nc(c(-c6ccc(S(=O)(=O)[O-])cc6)c6ccc3[nH]6)C=C5)C=C4)cc2)C(C)(C)C)cc1
REMARK SMILES IDX 15 1 14 2 12 3 13 4 11 6 10 7 9 9 8 10 5 11 6 12 86 13 7 14
REMARK SMILES IDX 85 15 3 16 4 17 2 18 1 19 81 20 82 21 83 22 84 23 16 24
REMARK SMILES IDX 17 25 18 26 19 27 20 29 21 30 22 31 80 32 23 33 79 34 24 35
REMARK SMILES IDX 25 36 26 37 73 38 27 39 78 40 72 41 74 42 28 43 77 44 71 45
REMARK SMILES IDX 70 46 29 48 59 49 40 50 58 51 41 52 44 53 57 54 75 55 42 56
REMARK SMILES IDX 43 57 56 59 76 60 45 61 30 62 31 63 39 64 32 65 38 66 33 67
REMARK SMILES IDX 34 68 35 69 36 70 37 71 60 72 61 73 69 74 62 75 68 76 63 77
REMARK SMILES IDX 64 78 65 79 66 80 67 81 46 82 47 83 55 84 48 85 54 86 49 87
REMARK SMILES IDX 50 88 51 89 52 90 53 91
REMARK H PARENT 14 5 10 8 18 28 74 47 44 58
REMARK Flexibility Score: inf
ROOT
ATOM      1  C   UNL A   1      32.818  28.099  24.773  1.00  0.00     0.118 C 
ENDROOT
BRANCH   1   2
ATOM      2  N   UNL A   1      33.295  27.381  23.599  1.00  0.00    -0.351 N 
ATOM      3  C   UNL A   1      32.723  27.092  22.394  1.00  0.00     0.275 C 
ATOM      4  O   UNL A   1      33.477  26.592  21.548  1.00  0.00    -0.269 OA
ATOM      5  H   UNL A   1      34.214  27.037  23.693  1.00  0.00     0.163 HD
BRANCH   3   6
ATOM      6  C   UNL A   1      31.258  27.407  22.031  1.00  0.00     0.364 C 
BRANCH   6   7
ATOM      7  N   UNL A   1      30.322  27.814  23.135  1.00  0.00    -0.319 N 
ATOM      8  H   UNL A   1      30.841  28.159  23.943  1.00  0.00     0.349 HD
BRANCH   7   9
ATOM      9  C   UNL A   1      29.623  26.613  23.595  1.00  0.00     0.299 C 
BRANCH   9  10
ATOM     10  C   UNL A   1      30.257  25.570  24.473  1.00  0.00     0.006 A 
ATOM     11  C   UNL A   1      31.611  23.644  26.004  1.00  0.00     0.060 A 
ATOM     12  C   UNL A   1      31.268  24.884  26.563  1.00  0.00     0.016 A 
ATOM     13  C   UNL A   1      31.281  23.365  24.676  1.00  0.00     0.016 A 
ATOM     14  C   UNL A   1      30.600  25.845  25.800  1.00  0.00     0.010 A 
ATOM     15  C   UNL A   1      30.615  24.325  23.918  1.00  0.00     0.010 A 
BRANCH  11  16
ATOM     16  C   UNL A   1      32.293  22.645  26.857  1.00  0.00     0.337 C 
ATOM     17  O   UNL A   1      32.276  22.689  28.080  1.00  0.00    -0.246 OA
BRANCH  16  18
ATOM     18  O   UNL A   1      32.941  21.741  26.085  1.00  0.00    -0.465 OA
ATOM     19  C   UNL A   1      34.179  21.276  26.631  1.00  0.00     0.282 C 
ENDBRANCH  16  18
ENDBRANCH  11  16
ENDBRANCH   9  10
ENDBRANCH   7   9
BRANCH   7  20
ATOM     20  C   UNL A   1      29.571  29.092  22.936  1.00  0.00     0.090 C 
ATOM     21  C   UNL A   1      29.785  29.781  21.569  1.00  0.00     0.078 C 
ATOM     22  C   UNL A   1      28.041  28.912  23.099  1.00  0.00     0.078 C 
ATOM     23  C   UNL A   1      29.962  30.091  24.057  1.00  0.00     0.078 C 
ENDBRANCH   7  20
ENDBRANCH   6   7
ENDBRANCH   3   6
ENDBRANCH   1   2
BRANCH   1  24
ATOM     24  C   UNL A   1      33.937  28.385  25.779  1.00  0.00     0.042 C 
BRANCH  24  25
ATOM     25  C   UNL A   1      33.506  28.564  27.221  1.00  0.00     0.118 C 
BRANCH  25  26
ATOM     26  N   UNL A   1      33.574  29.942  27.655  1.00  0.00    -0.352 N 
ATOM     27  C   UNL A   1      34.579  30.645  28.274  1.00  0.00     0.251 C 
ATOM     28  H   UNL A   1      32.760  30.466  27.477  1.00  0.00     0.163 HD
ATOM     29  O   UNL A   1      34.304  31.753  28.735  1.00  0.00    -0.269 OA
BRANCH  27  30
ATOM     30  C   UNL A   1      35.964  30.117  28.414  1.00  0.00     0.039 A 
ATOM     31  C   UNL A   1      36.332  29.545  29.638  1.00  0.00     0.014 A 
ATOM     32  C   UNL A   1      36.937  30.256  27.421  1.00  0.00     0.014 A 
ATOM     33  C   UNL A   1      37.647  29.119  29.857  1.00  0.00     0.010 A 
ATOM     34  C   UNL A   1      38.215  29.723  27.595  1.00  0.00     0.010 A 
ATOM     35  C   UNL A   1      38.604  29.197  28.833  1.00  0.00    -0.014 A 
BRANCH  35  36
ATOM     36  C   UNL A   1      40.027  28.831  29.075  1.00  0.00     0.031 A 
ATOM     37  C   UNL A   1      40.961  29.830  29.721  1.00  0.00     0.074 A 
ATOM     38  C   UNL A   1      40.490  27.619  28.712  1.00  0.00     0.049 A 
ATOM     39  N   UNL A   1      42.234  29.708  30.005  1.00  0.00    -0.248 NA
ATOM     40  C   UNL A   1      40.400  31.145  30.069  1.00  0.00     0.031 C 
ATOM     41  C   UNL A   1      39.704  26.573  28.054  1.00  0.00     0.029 A 
ATOM     42  N   UNL A   1      41.736  27.058  28.852  1.00  0.00    -0.354 N 
ATOM     43  C   UNL A   1      42.623  30.932  30.542  1.00  0.00     0.074 A 
ATOM     44  C   UNL A   1      41.471  31.802  30.485  1.00  0.00     0.031 C 
ATOM     45  C   UNL A   1      40.474  25.485  27.883  1.00  0.00     0.029 A 
ATOM     46  C   UNL A   1      41.818  25.769  28.380  1.00  0.00     0.049 A 
ATOM     47  H   UNL A   1      42.499  27.534  29.252  1.00  0.00     0.167 HD
ATOM     48  C   UNL A   1      43.819  31.295  31.064  1.00  0.00     0.031 A 
ATOM     49  C   UNL A   1      42.855  24.909  28.351  1.00  0.00     0.031 A 
ATOM     50  C   UNL A   1      44.959  30.422  31.141  1.00  0.00     0.049 A 
ATOM     51  C   UNL A   1      44.178  25.334  28.931  1.00  0.00     0.074 A 
ATOM     52  C   UNL A   1      46.202  30.676  31.695  1.00  0.00     0.029 A 
ATOM     53  N   UNL A   1      44.996  29.124  30.654  1.00  0.00    -0.354 N 
ATOM     54  N   UNL A   1      44.507  26.478  29.483  1.00  0.00    -0.248 NA
ATOM     55  C   UNL A   1      45.265  24.346  28.898  1.00  0.00     0.031 C 
ATOM     56  C   UNL A   1      47.007  29.551  31.494  1.00  0.00     0.029 A 
ATOM     57  C   UNL A   1      46.245  28.571  30.877  1.00  0.00     0.049 A 
ATOM     58  H   UNL A   1      44.244  28.664  30.215  1.00  0.00     0.167 HD
ATOM     59  C   UNL A   1      45.827  26.332  29.899  1.00  0.00     0.074 A 
ATOM     60  C   UNL A   1      46.231  24.987  29.542  1.00  0.00     0.031 C 
ATOM     61  C   UNL A   1      46.631  27.230  30.522  1.00  0.00     0.031 A 
BRANCH  48  62
ATOM     62  C   UNL A   1      43.956  32.703  31.589  1.00  0.00    -0.014 A 
ATOM     63  C   UNL A   1      44.391  33.753  30.759  1.00  0.00     0.010 A 
ATOM     64  C   UNL A   1      43.610  32.988  32.923  1.00  0.00     0.010 A 
ATOM     65  C   UNL A   1      44.525  35.048  31.265  1.00  0.00     0.020 A 
ATOM     66  C   UNL A   1      43.711  34.290  33.424  1.00  0.00     0.020 A 
ATOM     67  C   UNL A   1      44.185  35.308  32.595  1.00  0.00     0.054 A 
BRANCH  67  68
ATOM     68  S   UNL A   1      44.350  37.004  33.218  1.00  0.00     0.124 S 
ATOM     69  O   UNL A   1      44.584  37.756  31.987  1.00  0.00    -0.237 OA
ATOM     70  O   UNL A   1      43.058  37.236  33.859  1.00  0.00    -0.237 OA
ATOM     71  O   UNL A   1      45.489  36.931  34.128  1.00  0.00    -0.744 OA
ENDBRANCH  67  68
ENDBRANCH  48  62
BRANCH  49  72
ATOM     72  C   UNL A   1      42.679  23.548  27.769  1.00  0.00    -0.014 A 
ATOM     73  C   UNL A   1      43.076  23.275  26.448  1.00  0.00     0.010 A 
ATOM     74  C   UNL A   1      42.117  22.515  28.541  1.00  0.00     0.010 A 
ATOM     75  C   UNL A   1      42.895  22.000  25.903  1.00  0.00     0.020 A 
ATOM     76  C   UNL A   1      41.965  21.231  28.010  1.00  0.00     0.020 A 
ATOM     77  C   UNL A   1      42.344  20.986  26.690  1.00  0.00     0.054 A 
BRANCH  77  78
ATOM     78  S   UNL A   1      42.167  19.324  25.981  1.00  0.00     0.124 S 
ATOM     79  O   UNL A   1      42.716  18.483  27.040  1.00  0.00    -0.237 OA
ATOM     80  O   UNL A   1      40.724  19.223  25.774  1.00  0.00    -0.237 OA
ATOM     81  O   UNL A   1      42.960  19.393  24.756  1.00  0.00    -0.744 OA
ENDBRANCH  77  78
ENDBRANCH  49  72
BRANCH  61  82
ATOM     82  C   UNL A   1      48.013  26.774  30.910  1.00  0.00    -0.014 A 
ATOM     83  C   UNL A   1      49.099  26.877  30.022  1.00  0.00     0.010 A 
ATOM     84  C   UNL A   1      48.236  26.283  32.210  1.00  0.00     0.010 A 
ATOM     85  C   UNL A   1      50.374  26.461  30.416  1.00  0.00     0.020 A 
ATOM     86  C   UNL A   1      49.514  25.898  32.618  1.00  0.00     0.020 A 
ATOM     87  C   UNL A   1      50.573  25.973  31.711  1.00  0.00     0.054 A 
BRANCH  87  88
ATOM     88  S   UNL A   1      52.243  25.473  32.209  1.00  0.00     0.124 S 
ATOM     89  O   UNL A   1      52.102  24.025  32.333  1.00  0.00    -0.237 OA
ATOM     90  O   UNL A   1      53.061  25.931  31.089  1.00  0.00    -0.237 OA
ATOM     91  O   UNL A   1      52.460  26.188  33.465  1.00  0.00    -0.744 OA
ENDBRANCH  87  88
ENDBRANCH  61  82
ENDBRANCH  35  36
ENDBRANCH  27  30
ENDBRANCH  25  26
ENDBRANCH  24  25
ENDBRANCH   1  24
TORSDOF 19
ENDMDL
MODEL 3
REMARK VINA RESULT:     -10.8      5.633      7.656
REMARK SMILES COC(=O)c1ccc(C[N@@H+](CC(=O)NCCCNC(=O)c2ccc(-c3c4nc(c(-c5ccc(S(=O)(=O)[O-])cc5)c5ccc([nH]5)c(-c5ccc(S(=O)(=O)[O-])cc5)c5nc(c(-c6ccc(S(=O)(=O)[O-])cc6)c6ccc3[nH]6)C=C5)C=C4)cc2)C(C)(C)C)cc1
REMARK SMILES IDX 15 1 14 2 12 3 13 4 11 6 10 7 9 9 8 10 5 11 6 12 86 13 7 14
REMARK SMILES IDX 85 15 3 16 4 17 2 18 1 19 81 20 82 21 83 22 84 23 16 24
REMARK SMILES IDX 17 25 18 26 19 27 20 29 21 30 22 31 80 32 23 33 79 34 24 35
REMARK SMILES IDX 25 36 26 37 73 38 27 39 78 40 72 41 74 42 28 43 77 44 71 45
REMARK SMILES IDX 70 46 29 48 59 49 40 50 58 51 41 52 44 53 57 54 75 55 42 56
REMARK SMILES IDX 43 57 56 59 76 60 45 61 30 62 31 63 39 64 32 65 38 66 33 67
REMARK SMILES IDX 34 68 35 69 36 70 37 71 60 72 61 73 69 74 62 75 68 76 63 77
REMARK SMILES IDX 64 78 65 79 66 80 67 81 46 82 47 83 55 84 48 85 54 86 49 87
REMARK SMILES IDX 50 88 51 89 52 90 53 91
REMARK H PARENT 14 5 10 8 18 28 74 47 44 58
REMARK Flexibility Score: inf
ROOT
ATOM      1  C   UNL A   1      35.199  22.625  23.973  1.00  0.00     0.118 C 
ENDROOT
BRANCH   1   2
ATOM      2  N   UNL A   1      34.626  23.259  22.794  1.00  0.00    -0.351 N 
ATOM      3  C   UNL A   1      33.340  23.505  22.407  1.00  0.00     0.275 C 
ATOM      4  O   UNL A   1      33.209  24.216  21.402  1.00  0.00    -0.269 OA
ATOM      5  H   UNL A   1      35.300  23.572  22.147  1.00  0.00     0.163 HD
BRANCH   3   6
ATOM      6  C   UNL A   1      32.095  23.015  23.172  1.00  0.00     0.364 C 
BRANCH   6   7
ATOM      7  N   UNL A   1      31.539  23.889  24.263  1.00  0.00    -0.319 N 
ATOM      8  H   UNL A   1      30.519  23.852  24.273  1.00  0.00     0.349 HD
BRANCH   7   9
ATOM      9  C   UNL A   1      31.884  25.275  23.944  1.00  0.00     0.299 C 
BRANCH   9  10
ATOM     10  C   UNL A   1      30.875  26.305  23.516  1.00  0.00     0.006 A 
ATOM     11  C   UNL A   1      28.974  28.282  22.913  1.00  0.00     0.060 A 
ATOM     12  C   UNL A   1      30.308  28.431  22.508  1.00  0.00     0.016 A 
ATOM     13  C   UNL A   1      28.587  27.144  23.625  1.00  0.00     0.016 A 
ATOM     14  C   UNL A   1      31.256  27.451  22.813  1.00  0.00     0.010 A 
ATOM     15  C   UNL A   1      29.534  26.168  23.927  1.00  0.00     0.010 A 
BRANCH  11  16
ATOM     16  C   UNL A   1      27.998  29.331  22.544  1.00  0.00     0.337 C 
ATOM     17  O   UNL A   1      27.027  29.611  23.234  1.00  0.00    -0.246 OA
BRANCH  16  18
ATOM     18  O   UNL A   1      28.327  29.871  21.347  1.00  0.00    -0.465 OA
ATOM     19  C   UNL A   1      28.012  31.261  21.218  1.00  0.00     0.282 C 
ENDBRANCH  16  18
ENDBRANCH  11  16
ENDBRANCH   9  10
ENDBRANCH   7   9
BRANCH   7  20
ATOM     20  C   UNL A   1      31.680  23.380  25.662  1.00  0.00     0.090 C 
ATOM     21  C   UNL A   1      30.445  23.580  26.569  1.00  0.00     0.078 C 
ATOM     22  C   UNL A   1      32.015  21.867  25.711  1.00  0.00     0.078 C 
ATOM     23  C   UNL A   1      32.899  24.066  26.332  1.00  0.00     0.078 C 
ENDBRANCH   7  20
ENDBRANCH   6   7
ENDBRANCH   3   6
ENDBRANCH   1   2
BRANCH   1  24
ATOM     24  C   UNL A   1      36.348  23.439  24.575  1.00  0.00     0.042 C 
BRANCH  24  25
ATOM     25  C   UNL A   1      36.711  23.119  26.011  1.00  0.00     0.118 C 
BRANCH  25  26
ATOM     26  N   UNL A   1      37.862  22.250  26.114  1.00  0.00    -0.352 N 
ATOM     27  C   UNL A   1      39.177  22.524  26.402  1.00  0.00     0.251 C 
ATOM     28  H   UNL A   1      37.671  21.299  25.948  1.00  0.00     0.163 HD
ATOM     29  O   UNL A   1      40.004  21.632  26.213  1.00  0.00    -0.269 OA
BRANCH  27  30
ATOM     30  C   UNL A   1      39.632  23.846  26.915  1.00  0.00     0.039 A 
ATOM     31  C   UNL A   1      39.789  24.892  25.998  1.00  0.00     0.014 A 
ATOM     32  C   UNL A   1      40.002  24.061  28.245  1.00  0.00     0.014 A 
ATOM     33  C   UNL A   1      40.304  26.127  26.409  1.00  0.00     0.010 A 
ATOM     34  C   UNL A   1      40.399  25.326  28.679  1.00  0.00     0.010 A 
ATOM     35  C   UNL A   1      40.608  26.361  27.759  1.00  0.00    -0.014 A 
BRANCH  35  36
ATOM     36  C   UNL A   1      41.238  27.636  28.200  1.00  0.00     0.031 A 
ATOM     37  C   UNL A   1      42.729  27.834  28.042  1.00  0.00     0.074 A 
ATOM     38  C   UNL A   1      40.488  28.611  28.749  1.00  0.00     0.049 A 
ATOM     39  N   UNL A   1      43.467  28.863  28.373  1.00  0.00    -0.248 NA
ATOM     40  C   UNL A   1      43.495  26.719  27.459  1.00  0.00     0.031 C 
ATOM     41  C   UNL A   1      39.045  28.540  28.987  1.00  0.00     0.029 A 
ATOM     42  N   UNL A   1      40.836  29.860  29.202  1.00  0.00    -0.354 N 
ATOM     43  C   UNL A   1      44.776  28.510  28.059  1.00  0.00     0.074 A 
ATOM     44  C   UNL A   1      44.741  27.151  27.571  1.00  0.00     0.031 C 
ATOM     45  C   UNL A   1      38.626  29.707  29.505  1.00  0.00     0.029 A 
ATOM     46  C   UNL A   1      39.773  30.594  29.675  1.00  0.00     0.049 A 
ATOM     47  H   UNL A   1      41.761  30.200  29.190  1.00  0.00     0.167 HD
ATOM     48  C   UNL A   1      45.905  29.256  28.139  1.00  0.00     0.031 A 
ATOM     49  C   UNL A   1      39.724  31.840  30.186  1.00  0.00     0.031 A 
ATOM     50  C   UNL A   1      45.937  30.616  28.602  1.00  0.00     0.049 A 
ATOM     51  C   UNL A   1      40.991  32.649  30.271  1.00  0.00     0.074 A 
ATOM     52  C   UNL A   1      47.020  31.475  28.675  1.00  0.00     0.029 A 
ATOM     53  N   UNL A   1      44.836  31.320  29.068  1.00  0.00    -0.354 N 
ATOM     54  N   UNL A   1      42.209  32.314  29.917  1.00  0.00    -0.248 NA
ATOM     55  C   UNL A   1      40.873  34.011  30.810  1.00  0.00     0.031 C 
ATOM     56  C   UNL A   1      46.585  32.679  29.236  1.00  0.00     0.029 A 
ATOM     57  C   UNL A   1      45.217  32.595  29.448  1.00  0.00     0.049 A 
ATOM     58  H   UNL A   1      43.919  30.964  29.119  1.00  0.00     0.167 HD
ATOM     59  C   UNL A   1      42.995  33.438  30.154  1.00  0.00     0.074 A 
ATOM     60  C   UNL A   1      42.112  34.463  30.672  1.00  0.00     0.031 C 
ATOM     61  C   UNL A   1      44.326  33.606  29.957  1.00  0.00     0.031 A 
BRANCH  48  62
ATOM     62  C   UNL A   1      47.202  28.609  27.717  1.00  0.00    -0.014 A 
ATOM     63  C   UNL A   1      47.621  28.623  26.374  1.00  0.00     0.010 A 
ATOM     64  C   UNL A   1      48.030  28.009  28.683  1.00  0.00     0.010 A 
ATOM     65  C   UNL A   1      48.819  28.008  25.998  1.00  0.00     0.020 A 
ATOM     66  C   UNL A   1      49.246  27.422  28.317  1.00  0.00     0.020 A 
ATOM     67  C   UNL A   1      49.623  27.411  26.973  1.00  0.00     0.054 A 
BRANCH  67  68
ATOM     68  S   UNL A   1      51.181  26.638  26.458  1.00  0.00     0.124 S 
ATOM     69  O   UNL A   1      51.231  25.458  27.320  1.00  0.00    -0.237 OA
ATOM     70  O   UNL A   1      50.952  26.370  25.041  1.00  0.00    -0.237 OA
ATOM     71  O   UNL A   1      52.186  27.658  26.743  1.00  0.00    -0.744 OA
ENDBRANCH  67  68
ENDBRANCH  48  62
BRANCH  49  72
ATOM     72  C   UNL A   1      38.423  32.408  30.639  1.00  0.00    -0.014 A 
ATOM     73  C   UNL A   1      38.052  32.362  31.994  1.00  0.00     0.010 A 
ATOM     74  C   UNL A   1      37.551  33.008  29.712  1.00  0.00     0.010 A 
ATOM     75  C   UNL A   1      36.824  32.885  32.411  1.00  0.00     0.020 A 
ATOM     76  C   UNL A   1      36.337  33.560  30.130  1.00  0.00     0.020 A 
ATOM     77  C   UNL A   1      35.976  33.484  31.476  1.00  0.00     0.054 A 
BRANCH  77  78
ATOM     78  S   UNL A   1      34.411  34.204  32.046  1.00  0.00     0.124 S 
ATOM     79  O   UNL A   1      34.868  35.380  32.779  1.00  0.00    -0.237 OA
ATOM     80  O   UNL A   1      33.712  34.469  30.791  1.00  0.00    -0.237 OA
ATOM     81  O   UNL A   1      33.827  33.141  32.861  1.00  0.00    -0.744 OA
ENDBRANCH  77  78
ENDBRANCH  49  72
BRANCH  61  82
ATOM     82  C   UNL A   1      44.907  34.965  30.250  1.00  0.00    -0.014 A 
ATOM     83  C   UNL A   1      45.445  35.279  31.511  1.00  0.00     0.010 A 
ATOM     84  C   UNL A   1      44.961  35.926  29.223  1.00  0.00     0.010 A 
ATOM     85  C   UNL A   1      45.992  36.544  31.749  1.00  0.00     0.020 A 
ATOM     86  C   UNL A   1      45.536  37.178  29.447  1.00  0.00     0.020 A 
ATOM     87  C   UNL A   1      46.033  37.485  30.716  1.00  0.00     0.054 A 
BRANCH  87  88
ATOM     88  S   UNL A   1      46.779  39.106  31.040  1.00  0.00     0.124 S 
ATOM     89  O   UNL A   1      46.222  39.918  29.962  1.00  0.00    -0.237 OA
ATOM     90  O   UNL A   1      46.291  39.420  32.381  1.00  0.00    -0.237 OA
ATOM     91  O   UNL A   1      48.215  38.851  30.951  1.00  0.00    -0.744 OA
ENDBRANCH  87  88
ENDBRANCH  61  82
ENDBRANCH  35  36
ENDBRANCH  27  30
ENDBRANCH  25  26
ENDBRANCH  24  25
ENDBRANCH   1  24
TORSDOF 19
ENDMDL
