MODEL 1
REMARK VINA RESULT:     -12.2      0.000      0.000
REMARK SMILES C[NH+]1CCC(NC(=O)N[C@H]2C=C[C@H](C(=O)NCCCNC(=O)c3ccc(-c4c5nc(c(-c6ccc(S(=O)(=O)[O-])cc6)c6ccc([nH]6)c(-c6ccc(S(=O)(=O)[O-])cc6)c6nc(c(-c7ccc(S(=O)(=O)[O-])cc7)c7ccc4[nH]7)C=C6)C=C5)cc3)C2)CC1
REMARK SMILES IDX 18 1 17 2 16 3 14 4 15 5 13 7 10 8 11 9 83 10 12 11 9 12
REMARK SMILES IDX 6 13 7 14 8 16 5 18 1 19 2 20 3 21 85 22 4 24 84 25 19 26
REMARK SMILES IDX 20 27 21 28 22 30 23 31 24 32 82 33 25 34 81 35 26 36 27 37
REMARK SMILES IDX 28 38 75 39 29 40 80 41 74 42 76 43 30 44 79 45 73 46 72 47
REMARK SMILES IDX 31 49 61 50 42 51 60 52 43 53 46 54 59 55 77 56 44 57 45 58
REMARK SMILES IDX 58 60 78 61 47 62 32 63 33 64 41 65 34 66 40 67 35 68 36 69
REMARK SMILES IDX 37 70 38 71 39 72 62 73 63 74 71 75 64 76 70 77 65 78 66 79
REMARK SMILES IDX 67 80 68 81 69 82 48 83 49 84 57 85 50 86 56 87 51 88 52 89
REMARK SMILES IDX 53 90 54 91 55 92
REMARK H PARENT 16 6 6 15 9 17 2 23 20 29 76 48 46 59
REMARK Flexibility Score: inf
ROOT
ATOM      1  C   UNL A   1      37.475  23.959  25.872  1.00  0.00     0.042 C 
ENDROOT
BRANCH   1   2
ATOM      2  C   UNL A   1      36.808  22.582  25.916  1.00  0.00     0.117 C 
BRANCH   2   3
ATOM      3  N   UNL A   1      35.513  22.591  26.579  1.00  0.00    -0.356 N 
ATOM      4  C   UNL A   1      34.259  22.499  26.025  1.00  0.00     0.227 C 
ATOM      5  O   UNL A   1      33.287  22.372  26.767  1.00  0.00    -0.274 OA
ATOM      6  H   UNL A   1      35.538  22.674  27.560  1.00  0.00     0.163 HD
BRANCH   4   7
ATOM      7  C   UNL A   1      34.136  22.536  24.503  1.00  0.00     0.103 C 
ATOM      8  C   UNL A   1      32.808  24.030  23.072  1.00  0.00     0.107 C 
ATOM      9  C   UNL A   1      32.173  22.692  23.196  1.00  0.00    -0.006 C 
ATOM     10  C   UNL A   1      34.091  23.956  23.903  1.00  0.00     0.047 C 
ATOM     11  C   UNL A   1      32.859  21.897  24.024  1.00  0.00    -0.016 C 
BRANCH   8  12
ATOM     12  N   UNL A   1      32.908  24.494  21.696  1.00  0.00    -0.332 N 
ATOM     13  N   UNL A   1      32.537  26.822  21.358  1.00  0.00    -0.335 N 
ATOM     14  C   UNL A   1      32.787  25.583  20.939  1.00  0.00     0.315 C 
ATOM     15  H   UNL A   1      32.398  27.457  20.618  1.00  0.00     0.165 HD
ATOM     16  O   UNL A   1      32.919  25.422  19.721  1.00  0.00    -0.249 OA
ATOM     17  H   UNL A   1      33.154  23.734  21.121  1.00  0.00     0.165 HD
BRANCH  13  18
ATOM     18  C   UNL A   1      32.424  27.440  22.659  1.00  0.00     0.095 C 
ATOM     19  C   UNL A   1      32.304  30.007  26.036  1.00  0.00     0.332 C 
ATOM     20  N   UNL A   1      32.463  29.568  24.646  1.00  0.00    -0.337 N 
ATOM     21  C   UNL A   1      31.193  29.052  24.118  1.00  0.00     0.264 C 
ATOM     22  C   UNL A   1      33.567  28.605  24.543  1.00  0.00     0.264 C 
ATOM     23  H   UNL A   1      32.711  30.365  24.061  1.00  0.00     0.347 HD
ATOM     24  C   UNL A   1      31.318  28.492  22.702  1.00  0.00     0.086 C 
ATOM     25  C   UNL A   1      33.735  28.066  23.122  1.00  0.00     0.086 C 
ENDBRANCH  13  18
ENDBRANCH   8  12
ENDBRANCH   4   7
ENDBRANCH   2   3
ENDBRANCH   1   2
BRANCH   1  26
ATOM     26  C   UNL A   1      38.772  24.042  26.671  1.00  0.00     0.118 C 
BRANCH  26  27
ATOM     27  N   UNL A   1      39.887  24.554  25.882  1.00  0.00    -0.352 N 
ATOM     28  C   UNL A   1      40.759  25.586  26.127  1.00  0.00     0.251 C 
ATOM     29  H   UNL A   1      40.039  24.079  25.032  1.00  0.00     0.163 HD
ATOM     30  O   UNL A   1      41.569  25.888  25.252  1.00  0.00    -0.269 OA
BRANCH  28  31
ATOM     31  C   UNL A   1      40.714  26.359  27.393  1.00  0.00     0.039 A 
ATOM     32  C   UNL A   1      41.602  27.431  27.553  1.00  0.00     0.014 A 
ATOM     33  C   UNL A   1      39.834  26.038  28.427  1.00  0.00     0.014 A 
ATOM     34  C   UNL A   1      41.557  28.214  28.710  1.00  0.00     0.010 A 
ATOM     35  C   UNL A   1      39.732  26.867  29.542  1.00  0.00     0.010 A 
ATOM     36  C   UNL A   1      40.593  27.964  29.698  1.00  0.00    -0.014 A 
BRANCH  36  37
ATOM     37  C   UNL A   1      40.458  28.829  30.899  1.00  0.00     0.031 A 
ATOM     38  C   UNL A   1      39.416  29.915  30.937  1.00  0.00     0.074 A 
ATOM     39  C   UNL A   1      41.329  28.696  31.919  1.00  0.00     0.049 A 
ATOM     40  N   UNL A   1      39.215  30.836  31.845  1.00  0.00    -0.248 NA
ATOM     41  C   UNL A   1      38.502  29.997  29.787  1.00  0.00     0.031 C 
ATOM     42  C   UNL A   1      42.409  27.709  31.989  1.00  0.00     0.029 A 
ATOM     43  N   UNL A   1      41.448  29.401  33.090  1.00  0.00    -0.354 N 
ATOM     44  C   UNL A   1      38.175  31.622  31.363  1.00  0.00     0.074 A 
ATOM     45  C   UNL A   1      37.819  31.098  30.062  1.00  0.00     0.031 C 
ATOM     46  C   UNL A   1      43.060  27.852  33.155  1.00  0.00     0.029 A 
ATOM     47  C   UNL A   1      42.476  28.966  33.894  1.00  0.00     0.049 A 
ATOM     48  H   UNL A   1      40.855  30.149  33.332  1.00  0.00     0.167 HD
ATOM     49  C   UNL A   1      37.557  32.673  31.955  1.00  0.00     0.031 A 
ATOM     50  C   UNL A   1      42.902  29.413  35.090  1.00  0.00     0.031 A 
ATOM     51  C   UNL A   1      37.899  33.179  33.258  1.00  0.00     0.049 A 
ATOM     52  C   UNL A   1      42.199  30.575  35.734  1.00  0.00     0.074 A 
ATOM     53  C   UNL A   1      37.298  34.203  33.970  1.00  0.00     0.029 A 
ATOM     54  N   UNL A   1      38.933  32.697  34.046  1.00  0.00    -0.354 N 
ATOM     55  N   UNL A   1      41.186  31.275  35.283  1.00  0.00    -0.248 NA
ATOM     56  C   UNL A   1      42.692  31.001  37.051  1.00  0.00     0.031 C 
ATOM     57  C   UNL A   1      37.995  34.365  35.173  1.00  0.00     0.029 A 
ATOM     58  C   UNL A   1      38.998  33.410  35.231  1.00  0.00     0.049 A 
ATOM     59  H   UNL A   1      39.533  31.956  33.799  1.00  0.00     0.167 HD
ATOM     60  C   UNL A   1      40.902  32.209  36.274  1.00  0.00     0.074 A 
ATOM     61  C   UNL A   1      41.845  31.978  37.349  1.00  0.00     0.031 C 
ATOM     62  C   UNL A   1      39.945  33.170  36.290  1.00  0.00     0.031 A 
BRANCH  49  63
ATOM     63  C   UNL A   1      36.453  33.347  31.182  1.00  0.00    -0.014 A 
ATOM     64  C   UNL A   1      36.712  33.990  29.957  1.00  0.00     0.010 A 
ATOM     65  C   UNL A   1      35.139  33.342  31.685  1.00  0.00     0.010 A 
ATOM     66  C   UNL A   1      35.694  34.672  29.284  1.00  0.00     0.020 A 
ATOM     67  C   UNL A   1      34.111  33.997  31.000  1.00  0.00     0.020 A 
ATOM     68  C   UNL A   1      34.402  34.681  29.817  1.00  0.00     0.054 A 
BRANCH  68  69
ATOM     69  S   UNL A   1      33.103  35.590  28.937  1.00  0.00     0.124 S 
ATOM     70  O   UNL A   1      32.335  36.159  30.044  1.00  0.00    -0.237 OA
ATOM     71  O   UNL A   1      33.862  36.551  28.142  1.00  0.00    -0.237 OA
ATOM     72  O   UNL A   1      32.416  34.555  28.169  1.00  0.00    -0.744 OA
ENDBRANCH  68  69
ENDBRANCH  49  63
BRANCH  50  73
ATOM     73  C   UNL A   1      44.035  28.729  35.771  1.00  0.00    -0.014 A 
ATOM     74  C   UNL A   1      43.788  27.644  36.631  1.00  0.00     0.010 A 
ATOM     75  C   UNL A   1      45.363  29.125  35.531  1.00  0.00     0.010 A 
ATOM     76  C   UNL A   1      44.848  26.971  37.244  1.00  0.00     0.020 A 
ATOM     77  C   UNL A   1      46.427  28.438  36.124  1.00  0.00     0.020 A 
ATOM     78  C   UNL A   1      46.162  27.369  36.982  1.00  0.00     0.054 A 
BRANCH  78  79
ATOM     79  S   UNL A   1      47.523  26.429  37.727  1.00  0.00     0.124 S 
ATOM     80  O   UNL A   1      47.137  26.399  39.134  1.00  0.00    -0.237 OA
ATOM     81  O   UNL A   1      47.450  25.152  37.021  1.00  0.00    -0.237 OA
ATOM     82  O   UNL A   1      48.703  27.234  37.417  1.00  0.00    -0.744 OA
ENDBRANCH  78  79
ENDBRANCH  50  73
BRANCH  62  83
ATOM     83  C   UNL A   1      39.846  34.024  37.524  1.00  0.00    -0.014 A 
ATOM     84  C   UNL A   1      40.551  35.236  37.629  1.00  0.00     0.010 A 
ATOM     85  C   UNL A   1      38.992  33.632  38.572  1.00  0.00     0.010 A 
ATOM     86  C   UNL A   1      40.422  36.029  38.773  1.00  0.00     0.020 A 
ATOM     87  C   UNL A   1      38.843  34.434  39.705  1.00  0.00     0.020 A 
ATOM     88  C   UNL A   1      39.570  35.623  39.804  1.00  0.00     0.054 A 
BRANCH  88  89
ATOM     89  S   UNL A   1      39.383  36.692  41.258  1.00  0.00     0.124 S 
ATOM     90  O   UNL A   1      40.764  36.831  41.712  1.00  0.00    -0.237 OA
ATOM     91  O   UNL A   1      38.782  37.898  40.694  1.00  0.00    -0.237 OA
ATOM     92  O   UNL A   1      38.509  35.924  42.142  1.00  0.00    -0.744 OA
ENDBRANCH  88  89
ENDBRANCH  62  83
ENDBRANCH  36  37
ENDBRANCH  28  31
ENDBRANCH  26  27
ENDBRANCH   1  26
TORSDOF 15
ENDMDL
MODEL 2
REMARK VINA RESULT:     -12.1      6.405     11.638
REMARK SMILES C[NH+]1CCC(NC(=O)N[C@H]2C=C[C@H](C(=O)NCCCNC(=O)c3ccc(-c4c5nc(c(-c6ccc(S(=O)(=O)[O-])cc6)c6ccc([nH]6)c(-c6ccc(S(=O)(=O)[O-])cc6)c6nc(c(-c7ccc(S(=O)(=O)[O-])cc7)c7ccc4[nH]7)C=C6)C=C5)cc3)C2)CC1
REMARK SMILES IDX 18 1 17 2 16 3 14 4 15 5 13 7 10 8 11 9 83 10 12 11 9 12
REMARK SMILES IDX 6 13 7 14 8 16 5 18 1 19 2 20 3 21 85 22 4 24 84 25 19 26
REMARK SMILES IDX 20 27 21 28 22 30 23 31 24 32 82 33 25 34 81 35 26 36 27 37
REMARK SMILES IDX 28 38 75 39 29 40 80 41 74 42 76 43 30 44 79 45 73 46 72 47
REMARK SMILES IDX 31 49 61 50 42 51 60 52 43 53 46 54 59 55 77 56 44 57 45 58
REMARK SMILES IDX 58 60 78 61 47 62 32 63 33 64 41 65 34 66 40 67 35 68 36 69
REMARK SMILES IDX 37 70 38 71 39 72 62 73 63 74 71 75 64 76 70 77 65 78 66 79
REMARK SMILES IDX 67 80 68 81 69 82 48 83 49 84 57 85 50 86 56 87 51 88 52 89
REMARK SMILES IDX 53 90 54 91 55 92
REMARK H PARENT 16 6 6 15 9 17 2 23 20 29 76 48 46 59
REMARK Flexibility Score: inf
ROOT
ATOM      1  C   UNL A   1      33.968  31.401  27.606  1.00  0.00     0.042 C 
ENDROOT
BRANCH   1   2
ATOM      2  C   UNL A   1      33.185  30.165  27.158  1.00  0.00     0.117 C 
BRANCH   2   3
ATOM      3  N   UNL A   1      33.548  29.705  25.825  1.00  0.00    -0.356 N 
ATOM      4  C   UNL A   1      32.918  28.777  25.032  1.00  0.00     0.227 C 
ATOM      5  O   UNL A   1      33.293  28.633  23.870  1.00  0.00    -0.274 OA
ATOM      6  H   UNL A   1      34.354  30.116  25.439  1.00  0.00     0.163 HD
BRANCH   4   7
ATOM      7  C   UNL A   1      31.761  27.980  25.630  1.00  0.00     0.103 C 
ATOM      8  C   UNL A   1      31.338  25.558  25.593  1.00  0.00     0.107 C 
ATOM      9  C   UNL A   1      30.478  26.273  24.614  1.00  0.00    -0.006 C 
ATOM     10  C   UNL A   1      32.177  26.641  26.275  1.00  0.00     0.047 C 
ATOM     11  C   UNL A   1      30.749  27.583  24.587  1.00  0.00    -0.016 C 
BRANCH   8  12
ATOM     12  N   UNL A   1      30.601  24.629  26.436  1.00  0.00    -0.332 N 
ATOM     13  N   UNL A   1      31.620  22.502  26.772  1.00  0.00    -0.335 N 
ATOM     14  C   UNL A   1      30.639  23.391  26.925  1.00  0.00     0.315 C 
ATOM     15  H   UNL A   1      31.398  21.618  27.143  1.00  0.00     0.165 HD
ATOM     16  O   UNL A   1      29.660  23.032  27.588  1.00  0.00    -0.249 OA
ATOM     17  H   UNL A   1      29.785  25.073  26.760  1.00  0.00     0.165 HD
BRANCH  13  18
ATOM     18  C   UNL A   1      32.938  22.551  26.183  1.00  0.00     0.095 C 
ATOM     19  C   UNL A   1      36.636  21.842  24.227  1.00  0.00     0.332 C 
ATOM     20  N   UNL A   1      35.292  21.598  24.759  1.00  0.00    -0.337 N 
ATOM     21  C   UNL A   1      34.308  22.464  24.095  1.00  0.00     0.264 C 
ATOM     22  C   UNL A   1      35.294  21.738  26.221  1.00  0.00     0.264 C 
ATOM     23  H   UNL A   1      35.011  20.639  24.554  1.00  0.00     0.347 HD
ATOM     24  C   UNL A   1      32.901  22.321  24.674  1.00  0.00     0.086 C 
ATOM     25  C   UNL A   1      33.899  21.555  26.822  1.00  0.00     0.086 C 
ENDBRANCH  13  18
ENDBRANCH   8  12
ENDBRANCH   4   7
ENDBRANCH   2   3
ENDBRANCH   1   2
BRANCH   1  26
ATOM     26  C   UNL A   1      35.328  31.081  28.218  1.00  0.00     0.118 C 
BRANCH  26  27
ATOM     27  N   UNL A   1      35.341  31.234  29.669  1.00  0.00    -0.352 N 
ATOM     28  C   UNL A   1      36.301  30.910  30.595  1.00  0.00     0.251 C 
ATOM     29  H   UNL A   1      34.525  31.637  30.046  1.00  0.00     0.163 HD
ATOM     30  O   UNL A   1      36.035  31.052  31.788  1.00  0.00    -0.269 OA
BRANCH  28  31
ATOM     31  C   UNL A   1      37.619  30.360  30.191  1.00  0.00     0.039 A 
ATOM     32  C   UNL A   1      37.976  30.409  28.837  1.00  0.00     0.014 A 
ATOM     33  C   UNL A   1      38.495  29.782  31.111  1.00  0.00     0.014 A 
ATOM     34  C   UNL A   1      39.229  29.946  28.424  1.00  0.00     0.010 A 
ATOM     35  C   UNL A   1      39.774  29.398  30.713  1.00  0.00     0.010 A 
ATOM     36  C   UNL A   1      40.156  29.474  29.365  1.00  0.00    -0.014 A 
BRANCH  36  37
ATOM     37  C   UNL A   1      41.528  29.058  28.974  1.00  0.00     0.031 A 
ATOM     38  C   UNL A   1      42.648  30.063  28.955  1.00  0.00     0.074 A 
ATOM     39  C   UNL A   1      41.748  27.797  28.552  1.00  0.00     0.049 A 
ATOM     40  N   UNL A   1      43.882  29.918  28.543  1.00  0.00    -0.248 NA
ATOM     41  C   UNL A   1      42.331  31.419  29.431  1.00  0.00     0.031 C 
ATOM     42  C   UNL A   1      40.739  26.737  28.484  1.00  0.00     0.029 A 
ATOM     43  N   UNL A   1      42.892  27.196  28.089  1.00  0.00    -0.354 N 
ATOM     44  C   UNL A   1      44.477  31.166  28.682  1.00  0.00     0.074 A 
ATOM     45  C   UNL A   1      43.456  32.067  29.171  1.00  0.00     0.031 C 
ATOM     46  C   UNL A   1      41.316  25.609  28.039  1.00  0.00     0.029 A 
ATOM     47  C   UNL A   1      42.721  25.875  27.746  1.00  0.00     0.049 A 
ATOM     48  H   UNL A   1      43.753  27.665  28.010  1.00  0.00     0.167 HD
ATOM     49  C   UNL A   1      45.761  31.529  28.442  1.00  0.00     0.031 A 
ATOM     50  C   UNL A   1      43.594  24.978  27.249  1.00  0.00     0.031 A 
ATOM     51  C   UNL A   1      46.779  30.627  27.975  1.00  0.00     0.049 A 
ATOM     52  C   UNL A   1      45.015  25.398  26.997  1.00  0.00     0.074 A 
ATOM     53  C   UNL A   1      48.122  30.882  27.754  1.00  0.00     0.029 A 
ATOM     54  N   UNL A   1      46.568  29.293  27.658  1.00  0.00    -0.354 N 
ATOM     55  N   UNL A   1      45.571  26.572  27.180  1.00  0.00    -0.248 NA
ATOM     56  C   UNL A   1      45.928  24.370  26.480  1.00  0.00     0.031 C 
ATOM     57  C   UNL A   1      48.713  29.711  27.266  1.00  0.00     0.029 A 
ATOM     58  C   UNL A   1      47.751  28.715  27.230  1.00  0.00     0.049 A 
ATOM     59  H   UNL A   1      45.704  28.827  27.727  1.00  0.00     0.167 HD
ATOM     60  C   UNL A   1      46.906  26.417  26.826  1.00  0.00     0.074 A 
ATOM     61  C   UNL A   1      47.075  25.035  26.426  1.00  0.00     0.031 C 
ATOM     62  C   UNL A   1      47.902  27.338  26.833  1.00  0.00     0.031 A 
BRANCH  49  63
ATOM     63  C   UNL A   1      46.122  32.973  28.676  1.00  0.00    -0.014 A 
ATOM     64  C   UNL A   1      46.003  33.927  27.647  1.00  0.00     0.010 A 
ATOM     65  C   UNL A   1      46.591  33.384  29.937  1.00  0.00     0.010 A 
ATOM     66  C   UNL A   1      46.408  35.249  27.856  1.00  0.00     0.020 A 
ATOM     67  C   UNL A   1      46.969  34.712  30.158  1.00  0.00     0.020 A 
ATOM     68  C   UNL A   1      46.901  35.629  29.107  1.00  0.00     0.054 A 
BRANCH  68  69
ATOM     69  S   UNL A   1      47.440  37.345  29.347  1.00  0.00     0.124 S 
ATOM     70  O   UNL A   1      48.786  37.315  28.779  1.00  0.00    -0.237 OA
ATOM     71  O   UNL A   1      46.454  38.103  28.583  1.00  0.00    -0.237 OA
ATOM     72  O   UNL A   1      47.378  37.528  30.794  1.00  0.00    -0.744 OA
ENDBRANCH  68  69
ENDBRANCH  49  63
BRANCH  50  73
ATOM     73  C   UNL A   1      43.150  23.581  26.994  1.00  0.00    -0.014 A 
ATOM     74  C   UNL A   1      42.891  23.153  25.680  1.00  0.00     0.010 A 
ATOM     75  C   UNL A   1      43.026  22.662  28.051  1.00  0.00     0.010 A 
ATOM     76  C   UNL A   1      42.511  21.833  25.427  1.00  0.00     0.020 A 
ATOM     77  C   UNL A   1      42.669  21.333  27.799  1.00  0.00     0.020 A 
ATOM     78  C   UNL A   1      42.408  20.929  26.488  1.00  0.00     0.054 A 
BRANCH  78  79
ATOM     79  S   UNL A   1      41.991  19.201  26.126  1.00  0.00     0.124 S 
ATOM     80  O   UNL A   1      42.816  18.928  24.954  1.00  0.00    -0.237 OA
ATOM     81  O   UNL A   1      42.386  18.515  27.354  1.00  0.00    -0.237 OA
ATOM     82  O   UNL A   1      40.550  19.243  25.882  1.00  0.00    -0.744 OA
ENDBRANCH  78  79
ENDBRANCH  50  73
BRANCH  62  83
ATOM     83  C   UNL A   1      49.273  26.873  26.427  1.00  0.00    -0.014 A 
ATOM     84  C   UNL A   1      50.130  26.240  27.345  1.00  0.00     0.010 A 
ATOM     85  C   UNL A   1      49.689  27.024  25.091  1.00  0.00     0.010 A 
ATOM     86  C   UNL A   1      51.389  25.790  26.940  1.00  0.00     0.020 A 
ATOM     87  C   UNL A   1      50.938  26.553  24.678  1.00  0.00     0.020 A 
ATOM     88  C   UNL A   1      51.785  25.950  25.609  1.00  0.00     0.054 A 
BRANCH  88  89
ATOM     89  S   UNL A   1      53.405  25.314  25.096  1.00  0.00     0.124 S 
ATOM     90  O   UNL A   1      54.312  26.059  25.965  1.00  0.00    -0.237 OA
ATOM     91  O   UNL A   1      53.295  23.886  25.379  1.00  0.00    -0.237 OA
ATOM     92  O   UNL A   1      53.477  25.657  23.677  1.00  0.00    -0.744 OA
ENDBRANCH  88  89
ENDBRANCH  62  83
ENDBRANCH  36  37
ENDBRANCH  28  31
ENDBRANCH  26  27
ENDBRANCH   1  26
TORSDOF 15
ENDMDL
MODEL 3
REMARK VINA RESULT:     -12.1      3.519      9.212
REMARK SMILES C[NH+]1CCC(NC(=O)N[C@H]2C=C[C@H](C(=O)NCCCNC(=O)c3ccc(-c4c5nc(c(-c6ccc(S(=O)(=O)[O-])cc6)c6ccc([nH]6)c(-c6ccc(S(=O)(=O)[O-])cc6)c6nc(c(-c7ccc(S(=O)(=O)[O-])cc7)c7ccc4[nH]7)C=C6)C=C5)cc3)C2)CC1
REMARK SMILES IDX 18 1 17 2 16 3 14 4 15 5 13 7 10 8 11 9 83 10 12 11 9 12
REMARK SMILES IDX 6 13 7 14 8 16 5 18 1 19 2 20 3 21 85 22 4 24 84 25 19 26
REMARK SMILES IDX 20 27 21 28 22 30 23 31 24 32 82 33 25 34 81 35 26 36 27 37
REMARK SMILES IDX 28 38 75 39 29 40 80 41 74 42 76 43 30 44 79 45 73 46 72 47
REMARK SMILES IDX 31 49 61 50 42 51 60 52 43 53 46 54 59 55 77 56 44 57 45 58
REMARK SMILES IDX 58 60 78 61 47 62 32 63 33 64 41 65 34 66 40 67 35 68 36 69
REMARK SMILES IDX 37 70 38 71 39 72 62 73 63 74 71 75 64 76 70 77 65 78 66 79
REMARK SMILES IDX 67 80 68 81 69 82 48 83 49 84 57 85 50 86 56 87 51 88 52 89
REMARK SMILES IDX 53 90 54 91 55 92
REMARK H PARENT 16 6 6 15 9 17 2 23 20 29 76 48 46 59
REMARK Flexibility Score: inf
ROOT
ATOM      1  C   UNL A   1      35.844  23.878  25.840  1.00  0.00     0.042 C 
ENDROOT
BRANCH   1   2
ATOM      2  C   UNL A   1      34.461  23.724  25.204  1.00  0.00     0.117 C 
BRANCH   2   3
ATOM      3  N   UNL A   1      33.409  23.451  26.172  1.00  0.00    -0.356 N 
ATOM      4  C   UNL A   1      32.351  24.246  26.542  1.00  0.00     0.227 C 
ATOM      5  O   UNL A   1      31.479  23.775  27.271  1.00  0.00    -0.274 OA
ATOM      6  H   UNL A   1      33.463  22.578  26.623  1.00  0.00     0.163 HD
BRANCH   4   7
ATOM      7  C   UNL A   1      32.298  25.676  26.009  1.00  0.00     0.103 C 
ATOM      8  C   UNL A   1      31.912  27.785  27.211  1.00  0.00     0.107 C 
ATOM      9  C   UNL A   1      30.697  27.353  26.472  1.00  0.00    -0.006 C 
ATOM     10  C   UNL A   1      32.972  26.720  26.922  1.00  0.00     0.047 C 
ATOM     11  C   UNL A   1      30.883  26.173  25.868  1.00  0.00    -0.016 C 
BRANCH   8  12
ATOM     12  N   UNL A   1      32.260  29.179  26.980  1.00  0.00    -0.332 N 
ATOM     13  N   UNL A   1      32.909  29.732  24.757  1.00  0.00    -0.335 N 
ATOM     14  C   UNL A   1      32.690  30.017  26.039  1.00  0.00     0.315 C 
ATOM     15  H   UNL A   1      33.312  30.481  24.260  1.00  0.00     0.165 HD
ATOM     16  O   UNL A   1      32.908  31.180  26.397  1.00  0.00    -0.249 OA
ATOM     17  H   UNL A   1      32.130  29.682  27.817  1.00  0.00     0.165 HD
BRANCH  13  18
ATOM     18  C   UNL A   1      32.687  28.566  23.934  1.00  0.00     0.095 C 
ATOM     19  C   UNL A   1      32.128  25.719  20.837  1.00  0.00     0.332 C 
ATOM     20  N   UNL A   1      32.371  27.007  21.495  1.00  0.00    -0.337 N 
ATOM     21  C   UNL A   1      33.626  26.969  22.257  1.00  0.00     0.264 C 
ATOM     22  C   UNL A   1      31.209  27.384  22.311  1.00  0.00     0.264 C 
ATOM     23  H   UNL A   1      32.486  27.736  20.792  1.00  0.00     0.347 HD
ATOM     24  C   UNL A   1      33.887  28.254  23.042  1.00  0.00     0.086 C 
ATOM     25  C   UNL A   1      31.436  28.691  23.071  1.00  0.00     0.086 C 
ENDBRANCH  13  18
ENDBRANCH   8  12
ENDBRANCH   4   7
ENDBRANCH   2   3
ENDBRANCH   1   2
BRANCH   1  26
ATOM     26  C   UNL A   1      36.998  23.665  24.865  1.00  0.00     0.118 C 
BRANCH  26  27
ATOM     27  N   UNL A   1      37.976  22.699  25.354  1.00  0.00    -0.352 N 
ATOM     28  C   UNL A   1      39.065  22.864  26.175  1.00  0.00     0.251 C 
ATOM     29  H   UNL A   1      37.830  21.775  25.045  1.00  0.00     0.163 HD
ATOM     30  O   UNL A   1      39.801  21.899  26.371  1.00  0.00    -0.269 OA
BRANCH  28  31
ATOM     31  C   UNL A   1      39.387  24.177  26.787  1.00  0.00     0.039 A 
ATOM     32  C   UNL A   1      38.950  24.430  28.094  1.00  0.00     0.014 A 
ATOM     33  C   UNL A   1      40.087  25.166  26.096  1.00  0.00     0.014 A 
ATOM     34  C   UNL A   1      39.276  25.635  28.723  1.00  0.00     0.010 A 
ATOM     35  C   UNL A   1      40.483  26.330  26.750  1.00  0.00     0.010 A 
ATOM     36  C   UNL A   1      40.081  26.580  28.071  1.00  0.00    -0.014 A 
BRANCH  36  37
ATOM     37  C   UNL A   1      40.521  27.832  28.741  1.00  0.00     0.031 A 
ATOM     38  C   UNL A   1      41.896  27.924  29.347  1.00  0.00     0.074 A 
ATOM     39  C   UNL A   1      39.654  28.854  28.880  1.00  0.00     0.049 A 
ATOM     40  N   UNL A   1      42.421  28.886  30.062  1.00  0.00    -0.248 NA
ATOM     41  C   UNL A   1      42.785  26.767  29.152  1.00  0.00     0.031 C 
ATOM     42  C   UNL A   1      38.280  28.876  28.373  1.00  0.00     0.029 A 
ATOM     43  N   UNL A   1      39.798  30.070  29.500  1.00  0.00    -0.354 N 
ATOM     44  C   UNL A   1      43.686  28.440  30.426  1.00  0.00     0.074 A 
ATOM     45  C   UNL A   1      43.830  27.103  29.893  1.00  0.00     0.031 C 
ATOM     46  C   UNL A   1      37.719  30.059  28.674  1.00  0.00     0.029 A 
ATOM     47  C   UNL A   1      38.674  30.859  29.434  1.00  0.00     0.049 A 
ATOM     48  H   UNL A   1      40.627  30.350  29.950  1.00  0.00     0.167 HD
ATOM     49  C   UNL A   1      44.649  29.090  31.125  1.00  0.00     0.031 A 
ATOM     50  C   UNL A   1      38.435  32.088  29.930  1.00  0.00     0.031 A 
ATOM     51  C   UNL A   1      44.510  30.427  31.636  1.00  0.00     0.049 A 
ATOM     52  C   UNL A   1      39.519  32.794  30.696  1.00  0.00     0.074 A 
ATOM     53  C   UNL A   1      45.446  31.194  32.308  1.00  0.00     0.029 A 
ATOM     54  N   UNL A   1      43.362  31.198  31.530  1.00  0.00    -0.354 N 
ATOM     55  N   UNL A   1      40.727  32.375  30.989  1.00  0.00    -0.248 NA
ATOM     56  C   UNL A   1      39.210  34.144  31.190  1.00  0.00     0.031 C 
ATOM     57  C   UNL A   1      44.849  32.415  32.643  1.00  0.00     0.029 A 
ATOM     58  C   UNL A   1      43.560  32.427  32.136  1.00  0.00     0.049 A 
ATOM     59  H   UNL A   1      42.530  30.913  31.089  1.00  0.00     0.167 HD
ATOM     60  C   UNL A   1      41.332  33.419  31.679  1.00  0.00     0.074 A 
ATOM     61  C   UNL A   1      40.361  34.492  31.752  1.00  0.00     0.031 C 
ATOM     62  C   UNL A   1      42.581  33.483  32.203  1.00  0.00     0.031 A 
BRANCH  49  63
ATOM     63  C   UNL A   1      45.934  28.344  31.380  1.00  0.00    -0.014 A 
ATOM     64  C   UNL A   1      47.030  28.466  30.506  1.00  0.00     0.010 A 
ATOM     65  C   UNL A   1      46.048  27.508  32.506  1.00  0.00     0.010 A 
ATOM     66  C   UNL A   1      48.191  27.715  30.715  1.00  0.00     0.020 A 
ATOM     67  C   UNL A   1      47.219  26.778  32.735  1.00  0.00     0.020 A 
ATOM     68  C   UNL A   1      48.272  26.866  31.822  1.00  0.00     0.054 A 
BRANCH  68  69
ATOM     69  S   UNL A   1      49.780  25.886  32.061  1.00  0.00     0.124 S 
ATOM     70  O   UNL A   1      49.792  25.061  30.855  1.00  0.00    -0.237 OA
ATOM     71  O   UNL A   1      50.821  26.907  32.132  1.00  0.00    -0.237 OA
ATOM     72  O   UNL A   1      49.531  25.166  33.307  1.00  0.00    -0.744 OA
ENDBRANCH  68  69
ENDBRANCH  49  63
BRANCH  50  73
ATOM     73  C   UNL A   1      37.121  32.741  29.682  1.00  0.00    -0.014 A 
ATOM     74  C   UNL A   1      36.127  32.724  30.676  1.00  0.00     0.010 A 
ATOM     75  C   UNL A   1      36.872  33.417  28.474  1.00  0.00     0.010 A 
ATOM     76  C   UNL A   1      34.905  33.368  30.466  1.00  0.00     0.020 A 
ATOM     77  C   UNL A   1      35.658  34.082  28.270  1.00  0.00     0.020 A 
ATOM     78  C   UNL A   1      34.681  34.048  29.266  1.00  0.00     0.054 A 
BRANCH  78  79
ATOM     79  S   UNL A   1      33.116  34.942  29.049  1.00  0.00     0.124 S 
ATOM     80  O   UNL A   1      32.450  34.144  28.025  1.00  0.00    -0.237 OA
ATOM     81  O   UNL A   1      32.528  34.880  30.385  1.00  0.00    -0.237 OA
ATOM     82  O   UNL A   1      33.542  36.276  28.628  1.00  0.00    -0.744 OA
ENDBRANCH  78  79
ENDBRANCH  50  73
BRANCH  62  83
ATOM     83  C   UNL A   1      42.983  34.767  32.874  1.00  0.00    -0.014 A 
ATOM     84  C   UNL A   1      42.759  34.973  34.247  1.00  0.00     0.010 A 
ATOM     85  C   UNL A   1      43.643  35.762  32.129  1.00  0.00     0.010 A 
ATOM     86  C   UNL A   1      43.166  36.163  34.857  1.00  0.00     0.020 A 
ATOM     87  C   UNL A   1      44.073  36.942  32.741  1.00  0.00     0.020 A 
ATOM     88  C   UNL A   1      43.819  37.140  34.100  1.00  0.00     0.054 A 
BRANCH  88  89
ATOM     89  S   UNL A   1      44.381  38.655  34.923  1.00  0.00     0.124 S 
ATOM     90  O   UNL A   1      43.506  39.664  34.333  1.00  0.00    -0.237 OA
ATOM     91  O   UNL A   1      44.141  38.363  36.334  1.00  0.00    -0.237 OA
ATOM     92  O   UNL A   1      45.790  38.752  34.546  1.00  0.00    -0.744 OA
ENDBRANCH  88  89
ENDBRANCH  62  83
ENDBRANCH  36  37
ENDBRANCH  28  31
ENDBRANCH  26  27
ENDBRANCH   1  26
TORSDOF 15
ENDMDL
