MODEL 1
REMARK VINA RESULT:     -12.0      0.000      0.000
REMARK SMILES CC1(C)S[C@H](c2ccc(-c3cccc([N+](=O)[O-])c3)o2)[NH2+][C@@H]1C(=O)NCCCNC(=O)c1ccc(-c2c3nc(c(-c4ccc(S(=O)(=O)[O-])cc4)c4ccc([nH]4)c(-c4ccc(S(=O)(=O)[O-])cc4)c4nc(c(-c5ccc(S(=O)(=O)[O-])cc5)c5ccc2[nH]5)C=C4)C=C3)cc1
REMARK SMILES IDX 26 1 25 2 24 3 22 4 23 5 21 7 1 8 2 9 3 10 4 11 5 12 20 13
REMARK SMILES IDX 6 16 7 17 19 18 8 19 9 20 10 21 11 22 18 23 12 24 14 25
REMARK SMILES IDX 13 26 15 27 16 28 17 29 27 30 28 31 29 32 30 34 31 35 32 36
REMARK SMILES IDX 90 37 33 38 89 39 34 40 35 41 36 42 83 43 37 44 88 45 82 46
REMARK SMILES IDX 84 47 38 48 87 49 81 50 80 51 39 53 69 54 50 55 68 56 51 57
REMARK SMILES IDX 54 58 67 59 85 60 52 61 53 62 66 64 86 65 55 66 40 67 41 68
REMARK SMILES IDX 49 69 42 70 48 71 43 72 44 73 45 74 46 75 47 76 70 77 71 78
REMARK SMILES IDX 79 79 72 80 78 81 73 82 74 83 75 84 76 85 77 86 56 87 57 88
REMARK SMILES IDX 65 89 58 90 64 91 59 92 60 93 61 94 62 95 63 96
REMARK H PARENT 24 6 20 14 20 15 28 33 84 52 54 63
REMARK Flexibility Score: inf
ROOT
ATOM      1  C   UNL A   1      33.127  28.507  27.407  1.00  0.00     0.042 C 
ENDROOT
BRANCH   1   2
ATOM      2  C   UNL A   1      31.680  28.172  27.096  1.00  0.00     0.118 C 
BRANCH   2   3
ATOM      3  N   UNL A   1      31.413  26.748  27.012  1.00  0.00    -0.351 N 
ATOM      4  C   UNL A   1      31.638  25.934  25.928  1.00  0.00     0.279 C 
ATOM      5  O   UNL A   1      31.518  24.722  26.099  1.00  0.00    -0.268 OA
ATOM      6  H   UNL A   1      31.032  26.322  27.814  1.00  0.00     0.163 HD
BRANCH   4   7
ATOM      7  C   UNL A   1      31.898  26.601  24.551  1.00  0.00     0.289 C 
ATOM      8  C   UNL A   1      31.073  27.125  22.219  1.00  0.00     0.030 C 
ATOM      9  C   UNL A   1      31.195  26.026  23.298  1.00  0.00     0.078 C 
ATOM     10  C   UNL A   1      29.814  25.402  23.496  1.00  0.00     0.030 C 
ATOM     11  S   UNL A   1      32.360  24.762  22.687  1.00  0.00    -0.078 SA
ATOM     12  C   UNL A   1      33.771  25.429  23.597  1.00  0.00     0.311 C 
ATOM     13  N   UNL A   1      33.365  26.671  24.263  1.00  0.00    -0.317 N 
ATOM     14  H   UNL A   1      33.558  27.466  23.654  1.00  0.00     0.348 HD
ATOM     15  H   UNL A   1      33.887  26.786  25.132  1.00  0.00     0.348 HD
BRANCH  12  16
ATOM     16  C   UNL A   1      34.430  24.405  24.470  1.00  0.00     0.172 A 
ATOM     17  C   UNL A   1      35.004  24.528  25.723  1.00  0.00     0.054 A 
ATOM     18  O   UNL A   1      34.494  23.095  24.070  1.00  0.00    -0.454 OA
ATOM     19  C   UNL A   1      35.413  23.235  26.115  1.00  0.00     0.051 A 
ATOM     20  C   UNL A   1      35.082  22.387  25.081  1.00  0.00     0.134 A 
BRANCH  20  21
ATOM     21  C   UNL A   1      35.193  20.944  24.910  1.00  0.00     0.024 A 
ATOM     22  C   UNL A   1      36.431  20.288  24.966  1.00  0.00     0.012 A 
ATOM     23  C   UNL A   1      34.034  20.183  24.697  1.00  0.00     0.097 A 
ATOM     24  C   UNL A   1      36.515  18.898  24.808  1.00  0.00     0.008 A 
ATOM     25  C   UNL A   1      34.123  18.794  24.527  1.00  0.00     0.270 A 
ATOM     26  C   UNL A   1      35.362  18.145  24.584  1.00  0.00     0.085 A 
BRANCH  25  27
ATOM     27  N   UNL A   1      32.903  18.020  24.265  1.00  0.00     0.062 N 
ATOM     28  O   UNL A   1      31.988  18.087  25.099  1.00  0.00    -0.258 OA
ATOM     29  O   UNL A   1      32.840  17.390  23.199  1.00  0.00    -0.258 OA
ENDBRANCH  25  27
ENDBRANCH  20  21
ENDBRANCH  12  16
ENDBRANCH   4   7
ENDBRANCH   2   3
ENDBRANCH   1   2
BRANCH   1  30
ATOM     30  C   UNL A   1      33.627  29.811  26.805  1.00  0.00     0.118 C 
BRANCH  30  31
ATOM     31  N   UNL A   1      33.702  30.916  27.748  1.00  0.00    -0.352 N 
ATOM     32  C   UNL A   1      34.690  31.228  28.655  1.00  0.00     0.251 C 
ATOM     33  H   UNL A   1      32.933  31.532  27.736  1.00  0.00     0.163 HD
ATOM     34  O   UNL A   1      34.532  32.164  29.431  1.00  0.00    -0.269 OA
BRANCH  32  35
ATOM     35  C   UNL A   1      35.919  30.404  28.730  1.00  0.00     0.039 A 
ATOM     36  C   UNL A   1      36.813  30.457  27.659  1.00  0.00     0.014 A 
ATOM     37  C   UNL A   1      36.236  29.662  29.870  1.00  0.00     0.014 A 
ATOM     38  C   UNL A   1      38.083  29.902  27.796  1.00  0.00     0.010 A 
ATOM     39  C   UNL A   1      37.537  29.204  30.048  1.00  0.00     0.010 A 
ATOM     40  C   UNL A   1      38.484  29.355  29.026  1.00  0.00    -0.014 A 
BRANCH  40  41
ATOM     41  C   UNL A   1      39.910  29.033  29.286  1.00  0.00     0.031 A 
ATOM     42  C   UNL A   1      40.827  30.049  29.903  1.00  0.00     0.074 A 
ATOM     43  C   UNL A   1      40.388  27.836  28.884  1.00  0.00     0.049 A 
ATOM     44  N   UNL A   1      42.103  29.944  30.173  1.00  0.00    -0.248 NA
ATOM     45  C   UNL A   1      40.249  31.362  30.230  1.00  0.00     0.031 C 
ATOM     46  C   UNL A   1      39.608  26.798  28.201  1.00  0.00     0.029 A 
ATOM     47  N   UNL A   1      41.640  27.286  28.991  1.00  0.00    -0.354 N 
ATOM     48  C   UNL A   1      42.481  31.177  30.692  1.00  0.00     0.074 A 
ATOM     49  C   UNL A   1      41.315  32.032  30.643  1.00  0.00     0.031 C 
ATOM     50  C   UNL A   1      40.384  25.721  28.001  1.00  0.00     0.029 A 
ATOM     51  C   UNL A   1      41.725  26.004  28.498  1.00  0.00     0.049 A 
ATOM     52  H   UNL A   1      42.406  27.764  29.385  1.00  0.00     0.167 HD
ATOM     53  C   UNL A   1      43.684  31.554  31.186  1.00  0.00     0.031 A 
ATOM     54  C   UNL A   1      42.763  25.148  28.456  1.00  0.00     0.031 A 
ATOM     55  C   UNL A   1      44.835  30.693  31.239  1.00  0.00     0.049 A 
ATOM     56  C   UNL A   1      44.082  25.582  29.030  1.00  0.00     0.074 A 
ATOM     57  C   UNL A   1      46.087  30.958  31.766  1.00  0.00     0.029 A 
ATOM     58  N   UNL A   1      44.875  29.395  30.749  1.00  0.00    -0.354 N 
ATOM     59  N   UNL A   1      44.399  26.730  29.581  1.00  0.00    -0.248 NA
ATOM     60  C   UNL A   1      45.177  24.605  28.990  1.00  0.00     0.031 C 
ATOM     61  C   UNL A   1      46.896  29.836  31.559  1.00  0.00     0.029 A 
ATOM     62  C   UNL A   1      46.133  28.852  30.948  1.00  0.00     0.049 A 
ATOM     63  H   UNL A   1      44.119  28.930  30.324  1.00  0.00     0.167 HD
ATOM     64  C   UNL A   1      45.727  26.605  29.973  1.00  0.00     0.074 A 
ATOM     65  C   UNL A   1      46.144  25.265  29.612  1.00  0.00     0.031 C 
ATOM     66  C   UNL A   1      46.527  27.516  30.577  1.00  0.00     0.031 A 
BRANCH  53  67
ATOM     67  C   UNL A   1      43.806  32.960  31.711  1.00  0.00    -0.014 A 
ATOM     68  C   UNL A   1      43.518  33.257  33.056  1.00  0.00     0.010 A 
ATOM     69  C   UNL A   1      44.232  33.995  30.859  1.00  0.00     0.010 A 
ATOM     70  C   UNL A   1      43.606  34.569  33.527  1.00  0.00     0.020 A 
ATOM     71  C   UNL A   1      44.350  35.305  31.334  1.00  0.00     0.020 A 
ATOM     72  C   UNL A   1      44.015  35.587  32.661  1.00  0.00     0.054 A 
BRANCH  72  73
ATOM     73  S   UNL A   1      44.130  37.280  33.301  1.00  0.00     0.124 S 
ATOM     74  O   UNL A   1      45.357  37.218  34.093  1.00  0.00    -0.237 OA
ATOM     75  O   UNL A   1      44.210  38.080  32.082  1.00  0.00    -0.237 OA
ATOM     76  O   UNL A   1      42.900  37.444  34.071  1.00  0.00    -0.744 OA
ENDBRANCH  72  73
ENDBRANCH  53  67
BRANCH  54  77
ATOM     77  C   UNL A   1      42.584  23.786  27.882  1.00  0.00    -0.014 A 
ATOM     78  C   UNL A   1      41.982  22.768  28.642  1.00  0.00     0.010 A 
ATOM     79  C   UNL A   1      42.992  23.505  26.566  1.00  0.00     0.010 A 
ATOM     80  C   UNL A   1      41.807  21.489  28.103  1.00  0.00     0.020 A 
ATOM     81  C   UNL A   1      42.796  22.235  26.014  1.00  0.00     0.020 A 
ATOM     82  C   UNL A   1      42.215  21.231  26.792  1.00  0.00     0.054 A 
BRANCH  82  83
ATOM     83  S   UNL A   1      41.933  19.579  26.094  1.00  0.00     0.124 S 
ATOM     84  O   UNL A   1      42.729  19.625  24.873  1.00  0.00    -0.237 OA
ATOM     85  O   UNL A   1      42.435  18.700  27.147  1.00  0.00    -0.237 OA
ATOM     86  O   UNL A   1      40.485  19.537  25.898  1.00  0.00    -0.744 OA
ENDBRANCH  82  83
ENDBRANCH  54  77
BRANCH  66  87
ATOM     87  C   UNL A   1      47.929  27.085  30.908  1.00  0.00    -0.014 A 
ATOM     88  C   UNL A   1      48.216  26.403  32.104  1.00  0.00     0.010 A 
ATOM     89  C   UNL A   1      48.963  27.323  29.984  1.00  0.00     0.010 A 
ATOM     90  C   UNL A   1      49.522  25.994  32.385  1.00  0.00     0.020 A 
ATOM     91  C   UNL A   1      50.265  26.891  30.250  1.00  0.00     0.020 A 
ATOM     92  C   UNL A   1      50.538  26.242  31.456  1.00  0.00     0.054 A 
BRANCH  92  93
ATOM     93  S   UNL A   1      52.216  25.662  31.824  1.00  0.00     0.124 S 
ATOM     94  O   UNL A   1      52.591  26.511  32.951  1.00  0.00    -0.237 OA
ATOM     95  O   UNL A   1      52.007  24.251  32.142  1.00  0.00    -0.237 OA
ATOM     96  O   UNL A   1      52.948  25.913  30.584  1.00  0.00    -0.744 OA
ENDBRANCH  92  93
ENDBRANCH  66  87
ENDBRANCH  40  41
ENDBRANCH  32  35
ENDBRANCH  30  31
ENDBRANCH   1  30
TORSDOF 16
ENDMDL
MODEL 2
REMARK VINA RESULT:     -11.7      2.379      5.053
REMARK SMILES CC1(C)S[C@H](c2ccc(-c3cccc([N+](=O)[O-])c3)o2)[NH2+][C@@H]1C(=O)NCCCNC(=O)c1ccc(-c2c3nc(c(-c4ccc(S(=O)(=O)[O-])cc4)c4ccc([nH]4)c(-c4ccc(S(=O)(=O)[O-])cc4)c4nc(c(-c5ccc(S(=O)(=O)[O-])cc5)c5ccc2[nH]5)C=C4)C=C3)cc1
REMARK SMILES IDX 26 1 25 2 24 3 22 4 23 5 21 7 1 8 2 9 3 10 4 11 5 12 20 13
REMARK SMILES IDX 6 16 7 17 19 18 8 19 9 20 10 21 11 22 18 23 12 24 14 25
REMARK SMILES IDX 13 26 15 27 16 28 17 29 27 30 28 31 29 32 30 34 31 35 32 36
REMARK SMILES IDX 90 37 33 38 89 39 34 40 35 41 36 42 83 43 37 44 88 45 82 46
REMARK SMILES IDX 84 47 38 48 87 49 81 50 80 51 39 53 69 54 50 55 68 56 51 57
REMARK SMILES IDX 54 58 67 59 85 60 52 61 53 62 66 64 86 65 55 66 40 67 41 68
REMARK SMILES IDX 49 69 42 70 48 71 43 72 44 73 45 74 46 75 47 76 70 77 71 78
REMARK SMILES IDX 79 79 72 80 78 81 73 82 74 83 75 84 76 85 77 86 56 87 57 88
REMARK SMILES IDX 65 89 58 90 64 91 59 92 60 93 61 94 62 95 63 96
REMARK H PARENT 24 6 20 14 20 15 28 33 84 52 54 63
REMARK Flexibility Score: inf
ROOT
ATOM      1  C   UNL A   1      32.030  28.865  26.971  1.00  0.00     0.042 C 
ENDROOT
BRANCH   1   2
ATOM      2  C   UNL A   1      31.950  27.350  26.916  1.00  0.00     0.118 C 
BRANCH   2   3
ATOM      3  N   UNL A   1      33.086  26.725  26.264  1.00  0.00    -0.351 N 
ATOM      4  C   UNL A   1      33.093  25.518  25.608  1.00  0.00     0.279 C 
ATOM      5  O   UNL A   1      34.101  25.233  24.964  1.00  0.00    -0.268 OA
ATOM      6  H   UNL A   1      33.938  27.218  26.294  1.00  0.00     0.163 HD
BRANCH   4   7
ATOM      7  C   UNL A   1      31.896  24.555  25.830  1.00  0.00     0.289 C 
ATOM      8  C   UNL A   1      30.983  22.198  25.763  1.00  0.00     0.030 C 
ATOM      9  C   UNL A   1      31.825  23.248  25.005  1.00  0.00     0.078 C 
ATOM     10  C   UNL A   1      33.151  22.598  24.612  1.00  0.00     0.030 C 
ATOM     11  S   UNL A   1      30.908  23.732  23.503  1.00  0.00    -0.078 SA
ATOM     12  C   UNL A   1      30.213  25.225  24.246  1.00  0.00     0.311 C 
ATOM     13  N   UNL A   1      30.595  25.276  25.661  1.00  0.00    -0.317 N 
ATOM     14  H   UNL A   1      29.876  24.827  26.227  1.00  0.00     0.348 HD
ATOM     15  H   UNL A   1      30.693  26.247  25.958  1.00  0.00     0.348 HD
BRANCH  12  16
ATOM     16  C   UNL A   1      30.506  26.456  23.444  1.00  0.00     0.172 A 
ATOM     17  C   UNL A   1      31.318  26.638  22.339  1.00  0.00     0.054 A 
ATOM     18  O   UNL A   1      29.891  27.643  23.753  1.00  0.00    -0.454 OA
ATOM     19  C   UNL A   1      31.173  27.984  21.940  1.00  0.00     0.051 A 
ATOM     20  C   UNL A   1      30.292  28.565  22.826  1.00  0.00     0.134 A 
BRANCH  20  21
ATOM     21  C   UNL A   1      29.705  29.895  22.909  1.00  0.00     0.024 A 
ATOM     22  C   UNL A   1      29.771  30.659  24.083  1.00  0.00     0.012 A 
ATOM     23  C   UNL A   1      29.065  30.439  21.785  1.00  0.00     0.097 A 
ATOM     24  C   UNL A   1      29.208  31.941  24.139  1.00  0.00     0.008 A 
ATOM     25  C   UNL A   1      28.492  31.717  21.848  1.00  0.00     0.270 A 
ATOM     26  C   UNL A   1      28.561  32.474  23.023  1.00  0.00     0.085 A 
BRANCH  25  27
ATOM     27  N   UNL A   1      27.792  32.253  20.673  1.00  0.00     0.062 N 
ATOM     28  O   UNL A   1      27.512  31.462  19.760  1.00  0.00    -0.258 OA
ATOM     29  O   UNL A   1      27.474  33.452  20.690  1.00  0.00    -0.258 OA
ENDBRANCH  25  27
ENDBRANCH  20  21
ENDBRANCH  12  16
ENDBRANCH   4   7
ENDBRANCH   2   3
ENDBRANCH   1   2
BRANCH   1  30
ATOM     30  C   UNL A   1      33.439  29.435  26.932  1.00  0.00     0.118 C 
BRANCH  30  31
ATOM     31  N   UNL A   1      33.606  30.671  27.681  1.00  0.00    -0.352 N 
ATOM     32  C   UNL A   1      34.674  31.097  28.440  1.00  0.00     0.251 C 
ATOM     33  H   UNL A   1      32.845  31.294  27.639  1.00  0.00     0.163 HD
ATOM     34  O   UNL A   1      34.593  32.145  29.071  1.00  0.00    -0.269 OA
BRANCH  32  35
ATOM     35  C   UNL A   1      35.897  30.268  28.536  1.00  0.00     0.039 A 
ATOM     36  C   UNL A   1      36.790  30.285  27.464  1.00  0.00     0.014 A 
ATOM     37  C   UNL A   1      36.211  29.555  29.696  1.00  0.00     0.014 A 
ATOM     38  C   UNL A   1      38.058  29.725  27.616  1.00  0.00     0.010 A 
ATOM     39  C   UNL A   1      37.508  29.092  29.886  1.00  0.00     0.010 A 
ATOM     40  C   UNL A   1      38.456  29.209  28.860  1.00  0.00    -0.014 A 
BRANCH  40  41
ATOM     41  C   UNL A   1      39.880  28.885  29.127  1.00  0.00     0.031 A 
ATOM     42  C   UNL A   1      40.797  29.903  29.741  1.00  0.00     0.074 A 
ATOM     43  C   UNL A   1      40.355  27.685  28.736  1.00  0.00     0.049 A 
ATOM     44  N   UNL A   1      42.071  29.797  30.018  1.00  0.00    -0.248 NA
ATOM     45  C   UNL A   1      40.221  31.220  30.057  1.00  0.00     0.031 C 
ATOM     46  C   UNL A   1      39.575  26.643  28.057  1.00  0.00     0.029 A 
ATOM     47  N   UNL A   1      41.605  27.132  28.852  1.00  0.00    -0.354 N 
ATOM     48  C   UNL A   1      42.451  31.032  30.529  1.00  0.00     0.074 A 
ATOM     49  C   UNL A   1      41.288  31.889  30.470  1.00  0.00     0.031 C 
ATOM     50  C   UNL A   1      40.349  25.563  27.868  1.00  0.00     0.029 A 
ATOM     51  C   UNL A   1      41.689  25.846  28.368  1.00  0.00     0.049 A 
ATOM     52  H   UNL A   1      42.372  27.610  29.245  1.00  0.00     0.167 HD
ATOM     53  C   UNL A   1      43.653  31.409  31.025  1.00  0.00     0.031 A 
ATOM     54  C   UNL A   1      42.725  24.987  28.336  1.00  0.00     0.031 A 
ATOM     55  C   UNL A   1      44.802  30.545  31.089  1.00  0.00     0.049 A 
ATOM     56  C   UNL A   1      44.042  25.421  28.913  1.00  0.00     0.074 A 
ATOM     57  C   UNL A   1      46.052  30.810  31.620  1.00  0.00     0.029 A 
ATOM     58  N   UNL A   1      44.840  29.243  30.609  1.00  0.00    -0.354 N 
ATOM     59  N   UNL A   1      44.361  26.572  29.456  1.00  0.00    -0.248 NA
ATOM     60  C   UNL A   1      45.134  24.440  28.884  1.00  0.00     0.031 C 
ATOM     61  C   UNL A   1      46.858  29.684  31.423  1.00  0.00     0.029 A 
ATOM     62  C   UNL A   1      46.095  28.698  30.817  1.00  0.00     0.049 A 
ATOM     63  H   UNL A   1      44.084  28.777  30.183  1.00  0.00     0.167 HD
ATOM     64  C   UNL A   1      45.686  26.445  29.855  1.00  0.00     0.074 A 
ATOM     65  C   UNL A   1      46.101  25.101  29.505  1.00  0.00     0.031 C 
ATOM     66  C   UNL A   1      46.487  27.359  30.456  1.00  0.00     0.031 A 
BRANCH  53  67
ATOM     67  C   UNL A   1      43.777  32.818  31.541  1.00  0.00    -0.014 A 
ATOM     68  C   UNL A   1      44.169  33.867  30.690  1.00  0.00     0.010 A 
ATOM     69  C   UNL A   1      43.477  33.104  32.885  1.00  0.00     0.010 A 
ATOM     70  C   UNL A   1      44.308  35.167  31.184  1.00  0.00     0.020 A 
ATOM     71  C   UNL A   1      43.587  34.409  33.377  1.00  0.00     0.020 A 
ATOM     72  C   UNL A   1      44.022  35.429  32.526  1.00  0.00     0.054 A 
BRANCH  72  73
ATOM     73  S   UNL A   1      44.201  37.126  33.139  1.00  0.00     0.124 S 
ATOM     74  O   UNL A   1      45.424  37.031  33.934  1.00  0.00    -0.237 OA
ATOM     75  O   UNL A   1      44.311  37.903  31.907  1.00  0.00    -0.237 OA
ATOM     76  O   UNL A   1      42.977  37.349  33.905  1.00  0.00    -0.744 OA
ENDBRANCH  72  73
ENDBRANCH  53  67
BRANCH  54  77
ATOM     77  C   UNL A   1      42.544  23.621  27.771  1.00  0.00    -0.014 A 
ATOM     78  C   UNL A   1      43.005  23.321  26.476  1.00  0.00     0.010 A 
ATOM     79  C   UNL A   1      41.931  22.608  28.529  1.00  0.00     0.010 A 
ATOM     80  C   UNL A   1      42.841  22.038  25.945  1.00  0.00     0.020 A 
ATOM     81  C   UNL A   1      41.789  21.317  28.011  1.00  0.00     0.020 A 
ATOM     82  C   UNL A   1      42.234  21.044  26.716  1.00  0.00     0.054 A 
BRANCH  82  83
ATOM     83  S   UNL A   1      42.078  19.372  26.026  1.00  0.00     0.124 S 
ATOM     84  O   UNL A   1      40.638  19.258  25.828  1.00  0.00    -0.237 OA
ATOM     85  O   UNL A   1      42.881  19.455  24.809  1.00  0.00    -0.237 OA
ATOM     86  O   UNL A   1      42.637  18.519  27.074  1.00  0.00    -0.744 OA
ENDBRANCH  82  83
ENDBRANCH  54  77
BRANCH  66  87
ATOM     87  C   UNL A   1      47.886  26.925  30.796  1.00  0.00    -0.014 A 
ATOM     88  C   UNL A   1      48.934  27.062  29.869  1.00  0.00     0.010 A 
ATOM     89  C   UNL A   1      48.162  26.418  32.079  1.00  0.00     0.010 A 
ATOM     90  C   UNL A   1      50.231  26.670  30.210  1.00  0.00     0.020 A 
ATOM     91  C   UNL A   1      49.462  26.051  32.432  1.00  0.00     0.020 A 
ATOM     92  C   UNL A   1      50.486  26.166  31.489  1.00  0.00     0.054 A 
BRANCH  92  93
ATOM     93  S   UNL A   1      52.186  25.705  31.923  1.00  0.00     0.124 S 
ATOM     94  O   UNL A   1      52.070  24.262  32.112  1.00  0.00    -0.237 OA
ATOM     95  O   UNL A   1      52.943  26.126  30.746  1.00  0.00    -0.237 OA
ATOM     96  O   UNL A   1      52.453  26.474  33.136  1.00  0.00    -0.744 OA
ENDBRANCH  92  93
ENDBRANCH  66  87
ENDBRANCH  40  41
ENDBRANCH  32  35
ENDBRANCH  30  31
ENDBRANCH   1  30
TORSDOF 16
ENDMDL
MODEL 3
REMARK VINA RESULT:     -11.7      1.500      2.064
REMARK SMILES CC1(C)S[C@H](c2ccc(-c3cccc([N+](=O)[O-])c3)o2)[NH2+][C@@H]1C(=O)NCCCNC(=O)c1ccc(-c2c3nc(c(-c4ccc(S(=O)(=O)[O-])cc4)c4ccc([nH]4)c(-c4ccc(S(=O)(=O)[O-])cc4)c4nc(c(-c5ccc(S(=O)(=O)[O-])cc5)c5ccc2[nH]5)C=C4)C=C3)cc1
REMARK SMILES IDX 26 1 25 2 24 3 22 4 23 5 21 7 1 8 2 9 3 10 4 11 5 12 20 13
REMARK SMILES IDX 6 16 7 17 19 18 8 19 9 20 10 21 11 22 18 23 12 24 14 25
REMARK SMILES IDX 13 26 15 27 16 28 17 29 27 30 28 31 29 32 30 34 31 35 32 36
REMARK SMILES IDX 90 37 33 38 89 39 34 40 35 41 36 42 83 43 37 44 88 45 82 46
REMARK SMILES IDX 84 47 38 48 87 49 81 50 80 51 39 53 69 54 50 55 68 56 51 57
REMARK SMILES IDX 54 58 67 59 85 60 52 61 53 62 66 64 86 65 55 66 40 67 41 68
REMARK SMILES IDX 49 69 42 70 48 71 43 72 44 73 45 74 46 75 47 76 70 77 71 78
REMARK SMILES IDX 79 79 72 80 78 81 73 82 74 83 75 84 76 85 77 86 56 87 57 88
REMARK SMILES IDX 65 89 58 90 64 91 59 92 60 93 61 94 62 95 63 96
REMARK H PARENT 24 6 20 14 20 15 28 33 84 52 54 63
REMARK Flexibility Score: inf
ROOT
ATOM      1  C   UNL A   1      33.094  28.291  27.284  1.00  0.00     0.042 C 
ENDROOT
BRANCH   1   2
ATOM      2  C   UNL A   1      31.583  28.406  27.357  1.00  0.00     0.118 C 
BRANCH   2   3
ATOM      3  N   UNL A   1      30.881  27.221  26.897  1.00  0.00    -0.351 N 
ATOM      4  C   UNL A   1      30.879  26.713  25.620  1.00  0.00     0.279 C 
ATOM      5  O   UNL A   1      30.374  25.604  25.457  1.00  0.00    -0.268 OA
ATOM      6  H   UNL A   1      30.353  26.732  27.569  1.00  0.00     0.163 HD
BRANCH   4   7
ATOM      7  C   UNL A   1      31.392  27.619  24.469  1.00  0.00     0.289 C 
ATOM      8  C   UNL A   1      30.858  29.179  22.552  1.00  0.00     0.030 C 
ATOM      9  C   UNL A   1      30.485  27.845  23.236  1.00  0.00     0.078 C 
ATOM     10  C   UNL A   1      28.975  27.838  23.469  1.00  0.00     0.030 C 
ATOM     11  S   UNL A   1      30.940  26.485  22.107  1.00  0.00    -0.078 SA
ATOM     12  C   UNL A   1      32.514  26.150  22.928  1.00  0.00     0.311 C 
ATOM     13  N   UNL A   1      32.726  27.151  23.978  1.00  0.00    -0.317 N 
ATOM     14  H   UNL A   1      33.250  27.941  23.600  1.00  0.00     0.348 HD
ATOM     15  H   UNL A   1      33.257  26.741  24.747  1.00  0.00     0.348 HD
BRANCH  12  16
ATOM     16  C   UNL A   1      32.650  24.720  23.352  1.00  0.00     0.172 A 
ATOM     17  C   UNL A   1      31.741  23.678  23.306  1.00  0.00     0.054 A 
ATOM     18  O   UNL A   1      33.844  24.257  23.845  1.00  0.00    -0.454 OA
ATOM     19  C   UNL A   1      32.414  22.526  23.765  1.00  0.00     0.051 A 
ATOM     20  C   UNL A   1      33.697  22.918  24.083  1.00  0.00     0.134 A 
BRANCH  20  21
ATOM     21  C   UNL A   1      34.868  22.189  24.548  1.00  0.00     0.024 A 
ATOM     22  C   UNL A   1      34.926  20.788  24.517  1.00  0.00     0.012 A 
ATOM     23  C   UNL A   1      35.979  22.900  25.028  1.00  0.00     0.097 A 
ATOM     24  C   UNL A   1      36.067  20.106  24.961  1.00  0.00     0.008 A 
ATOM     25  C   UNL A   1      37.113  22.214  25.483  1.00  0.00     0.270 A 
ATOM     26  C   UNL A   1      37.164  20.816  25.450  1.00  0.00     0.085 A 
BRANCH  25  27
ATOM     27  N   UNL A   1      38.250  22.975  26.020  1.00  0.00     0.062 N 
ATOM     28  O   UNL A   1      39.292  22.353  26.270  1.00  0.00    -0.258 OA
ATOM     29  O   UNL A   1      38.114  24.202  26.138  1.00  0.00    -0.258 OA
ENDBRANCH  25  27
ENDBRANCH  20  21
ENDBRANCH  12  16
ENDBRANCH   4   7
ENDBRANCH   2   3
ENDBRANCH   1   2
BRANCH   1  30
ATOM     30  C   UNL A   1      33.805  29.511  26.721  1.00  0.00     0.118 C 
BRANCH  30  31
ATOM     31  N   UNL A   1      33.877  30.638  27.639  1.00  0.00    -0.352 N 
ATOM     32  C   UNL A   1      34.870  30.977  28.532  1.00  0.00     0.251 C 
ATOM     33  H   UNL A   1      33.104  31.247  27.619  1.00  0.00     0.163 HD
ATOM     34  O   UNL A   1      34.710  31.930  29.288  1.00  0.00    -0.269 OA
BRANCH  32  35
ATOM     35  C   UNL A   1      36.106  30.166  28.615  1.00  0.00     0.039 A 
ATOM     36  C   UNL A   1      36.973  30.173  27.522  1.00  0.00     0.014 A 
ATOM     37  C   UNL A   1      36.455  29.480  29.781  1.00  0.00     0.014 A 
ATOM     38  C   UNL A   1      38.251  29.632  27.654  1.00  0.00     0.010 A 
ATOM     39  C   UNL A   1      37.762  29.038  29.949  1.00  0.00     0.010 A 
ATOM     40  C   UNL A   1      38.685  29.146  28.899  1.00  0.00    -0.014 A 
BRANCH  40  41
ATOM     41  C   UNL A   1      40.118  28.845  29.139  1.00  0.00     0.031 A 
ATOM     42  C   UNL A   1      41.031  29.877  29.737  1.00  0.00     0.074 A 
ATOM     43  C   UNL A   1      40.606  27.653  28.737  1.00  0.00     0.049 A 
ATOM     44  N   UNL A   1      42.311  29.791  29.989  1.00  0.00    -0.248 NA
ATOM     45  C   UNL A   1      40.439  31.184  30.064  1.00  0.00     0.031 C 
ATOM     46  C   UNL A   1      39.831  26.599  28.072  1.00  0.00     0.029 A 
ATOM     47  N   UNL A   1      41.867  27.120  28.828  1.00  0.00    -0.354 N 
ATOM     48  C   UNL A   1      42.680  31.032  30.494  1.00  0.00     0.074 A 
ATOM     49  C   UNL A   1      41.502  31.871  30.458  1.00  0.00     0.031 C 
ATOM     50  C   UNL A   1      40.618  25.532  27.866  1.00  0.00     0.029 A 
ATOM     51  C   UNL A   1      41.962  25.836  28.341  1.00  0.00     0.049 A 
ATOM     52  H   UNL A   1      42.633  27.610  29.208  1.00  0.00     0.167 HD
ATOM     53  C   UNL A   1      43.886  31.428  30.968  1.00  0.00     0.031 A 
ATOM     54  C   UNL A   1      43.011  24.994  28.289  1.00  0.00     0.031 A 
ATOM     55  C   UNL A   1      45.049  30.583  31.009  1.00  0.00     0.049 A 
ATOM     56  C   UNL A   1      44.332  25.449  28.841  1.00  0.00     0.074 A 
ATOM     57  C   UNL A   1      46.305  30.868  31.516  1.00  0.00     0.029 A 
ATOM     58  N   UNL A   1      45.099  29.283  30.526  1.00  0.00    -0.354 N 
ATOM     59  N   UNL A   1      44.642  26.605  29.380  1.00  0.00    -0.248 NA
ATOM     60  C   UNL A   1      45.440  24.487  28.790  1.00  0.00     0.031 C 
ATOM     61  C   UNL A   1      47.125  29.756  31.303  1.00  0.00     0.029 A 
ATOM     62  C   UNL A   1      46.367  28.758  30.710  1.00  0.00     0.049 A 
ATOM     63  H   UNL A   1      44.344  28.805  30.115  1.00  0.00     0.167 HD
ATOM     64  C   UNL A   1      45.977  26.500  29.753  1.00  0.00     0.074 A 
ATOM     65  C   UNL A   1      46.407  25.163  29.393  1.00  0.00     0.031 C 
ATOM     66  C   UNL A   1      46.774  27.426  30.340  1.00  0.00     0.031 A 
BRANCH  53  67
ATOM     67  C   UNL A   1      43.996  32.839  31.483  1.00  0.00    -0.014 A 
ATOM     68  C   UNL A   1      43.794  33.129  32.845  1.00  0.00     0.010 A 
ATOM     69  C   UNL A   1      44.325  33.885  30.603  1.00  0.00     0.010 A 
ATOM     70  C   UNL A   1      43.871  34.445  33.310  1.00  0.00     0.020 A 
ATOM     71  C   UNL A   1      44.430  35.200  31.069  1.00  0.00     0.020 A 
ATOM     72  C   UNL A   1      44.182  35.473  32.417  1.00  0.00     0.054 A 
BRANCH  72  73
ATOM     73  S   UNL A   1      44.284  37.171  33.047  1.00  0.00     0.124 S 
ATOM     74  O   UNL A   1      45.437  37.089  33.942  1.00  0.00    -0.237 OA
ATOM     75  O   UNL A   1      44.487  37.954  31.830  1.00  0.00    -0.237 OA
ATOM     76  O   UNL A   1      42.996  37.374  33.707  1.00  0.00    -0.744 OA
ENDBRANCH  72  73
ENDBRANCH  53  67
BRANCH  54  77
ATOM     77  C   UNL A   1      42.842  23.626  27.725  1.00  0.00    -0.014 A 
ATOM     78  C   UNL A   1      42.410  22.568  28.544  1.00  0.00     0.010 A 
ATOM     79  C   UNL A   1      43.090  23.379  26.364  1.00  0.00     0.010 A 
ATOM     80  C   UNL A   1      42.245  21.284  28.016  1.00  0.00     0.020 A 
ATOM     81  C   UNL A   1      42.901  22.102  25.825  1.00  0.00     0.020 A 
ATOM     82  C   UNL A   1      42.491  21.059  26.659  1.00  0.00     0.054 A 
BRANCH  82  83
ATOM     83  S   UNL A   1      42.221  19.396  25.983  1.00  0.00     0.124 S 
ATOM     84  O   UNL A   1      43.035  19.425  24.773  1.00  0.00    -0.237 OA
ATOM     85  O   UNL A   1      42.710  18.534  27.056  1.00  0.00    -0.237 OA
ATOM     86  O   UNL A   1      40.776  19.348  25.767  1.00  0.00    -0.744 OA
ENDBRANCH  82  83
ENDBRANCH  54  77
BRANCH  66  87
ATOM     87  C   UNL A   1      48.186  27.015  30.653  1.00  0.00    -0.014 A 
ATOM     88  C   UNL A   1      49.232  27.261  29.746  1.00  0.00     0.010 A 
ATOM     89  C   UNL A   1      48.475  26.417  31.893  1.00  0.00     0.010 A 
ATOM     90  C   UNL A   1      50.540  26.889  30.062  1.00  0.00     0.020 A 
ATOM     91  C   UNL A   1      49.786  26.067  32.223  1.00  0.00     0.020 A 
ATOM     92  C   UNL A   1      50.808  26.293  31.299  1.00  0.00     0.054 A 
BRANCH  92  93
ATOM     93  S   UNL A   1      52.522  25.858  31.705  1.00  0.00     0.124 S 
ATOM     94  O   UNL A   1      53.190  26.022  30.416  1.00  0.00    -0.237 OA
ATOM     95  O   UNL A   1      52.871  26.844  32.724  1.00  0.00    -0.237 OA
ATOM     96  O   UNL A   1      52.424  24.481  32.185  1.00  0.00    -0.744 OA
ENDBRANCH  92  93
ENDBRANCH  66  87
ENDBRANCH  40  41
ENDBRANCH  32  35
ENDBRANCH  30  31
ENDBRANCH   1  30
TORSDOF 16
ENDMDL
