MODEL 1
REMARK VINA RESULT:     -12.9      0.000      0.000
REMARK SMILES CCOc1c(Br)cc(CNc2cccc(C(=O)NCCCNC(=O)c3ccc(-c4c5nc(c(-c6ccc(S(=O)(=O)[O-])cc6)c6ccc([nH]6)c(-c6ccc(S(=O)(=O)[O-])cc6)c6nc(c(-c7ccc(S(=O)(=O)[O-])cc7)c7ccc4[nH]7)C=C6)C=C5)cc3)c2C)cc1OC
REMARK SMILES IDX 19 1 18 2 16 3 17 4 15 6 11 7 12 8 85 9 13 10 86 11 14 12
REMARK SMILES IDX 10 13 9 15 8 16 4 17 5 18 88 19 6 20 7 21 87 22 3 23 2 24
REMARK SMILES IDX 1 25 89 26 90 27 20 28 21 29 22 30 23 31 24 33 25 34 26 35
REMARK SMILES IDX 84 36 27 37 83 38 28 39 29 40 30 41 77 42 31 43 82 44 76 45
REMARK SMILES IDX 78 46 32 47 81 48 75 49 74 50 33 52 63 53 44 54 62 55 45 56
REMARK SMILES IDX 48 57 61 58 79 59 46 60 47 61 60 63 80 64 49 65 34 66 35 67
REMARK SMILES IDX 43 68 36 69 42 70 37 71 38 72 39 73 40 74 41 75 64 76 65 77
REMARK SMILES IDX 73 78 66 79 72 80 67 81 68 82 69 83 70 84 71 85 50 86 51 87
REMARK SMILES IDX 59 88 52 89 58 90 53 91 54 92 55 93 56 94 57 95
REMARK H PARENT 18 5 10 14 22 32 78 51 48 62
REMARK Flexibility Score: inf
ROOT
ATOM      1  C   UNL A   1      36.735  22.039  24.622  1.00  0.00     0.118 C 
ENDROOT
BRANCH   1   2
ATOM      2  N   UNL A   1      35.938  20.818  24.588  1.00  0.00    -0.352 N 
ATOM      3  C   UNL A   1      34.697  20.427  25.035  1.00  0.00     0.251 C 
ATOM      4  O   UNL A   1      34.404  19.276  24.707  1.00  0.00    -0.269 OA
ATOM      5  H   UNL A   1      36.409  20.086  24.128  1.00  0.00     0.163 HD
BRANCH   3   6
ATOM      6  C   UNL A   1      33.729  21.268  25.853  1.00  0.00     0.044 A 
ATOM      7  C   UNL A   1      31.704  22.685  26.104  1.00  0.00     0.038 A 
ATOM      8  C   UNL A   1      32.014  22.866  27.455  1.00  0.00     0.026 A 
ATOM      9  C   UNL A   1      32.546  21.855  25.293  1.00  0.00    -0.015 A 
ATOM     10  C   UNL A   1      33.124  22.266  28.013  1.00  0.00     0.003 A 
ATOM     11  C   UNL A   1      32.129  21.700  23.844  1.00  0.00     0.047 C 
ATOM     12  C   UNL A   1      33.965  21.491  27.218  1.00  0.00     0.014 A 
BRANCH   7  13
ATOM     13  N   UNL A   1      30.616  23.364  25.556  1.00  0.00    -0.381 N 
ATOM     14  H   UNL A   1      30.267  23.071  24.683  1.00  0.00     0.160 HD
BRANCH  13  15
ATOM     15  C   UNL A   1      29.977  24.481  26.224  1.00  0.00     0.149 C 
BRANCH  15  16
ATOM     16  C   UNL A   1      30.524  25.769  25.654  1.00  0.00    -0.024 A 
ATOM     17  C   UNL A   1      31.614  28.132  24.552  1.00  0.00     0.175 A 
ATOM     18  C   UNL A   1      32.100  27.611  25.764  1.00  0.00     0.064 A 
ATOM     19  C   UNL A   1      30.520  27.508  23.929  1.00  0.00     0.162 A 
ATOM     20  Br  UNL A   1      33.451  28.485  26.776  1.00  0.00    -0.047 Br
ATOM     21  C   UNL A   1      31.577  26.429  26.294  1.00  0.00     0.025 A 
ATOM     22  C   UNL A   1      30.002  26.322  24.478  1.00  0.00     0.056 A 
BRANCH  17  23
ATOM     23  O   UNL A   1      32.193  29.269  24.049  1.00  0.00    -0.489 OA
BRANCH  23  24
ATOM     24  C   UNL A   1      32.866  29.033  22.802  1.00  0.00     0.226 C 
ATOM     25  C   UNL A   1      34.261  28.479  23.026  1.00  0.00     0.049 C 
ENDBRANCH  23  24
ENDBRANCH  17  23
BRANCH  19  26
ATOM     26  O   UNL A   1      29.854  27.885  22.793  1.00  0.00    -0.493 OA
ATOM     27  C   UNL A   1      28.708  28.713  22.920  1.00  0.00     0.278 C 
ENDBRANCH  19  26
ENDBRANCH  15  16
ENDBRANCH  13  15
ENDBRANCH   7  13
ENDBRANCH   3   6
ENDBRANCH   1   2
BRANCH   1  28
ATOM     28  C   UNL A   1      37.216  22.367  26.036  1.00  0.00     0.042 C 
BRANCH  28  29
ATOM     29  C   UNL A   1      38.243  23.490  26.070  1.00  0.00     0.118 C 
BRANCH  29  30
ATOM     30  N   UNL A   1      39.418  23.151  26.865  1.00  0.00    -0.352 N 
ATOM     31  C   UNL A   1      40.298  24.028  27.480  1.00  0.00     0.251 C 
ATOM     32  H   UNL A   1      39.609  22.191  26.975  1.00  0.00     0.163 HD
ATOM     33  O   UNL A   1      41.389  23.703  27.901  1.00  0.00    -0.269 OA
BRANCH  31  34
ATOM     34  C   UNL A   1      39.760  25.376  27.743  1.00  0.00     0.039 A 
ATOM     35  C   UNL A   1      40.229  26.405  26.916  1.00  0.00     0.014 A 
ATOM     36  C   UNL A   1      39.137  25.639  28.959  1.00  0.00     0.014 A 
ATOM     37  C   UNL A   1      40.237  27.708  27.396  1.00  0.00     0.010 A 
ATOM     38  C   UNL A   1      39.231  26.917  29.469  1.00  0.00     0.010 A 
ATOM     39  C   UNL A   1      39.828  27.935  28.709  1.00  0.00    -0.014 A 
BRANCH  39  40
ATOM     40  C   UNL A   1      40.040  29.198  29.403  1.00  0.00     0.031 A 
ATOM     41  C   UNL A   1      39.007  30.251  29.313  1.00  0.00     0.074 A 
ATOM     42  C   UNL A   1      41.127  29.362  30.190  1.00  0.00     0.049 A 
ATOM     43  N   UNL A   1      39.210  31.507  29.525  1.00  0.00    -0.248 NA
ATOM     44  C   UNL A   1      37.639  29.953  28.897  1.00  0.00     0.031 C 
ATOM     45  C   UNL A   1      41.346  30.420  31.170  1.00  0.00     0.029 A 
ATOM     46  N   UNL A   1      42.365  28.717  30.106  1.00  0.00    -0.354 N 
ATOM     47  C   UNL A   1      37.975  32.115  29.593  1.00  0.00     0.074 A 
ATOM     48  C   UNL A   1      37.045  31.132  29.091  1.00  0.00     0.031 C 
ATOM     49  C   UNL A   1      42.668  30.555  31.366  1.00  0.00     0.029 A 
ATOM     50  C   UNL A   1      43.333  29.693  30.401  1.00  0.00     0.049 A 
ATOM     51  H   UNL A   1      42.527  27.772  29.886  1.00  0.00     0.167 HD
ATOM     52  C   UNL A   1      37.851  33.322  30.216  1.00  0.00     0.031 A 
ATOM     53  C   UNL A   1      44.291  30.101  29.518  1.00  0.00     0.031 A 
ATOM     54  C   UNL A   1      39.158  33.868  30.580  1.00  0.00     0.049 A 
ATOM     55  C   UNL A   1      44.208  31.583  29.214  1.00  0.00     0.074 A 
ATOM     56  C   UNL A   1      39.869  33.890  31.769  1.00  0.00     0.029 A 
ATOM     57  N   UNL A   1      40.057  34.210  29.576  1.00  0.00    -0.354 N 
ATOM     58  N   UNL A   1      43.160  32.319  29.466  1.00  0.00    -0.248 NA
ATOM     59  C   UNL A   1      45.279  32.343  28.574  1.00  0.00     0.031 C 
ATOM     60  C   UNL A   1      41.232  34.134  31.456  1.00  0.00     0.029 A 
ATOM     61  C   UNL A   1      41.338  34.301  30.085  1.00  0.00     0.049 A 
ATOM     62  H   UNL A   1      39.815  34.367  28.635  1.00  0.00     0.167 HD
ATOM     63  C   UNL A   1      43.391  33.605  29.058  1.00  0.00     0.074 A 
ATOM     64  C   UNL A   1      44.734  33.572  28.507  1.00  0.00     0.031 C 
ATOM     65  C   UNL A   1      42.463  34.597  29.208  1.00  0.00     0.031 A 
BRANCH  52  66
ATOM     66  C   UNL A   1      36.537  33.838  30.774  1.00  0.00    -0.014 A 
ATOM     67  C   UNL A   1      35.439  34.025  29.906  1.00  0.00     0.010 A 
ATOM     68  C   UNL A   1      36.335  34.236  32.109  1.00  0.00     0.010 A 
ATOM     69  C   UNL A   1      34.258  34.665  30.319  1.00  0.00     0.020 A 
ATOM     70  C   UNL A   1      35.177  34.909  32.530  1.00  0.00     0.020 A 
ATOM     71  C   UNL A   1      34.147  35.133  31.626  1.00  0.00     0.054 A 
BRANCH  71  72
ATOM     72  S   UNL A   1      32.656  36.033  32.128  1.00  0.00     0.124 S 
ATOM     73  O   UNL A   1      33.154  36.898  33.196  1.00  0.00    -0.237 OA
ATOM     74  O   UNL A   1      32.271  36.712  30.895  1.00  0.00    -0.237 OA
ATOM     75  O   UNL A   1      31.745  34.978  32.566  1.00  0.00    -0.744 OA
ENDBRANCH  71  72
ENDBRANCH  52  66
BRANCH  53  76
ATOM     76  C   UNL A   1      44.734  29.052  28.558  1.00  0.00    -0.014 A 
ATOM     77  C   UNL A   1      44.136  29.047  27.279  1.00  0.00     0.010 A 
ATOM     78  C   UNL A   1      45.968  28.401  28.732  1.00  0.00     0.010 A 
ATOM     79  C   UNL A   1      44.832  28.563  26.169  1.00  0.00     0.020 A 
ATOM     80  C   UNL A   1      46.668  27.913  27.618  1.00  0.00     0.020 A 
ATOM     81  C   UNL A   1      46.123  28.062  26.338  1.00  0.00     0.054 A 
BRANCH  81  82
ATOM     82  S   UNL A   1      47.139  27.796  24.850  1.00  0.00     0.124 S 
ATOM     83  O   UNL A   1      46.905  26.386  24.559  1.00  0.00    -0.237 OA
ATOM     84  O   UNL A   1      46.549  28.740  23.898  1.00  0.00    -0.237 OA
ATOM     85  O   UNL A   1      48.486  28.134  25.300  1.00  0.00    -0.744 OA
ENDBRANCH  81  82
ENDBRANCH  53  76
BRANCH  65  86
ATOM     86  C   UNL A   1      42.563  35.979  28.614  1.00  0.00    -0.014 A 
ATOM     87  C   UNL A   1      41.896  36.378  27.446  1.00  0.00     0.010 A 
ATOM     88  C   UNL A   1      43.258  36.981  29.335  1.00  0.00     0.010 A 
ATOM     89  C   UNL A   1      41.975  37.698  26.980  1.00  0.00     0.020 A 
ATOM     90  C   UNL A   1      43.307  38.308  28.902  1.00  0.00     0.020 A 
ATOM     91  C   UNL A   1      42.686  38.653  27.708  1.00  0.00     0.054 A 
BRANCH  91  92
ATOM     92  S   UNL A   1      42.742  40.367  27.124  1.00  0.00     0.124 S 
ATOM     93  O   UNL A   1      41.451  40.497  26.453  1.00  0.00    -0.237 OA
ATOM     94  O   UNL A   1      42.884  41.131  28.361  1.00  0.00    -0.237 OA
ATOM     95  O   UNL A   1      43.910  40.392  26.248  1.00  0.00    -0.744 OA
ENDBRANCH  91  92
ENDBRANCH  65  86
ENDBRANCH  39  40
ENDBRANCH  31  34
ENDBRANCH  29  30
ENDBRANCH  28  29
ENDBRANCH   1  28
TORSDOF 19
ENDMDL
MODEL 2
REMARK VINA RESULT:     -12.4      4.643     11.376
REMARK SMILES CCOc1c(Br)cc(CNc2cccc(C(=O)NCCCNC(=O)c3ccc(-c4c5nc(c(-c6ccc(S(=O)(=O)[O-])cc6)c6ccc([nH]6)c(-c6ccc(S(=O)(=O)[O-])cc6)c6nc(c(-c7ccc(S(=O)(=O)[O-])cc7)c7ccc4[nH]7)C=C6)C=C5)cc3)c2C)cc1OC
REMARK SMILES IDX 19 1 18 2 16 3 17 4 15 6 11 7 12 8 85 9 13 10 86 11 14 12
REMARK SMILES IDX 10 13 9 15 8 16 4 17 5 18 88 19 6 20 7 21 87 22 3 23 2 24
REMARK SMILES IDX 1 25 89 26 90 27 20 28 21 29 22 30 23 31 24 33 25 34 26 35
REMARK SMILES IDX 84 36 27 37 83 38 28 39 29 40 30 41 77 42 31 43 82 44 76 45
REMARK SMILES IDX 78 46 32 47 81 48 75 49 74 50 33 52 63 53 44 54 62 55 45 56
REMARK SMILES IDX 48 57 61 58 79 59 46 60 47 61 60 63 80 64 49 65 34 66 35 67
REMARK SMILES IDX 43 68 36 69 42 70 37 71 38 72 39 73 40 74 41 75 64 76 65 77
REMARK SMILES IDX 73 78 66 79 72 80 67 81 68 82 69 83 70 84 71 85 50 86 51 87
REMARK SMILES IDX 59 88 52 89 58 90 53 91 54 92 55 93 56 94 57 95
REMARK H PARENT 18 5 10 14 22 32 78 51 48 62
REMARK Flexibility Score: inf
ROOT
ATOM      1  C   UNL A   1      32.414  29.885  26.163  1.00  0.00     0.118 C 
ENDROOT
BRANCH   1   2
ATOM      2  N   UNL A   1      32.925  29.771  24.801  1.00  0.00    -0.352 N 
ATOM      3  C   UNL A   1      32.697  28.954  23.718  1.00  0.00     0.251 C 
ATOM      4  O   UNL A   1      33.335  29.285  22.717  1.00  0.00    -0.269 OA
ATOM      5  H   UNL A   1      33.609  30.452  24.608  1.00  0.00     0.163 HD
BRANCH   3   6
ATOM      6  C   UNL A   1      31.769  27.749  23.680  1.00  0.00     0.044 A 
ATOM      7  C   UNL A   1      31.270  25.361  23.208  1.00  0.00     0.038 A 
ATOM      8  C   UNL A   1      29.944  25.575  23.594  1.00  0.00     0.026 A 
ATOM      9  C   UNL A   1      32.208  26.444  23.277  1.00  0.00    -0.015 A 
ATOM     10  C   UNL A   1      29.524  26.817  24.028  1.00  0.00     0.003 A 
ATOM     11  C   UNL A   1      33.628  26.120  22.857  1.00  0.00     0.047 C 
ATOM     12  C   UNL A   1      30.424  27.879  24.059  1.00  0.00     0.014 A 
BRANCH   7  13
ATOM     13  N   UNL A   1      31.643  24.114  22.707  1.00  0.00    -0.381 N 
ATOM     14  H   UNL A   1      32.131  24.074  21.853  1.00  0.00     0.160 HD
BRANCH  13  15
ATOM     15  C   UNL A   1      31.340  22.875  23.397  1.00  0.00     0.149 C 
BRANCH  15  16
ATOM     16  C   UNL A   1      32.618  22.306  23.965  1.00  0.00    -0.024 A 
ATOM     17  C   UNL A   1      34.978  21.252  25.109  1.00  0.00     0.175 A 
ATOM     18  C   UNL A   1      34.777  22.641  25.020  1.00  0.00     0.064 A 
ATOM     19  C   UNL A   1      34.024  20.386  24.547  1.00  0.00     0.162 A 
ATOM     20  Br  UNL A   1      36.092  23.894  25.583  1.00  0.00    -0.047 Br
ATOM     21  C   UNL A   1      33.600  23.160  24.477  1.00  0.00     0.025 A 
ATOM     22  C   UNL A   1      32.846  20.925  24.000  1.00  0.00     0.056 A 
BRANCH  17  23
ATOM     23  O   UNL A   1      36.130  20.792  25.694  1.00  0.00    -0.489 OA
BRANCH  23  24
ATOM     24  C   UNL A   1      37.226  20.732  24.769  1.00  0.00     0.226 C 
ATOM     25  C   UNL A   1      38.120  19.539  25.051  1.00  0.00     0.049 C 
ENDBRANCH  23  24
ENDBRANCH  17  23
BRANCH  19  26
ATOM     26  O   UNL A   1      34.054  19.020  24.464  1.00  0.00    -0.493 OA
ATOM     27  C   UNL A   1      32.963  18.352  23.850  1.00  0.00     0.278 C 
ENDBRANCH  19  26
ENDBRANCH  15  16
ENDBRANCH  13  15
ENDBRANCH   7  13
ENDBRANCH   3   6
ENDBRANCH   1   2
BRANCH   1  28
ATOM     28  C   UNL A   1      33.484  29.554  27.204  1.00  0.00     0.042 C 
BRANCH  28  29
ATOM     29  C   UNL A   1      34.893  29.876  26.731  1.00  0.00     0.118 C 
BRANCH  29  30
ATOM     30  N   UNL A   1      35.494  30.981  27.470  1.00  0.00    -0.352 N 
ATOM     31  C   UNL A   1      36.527  30.914  28.392  1.00  0.00     0.251 C 
ATOM     32  H   UNL A   1      35.123  31.877  27.294  1.00  0.00     0.163 HD
ATOM     33  O   UNL A   1      36.805  31.812  29.159  1.00  0.00    -0.269 OA
BRANCH  31  34
ATOM     34  C   UNL A   1      37.390  29.723  28.282  1.00  0.00     0.039 A 
ATOM     35  C   UNL A   1      37.476  28.911  29.420  1.00  0.00     0.014 A 
ATOM     36  C   UNL A   1      38.325  29.648  27.254  1.00  0.00     0.014 A 
ATOM     37  C   UNL A   1      38.616  28.140  29.616  1.00  0.00     0.010 A 
ATOM     38  C   UNL A   1      39.494  28.956  27.495  1.00  0.00     0.010 A 
ATOM     39  C   UNL A   1      39.657  28.248  28.696  1.00  0.00    -0.014 A 
BRANCH  39  40
ATOM     40  C   UNL A   1      40.988  27.704  28.931  1.00  0.00     0.031 A 
ATOM     41  C   UNL A   1      41.268  26.302  28.554  1.00  0.00     0.074 A 
ATOM     42  C   UNL A   1      41.970  28.503  29.403  1.00  0.00     0.049 A 
ATOM     43  N   UNL A   1      42.224  25.584  29.038  1.00  0.00    -0.248 NA
ATOM     44  C   UNL A   1      40.416  25.572  27.621  1.00  0.00     0.031 C 
ATOM     45  C   UNL A   1      43.401  28.215  29.418  1.00  0.00     0.029 A 
ATOM     46  N   UNL A   1      41.852  29.664  30.173  1.00  0.00    -0.354 N 
ATOM     47  C   UNL A   1      42.310  24.445  28.265  1.00  0.00     0.074 A 
ATOM     48  C   UNL A   1      41.103  24.437  27.474  1.00  0.00     0.031 C 
ATOM     49  C   UNL A   1      43.977  28.958  30.376  1.00  0.00     0.029 A 
ATOM     50  C   UNL A   1      42.906  29.625  31.102  1.00  0.00     0.049 A 
ATOM     51  H   UNL A   1      41.168  30.366  30.084  1.00  0.00     0.167 HD
ATOM     52  C   UNL A   1      43.465  23.720  28.260  1.00  0.00     0.031 A 
ATOM     53  C   UNL A   1      42.724  29.569  32.454  1.00  0.00     0.031 A 
ATOM     54  C   UNL A   1      44.408  24.217  29.261  1.00  0.00     0.049 A 
ATOM     55  C   UNL A   1      43.343  28.332  33.072  1.00  0.00     0.074 A 
ATOM     56  C   UNL A   1      45.516  25.045  29.180  1.00  0.00     0.029 A 
ATOM     57  N   UNL A   1      44.080  24.130  30.610  1.00  0.00    -0.354 N 
ATOM     58  N   UNL A   1      43.694  27.275  32.390  1.00  0.00    -0.248 NA
ATOM     59  C   UNL A   1      43.584  28.172  34.504  1.00  0.00     0.031 C 
ATOM     60  C   UNL A   1      45.778  25.549  30.481  1.00  0.00     0.029 A 
ATOM     61  C   UNL A   1      44.858  24.995  31.354  1.00  0.00     0.049 A 
ATOM     62  H   UNL A   1      43.389  23.534  30.982  1.00  0.00     0.167 HD
ATOM     63  C   UNL A   1      44.202  26.327  33.237  1.00  0.00     0.074 A 
ATOM     64  C   UNL A   1      44.114  26.936  34.553  1.00  0.00     0.031 C 
ATOM     65  C   UNL A   1      44.657  25.119  32.792  1.00  0.00     0.031 A 
BRANCH  52  66
ATOM     66  C   UNL A   1      43.851  22.779  27.133  1.00  0.00    -0.014 A 
ATOM     67  C   UNL A   1      42.940  21.785  26.714  1.00  0.00     0.010 A 
ATOM     68  C   UNL A   1      45.109  22.758  26.503  1.00  0.00     0.010 A 
ATOM     69  C   UNL A   1      43.298  20.775  25.807  1.00  0.00     0.020 A 
ATOM     70  C   UNL A   1      45.497  21.736  25.622  1.00  0.00     0.020 A 
ATOM     71  C   UNL A   1      44.590  20.738  25.288  1.00  0.00     0.054 A 
BRANCH  71  72
ATOM     72  S   UNL A   1      45.071  19.383  24.186  1.00  0.00     0.124 S 
ATOM     73  O   UNL A   1      44.437  19.761  22.925  1.00  0.00    -0.237 OA
ATOM     74  O   UNL A   1      46.529  19.465  24.207  1.00  0.00    -0.237 OA
ATOM     75  O   UNL A   1      44.507  18.197  24.826  1.00  0.00    -0.744 OA
ENDBRANCH  71  72
ENDBRANCH  52  66
BRANCH  53  76
ATOM     76  C   UNL A   1      41.488  30.243  32.940  1.00  0.00    -0.014 A 
ATOM     77  C   UNL A   1      41.638  31.489  33.586  1.00  0.00     0.010 A 
ATOM     78  C   UNL A   1      40.233  29.904  32.404  1.00  0.00     0.010 A 
ATOM     79  C   UNL A   1      40.618  32.442  33.542  1.00  0.00     0.020 A 
ATOM     80  C   UNL A   1      39.207  30.860  32.361  1.00  0.00     0.020 A 
ATOM     81  C   UNL A   1      39.433  32.144  32.868  1.00  0.00     0.054 A 
BRANCH  81  82
ATOM     82  S   UNL A   1      38.290  33.513  32.500  1.00  0.00     0.124 S 
ATOM     83  O   UNL A   1      37.035  32.813  32.251  1.00  0.00    -0.237 OA
ATOM     84  O   UNL A   1      38.337  34.297  33.736  1.00  0.00    -0.237 OA
ATOM     85  O   UNL A   1      38.899  34.153  31.339  1.00  0.00    -0.744 OA
ENDBRANCH  81  82
ENDBRANCH  53  76
BRANCH  65  86
ATOM     86  C   UNL A   1      45.045  23.957  33.671  1.00  0.00    -0.014 A 
ATOM     87  C   UNL A   1      44.215  22.853  33.918  1.00  0.00     0.010 A 
ATOM     88  C   UNL A   1      46.367  23.896  34.176  1.00  0.00     0.010 A 
ATOM     89  C   UNL A   1      44.658  21.771  34.693  1.00  0.00     0.020 A 
ATOM     90  C   UNL A   1      46.832  22.804  34.911  1.00  0.00     0.020 A 
ATOM     91  C   UNL A   1      45.962  21.757  35.189  1.00  0.00     0.054 A 
BRANCH  91  92
ATOM     92  S   UNL A   1      46.542  20.332  36.146  1.00  0.00     0.124 S 
ATOM     93  O   UNL A   1      45.552  19.315  35.798  1.00  0.00    -0.237 OA
ATOM     94  O   UNL A   1      47.885  20.105  35.617  1.00  0.00    -0.237 OA
ATOM     95  O   UNL A   1      46.496  20.806  37.526  1.00  0.00    -0.744 OA
ENDBRANCH  91  92
ENDBRANCH  65  86
ENDBRANCH  39  40
ENDBRANCH  31  34
ENDBRANCH  29  30
ENDBRANCH  28  29
ENDBRANCH   1  28
TORSDOF 19
ENDMDL
MODEL 3
REMARK VINA RESULT:     -12.4      1.216      2.060
REMARK SMILES CCOc1c(Br)cc(CNc2cccc(C(=O)NCCCNC(=O)c3ccc(-c4c5nc(c(-c6ccc(S(=O)(=O)[O-])cc6)c6ccc([nH]6)c(-c6ccc(S(=O)(=O)[O-])cc6)c6nc(c(-c7ccc(S(=O)(=O)[O-])cc7)c7ccc4[nH]7)C=C6)C=C5)cc3)c2C)cc1OC
REMARK SMILES IDX 19 1 18 2 16 3 17 4 15 6 11 7 12 8 85 9 13 10 86 11 14 12
REMARK SMILES IDX 10 13 9 15 8 16 4 17 5 18 88 19 6 20 7 21 87 22 3 23 2 24
REMARK SMILES IDX 1 25 89 26 90 27 20 28 21 29 22 30 23 31 24 33 25 34 26 35
REMARK SMILES IDX 84 36 27 37 83 38 28 39 29 40 30 41 77 42 31 43 82 44 76 45
REMARK SMILES IDX 78 46 32 47 81 48 75 49 74 50 33 52 63 53 44 54 62 55 45 56
REMARK SMILES IDX 48 57 61 58 79 59 46 60 47 61 60 63 80 64 49 65 34 66 35 67
REMARK SMILES IDX 43 68 36 69 42 70 37 71 38 72 39 73 40 74 41 75 64 76 65 77
REMARK SMILES IDX 73 78 66 79 72 80 67 81 68 82 69 83 70 84 71 85 50 86 51 87
REMARK SMILES IDX 59 88 52 89 58 90 53 91 54 92 55 93 56 94 57 95
REMARK H PARENT 18 5 10 14 22 32 78 51 48 62
REMARK Flexibility Score: inf
ROOT
ATOM      1  C   UNL A   1      37.121  21.394  25.236  1.00  0.00     0.118 C 
ENDROOT
BRANCH   1   2
ATOM      2  N   UNL A   1      35.894  20.605  25.241  1.00  0.00    -0.352 N 
ATOM      3  C   UNL A   1      34.570  20.821  24.933  1.00  0.00     0.251 C 
ATOM      4  O   UNL A   1      33.878  19.806  25.027  1.00  0.00    -0.269 OA
ATOM      5  H   UNL A   1      36.053  19.682  25.543  1.00  0.00     0.163 HD
BRANCH   3   6
ATOM      6  C   UNL A   1      33.949  22.145  24.512  1.00  0.00     0.044 A 
ATOM      7  C   UNL A   1      32.735  24.261  24.981  1.00  0.00     0.038 A 
ATOM      8  C   UNL A   1      32.770  24.568  23.617  1.00  0.00     0.026 A 
ATOM      9  C   UNL A   1      33.355  23.055  25.448  1.00  0.00    -0.015 A 
ATOM     10  C   UNL A   1      33.383  23.720  22.716  1.00  0.00     0.003 A 
ATOM     11  C   UNL A   1      33.284  22.808  26.942  1.00  0.00     0.047 C 
ATOM     12  C   UNL A   1      33.951  22.530  23.163  1.00  0.00     0.014 A 
BRANCH   7  13
ATOM     13  N   UNL A   1      32.046  25.103  25.852  1.00  0.00    -0.381 N 
ATOM     14  H   UNL A   1      32.536  25.508  26.605  1.00  0.00     0.160 HD
BRANCH  13  15
ATOM     15  C   UNL A   1      30.637  25.408  25.692  1.00  0.00     0.149 C 
BRANCH  15  16
ATOM     16  C   UNL A   1      30.501  26.739  24.992  1.00  0.00    -0.024 A 
ATOM     17  C   UNL A   1      30.195  29.258  23.748  1.00  0.00     0.175 A 
ATOM     18  C   UNL A   1      29.215  28.259  23.605  1.00  0.00     0.064 A 
ATOM     19  C   UNL A   1      31.374  28.964  24.454  1.00  0.00     0.162 A 
ATOM     20  Br  UNL A   1      27.674  28.497  22.518  1.00  0.00    -0.047 Br
ATOM     21  C   UNL A   1      29.357  27.024  24.241  1.00  0.00     0.025 A 
ATOM     22  C   UNL A   1      31.503  27.714  25.084  1.00  0.00     0.056 A 
BRANCH  17  23
ATOM     23  O   UNL A   1      29.987  30.472  23.143  1.00  0.00    -0.489 OA
BRANCH  23  24
ATOM     24  C   UNL A   1      29.411  31.436  24.038  1.00  0.00     0.226 C 
ATOM     25  C   UNL A   1      27.927  31.614  23.774  1.00  0.00     0.049 C 
ENDBRANCH  23  24
ENDBRANCH  17  23
BRANCH  19  26
ATOM     26  O   UNL A   1      32.472  29.758  24.653  1.00  0.00    -0.493 OA
ATOM     27  C   UNL A   1      33.115  29.725  25.917  1.00  0.00     0.278 C 
ENDBRANCH  19  26
ENDBRANCH  15  16
ENDBRANCH  13  15
ENDBRANCH   7  13
ENDBRANCH   3   6
ENDBRANCH   1   2
BRANCH   1  28
ATOM     28  C   UNL A   1      37.004  22.637  26.120  1.00  0.00     0.042 C 
BRANCH  28  29
ATOM     29  C   UNL A   1      38.192  23.577  25.984  1.00  0.00     0.118 C 
BRANCH  29  30
ATOM     30  N   UNL A   1      39.306  23.201  26.847  1.00  0.00    -0.352 N 
ATOM     31  C   UNL A   1      40.165  24.048  27.530  1.00  0.00     0.251 C 
ATOM     32  H   UNL A   1      39.468  22.235  26.955  1.00  0.00     0.163 HD
ATOM     33  O   UNL A   1      41.220  23.692  28.013  1.00  0.00    -0.269 OA
BRANCH  31  34
ATOM     34  C   UNL A   1      39.642  25.405  27.778  1.00  0.00     0.039 A 
ATOM     35  C   UNL A   1      40.163  26.428  26.976  1.00  0.00     0.014 A 
ATOM     36  C   UNL A   1      38.976  25.674  28.969  1.00  0.00     0.014 A 
ATOM     37  C   UNL A   1      40.176  27.729  27.462  1.00  0.00     0.010 A 
ATOM     38  C   UNL A   1      39.073  26.948  29.489  1.00  0.00     0.010 A 
ATOM     39  C   UNL A   1      39.719  27.958  28.759  1.00  0.00    -0.014 A 
BRANCH  39  40
ATOM     40  C   UNL A   1      39.927  29.213  29.468  1.00  0.00     0.031 A 
ATOM     41  C   UNL A   1      38.899  30.272  29.372  1.00  0.00     0.074 A 
ATOM     42  C   UNL A   1      41.003  29.365  30.271  1.00  0.00     0.049 A 
ATOM     43  N   UNL A   1      39.105  31.525  29.599  1.00  0.00    -0.248 NA
ATOM     44  C   UNL A   1      37.537  29.983  28.934  1.00  0.00     0.031 C 
ATOM     45  C   UNL A   1      41.212  30.413  31.265  1.00  0.00     0.029 A 
ATOM     46  N   UNL A   1      42.239  28.715  30.200  1.00  0.00    -0.354 N 
ATOM     47  C   UNL A   1      37.871  32.138  29.654  1.00  0.00     0.074 A 
ATOM     48  C   UNL A   1      36.945  31.164  29.130  1.00  0.00     0.031 C 
ATOM     49  C   UNL A   1      42.531  30.540  31.481  1.00  0.00     0.029 A 
ATOM     50  C   UNL A   1      43.207  29.684  30.517  1.00  0.00     0.049 A 
ATOM     51  H   UNL A   1      42.400  27.771  29.973  1.00  0.00     0.167 HD
ATOM     52  C   UNL A   1      37.744  33.339  30.287  1.00  0.00     0.031 A 
ATOM     53  C   UNL A   1      44.180  30.095  29.652  1.00  0.00     0.031 A 
ATOM     54  C   UNL A   1      39.048  33.876  30.675  1.00  0.00     0.049 A 
ATOM     55  C   UNL A   1      44.107  31.581  29.361  1.00  0.00     0.074 A 
ATOM     56  C   UNL A   1      39.742  33.884  31.873  1.00  0.00     0.029 A 
ATOM     57  N   UNL A   1      39.963  34.224  29.687  1.00  0.00    -0.354 N 
ATOM     58  N   UNL A   1      43.058  32.319  29.604  1.00  0.00    -0.248 NA
ATOM     59  C   UNL A   1      45.190  32.342  28.743  1.00  0.00     0.031 C 
ATOM     60  C   UNL A   1      41.110  34.125  31.582  1.00  0.00     0.029 A 
ATOM     61  C   UNL A   1      41.237  34.303  30.215  1.00  0.00     0.049 A 
ATOM     62  H   UNL A   1      39.735  34.390  28.743  1.00  0.00     0.167 HD
ATOM     63  C   UNL A   1      43.301  33.608  29.212  1.00  0.00     0.074 A 
ATOM     64  C   UNL A   1      44.652  33.574  28.679  1.00  0.00     0.031 C 
ATOM     65  C   UNL A   1      42.376  34.602  29.357  1.00  0.00     0.031 A 
BRANCH  52  66
ATOM     66  C   UNL A   1      36.424  33.857  30.830  1.00  0.00    -0.014 A 
ATOM     67  C   UNL A   1      35.345  34.072  29.946  1.00  0.00     0.010 A 
ATOM     68  C   UNL A   1      36.200  34.229  32.169  1.00  0.00     0.010 A 
ATOM     69  C   UNL A   1      34.162  34.714  30.350  1.00  0.00     0.020 A 
ATOM     70  C   UNL A   1      35.041  34.904  32.583  1.00  0.00     0.020 A 
ATOM     71  C   UNL A   1      34.030  35.156  31.664  1.00  0.00     0.054 A 
BRANCH  71  72
ATOM     72  S   UNL A   1      32.539  36.059  32.156  1.00  0.00     0.124 S 
ATOM     73  O   UNL A   1      32.156  36.736  30.919  1.00  0.00    -0.237 OA
ATOM     74  O   UNL A   1      31.650  34.984  32.587  1.00  0.00    -0.237 OA
ATOM     75  O   UNL A   1      33.004  36.945  33.222  1.00  0.00    -0.744 OA
ENDBRANCH  71  72
ENDBRANCH  52  66
BRANCH  53  76
ATOM     76  C   UNL A   1      44.632  29.054  28.689  1.00  0.00    -0.014 A 
ATOM     77  C   UNL A   1      44.012  29.028  27.421  1.00  0.00     0.010 A 
ATOM     78  C   UNL A   1      45.884  28.434  28.844  1.00  0.00     0.010 A 
ATOM     79  C   UNL A   1      44.701  28.556  26.300  1.00  0.00     0.020 A 
ATOM     80  C   UNL A   1      46.576  27.959  27.720  1.00  0.00     0.020 A 
ATOM     81  C   UNL A   1      46.006  28.088  26.449  1.00  0.00     0.054 A 
BRANCH  81  82
ATOM     82  S   UNL A   1      47.003  27.841  24.945  1.00  0.00     0.124 S 
ATOM     83  O   UNL A   1      48.353  27.716  25.482  1.00  0.00    -0.237 OA
ATOM     84  O   UNL A   1      46.431  26.611  24.392  1.00  0.00    -0.237 OA
ATOM     85  O   UNL A   1      46.740  29.047  24.168  1.00  0.00    -0.744 OA
ENDBRANCH  81  82
ENDBRANCH  53  76
BRANCH  65  86
ATOM     86  C   UNL A   1      42.491  35.989  28.778  1.00  0.00    -0.014 A 
ATOM     87  C   UNL A   1      43.105  37.064  29.439  1.00  0.00     0.010 A 
ATOM     88  C   UNL A   1      42.080  36.205  27.439  1.00  0.00     0.010 A 
ATOM     89  C   UNL A   1      43.240  38.316  28.820  1.00  0.00     0.020 A 
ATOM     90  C   UNL A   1      42.250  37.434  26.800  1.00  0.00     0.020 A 
ATOM     91  C   UNL A   1      42.805  38.494  27.506  1.00  0.00     0.054 A 
BRANCH  91  92
ATOM     92  S   UNL A   1      43.029  40.099  26.698  1.00  0.00     0.124 S 
ATOM     93  O   UNL A   1      43.301  40.973  27.837  1.00  0.00    -0.237 OA
ATOM     94  O   UNL A   1      44.161  39.864  25.806  1.00  0.00    -0.237 OA
ATOM     95  O   UNL A   1      41.752  40.324  26.026  1.00  0.00    -0.744 OA
ENDBRANCH  91  92
ENDBRANCH  65  86
ENDBRANCH  39  40
ENDBRANCH  31  34
ENDBRANCH  29  30
ENDBRANCH  28  29
ENDBRANCH   1  28
TORSDOF 19
ENDMDL
