MODEL 1
REMARK VINA RESULT:     -10.2      0.000      0.000
REMARK SMILES O=C(NCCCNC(=O)c1ccc(-c2c3nc(c(-c4ccc(S(=O)(=O)[O-])cc4)c4ccc([nH]4)c(-c4ccc(S(=O)(=O)[O-])cc4)c4nc(c(-c5ccc(S(=O)(=O)[O-])cc5)c5ccc2[nH]5)C=C4)C=C3)cc1)C1=Cc2ccc(Cl)c(Cl)c2O[C@@H]1C(F)(F)F
REMARK SMILES IDX 6 1 5 2 4 3 3 4 1 5 2 6 70 8 71 9 81 10 72 11 80 12 73 13
REMARK SMILES IDX 79 14 74 15 77 16 75 17 78 18 76 19 82 20 83 21 84 22 85 23
REMARK SMILES IDX 7 24 8 25 9 27 10 28 11 29 69 30 12 31 68 32 13 33 14 34
REMARK SMILES IDX 15 35 62 36 16 37 67 38 61 39 63 40 17 41 66 42 60 43 59 44
REMARK SMILES IDX 18 46 48 47 29 48 47 49 30 50 33 51 46 52 64 53 31 54 32 55
REMARK SMILES IDX 45 57 65 58 34 59 19 60 20 61 28 62 21 63 27 64 22 65 23 66
REMARK SMILES IDX 24 67 25 68 26 69 49 70 50 71 58 72 51 73 57 74 52 75 53 76
REMARK SMILES IDX 54 77 55 78 56 79 35 80 36 81 44 82 37 83 43 84 38 85 39 86
REMARK SMILES IDX 40 87 41 88 42 89
REMARK H PARENT 3 7 7 26 63 45 33 56
REMARK Flexibility Score: inf
ROOT
ATOM      1  C   UNL A   1      34.356  32.464  27.969  1.00  0.00     0.118 C 
ENDROOT
BRANCH   1   2
ATOM      2  C   UNL A   1      34.265  32.966  29.408  1.00  0.00     0.042 C 
BRANCH   2   3
ATOM      3  C   UNL A   1      34.814  34.379  29.577  1.00  0.00     0.118 C 
BRANCH   3   4
ATOM      4  N   UNL A   1      36.251  34.481  29.303  1.00  0.00    -0.352 N 
ATOM      5  O   UNL A   1      38.461  34.045  29.584  1.00  0.00    -0.270 OA
ATOM      6  C   UNL A   1      37.332  34.080  30.051  1.00  0.00     0.251 C 
ATOM      7  H   UNL A   1      36.479  34.904  28.444  1.00  0.00     0.163 HD
BRANCH   6   8
ATOM      8  C   UNL A   1      37.062  33.632  31.429  1.00  0.00     0.067 C 
ATOM      9  C   UNL A   1      37.149  32.319  31.670  1.00  0.00     0.025 C 
ATOM     10  C   UNL A   1      37.111  34.666  32.506  1.00  0.00     0.314 C 
ATOM     11  C   UNL A   1      37.982  32.008  32.837  1.00  0.00     0.019 A 
ATOM     12  O   UNL A   1      38.076  34.351  33.535  1.00  0.00    -0.474 OA
ATOM     13  C   UNL A   1      38.552  30.732  32.883  1.00  0.00     0.013 A 
ATOM     14  C   UNL A   1      38.528  33.050  33.616  1.00  0.00     0.148 A 
ATOM     15  C   UNL A   1      39.723  30.522  33.608  1.00  0.00     0.023 A 
ATOM     16  C   UNL A   1      39.698  32.828  34.363  1.00  0.00     0.102 A 
ATOM     17  C   UNL A   1      40.310  31.567  34.325  1.00  0.00     0.063 A 
ATOM     18  Cl  UNL A   1      40.449  34.164  35.180  1.00  0.00    -0.079 Cl
ATOM     19  Cl  UNL A   1      41.839  31.257  35.068  1.00  0.00    -0.083 Cl
BRANCH  10  20
ATOM     20  C   UNL A   1      35.719  34.890  33.120  1.00  0.00     0.429 C 
ATOM     21  F   UNL A   1      35.781  34.920  34.473  1.00  0.00    -0.167 F 
ATOM     22  F   UNL A   1      35.175  36.068  32.731  1.00  0.00    -0.167 F 
ATOM     23  F   UNL A   1      34.846  33.912  32.781  1.00  0.00    -0.167 F 
ENDBRANCH  10  20
ENDBRANCH   6   8
ENDBRANCH   3   4
ENDBRANCH   2   3
ENDBRANCH   1   2
BRANCH   1  24
ATOM     24  N   UNL A   1      33.801  31.131  27.766  1.00  0.00    -0.352 N 
ATOM     25  C   UNL A   1      34.398  29.886  27.850  1.00  0.00     0.251 C 
ATOM     26  H   UNL A   1      32.845  31.114  27.529  1.00  0.00     0.163 HD
ATOM     27  O   UNL A   1      33.748  28.890  27.589  1.00  0.00    -0.269 OA
BRANCH  25  28
ATOM     28  C   UNL A   1      35.832  29.765  28.212  1.00  0.00     0.039 A 
ATOM     29  C   UNL A   1      36.172  29.343  29.502  1.00  0.00     0.014 A 
ATOM     30  C   UNL A   1      36.839  30.041  27.288  1.00  0.00     0.014 A 
ATOM     31  C   UNL A   1      37.512  29.102  29.825  1.00  0.00     0.010 A 
ATOM     32  C   UNL A   1      38.152  29.684  27.571  1.00  0.00     0.010 A 
ATOM     33  C   UNL A   1      38.510  29.214  28.843  1.00  0.00    -0.014 A 
BRANCH  33  34
ATOM     34  C   UNL A   1      39.930  28.862  29.112  1.00  0.00     0.031 A 
ATOM     35  C   UNL A   1      40.864  29.900  29.683  1.00  0.00     0.074 A 
ATOM     36  C   UNL A   1      40.406  27.652  28.751  1.00  0.00     0.049 A 
ATOM     37  N   UNL A   1      42.160  29.841  29.854  1.00  0.00    -0.248 NA
ATOM     38  C   UNL A   1      40.271  31.194  30.065  1.00  0.00     0.031 C 
ATOM     39  C   UNL A   1      39.624  26.578  28.130  1.00  0.00     0.029 A 
ATOM     40  N   UNL A   1      41.670  27.123  28.844  1.00  0.00    -0.354 N 
ATOM     41  C   UNL A   1      42.537  31.097  30.319  1.00  0.00     0.074 A 
ATOM     42  C   UNL A   1      41.345  31.914  30.350  1.00  0.00     0.031 C 
ATOM     43  C   UNL A   1      40.416  25.512  27.930  1.00  0.00     0.029 A 
ATOM     44  C   UNL A   1      41.771  25.837  28.364  1.00  0.00     0.049 A 
ATOM     45  H   UNL A   1      42.434  27.618  29.220  1.00  0.00     0.167 HD
ATOM     46  C   UNL A   1      43.759  31.526  30.713  1.00  0.00     0.031 A 
ATOM     47  C   UNL A   1      42.833  25.014  28.276  1.00  0.00     0.031 A 
ATOM     48  C   UNL A   1      44.931  30.692  30.738  1.00  0.00     0.049 A 
ATOM     49  C   UNL A   1      44.171  25.495  28.769  1.00  0.00     0.074 A 
ATOM     50  C   UNL A   1      46.196  31.002  31.201  1.00  0.00     0.029 A 
ATOM     51  N   UNL A   1      44.974  29.379  30.295  1.00  0.00    -0.354 N 
ATOM     52  N   UNL A   1      44.491  26.666  29.265  1.00  0.00    -0.248 NA
ATOM     53  C   UNL A   1      45.286  24.541  28.702  1.00  0.00     0.031 C 
ATOM     54  C   UNL A   1      47.018  29.887  31.002  1.00  0.00     0.029 A 
ATOM     55  C   UNL A   1      46.249  28.868  30.463  1.00  0.00     0.049 A 
ATOM     56  H   UNL A   1      44.211  28.884  29.919  1.00  0.00     0.167 HD
ATOM     57  C   UNL A   1      45.840  26.581  29.593  1.00  0.00     0.074 A 
ATOM     58  C   UNL A   1      46.269  25.239  29.256  1.00  0.00     0.031 C 
ATOM     59  C   UNL A   1      46.652  27.528  30.124  1.00  0.00     0.031 A 
BRANCH  46  60
ATOM     60  C   UNL A   1      43.888  32.958  31.164  1.00  0.00    -0.014 A 
ATOM     61  C   UNL A   1      44.427  33.942  30.317  1.00  0.00     0.010 A 
ATOM     62  C   UNL A   1      43.429  33.333  32.440  1.00  0.00     0.010 A 
ATOM     63  C   UNL A   1      44.543  35.264  30.749  1.00  0.00     0.020 A 
ATOM     64  C   UNL A   1      43.515  34.661  32.866  1.00  0.00     0.020 A 
ATOM     65  C   UNL A   1      44.087  35.616  32.024  1.00  0.00     0.054 A 
BRANCH  65  66
ATOM     66  S   UNL A   1      44.220  37.348  32.546  1.00  0.00     0.124 S 
ATOM     67  O   UNL A   1      43.301  37.390  33.682  1.00  0.00    -0.237 OA
ATOM     68  O   UNL A   1      45.636  37.474  32.880  1.00  0.00    -0.237 OA
ATOM     69  O   UNL A   1      43.791  38.098  31.368  1.00  0.00    -0.744 OA
ENDBRANCH  65  66
ENDBRANCH  46  60
BRANCH  47  70
ATOM     70  C   UNL A   1      42.674  23.642  27.719  1.00  0.00    -0.014 A 
ATOM     71  C   UNL A   1      42.389  22.557  28.567  1.00  0.00     0.010 A 
ATOM     72  C   UNL A   1      42.799  23.412  26.337  1.00  0.00     0.010 A 
ATOM     73  C   UNL A   1      42.257  21.265  28.048  1.00  0.00     0.020 A 
ATOM     74  C   UNL A   1      42.640  22.127  25.811  1.00  0.00     0.020 A 
ATOM     75  C   UNL A   1      42.383  21.058  26.672  1.00  0.00     0.054 A 
BRANCH  75  76
ATOM     76  S   UNL A   1      42.163  19.382  26.013  1.00  0.00     0.124 S 
ATOM     77  O   UNL A   1      43.025  19.404  24.835  1.00  0.00    -0.237 OA
ATOM     78  O   UNL A   1      42.620  18.544  27.118  1.00  0.00    -0.237 OA
ATOM     79  O   UNL A   1      40.728  19.310  25.740  1.00  0.00    -0.744 OA
ENDBRANCH  75  76
ENDBRANCH  47  70
BRANCH  59  80
ATOM     80  C   UNL A   1      48.076  27.137  30.407  1.00  0.00    -0.014 A 
ATOM     81  C   UNL A   1      49.081  27.299  29.437  1.00  0.00     0.010 A 
ATOM     82  C   UNL A   1      48.421  26.654  31.683  1.00  0.00     0.010 A 
ATOM     83  C   UNL A   1      50.403  26.955  29.729  1.00  0.00     0.020 A 
ATOM     84  C   UNL A   1      49.746  26.334  31.986  1.00  0.00     0.020 A 
ATOM     85  C   UNL A   1      50.726  26.473  31.001  1.00  0.00     0.054 A 
BRANCH  85  86
ATOM     86  S   UNL A   1      52.456  26.073  31.368  1.00  0.00     0.124 S 
ATOM     87  O   UNL A   1      53.082  26.198  30.054  1.00  0.00    -0.237 OA
ATOM     88  O   UNL A   1      52.824  27.098  32.340  1.00  0.00    -0.237 OA
ATOM     89  O   UNL A   1      52.391  24.713  31.901  1.00  0.00    -0.744 OA
ENDBRANCH  85  86
ENDBRANCH  59  80
ENDBRANCH  33  34
ENDBRANCH  25  28
ENDBRANCH   1  24
TORSDOF 14
ENDMDL
MODEL 2
REMARK VINA RESULT:     -10.2      4.540     11.387
REMARK SMILES O=C(NCCCNC(=O)c1ccc(-c2c3nc(c(-c4ccc(S(=O)(=O)[O-])cc4)c4ccc([nH]4)c(-c4ccc(S(=O)(=O)[O-])cc4)c4nc(c(-c5ccc(S(=O)(=O)[O-])cc5)c5ccc2[nH]5)C=C4)C=C3)cc1)C1=Cc2ccc(Cl)c(Cl)c2O[C@@H]1C(F)(F)F
REMARK SMILES IDX 6 1 5 2 4 3 3 4 1 5 2 6 70 8 71 9 81 10 72 11 80 12 73 13
REMARK SMILES IDX 79 14 74 15 77 16 75 17 78 18 76 19 82 20 83 21 84 22 85 23
REMARK SMILES IDX 7 24 8 25 9 27 10 28 11 29 69 30 12 31 68 32 13 33 14 34
REMARK SMILES IDX 15 35 62 36 16 37 67 38 61 39 63 40 17 41 66 42 60 43 59 44
REMARK SMILES IDX 18 46 48 47 29 48 47 49 30 50 33 51 46 52 64 53 31 54 32 55
REMARK SMILES IDX 45 57 65 58 34 59 19 60 20 61 28 62 21 63 27 64 22 65 23 66
REMARK SMILES IDX 24 67 25 68 26 69 49 70 50 71 58 72 51 73 57 74 52 75 53 76
REMARK SMILES IDX 54 77 55 78 56 79 35 80 36 81 44 82 37 83 43 84 38 85 39 86
REMARK SMILES IDX 40 87 41 88 42 89
REMARK H PARENT 3 7 7 26 63 45 33 56
REMARK Flexibility Score: inf
ROOT
ATOM      1  C   UNL A   1      40.407  21.594  26.780  1.00  0.00     0.118 C 
ENDROOT
BRANCH   1   2
ATOM      2  C   UNL A   1      41.691  21.956  26.040  1.00  0.00     0.042 C 
BRANCH   2   3
ATOM      3  C   UNL A   1      42.934  21.829  26.915  1.00  0.00     0.118 C 
BRANCH   3   4
ATOM      4  N   UNL A   1      44.103  21.315  26.194  1.00  0.00    -0.352 N 
ATOM      5  O   UNL A   1      46.253  21.280  25.466  1.00  0.00    -0.270 OA
ATOM      6  C   UNL A   1      45.298  21.918  25.887  1.00  0.00     0.251 C 
ATOM      7  H   UNL A   1      44.017  20.385  25.880  1.00  0.00     0.163 HD
BRANCH   6   8
ATOM      8  C   UNL A   1      45.403  23.364  26.147  1.00  0.00     0.067 C 
ATOM      9  C   UNL A   1      46.062  23.738  27.250  1.00  0.00     0.025 C 
ATOM     10  C   UNL A   1      45.136  24.287  25.002  1.00  0.00     0.314 C 
ATOM     11  C   UNL A   1      47.077  24.765  26.987  1.00  0.00     0.019 A 
ATOM     12  O   UNL A   1      46.256  25.155  24.716  1.00  0.00    -0.474 OA
ATOM     13  C   UNL A   1      48.132  24.856  27.900  1.00  0.00     0.013 A 
ATOM     14  C   UNL A   1      47.220  25.305  25.691  1.00  0.00     0.148 A 
ATOM     15  C   UNL A   1      49.358  25.378  27.492  1.00  0.00     0.023 A 
ATOM     16  C   UNL A   1      48.452  25.849  25.291  1.00  0.00     0.102 A 
ATOM     17  C   UNL A   1      49.529  25.850  26.188  1.00  0.00     0.063 A 
ATOM     18  Cl  UNL A   1      48.659  26.356  23.642  1.00  0.00    -0.079 Cl
ATOM     19  Cl  UNL A   1      51.121  26.336  25.725  1.00  0.00    -0.083 Cl
BRANCH  10  20
ATOM     20  C   UNL A   1      43.860  25.110  25.243  1.00  0.00     0.429 C 
ATOM     21  F   UNL A   1      42.839  24.665  24.471  1.00  0.00    -0.167 F 
ATOM     22  F   UNL A   1      43.439  25.032  26.527  1.00  0.00    -0.167 F 
ATOM     23  F   UNL A   1      44.035  26.422  24.956  1.00  0.00    -0.167 F 
ENDBRANCH  10  20
ENDBRANCH   6   8
ENDBRANCH   3   4
ENDBRANCH   2   3
ENDBRANCH   1   2
BRANCH   1  24
ATOM     24  N   UNL A   1      39.191  22.086  26.142  1.00  0.00    -0.352 N 
ATOM     25  C   UNL A   1      38.642  23.355  26.114  1.00  0.00     0.251 C 
ATOM     26  H   UNL A   1      38.677  21.403  25.654  1.00  0.00     0.163 HD
ATOM     27  O   UNL A   1      37.576  23.534  25.552  1.00  0.00    -0.269 OA
BRANCH  25  28
ATOM     28  C   UNL A   1      39.322  24.482  26.798  1.00  0.00     0.039 A 
ATOM     29  C   UNL A   1      40.074  25.383  26.037  1.00  0.00     0.014 A 
ATOM     30  C   UNL A   1      39.204  24.671  28.174  1.00  0.00     0.014 A 
ATOM     31  C   UNL A   1      40.618  26.521  26.642  1.00  0.00     0.010 A 
ATOM     32  C   UNL A   1      39.638  25.861  28.747  1.00  0.00     0.010 A 
ATOM     33  C   UNL A   1      40.355  26.801  27.992  1.00  0.00    -0.014 A 
BRANCH  33  34
ATOM     34  C   UNL A   1      40.820  28.053  28.649  1.00  0.00     0.031 A 
ATOM     35  C   UNL A   1      42.232  28.143  29.174  1.00  0.00     0.074 A 
ATOM     36  C   UNL A   1      39.954  29.064  28.864  1.00  0.00     0.049 A 
ATOM     37  N   UNL A   1      42.785  29.082  29.899  1.00  0.00    -0.248 NA
ATOM     38  C   UNL A   1      43.124  27.006  28.890  1.00  0.00     0.031 C 
ATOM     39  C   UNL A   1      38.543  29.080  28.464  1.00  0.00     0.029 A 
ATOM     40  N   UNL A   1      40.130  30.276  29.486  1.00  0.00    -0.354 N 
ATOM     41  C   UNL A   1      44.067  28.627  30.191  1.00  0.00     0.074 A 
ATOM     42  C   UNL A   1      44.191  27.308  29.614  1.00  0.00     0.031 C 
ATOM     43  C   UNL A   1      37.995  30.253  28.820  1.00  0.00     0.029 A 
ATOM     44  C   UNL A   1      38.996  31.056  29.513  1.00  0.00     0.049 A 
ATOM     45  H   UNL A   1      40.987  30.561  29.877  1.00  0.00     0.167 HD
ATOM     46  C   UNL A   1      45.063  29.260  30.854  1.00  0.00     0.031 A 
ATOM     47  C   UNL A   1      38.782  32.276  30.041  1.00  0.00     0.031 A 
ATOM     48  C   UNL A   1      44.955  30.596  31.374  1.00  0.00     0.049 A 
ATOM     49  C   UNL A   1      39.920  32.982  30.728  1.00  0.00     0.074 A 
ATOM     50  C   UNL A   1      45.931  31.362  31.985  1.00  0.00     0.029 A 
ATOM     51  N   UNL A   1      43.806  31.370  31.329  1.00  0.00    -0.354 N 
ATOM     52  N   UNL A   1      41.144  32.559  30.937  1.00  0.00    -0.248 NA
ATOM     53  C   UNL A   1      39.652  34.333  31.240  1.00  0.00     0.031 C 
ATOM     54  C   UNL A   1      45.361  32.588  32.345  1.00  0.00     0.029 A 
ATOM     55  C   UNL A   1      44.045  32.602  31.913  1.00  0.00     0.049 A 
ATOM     56  H   UNL A   1      42.948  31.085  30.940  1.00  0.00     0.167 HD
ATOM     57  C   UNL A   1      41.799  33.603  31.581  1.00  0.00     0.074 A 
ATOM     58  C   UNL A   1      40.841  34.682  31.711  1.00  0.00     0.031 C 
ATOM     59  C   UNL A   1      43.078  33.663  32.027  1.00  0.00     0.031 A 
BRANCH  46  60
ATOM     60  C   UNL A   1      46.362  28.520  31.042  1.00  0.00    -0.014 A 
ATOM     61  C   UNL A   1      46.598  27.746  32.192  1.00  0.00     0.010 A 
ATOM     62  C   UNL A   1      47.345  28.567  30.037  1.00  0.00     0.010 A 
ATOM     63  C   UNL A   1      47.808  27.067  32.353  1.00  0.00     0.020 A 
ATOM     64  C   UNL A   1      48.545  27.865  30.180  1.00  0.00     0.020 A 
ATOM     65  C   UNL A   1      48.776  27.132  31.346  1.00  0.00     0.054 A 
BRANCH  65  66
ATOM     66  S   UNL A   1      50.324  26.214  31.569  1.00  0.00     0.124 S 
ATOM     67  O   UNL A   1      49.893  24.838  31.330  1.00  0.00    -0.237 OA
ATOM     68  O   UNL A   1      51.188  26.787  30.540  1.00  0.00    -0.237 OA
ATOM     69  O   UNL A   1      50.711  26.516  32.944  1.00  0.00    -0.744 OA
ENDBRANCH  65  66
ENDBRANCH  46  60
BRANCH  47  70
ATOM     70  C   UNL A   1      37.444  32.920  29.924  1.00  0.00    -0.014 A 
ATOM     71  C   UNL A   1      36.525  32.850  30.987  1.00  0.00     0.010 A 
ATOM     72  C   UNL A   1      37.083  33.612  28.755  1.00  0.00     0.010 A 
ATOM     73  C   UNL A   1      35.262  33.438  30.873  1.00  0.00     0.020 A 
ATOM     74  C   UNL A   1      35.831  34.225  28.647  1.00  0.00     0.020 A 
ATOM     75  C   UNL A   1      34.923  34.123  29.703  1.00  0.00     0.054 A 
BRANCH  75  76
ATOM     76  S   UNL A   1      33.296  34.919  29.592  1.00  0.00     0.124 S 
ATOM     77  O   UNL A   1      32.579  34.021  28.692  1.00  0.00    -0.237 OA
ATOM     78  O   UNL A   1      32.845  34.915  30.982  1.00  0.00    -0.237 OA
ATOM     79  O   UNL A   1      33.600  36.242  29.049  1.00  0.00    -0.744 OA
ENDBRANCH  75  76
ENDBRANCH  47  70
BRANCH  59  80
ATOM     80  C   UNL A   1      43.527  34.948  32.664  1.00  0.00    -0.014 A 
ATOM     81  C   UNL A   1      43.998  36.020  31.885  1.00  0.00     0.010 A 
ATOM     82  C   UNL A   1      43.423  35.104  34.059  1.00  0.00     0.010 A 
ATOM     83  C   UNL A   1      44.386  37.216  32.495  1.00  0.00     0.020 A 
ATOM     84  C   UNL A   1      43.785  36.306  34.668  1.00  0.00     0.020 A 
ATOM     85  C   UNL A   1      44.279  37.350  33.883  1.00  0.00     0.054 A 
BRANCH  85  86
ATOM     86  S   UNL A   1      44.749  38.927  34.645  1.00  0.00     0.124 S 
ATOM     87  O   UNL A   1      44.926  38.546  36.044  1.00  0.00    -0.237 OA
ATOM     88  O   UNL A   1      45.972  39.278  33.929  1.00  0.00    -0.237 OA
ATOM     89  O   UNL A   1      43.605  39.796  34.375  1.00  0.00    -0.744 OA
ENDBRANCH  85  86
ENDBRANCH  59  80
ENDBRANCH  33  34
ENDBRANCH  25  28
ENDBRANCH   1  24
TORSDOF 14
ENDMDL
MODEL 3
REMARK VINA RESULT:     -10.1      1.500      2.010
REMARK SMILES O=C(NCCCNC(=O)c1ccc(-c2c3nc(c(-c4ccc(S(=O)(=O)[O-])cc4)c4ccc([nH]4)c(-c4ccc(S(=O)(=O)[O-])cc4)c4nc(c(-c5ccc(S(=O)(=O)[O-])cc5)c5ccc2[nH]5)C=C4)C=C3)cc1)C1=Cc2ccc(Cl)c(Cl)c2O[C@@H]1C(F)(F)F
REMARK SMILES IDX 6 1 5 2 4 3 3 4 1 5 2 6 70 8 71 9 81 10 72 11 80 12 73 13
REMARK SMILES IDX 79 14 74 15 77 16 75 17 78 18 76 19 82 20 83 21 84 22 85 23
REMARK SMILES IDX 7 24 8 25 9 27 10 28 11 29 69 30 12 31 68 32 13 33 14 34
REMARK SMILES IDX 15 35 62 36 16 37 67 38 61 39 63 40 17 41 66 42 60 43 59 44
REMARK SMILES IDX 18 46 48 47 29 48 47 49 30 50 33 51 46 52 64 53 31 54 32 55
REMARK SMILES IDX 45 57 65 58 34 59 19 60 20 61 28 62 21 63 27 64 22 65 23 66
REMARK SMILES IDX 24 67 25 68 26 69 49 70 50 71 58 72 51 73 57 74 52 75 53 76
REMARK SMILES IDX 54 77 55 78 56 79 35 80 36 81 44 82 37 83 43 84 38 85 39 86
REMARK SMILES IDX 40 87 41 88 42 89
REMARK H PARENT 3 7 7 26 63 45 33 56
REMARK Flexibility Score: inf
ROOT
ATOM      1  C   UNL A   1      34.374  32.452  28.137  1.00  0.00     0.118 C 
ENDROOT
BRANCH   1   2
ATOM      2  C   UNL A   1      34.477  32.707  29.639  1.00  0.00     0.042 C 
BRANCH   2   3
ATOM      3  C   UNL A   1      35.508  33.776  29.987  1.00  0.00     0.118 C 
BRANCH   3   4
ATOM      4  N   UNL A   1      35.062  34.693  31.041  1.00  0.00    -0.352 N 
ATOM      5  O   UNL A   1      35.213  35.888  32.965  1.00  0.00    -0.270 OA
ATOM      6  C   UNL A   1      35.579  34.936  32.290  1.00  0.00     0.251 C 
ATOM      7  H   UNL A   1      34.260  35.220  30.816  1.00  0.00     0.163 HD
BRANCH   6   8
ATOM      8  C   UNL A   1      36.645  34.033  32.760  1.00  0.00     0.067 C 
ATOM      9  C   UNL A   1      37.888  34.526  32.792  1.00  0.00     0.025 C 
ATOM     10  C   UNL A   1      36.226  32.818  33.521  1.00  0.00     0.314 C 
ATOM     11  C   UNL A   1      38.558  34.298  34.078  1.00  0.00     0.019 A 
ATOM     12  O   UNL A   1      36.815  32.760  34.841  1.00  0.00    -0.474 OA
ATOM     13  C   UNL A   1      39.600  35.169  34.409  1.00  0.00     0.013 A 
ATOM     14  C   UNL A   1      37.914  33.555  35.090  1.00  0.00     0.148 A 
ATOM     15  C   UNL A   1      39.924  35.385  35.747  1.00  0.00     0.023 A 
ATOM     16  C   UNL A   1      38.258  33.761  36.437  1.00  0.00     0.102 A 
ATOM     17  C   UNL A   1      39.242  34.706  36.760  1.00  0.00     0.063 A 
ATOM     18  Cl  UNL A   1      37.342  32.963  37.678  1.00  0.00    -0.079 Cl
ATOM     19  Cl  UNL A   1      39.602  35.149  38.391  1.00  0.00    -0.083 Cl
BRANCH  10  20
ATOM     20  C   UNL A   1      36.539  31.537  32.732  1.00  0.00     0.429 C 
ATOM     21  F   UNL A   1      35.403  30.954  32.277  1.00  0.00    -0.167 F 
ATOM     22  F   UNL A   1      37.310  31.783  31.646  1.00  0.00    -0.167 F 
ATOM     23  F   UNL A   1      37.187  30.616  33.485  1.00  0.00    -0.167 F 
ENDBRANCH  10  20
ENDBRANCH   6   8
ENDBRANCH   3   4
ENDBRANCH   2   3
ENDBRANCH   1   2
BRANCH   1  24
ATOM     24  N   UNL A   1      33.859  31.133  27.789  1.00  0.00    -0.352 N 
ATOM     25  C   UNL A   1      34.478  29.895  27.797  1.00  0.00     0.251 C 
ATOM     26  H   UNL A   1      32.918  31.121  27.501  1.00  0.00     0.163 HD
ATOM     27  O   UNL A   1      33.863  28.915  27.416  1.00  0.00    -0.269 OA
BRANCH  25  28
ATOM     28  C   UNL A   1      35.893  29.767  28.224  1.00  0.00     0.039 A 
ATOM     29  C   UNL A   1      36.172  29.338  29.526  1.00  0.00     0.014 A 
ATOM     30  C   UNL A   1      36.941  30.042  27.348  1.00  0.00     0.014 A 
ATOM     31  C   UNL A   1      37.495  29.090  29.909  1.00  0.00     0.010 A 
ATOM     32  C   UNL A   1      38.240  29.679  27.689  1.00  0.00     0.010 A 
ATOM     33  C   UNL A   1      38.537  29.202  28.974  1.00  0.00    -0.014 A 
BRANCH  33  34
ATOM     34  C   UNL A   1      39.942  28.843  29.306  1.00  0.00     0.031 A 
ATOM     35  C   UNL A   1      40.834  29.855  29.981  1.00  0.00     0.074 A 
ATOM     36  C   UNL A   1      40.447  27.656  28.913  1.00  0.00     0.049 A 
ATOM     37  N   UNL A   1      42.118  29.793  30.224  1.00  0.00    -0.248 NA
ATOM     38  C   UNL A   1      40.211  31.125  30.393  1.00  0.00     0.031 C 
ATOM     39  C   UNL A   1      39.709  26.611  28.194  1.00  0.00     0.029 A 
ATOM     40  N   UNL A   1      41.707  27.128  29.051  1.00  0.00    -0.354 N 
ATOM     41  C   UNL A   1      42.459  31.025  30.772  1.00  0.00     0.074 A 
ATOM     42  C   UNL A   1      41.262  31.834  30.775  1.00  0.00     0.031 C 
ATOM     43  C   UNL A   1      40.519  25.560  27.987  1.00  0.00     0.029 A 
ATOM     44  C   UNL A   1      41.844  25.869  28.513  1.00  0.00     0.049 A 
ATOM     45  H   UNL A   1      42.445  27.606  29.495  1.00  0.00     0.167 HD
ATOM     46  C   UNL A   1      43.654  31.439  31.257  1.00  0.00     0.031 A 
ATOM     47  C   UNL A   1      42.915  25.055  28.445  1.00  0.00     0.031 A 
ATOM     48  C   UNL A   1      44.828  30.610  31.307  1.00  0.00     0.049 A 
ATOM     49  C   UNL A   1      44.220  25.517  29.038  1.00  0.00     0.074 A 
ATOM     50  C   UNL A   1      46.063  30.902  31.856  1.00  0.00     0.029 A 
ATOM     51  N   UNL A   1      44.906  29.322  30.802  1.00  0.00    -0.354 N 
ATOM     52  N   UNL A   1      44.502  26.663  29.610  1.00  0.00    -0.248 NA
ATOM     53  C   UNL A   1      45.344  24.572  28.986  1.00  0.00     0.031 C 
ATOM     54  C   UNL A   1      46.902  29.802  31.649  1.00  0.00     0.029 A 
ATOM     55  C   UNL A   1      46.173  28.808  31.016  1.00  0.00     0.049 A 
ATOM     56  H   UNL A   1      44.169  28.843  30.357  1.00  0.00     0.167 HD
ATOM     57  C   UNL A   1      45.831  26.566  30.010  1.00  0.00     0.074 A 
ATOM     58  C   UNL A   1      46.288  25.245  29.630  1.00  0.00     0.031 C 
ATOM     59  C   UNL A   1      46.604  27.488  30.634  1.00  0.00     0.031 A 
BRANCH  46  60
ATOM     60  C   UNL A   1      43.746  32.847  31.786  1.00  0.00    -0.014 A 
ATOM     61  C   UNL A   1      43.453  33.139  33.130  1.00  0.00     0.010 A 
ATOM     62  C   UNL A   1      44.170  33.887  30.939  1.00  0.00     0.010 A 
ATOM     63  C   UNL A   1      43.540  34.448  33.607  1.00  0.00     0.020 A 
ATOM     64  C   UNL A   1      44.289  35.194  31.419  1.00  0.00     0.020 A 
ATOM     65  C   UNL A   1      43.956  35.469  32.747  1.00  0.00     0.054 A 
BRANCH  65  66
ATOM     66  S   UNL A   1      44.093  37.155  33.403  1.00  0.00     0.124 S 
ATOM     67  O   UNL A   1      45.318  37.071  34.195  1.00  0.00    -0.237 OA
ATOM     68  O   UNL A   1      44.185  37.964  32.190  1.00  0.00    -0.237 OA
ATOM     69  O   UNL A   1      42.863  37.327  34.172  1.00  0.00    -0.744 OA
ENDBRANCH  65  66
ENDBRANCH  46  60
BRANCH  47  70
ATOM     70  C   UNL A   1      42.798  23.713  27.811  1.00  0.00    -0.014 A 
ATOM     71  C   UNL A   1      42.290  22.623  28.539  1.00  0.00     0.010 A 
ATOM     72  C   UNL A   1      43.188  23.517  26.474  1.00  0.00     0.010 A 
ATOM     73  C   UNL A   1      42.196  21.357  27.951  1.00  0.00     0.020 A 
ATOM     74  C   UNL A   1      43.070  22.260  25.874  1.00  0.00     0.020 A 
ATOM     75  C   UNL A   1      42.586  21.184  26.621  1.00  0.00     0.054 A 
BRANCH  75  76
ATOM     76  S   UNL A   1      42.413  19.545  25.863  1.00  0.00     0.124 S 
ATOM     77  O   UNL A   1      43.371  19.617  24.763  1.00  0.00    -0.237 OA
ATOM     78  O   UNL A   1      42.772  18.648  26.958  1.00  0.00    -0.237 OA
ATOM     79  O   UNL A   1      41.006  19.499  25.468  1.00  0.00    -0.744 OA
ENDBRANCH  75  76
ENDBRANCH  47  70
BRANCH  59  80
ATOM     80  C   UNL A   1      48.012  27.090  30.978  1.00  0.00    -0.014 A 
ATOM     81  C   UNL A   1      48.299  26.376  32.155  1.00  0.00     0.010 A 
ATOM     82  C   UNL A   1      49.055  27.386  30.080  1.00  0.00     0.010 A 
ATOM     83  C   UNL A   1      49.611  25.993  32.443  1.00  0.00     0.020 A 
ATOM     84  C   UNL A   1      50.363  26.980  30.353  1.00  0.00     0.020 A 
ATOM     85  C   UNL A   1      50.634  26.299  31.541  1.00  0.00     0.054 A 
BRANCH  85  86
ATOM     86  S   UNL A   1      52.322  25.752  31.919  1.00  0.00     0.124 S 
ATOM     87  O   UNL A   1      52.993  25.932  30.634  1.00  0.00    -0.237 OA
ATOM     88  O   UNL A   1      52.730  26.673  32.976  1.00  0.00    -0.237 OA
ATOM     89  O   UNL A   1      52.149  24.364  32.343  1.00  0.00    -0.744 OA
ENDBRANCH  85  86
ENDBRANCH  59  80
ENDBRANCH  33  34
ENDBRANCH  25  28
ENDBRANCH   1  24
TORSDOF 14
ENDMDL
