MODEL 1
REMARK VINA RESULT:     -12.5      0.000      0.000
REMARK SMILES C[C@]1(C(=O)N2CCC(CC(=O)NCCCNC(=O)c3ccc(-c4c5nc(c(-c6ccc(S(=O)(=O)[O-])cc6)c6ccc([nH]6)c(-c6ccc(S(=O)(=O)[O-])cc6)c6nc(c(-c7ccc(S(=O)(=O)[O-])cc7)c7ccc4[nH]7)C=C6)C=C5)cc3)CC2)CCC[NH2+]C1
REMARK SMILES IDX 14 1 13 2 12 3 10 4 11 5 9 7 8 8 3 9 4 10 5 11 6 12 80 13
REMARK SMILES IDX 7 14 79 15 2 16 1 17 81 18 85 19 82 20 84 21 83 22 15 25
REMARK SMILES IDX 16 26 17 27 18 29 19 30 20 31 78 32 21 33 77 34 22 35 23 36
REMARK SMILES IDX 24 37 71 38 25 39 76 40 70 41 72 42 26 43 75 44 69 45 68 46
REMARK SMILES IDX 27 48 57 49 38 50 56 51 39 52 42 53 55 54 73 55 40 56 41 57
REMARK SMILES IDX 54 59 74 60 43 61 28 62 29 63 37 64 30 65 36 66 31 67 32 68
REMARK SMILES IDX 33 69 34 70 35 71 58 72 59 73 67 74 60 75 66 76 61 77 62 78
REMARK SMILES IDX 63 79 64 80 65 81 44 82 45 83 53 84 46 85 52 86 47 87 48 88
REMARK SMILES IDX 49 89 50 90 51 91
REMARK H PARENT 12 6 84 23 84 24 16 28 72 47 42 58
REMARK Flexibility Score: inf
ROOT
ATOM      1  C   UNL A   1      33.682  29.614  26.918  1.00  0.00     0.042 C 
ENDROOT
BRANCH   1   2
ATOM      2  C   UNL A   1      33.629  29.056  25.494  1.00  0.00     0.117 C 
BRANCH   2   3
ATOM      3  N   UNL A   1      32.429  29.485  24.784  1.00  0.00    -0.356 N 
ATOM      4  C   UNL A   1      31.282  28.820  24.463  1.00  0.00     0.220 C 
ATOM      5  O   UNL A   1      30.431  29.419  23.802  1.00  0.00    -0.275 OA
ATOM      6  H   UNL A   1      32.451  30.422  24.483  1.00  0.00     0.163 HD
BRANCH   4   7
ATOM      7  C   UNL A   1      31.041  27.392  24.917  1.00  0.00     0.103 C 
BRANCH   7   8
ATOM      8  C   UNL A   1      31.011  26.354  23.771  1.00  0.00     0.002 C 
ATOM      9  C   UNL A   1      32.975  22.656  23.350  1.00  0.00     0.234 C 
ATOM     10  O   UNL A   1      32.535  21.603  22.878  1.00  0.00    -0.274 OA
ATOM     11  N   UNL A   1      32.246  23.817  23.241  1.00  0.00    -0.342 N 
ATOM     12  C   UNL A   1      30.814  23.807  23.458  1.00  0.00     0.120 C 
ATOM     13  C   UNL A   1      32.699  24.921  22.424  1.00  0.00     0.120 C 
ATOM     14  C   UNL A   1      30.462  25.015  24.321  1.00  0.00     0.026 C 
ATOM     15  C   UNL A   1      32.408  26.226  23.139  1.00  0.00     0.026 C 
BRANCH   9  16
ATOM     16  C   UNL A   1      34.200  22.646  24.311  1.00  0.00     0.095 C 
ATOM     17  C   UNL A   1      35.359  23.166  23.417  1.00  0.00     0.028 C 
ATOM     18  C   UNL A   1      33.987  23.647  25.463  1.00  0.00     0.028 C 
ATOM     19  C   UNL A   1      34.675  21.284  24.871  1.00  0.00     0.277 C 
ATOM     20  C   UNL A   1      33.177  23.040  26.605  1.00  0.00     0.063 C 
ATOM     21  N   UNL A   1      33.944  20.762  26.029  1.00  0.00    -0.345 N 
ATOM     22  C   UNL A   1      33.813  21.747  27.101  1.00  0.00     0.260 C 
ATOM     23  H   UNL A   1      33.010  20.481  25.727  1.00  0.00     0.346 HD
ATOM     24  H   UNL A   1      34.472  19.970  26.398  1.00  0.00     0.346 HD
ENDBRANCH   9  16
ENDBRANCH   7   8
ENDBRANCH   4   7
ENDBRANCH   2   3
ENDBRANCH   1   2
BRANCH   1  25
ATOM     25  C   UNL A   1      35.003  29.377  27.637  1.00  0.00     0.118 C 
BRANCH  25  26
ATOM     26  N   UNL A   1      35.127  30.218  28.816  1.00  0.00    -0.352 N 
ATOM     27  C   UNL A   1      36.180  30.404  29.683  1.00  0.00     0.251 C 
ATOM     28  H   UNL A   1      34.322  30.742  29.032  1.00  0.00     0.163 HD
ATOM     29  O   UNL A   1      35.948  30.934  30.768  1.00  0.00    -0.269 OA
BRANCH  27  30
ATOM     30  C   UNL A   1      37.568  29.980  29.358  1.00  0.00     0.039 A 
ATOM     31  C   UNL A   1      38.445  29.696  30.414  1.00  0.00     0.014 A 
ATOM     32  C   UNL A   1      38.057  29.947  28.050  1.00  0.00     0.014 A 
ATOM     33  C   UNL A   1      39.777  29.341  30.158  1.00  0.00     0.010 A 
ATOM     34  C   UNL A   1      39.359  29.511  27.791  1.00  0.00     0.010 A 
ATOM     35  C   UNL A   1      40.242  29.217  28.841  1.00  0.00    -0.014 A 
BRANCH  35  36
ATOM     36  C   UNL A   1      41.643  28.803  28.541  1.00  0.00     0.031 A 
ATOM     37  C   UNL A   1      42.754  29.825  28.508  1.00  0.00     0.074 A 
ATOM     38  C   UNL A   1      41.913  27.519  28.228  1.00  0.00     0.049 A 
ATOM     39  N   UNL A   1      44.011  29.667  28.176  1.00  0.00    -0.248 NA
ATOM     40  C   UNL A   1      42.404  31.209  28.869  1.00  0.00     0.031 C 
ATOM     41  C   UNL A   1      40.930  26.432  28.175  1.00  0.00     0.029 A 
ATOM     42  N   UNL A   1      43.093  26.910  27.876  1.00  0.00    -0.354 N 
ATOM     43  C   UNL A   1      44.588  30.931  28.246  1.00  0.00     0.074 A 
ATOM     44  C   UNL A   1      43.540  31.851  28.631  1.00  0.00     0.031 C 
ATOM     45  C   UNL A   1      41.551  25.293  27.827  1.00  0.00     0.029 A 
ATOM     46  C   UNL A   1      42.964  25.570  27.590  1.00  0.00     0.049 A 
ATOM     47  H   UNL A   1      43.953  27.389  27.831  1.00  0.00     0.167 HD
ATOM     48  C   UNL A   1      45.875  31.294  28.025  1.00  0.00     0.031 A 
ATOM     49  C   UNL A   1      43.870  24.667  27.167  1.00  0.00     0.031 A 
ATOM     50  C   UNL A   1      46.932  30.376  27.694  1.00  0.00     0.049 A 
ATOM     51  C   UNL A   1      45.297  25.093  26.954  1.00  0.00     0.074 A 
ATOM     52  C   UNL A   1      48.285  30.640  27.555  1.00  0.00     0.029 A 
ATOM     53  N   UNL A   1      46.762  29.024  27.451  1.00  0.00    -0.354 N 
ATOM     54  N   UNL A   1      45.835  26.278  27.115  1.00  0.00    -0.248 NA
ATOM     55  C   UNL A   1      46.242  24.057  26.508  1.00  0.00     0.031 C 
ATOM     56  C   UNL A   1      48.925  29.455  27.180  1.00  0.00     0.029 A 
ATOM     57  C   UNL A   1      47.979  28.445  27.132  1.00  0.00     0.049 A 
ATOM     58  H   UNL A   1      45.902  28.545  27.497  1.00  0.00     0.167 HD
ATOM     59  C   UNL A   1      47.184  26.124  26.810  1.00  0.00     0.074 A 
ATOM     60  C   UNL A   1      47.384  24.730  26.474  1.00  0.00     0.031 C 
ATOM     61  C   UNL A   1      48.167  27.056  26.805  1.00  0.00     0.031 A 
BRANCH  48  62
ATOM     62  C   UNL A   1      46.227  32.755  28.129  1.00  0.00    -0.014 A 
ATOM     63  C   UNL A   1      46.187  33.596  27.002  1.00  0.00     0.010 A 
ATOM     64  C   UNL A   1      46.516  33.311  29.389  1.00  0.00     0.010 A 
ATOM     65  C   UNL A   1      46.455  34.962  27.130  1.00  0.00     0.020 A 
ATOM     66  C   UNL A   1      46.762  34.681  29.525  1.00  0.00     0.020 A 
ATOM     67  C   UNL A   1      46.740  35.496  28.391  1.00  0.00     0.054 A 
BRANCH  67  68
ATOM     68  S   UNL A   1      47.033  37.281  28.536  1.00  0.00     0.124 S 
ATOM     69  O   UNL A   1      48.328  37.427  27.876  1.00  0.00    -0.237 OA
ATOM     70  O   UNL A   1      45.895  37.851  27.819  1.00  0.00    -0.237 OA
ATOM     71  O   UNL A   1      47.038  37.516  29.978  1.00  0.00    -0.744 OA
ENDBRANCH  67  68
ENDBRANCH  48  62
BRANCH  49  72
ATOM     72  C   UNL A   1      43.459  23.261  26.905  1.00  0.00    -0.014 A 
ATOM     73  C   UNL A   1      43.065  22.423  27.962  1.00  0.00     0.010 A 
ATOM     74  C   UNL A   1      43.482  22.746  25.596  1.00  0.00     0.010 A 
ATOM     75  C   UNL A   1      42.733  21.086  27.722  1.00  0.00     0.020 A 
ATOM     76  C   UNL A   1      43.124  21.418  25.347  1.00  0.00     0.020 A 
ATOM     77  C   UNL A   1      42.769  20.591  26.415  1.00  0.00     0.054 A 
BRANCH  77  78
ATOM     78  S   UNL A   1      42.312  18.861  26.119  1.00  0.00     0.124 S 
ATOM     79  O   UNL A   1      40.915  18.982  25.720  1.00  0.00    -0.237 OA
ATOM     80  O   UNL A   1      43.240  18.464  25.062  1.00  0.00    -0.237 OA
ATOM     81  O   UNL A   1      42.543  18.222  27.413  1.00  0.00    -0.744 OA
ENDBRANCH  77  78
ENDBRANCH  49  72
BRANCH  61  82
ATOM     82  C   UNL A   1      49.556  26.599  26.453  1.00  0.00    -0.014 A 
ATOM     83  C   UNL A   1      50.375  25.969  27.407  1.00  0.00     0.010 A 
ATOM     84  C   UNL A   1      50.027  26.750  25.136  1.00  0.00     0.010 A 
ATOM     85  C   UNL A   1      51.651  25.521  27.056  1.00  0.00     0.020 A 
ATOM     86  C   UNL A   1      51.293  26.281  24.775  1.00  0.00     0.020 A 
ATOM     87  C   UNL A   1      52.102  25.680  25.742  1.00  0.00     0.054 A 
BRANCH  87  88
ATOM     88  S   UNL A   1      53.742  25.046  25.295  1.00  0.00     0.124 S 
ATOM     89  O   UNL A   1      53.935  25.614  23.963  1.00  0.00    -0.237 OA
ATOM     90  O   UNL A   1      54.598  25.598  26.343  1.00  0.00    -0.237 OA
ATOM     91  O   UNL A   1      53.574  23.596  25.337  1.00  0.00    -0.744 OA
ENDBRANCH  87  88
ENDBRANCH  61  82
ENDBRANCH  35  36
ENDBRANCH  27  30
ENDBRANCH  25  26
ENDBRANCH   1  25
TORSDOF 15
ENDMDL
MODEL 2
REMARK VINA RESULT:     -12.5      6.540     12.231
REMARK SMILES C[C@]1(C(=O)N2CCC(CC(=O)NCCCNC(=O)c3ccc(-c4c5nc(c(-c6ccc(S(=O)(=O)[O-])cc6)c6ccc([nH]6)c(-c6ccc(S(=O)(=O)[O-])cc6)c6nc(c(-c7ccc(S(=O)(=O)[O-])cc7)c7ccc4[nH]7)C=C6)C=C5)cc3)CC2)CCC[NH2+]C1
REMARK SMILES IDX 14 1 13 2 12 3 10 4 11 5 9 7 8 8 3 9 4 10 5 11 6 12 80 13
REMARK SMILES IDX 7 14 79 15 2 16 1 17 81 18 85 19 82 20 84 21 83 22 15 25
REMARK SMILES IDX 16 26 17 27 18 29 19 30 20 31 78 32 21 33 77 34 22 35 23 36
REMARK SMILES IDX 24 37 71 38 25 39 76 40 70 41 72 42 26 43 75 44 69 45 68 46
REMARK SMILES IDX 27 48 57 49 38 50 56 51 39 52 42 53 55 54 73 55 40 56 41 57
REMARK SMILES IDX 54 59 74 60 43 61 28 62 29 63 37 64 30 65 36 66 31 67 32 68
REMARK SMILES IDX 33 69 34 70 35 71 58 72 59 73 67 74 60 75 66 76 61 77 62 78
REMARK SMILES IDX 63 79 64 80 65 81 44 82 45 83 53 84 46 85 52 86 47 87 48 88
REMARK SMILES IDX 49 89 50 90 51 91
REMARK H PARENT 12 6 84 23 84 24 16 28 72 47 42 58
REMARK Flexibility Score: inf
ROOT
ATOM      1  C   UNL A   1      37.739  23.941  26.221  1.00  0.00     0.042 C 
ENDROOT
BRANCH   1   2
ATOM      2  C   UNL A   1      37.095  22.793  25.439  1.00  0.00     0.117 C 
BRANCH   2   3
ATOM      3  N   UNL A   1      36.143  22.045  26.252  1.00  0.00    -0.356 N 
ATOM      4  C   UNL A   1      34.886  22.353  26.684  1.00  0.00     0.220 C 
ATOM      5  O   UNL A   1      34.310  21.543  27.413  1.00  0.00    -0.275 OA
ATOM      6  H   UNL A   1      36.464  21.161  26.540  1.00  0.00     0.163 HD
BRANCH   4   7
ATOM      7  C   UNL A   1      34.198  23.641  26.268  1.00  0.00     0.103 C 
BRANCH   7   8
ATOM      8  C   UNL A   1      33.633  23.628  24.830  1.00  0.00     0.002 C 
ATOM      9  C   UNL A   1      31.104  26.337  22.836  1.00  0.00     0.234 C 
ATOM     10  O   UNL A   1      31.165  26.722  21.664  1.00  0.00    -0.274 OA
ATOM     11  N   UNL A   1      31.910  25.308  23.265  1.00  0.00    -0.342 N 
ATOM     12  C   UNL A   1      33.298  25.245  22.856  1.00  0.00     0.120 C 
ATOM     13  C   UNL A   1      31.362  24.026  23.647  1.00  0.00     0.120 C 
ATOM     14  C   UNL A   1      34.132  24.889  24.082  1.00  0.00     0.026 C 
ATOM     15  C   UNL A   1      32.100  23.508  24.866  1.00  0.00     0.026 C 
BRANCH   9  16
ATOM     16  C   UNL A   1      30.345  27.171  23.910  1.00  0.00     0.095 C 
ATOM     17  C   UNL A   1      28.969  26.456  24.010  1.00  0.00     0.028 C 
ATOM     18  C   UNL A   1      31.051  27.059  25.275  1.00  0.00     0.028 C 
ATOM     19  C   UNL A   1      30.031  28.651  23.593  1.00  0.00     0.277 C 
ATOM     20  C   UNL A   1      32.195  28.061  25.410  1.00  0.00     0.063 C 
ATOM     21  N   UNL A   1      31.113  29.614  23.820  1.00  0.00    -0.345 N 
ATOM     22  C   UNL A   1      31.713  29.481  25.147  1.00  0.00     0.260 C 
ATOM     23  H   UNL A   1      31.838  29.462  23.117  1.00  0.00     0.346 HD
ATOM     24  H   UNL A   1      30.715  30.550  23.751  1.00  0.00     0.346 HD
ENDBRANCH   9  16
ENDBRANCH   7   8
ENDBRANCH   4   7
ENDBRANCH   2   3
ENDBRANCH   1   2
BRANCH   1  25
ATOM     25  C   UNL A   1      39.078  23.594  26.858  1.00  0.00     0.118 C 
BRANCH  25  26
ATOM     26  N   UNL A   1      40.191  24.096  26.068  1.00  0.00    -0.352 N 
ATOM     27  C   UNL A   1      40.843  25.307  26.100  1.00  0.00     0.251 C 
ATOM     28  H   UNL A   1      40.534  23.463  25.396  1.00  0.00     0.163 HD
ATOM     29  O   UNL A   1      41.554  25.606  25.141  1.00  0.00    -0.269 OA
BRANCH  27  30
ATOM     30  C   UNL A   1      40.712  26.257  27.237  1.00  0.00     0.039 A 
ATOM     31  C   UNL A   1      41.492  27.422  27.227  1.00  0.00     0.014 A 
ATOM     32  C   UNL A   1      39.917  25.989  28.353  1.00  0.00     0.014 A 
ATOM     33  C   UNL A   1      41.439  28.323  28.300  1.00  0.00     0.010 A 
ATOM     34  C   UNL A   1      39.800  26.927  29.382  1.00  0.00     0.010 A 
ATOM     35  C   UNL A   1      40.570  28.099  29.378  1.00  0.00    -0.014 A 
BRANCH  35  36
ATOM     36  C   UNL A   1      40.466  29.062  30.512  1.00  0.00     0.031 A 
ATOM     37  C   UNL A   1      41.339  28.903  31.735  1.00  0.00     0.074 A 
ATOM     38  C   UNL A   1      39.539  30.040  30.482  1.00  0.00     0.049 A 
ATOM     39  N   UNL A   1      41.324  29.583  32.853  1.00  0.00    -0.248 NA
ATOM     40  C   UNL A   1      42.341  27.823  31.709  1.00  0.00     0.031 C 
ATOM     41  C   UNL A   1      38.596  30.285  29.386  1.00  0.00     0.029 A 
ATOM     42  N   UNL A   1      39.221  31.005  31.407  1.00  0.00    -0.354 N 
ATOM     43  C   UNL A   1      42.278  28.992  33.676  1.00  0.00     0.074 A 
ATOM     44  C   UNL A   1      42.839  27.882  32.936  1.00  0.00     0.031 C 
ATOM     45  C   UNL A   1      37.820  31.336  29.697  1.00  0.00     0.029 A 
ATOM     46  C   UNL A   1      38.176  31.817  31.028  1.00  0.00     0.049 A 
ATOM     47  H   UNL A   1      39.697  31.107  32.264  1.00  0.00     0.167 HD
ATOM     48  C   UNL A   1      42.663  29.346  34.925  1.00  0.00     0.031 A 
ATOM     49  C   UNL A   1      37.559  32.822  31.680  1.00  0.00     0.031 A 
ATOM     50  C   UNL A   1      42.146  30.480  35.643  1.00  0.00     0.049 A 
ATOM     51  C   UNL A   1      38.025  33.209  33.057  1.00  0.00     0.074 A 
ATOM     52  C   UNL A   1      42.554  30.975  36.872  1.00  0.00     0.029 A 
ATOM     53  N   UNL A   1      41.116  31.294  35.206  1.00  0.00    -0.354 N 
ATOM     54  N   UNL A   1      38.991  32.689  33.775  1.00  0.00    -0.248 NA
ATOM     55  C   UNL A   1      37.322  34.325  33.708  1.00  0.00     0.031 C 
ATOM     56  C   UNL A   1      41.735  32.061  37.198  1.00  0.00     0.029 A 
ATOM     57  C   UNL A   1      40.851  32.270  36.153  1.00  0.00     0.049 A 
ATOM     58  H   UNL A   1      40.641  31.194  34.350  1.00  0.00     0.167 HD
ATOM     59  C   UNL A   1      39.023  33.428  34.953  1.00  0.00     0.074 A 
ATOM     60  C   UNL A   1      37.995  34.441  34.845  1.00  0.00     0.031 C 
ATOM     61  C   UNL A   1      39.830  33.276  36.031  1.00  0.00     0.031 A 
BRANCH  48  62
ATOM     62  C   UNL A   1      43.700  28.497  35.614  1.00  0.00    -0.014 A 
ATOM     63  C   UNL A   1      45.073  28.771  35.480  1.00  0.00     0.010 A 
ATOM     64  C   UNL A   1      43.288  27.465  36.479  1.00  0.00     0.010 A 
ATOM     65  C   UNL A   1      46.016  28.012  36.178  1.00  0.00     0.020 A 
ATOM     66  C   UNL A   1      44.228  26.719  37.196  1.00  0.00     0.020 A 
ATOM     67  C   UNL A   1      45.588  26.991  37.032  1.00  0.00     0.054 A 
BRANCH  67  68
ATOM     68  S   UNL A   1      46.832  26.056  37.965  1.00  0.00     0.124 S 
ATOM     69  O   UNL A   1      47.783  27.103  38.331  1.00  0.00    -0.237 OA
ATOM     70  O   UNL A   1      46.054  25.500  39.069  1.00  0.00    -0.237 OA
ATOM     71  O   UNL A   1      47.326  25.076  37.000  1.00  0.00    -0.744 OA
ENDBRANCH  67  68
ENDBRANCH  48  62
BRANCH  49  72
ATOM     72  C   UNL A   1      36.419  33.536  31.044  1.00  0.00    -0.014 A 
ATOM     73  C   UNL A   1      36.430  33.817  29.667  1.00  0.00     0.010 A 
ATOM     74  C   UNL A   1      35.324  33.960  31.819  1.00  0.00     0.010 A 
ATOM     75  C   UNL A   1      35.384  34.537  29.081  1.00  0.00     0.020 A 
ATOM     76  C   UNL A   1      34.263  34.656  31.233  1.00  0.00     0.020 A 
ATOM     77  C   UNL A   1      34.309  34.956  29.870  1.00  0.00     0.054 A 
BRANCH  77  78
ATOM     78  S   UNL A   1      32.950  35.869  29.089  1.00  0.00     0.124 S 
ATOM     79  O   UNL A   1      32.123  36.221  30.238  1.00  0.00    -0.237 OA
ATOM     80  O   UNL A   1      33.645  36.982  28.445  1.00  0.00    -0.237 OA
ATOM     81  O   UNL A   1      32.368  34.893  28.170  1.00  0.00    -0.744 OA
ENDBRANCH  77  78
ENDBRANCH  49  72
BRANCH  61  82
ATOM     82  C   UNL A   1      39.658  34.244  37.170  1.00  0.00    -0.014 A 
ATOM     83  C   UNL A   1      38.836  33.933  38.268  1.00  0.00     0.010 A 
ATOM     84  C   UNL A   1      40.374  35.455  37.170  1.00  0.00     0.010 A 
ATOM     85  C   UNL A   1      38.712  34.828  39.333  1.00  0.00     0.020 A 
ATOM     86  C   UNL A   1      40.273  36.341  38.245  1.00  0.00     0.020 A 
ATOM     87  C   UNL A   1      39.432  36.027  39.315  1.00  0.00     0.054 A 
BRANCH  87  88
ATOM     88  S   UNL A   1      39.295  37.152  40.732  1.00  0.00     0.124 S 
ATOM     89  O   UNL A   1      38.378  38.169  40.225  1.00  0.00    -0.237 OA
ATOM     90  O   UNL A   1      38.757  36.288  41.779  1.00  0.00    -0.237 OA
ATOM     91  O   UNL A   1      40.668  37.602  40.949  1.00  0.00    -0.744 OA
ENDBRANCH  87  88
ENDBRANCH  61  82
ENDBRANCH  35  36
ENDBRANCH  27  30
ENDBRANCH  25  26
ENDBRANCH   1  25
TORSDOF 15
ENDMDL
MODEL 3
REMARK VINA RESULT:     -12.5      6.426     12.136
REMARK SMILES C[C@]1(C(=O)N2CCC(CC(=O)NCCCNC(=O)c3ccc(-c4c5nc(c(-c6ccc(S(=O)(=O)[O-])cc6)c6ccc([nH]6)c(-c6ccc(S(=O)(=O)[O-])cc6)c6nc(c(-c7ccc(S(=O)(=O)[O-])cc7)c7ccc4[nH]7)C=C6)C=C5)cc3)CC2)CCC[NH2+]C1
REMARK SMILES IDX 14 1 13 2 12 3 10 4 11 5 9 7 8 8 3 9 4 10 5 11 6 12 80 13
REMARK SMILES IDX 7 14 79 15 2 16 1 17 81 18 85 19 82 20 84 21 83 22 15 25
REMARK SMILES IDX 16 26 17 27 18 29 19 30 20 31 78 32 21 33 77 34 22 35 23 36
REMARK SMILES IDX 24 37 71 38 25 39 76 40 70 41 72 42 26 43 75 44 69 45 68 46
REMARK SMILES IDX 27 48 57 49 38 50 56 51 39 52 42 53 55 54 73 55 40 56 41 57
REMARK SMILES IDX 54 59 74 60 43 61 28 62 29 63 37 64 30 65 36 66 31 67 32 68
REMARK SMILES IDX 33 69 34 70 35 71 58 72 59 73 67 74 60 75 66 76 61 77 62 78
REMARK SMILES IDX 63 79 64 80 65 81 44 82 45 83 53 84 46 85 52 86 47 87 48 88
REMARK SMILES IDX 49 89 50 90 51 91
REMARK H PARENT 12 6 84 23 84 24 16 28 72 47 42 58
REMARK Flexibility Score: inf
ROOT
ATOM      1  C   UNL A   1      37.361  23.064  25.550  1.00  0.00     0.042 C 
ENDROOT
BRANCH   1   2
ATOM      2  C   UNL A   1      36.032  22.754  26.241  1.00  0.00     0.117 C 
BRANCH   2   3
ATOM      3  N   UNL A   1      35.456  21.496  25.779  1.00  0.00    -0.356 N 
ATOM      4  C   UNL A   1      34.530  21.226  24.814  1.00  0.00     0.220 C 
ATOM      5  O   UNL A   1      34.180  20.055  24.659  1.00  0.00    -0.275 OA
ATOM      6  H   UNL A   1      35.796  20.700  26.247  1.00  0.00     0.163 HD
BRANCH   4   7
ATOM      7  C   UNL A   1      33.957  22.325  23.937  1.00  0.00     0.103 C 
BRANCH   7   8
ATOM      8  C   UNL A   1      32.475  22.661  24.223  1.00  0.00     0.002 C 
ATOM      9  C   UNL A   1      30.549  26.358  24.801  1.00  0.00     0.234 C 
ATOM     10  O   UNL A   1      29.441  26.718  24.392  1.00  0.00    -0.274 OA
ATOM     11  N   UNL A   1      30.940  25.046  24.667  1.00  0.00    -0.342 N 
ATOM     12  C   UNL A   1      30.672  24.323  23.441  1.00  0.00     0.120 C 
ATOM     13  C   UNL A   1      31.117  24.188  25.817  1.00  0.00     0.120 C 
ATOM     14  C   UNL A   1      31.930  23.543  23.072  1.00  0.00     0.026 C 
ATOM     15  C   UNL A   1      32.340  23.316  25.608  1.00  0.00     0.026 C 
BRANCH   9  16
ATOM     16  C   UNL A   1      31.626  27.407  25.208  1.00  0.00     0.095 C 
ATOM     17  C   UNL A   1      31.555  27.408  26.760  1.00  0.00     0.028 C 
ATOM     18  C   UNL A   1      33.029  26.928  24.786  1.00  0.00     0.028 C 
ATOM     19  C   UNL A   1      31.412  28.875  24.773  1.00  0.00     0.277 C 
ATOM     20  C   UNL A   1      33.338  27.279  23.333  1.00  0.00     0.063 C 
ATOM     21  N   UNL A   1      31.805  29.217  23.402  1.00  0.00    -0.345 N 
ATOM     22  C   UNL A   1      33.160  28.771  23.080  1.00  0.00     0.260 C 
ATOM     23  H   UNL A   1      31.152  28.773  22.755  1.00  0.00     0.346 HD
ATOM     24  H   UNL A   1      31.785  30.233  23.318  1.00  0.00     0.346 HD
ENDBRANCH   9  16
ENDBRANCH   7   8
ENDBRANCH   4   7
ENDBRANCH   2   3
ENDBRANCH   1   2
BRANCH   1  25
ATOM     25  C   UNL A   1      38.205  24.118  26.254  1.00  0.00     0.118 C 
BRANCH  25  26
ATOM     26  N   UNL A   1      39.626  23.842  26.117  1.00  0.00    -0.352 N 
ATOM     27  C   UNL A   1      40.725  24.528  26.581  1.00  0.00     0.251 C 
ATOM     28  H   UNL A   1      39.838  23.028  25.605  1.00  0.00     0.163 HD
ATOM     29  O   UNL A   1      41.822  24.264  26.089  1.00  0.00    -0.269 OA
BRANCH  27  30
ATOM     30  C   UNL A   1      40.630  25.572  27.637  1.00  0.00     0.039 A 
ATOM     31  C   UNL A   1      41.636  26.545  27.706  1.00  0.00     0.014 A 
ATOM     32  C   UNL A   1      39.633  25.562  28.615  1.00  0.00     0.014 A 
ATOM     33  C   UNL A   1      41.615  27.519  28.714  1.00  0.00     0.010 A 
ATOM     34  C   UNL A   1      39.566  26.582  29.568  1.00  0.00     0.010 A 
ATOM     35  C   UNL A   1      40.563  27.566  29.641  1.00  0.00    -0.014 A 
BRANCH  35  36
ATOM     36  C   UNL A   1      40.497  28.615  30.698  1.00  0.00     0.031 A 
ATOM     37  C   UNL A   1      41.382  28.530  31.920  1.00  0.00     0.074 A 
ATOM     38  C   UNL A   1      39.593  29.612  30.603  1.00  0.00     0.049 A 
ATOM     39  N   UNL A   1      41.398  29.295  32.982  1.00  0.00    -0.248 NA
ATOM     40  C   UNL A   1      42.357  27.427  31.966  1.00  0.00     0.031 C 
ATOM     41  C   UNL A   1      38.643  29.794  29.501  1.00  0.00     0.029 A 
ATOM     42  N   UNL A   1      39.312  30.653  31.454  1.00  0.00    -0.354 N 
ATOM     43  C   UNL A   1      42.348  28.744  33.837  1.00  0.00     0.074 A 
ATOM     44  C   UNL A   1      42.873  27.567  33.180  1.00  0.00     0.031 C 
ATOM     45  C   UNL A   1      37.896  30.885  29.739  1.00  0.00     0.029 A 
ATOM     46  C   UNL A   1      38.281  31.458  31.025  1.00  0.00     0.049 A 
ATOM     47  H   UNL A   1      39.801  30.808  32.295  1.00  0.00     0.167 HD
ATOM     48  C   UNL A   1      42.759  29.184  35.051  1.00  0.00     0.031 A 
ATOM     49  C   UNL A   1      37.698  32.526  31.604  1.00  0.00     0.031 A 
ATOM     50  C   UNL A   1      42.279  30.383  35.685  1.00  0.00     0.049 A 
ATOM     51  C   UNL A   1      38.190  33.007  32.941  1.00  0.00     0.074 A 
ATOM     52  C   UNL A   1      42.714  30.961  36.866  1.00  0.00     0.029 A 
ATOM     53  N   UNL A   1      41.263  31.187  35.198  1.00  0.00    -0.354 N 
ATOM     54  N   UNL A   1      39.153  32.520  33.687  1.00  0.00    -0.248 NA
ATOM     55  C   UNL A   1      37.523  34.186  33.512  1.00  0.00     0.031 C 
ATOM     56  C   UNL A   1      41.926  32.089  37.117  1.00  0.00     0.029 A 
ATOM     57  C   UNL A   1      41.034  32.239  36.069  1.00  0.00     0.049 A 
ATOM     58  H   UNL A   1      40.774  31.032  34.357  1.00  0.00     0.167 HD
ATOM     59  C   UNL A   1      39.219  33.346  34.804  1.00  0.00     0.074 A 
ATOM     60  C   UNL A   1      38.214  34.374  34.628  1.00  0.00     0.031 C 
ATOM     61  C   UNL A   1      40.036  33.258  35.881  1.00  0.00     0.031 A 
BRANCH  48  62
ATOM     62  C   UNL A   1      43.783  28.365  35.792  1.00  0.00    -0.014 A 
ATOM     63  C   UNL A   1      43.398  27.325  36.656  1.00  0.00     0.010 A 
ATOM     64  C   UNL A   1      45.153  28.584  35.550  1.00  0.00     0.010 A 
ATOM     65  C   UNL A   1      44.365  26.535  37.285  1.00  0.00     0.020 A 
ATOM     66  C   UNL A   1      46.121  27.781  36.160  1.00  0.00     0.020 A 
ATOM     67  C   UNL A   1      45.720  26.768  37.032  1.00  0.00     0.054 A 
BRANCH  67  68
ATOM     68  S   UNL A   1      46.952  25.694  37.822  1.00  0.00     0.124 S 
ATOM     69  O   UNL A   1      46.272  25.318  39.060  1.00  0.00    -0.237 OA
ATOM     70  O   UNL A   1      47.115  24.621  36.845  1.00  0.00    -0.237 OA
ATOM     71  O   UNL A   1      48.114  26.562  37.989  1.00  0.00    -0.744 OA
ENDBRANCH  67  68
ENDBRANCH  48  62
BRANCH  49  72
ATOM     72  C   UNL A   1      36.566  33.218  30.927  1.00  0.00    -0.014 A 
ATOM     73  C   UNL A   1      36.763  33.881  29.703  1.00  0.00     0.010 A 
ATOM     74  C   UNL A   1      35.289  33.236  31.517  1.00  0.00     0.010 A 
ATOM     75  C   UNL A   1      35.713  34.577  29.097  1.00  0.00     0.020 A 
ATOM     76  C   UNL A   1      34.230  33.908  30.901  1.00  0.00     0.020 A 
ATOM     77  C   UNL A   1      34.453  34.589  29.703  1.00  0.00     0.054 A 
BRANCH  77  78
ATOM     78  S   UNL A   1      33.097  35.479  28.890  1.00  0.00     0.124 S 
ATOM     79  O   UNL A   1      32.355  36.004  30.031  1.00  0.00    -0.237 OA
ATOM     80  O   UNL A   1      33.806  36.472  28.086  1.00  0.00    -0.237 OA
ATOM     81  O   UNL A   1      32.418  34.437  28.124  1.00  0.00    -0.744 OA
ENDBRANCH  77  78
ENDBRANCH  49  72
BRANCH  61  82
ATOM     82  C   UNL A   1      39.902  34.315  36.943  1.00  0.00    -0.014 A 
ATOM     83  C   UNL A   1      40.541  35.560  36.812  1.00  0.00     0.010 A 
ATOM     84  C   UNL A   1      39.079  34.080  38.060  1.00  0.00     0.010 A 
ATOM     85  C   UNL A   1      40.381  36.543  37.791  1.00  0.00     0.020 A 
ATOM     86  C   UNL A   1      38.896  35.070  39.029  1.00  0.00     0.020 A 
ATOM     87  C   UNL A   1      39.560  36.291  38.894  1.00  0.00     0.054 A 
BRANCH  87  88
ATOM     88  S   UNL A   1      39.325  37.600  40.129  1.00  0.00     0.124 S 
ATOM     89  O   UNL A   1      40.619  38.277  40.103  1.00  0.00    -0.237 OA
ATOM     90  O   UNL A   1      38.207  38.364  39.581  1.00  0.00    -0.237 OA
ATOM     91  O   UNL A   1      39.028  36.867  41.357  1.00  0.00    -0.744 OA
ENDBRANCH  87  88
ENDBRANCH  61  82
ENDBRANCH  35  36
ENDBRANCH  27  30
ENDBRANCH  25  26
ENDBRANCH   1  25
TORSDOF 15
ENDMDL
