MODEL 1
REMARK VINA RESULT:     -11.0      0.000      0.000
REMARK SMILES Cc1cc(C(=O)Nc2cccc(C(=O)NCC(=O)NCCCNC(=O)c3ccc(-c4c5nc(c(-c6ccc(S(=O)(=O)[O-])cc6)c6ccc([nH]6)c(-c6ccc(S(=O)(=O)[O-])cc6)c6nc(c(-c7ccc(S(=O)(=O)[O-])cc7)c7ccc4[nH]7)C=C6)C=C5)cc3)c2)no1
REMARK SMILES IDX 20 1 19 2 17 3 18 4 16 6 15 7 13 8 14 9 12 11 8 12 9 13
REMARK SMILES IDX 86 14 10 15 11 16 7 17 5 18 6 19 4 21 1 22 2 23 3 24 88 25
REMARK SMILES IDX 87 26 21 27 22 28 23 29 24 30 25 32 26 33 27 34 85 35 28 36
REMARK SMILES IDX 84 37 29 38 30 39 31 40 78 41 32 42 83 43 77 44 79 45 33 46
REMARK SMILES IDX 82 47 76 48 75 49 34 51 64 52 45 53 63 54 46 55 49 56 62 57
REMARK SMILES IDX 80 58 47 59 48 60 61 62 81 63 50 64 35 65 36 66 44 67 37 68
REMARK SMILES IDX 43 69 38 70 39 71 40 72 41 73 42 74 65 75 66 76 74 77 67 78
REMARK SMILES IDX 73 79 68 80 69 81 70 82 71 83 72 84 51 85 52 86 60 87 53 88
REMARK SMILES IDX 59 89 54 90 55 91 56 92 57 93 58 94
REMARK H PARENT 19 5 15 10 7 20 23 31 79 50 49 61
REMARK Flexibility Score: inf
ROOT
ATOM      1  C   UNL A   1      31.563  28.270  25.720  1.00  0.00     0.117 C 
ENDROOT
BRANCH   1   2
ATOM      2  N   UNL A   1      30.847  27.094  25.291  1.00  0.00    -0.355 N 
ATOM      3  C   UNL A   1      30.433  26.708  24.055  1.00  0.00     0.239 C 
ATOM      4  O   UNL A   1      29.945  25.576  23.965  1.00  0.00    -0.273 OA
ATOM      5  H   UNL A   1      30.621  26.465  26.014  1.00  0.00     0.163 HD
BRANCH   3   6
ATOM      6  C   UNL A   1      30.705  27.527  22.781  1.00  0.00     0.216 C 
BRANCH   6   7
ATOM      7  N   UNL A   1      32.076  27.804  22.366  1.00  0.00    -0.343 N 
ATOM      8  C   UNL A   1      33.220  27.087  22.130  1.00  0.00     0.251 C 
ATOM      9  O   UNL A   1      34.150  27.718  21.624  1.00  0.00    -0.269 OA
ATOM     10  H   UNL A   1      32.219  28.767  22.216  1.00  0.00     0.164 HD
BRANCH   8  11
ATOM     11  C   UNL A   1      33.447  25.642  22.451  1.00  0.00     0.041 A 
ATOM     12  C   UNL A   1      34.439  23.800  23.712  1.00  0.00     0.042 A 
ATOM     13  C   UNL A   1      33.823  22.871  22.881  1.00  0.00     0.026 A 
ATOM     14  C   UNL A   1      34.319  25.165  23.428  1.00  0.00     0.040 A 
ATOM     15  C   UNL A   1      32.978  23.318  21.866  1.00  0.00     0.003 A 
ATOM     16  C   UNL A   1      32.768  24.689  21.675  1.00  0.00     0.014 A 
BRANCH  12  17
ATOM     17  N   UNL A   1      35.154  23.346  24.834  1.00  0.00    -0.321 N 
ATOM     18  C   UNL A   1      34.786  23.369  26.177  1.00  0.00     0.277 C 
ATOM     19  O   UNL A   1      35.661  23.173  27.021  1.00  0.00    -0.267 OA
ATOM     20  H   UNL A   1      36.038  22.958  24.643  1.00  0.00     0.170 HD
BRANCH  18  21
ATOM     21  C   UNL A   1      33.366  23.546  26.532  1.00  0.00     0.171 A 
ATOM     22  C   UNL A   1      29.788  22.786  26.859  1.00  0.00     0.091 C 
ATOM     23  C   UNL A   1      31.197  23.222  26.844  1.00  0.00     0.134 A 
ATOM     24  C   UNL A   1      32.396  22.557  26.876  1.00  0.00     0.082 A 
ATOM     25  O   UNL A   1      31.434  24.550  26.688  1.00  0.00    -0.361 OA
ATOM     26  N   UNL A   1      32.790  24.761  26.509  1.00  0.00    -0.074 NA
ENDBRANCH  18  21
ENDBRANCH  12  17
ENDBRANCH   8  11
ENDBRANCH   6   7
ENDBRANCH   3   6
ENDBRANCH   1   2
BRANCH   1  27
ATOM     27  C   UNL A   1      33.055  28.038  25.871  1.00  0.00     0.042 C 
BRANCH  27  28
ATOM     28  C   UNL A   1      33.559  28.384  27.262  1.00  0.00     0.118 C 
BRANCH  28  29
ATOM     29  N   UNL A   1      33.527  29.818  27.522  1.00  0.00    -0.352 N 
ATOM     30  C   UNL A   1      34.464  30.636  28.105  1.00  0.00     0.251 C 
ATOM     31  H   UNL A   1      32.703  30.273  27.232  1.00  0.00     0.163 HD
ATOM     32  O   UNL A   1      34.153  31.779  28.417  1.00  0.00    -0.269 OA
BRANCH  30  33
ATOM     33  C   UNL A   1      35.827  30.130  28.367  1.00  0.00     0.039 A 
ATOM     34  C   UNL A   1      36.761  30.145  27.329  1.00  0.00     0.014 A 
ATOM     35  C   UNL A   1      36.182  29.633  29.623  1.00  0.00     0.014 A 
ATOM     36  C   UNL A   1      38.068  29.723  27.574  1.00  0.00     0.010 A 
ATOM     37  C   UNL A   1      37.507  29.313  29.892  1.00  0.00     0.010 A 
ATOM     38  C   UNL A   1      38.462  29.342  28.868  1.00  0.00    -0.014 A 
BRANCH  38  39
ATOM     39  C   UNL A   1      39.869  28.976  29.162  1.00  0.00     0.031 A 
ATOM     40  C   UNL A   1      40.788  29.960  29.831  1.00  0.00     0.074 A 
ATOM     41  C   UNL A   1      40.328  27.767  28.780  1.00  0.00     0.049 A 
ATOM     42  N   UNL A   1      42.045  29.814  30.169  1.00  0.00    -0.248 NA
ATOM     43  C   UNL A   1      40.237  31.289  30.140  1.00  0.00     0.031 C 
ATOM     44  C   UNL A   1      39.547  26.748  28.073  1.00  0.00     0.029 A 
ATOM     45  N   UNL A   1      41.560  27.188  28.938  1.00  0.00    -0.354 N 
ATOM     46  C   UNL A   1      42.432  31.031  30.717  1.00  0.00     0.074 A 
ATOM     47  C   UNL A   1      41.301  31.924  30.608  1.00  0.00     0.031 C 
ATOM     48  C   UNL A   1      40.303  25.653  27.903  1.00  0.00     0.029 A 
ATOM     49  C   UNL A   1      41.633  25.906  28.446  1.00  0.00     0.049 A 
ATOM     50  H   UNL A   1      42.321  27.645  29.364  1.00  0.00     0.167 HD
ATOM     51  C   UNL A   1      43.616  31.369  31.282  1.00  0.00     0.031 A 
ATOM     52  C   UNL A   1      42.656  25.030  28.435  1.00  0.00     0.031 A 
ATOM     53  C   UNL A   1      44.740  30.475  31.385  1.00  0.00     0.049 A 
ATOM     54  C   UNL A   1      43.964  25.430  29.058  1.00  0.00     0.074 A 
ATOM     55  C   UNL A   1      45.966  30.699  31.986  1.00  0.00     0.029 A 
ATOM     56  N   UNL A   1      44.778  29.188  30.867  1.00  0.00    -0.354 N 
ATOM     57  N   UNL A   1      44.288  26.560  29.641  1.00  0.00    -0.248 NA
ATOM     58  C   UNL A   1      45.039  24.430  29.033  1.00  0.00     0.031 C 
ATOM     59  C   UNL A   1      46.767  29.571  31.775  1.00  0.00     0.029 A 
ATOM     60  C   UNL A   1      46.017  28.617  31.106  1.00  0.00     0.049 A 
ATOM     61  H   UNL A   1      44.033  28.747  30.398  1.00  0.00     0.167 HD
ATOM     62  C   UNL A   1      45.600  26.400  30.073  1.00  0.00     0.074 A 
ATOM     63  C   UNL A   1      45.997  25.054  29.706  1.00  0.00     0.031 C 
ATOM     64  C   UNL A   1      46.403  27.284  30.716  1.00  0.00     0.031 A 
BRANCH  51  65
ATOM     65  C   UNL A   1      43.753  32.771  31.821  1.00  0.00    -0.014 A 
ATOM     66  C   UNL A   1      44.272  33.811  31.028  1.00  0.00     0.010 A 
ATOM     67  C   UNL A   1      43.340  33.059  33.135  1.00  0.00     0.010 A 
ATOM     68  C   UNL A   1      44.423  35.098  31.552  1.00  0.00     0.020 A 
ATOM     69  C   UNL A   1      43.458  34.353  33.653  1.00  0.00     0.020 A 
ATOM     70  C   UNL A   1      44.018  35.359  32.864  1.00  0.00     0.054 A 
BRANCH  70  71
ATOM     71  S   UNL A   1      44.217  37.040  33.515  1.00  0.00     0.124 S 
ATOM     72  O   UNL A   1      44.005  37.853  32.319  1.00  0.00    -0.237 OA
ATOM     73  O   UNL A   1      43.162  37.119  34.522  1.00  0.00    -0.237 OA
ATOM     74  O   UNL A   1      45.580  37.051  34.041  1.00  0.00    -0.744 OA
ENDBRANCH  70  71
ENDBRANCH  51  65
BRANCH  52  75
ATOM     75  C   UNL A   1      42.466  23.679  27.839  1.00  0.00    -0.014 A 
ATOM     76  C   UNL A   1      43.254  23.260  26.752  1.00  0.00     0.010 A 
ATOM     77  C   UNL A   1      41.515  22.791  28.375  1.00  0.00     0.010 A 
ATOM     78  C   UNL A   1      43.087  21.985  26.205  1.00  0.00     0.020 A 
ATOM     79  C   UNL A   1      41.366  21.504  27.850  1.00  0.00     0.020 A 
ATOM     80  C   UNL A   1      42.148  21.112  26.762  1.00  0.00     0.054 A 
BRANCH  80  81
ATOM     81  S   UNL A   1      41.996  19.439  26.076  1.00  0.00     0.124 S 
ATOM     82  O   UNL A   1      40.552  19.311  25.904  1.00  0.00    -0.237 OA
ATOM     83  O   UNL A   1      42.774  19.533  24.844  1.00  0.00    -0.237 OA
ATOM     84  O   UNL A   1      42.582  18.590  27.110  1.00  0.00    -0.744 OA
ENDBRANCH  80  81
ENDBRANCH  52  75
BRANCH  64  85
ATOM     85  C   UNL A   1      47.788  26.813  31.081  1.00  0.00    -0.014 A 
ATOM     86  C   UNL A   1      48.030  26.107  32.273  1.00  0.00     0.010 A 
ATOM     87  C   UNL A   1      48.859  27.062  30.203  1.00  0.00     0.010 A 
ATOM     88  C   UNL A   1      49.327  25.705  32.605  1.00  0.00     0.020 A 
ATOM     89  C   UNL A   1      50.151  26.631  30.515  1.00  0.00     0.020 A 
ATOM     90  C   UNL A   1      50.380  25.973  31.725  1.00  0.00     0.054 A 
BRANCH  90  91
ATOM     91  S   UNL A   1      52.050  25.427  32.171  1.00  0.00     0.124 S 
ATOM     92  O   UNL A   1      51.847  24.003  32.422  1.00  0.00    -0.237 OA
ATOM     93  O   UNL A   1      52.824  25.751  30.975  1.00  0.00    -0.237 OA
ATOM     94  O   UNL A   1      52.372  26.228  33.350  1.00  0.00    -0.744 OA
ENDBRANCH  90  91
ENDBRANCH  64  85
ENDBRANCH  38  39
ENDBRANCH  30  33
ENDBRANCH  28  29
ENDBRANCH  27  28
ENDBRANCH   1  27
TORSDOF 17
ENDMDL
MODEL 2
REMARK VINA RESULT:     -10.9      1.031      2.594
REMARK SMILES Cc1cc(C(=O)Nc2cccc(C(=O)NCC(=O)NCCCNC(=O)c3ccc(-c4c5nc(c(-c6ccc(S(=O)(=O)[O-])cc6)c6ccc([nH]6)c(-c6ccc(S(=O)(=O)[O-])cc6)c6nc(c(-c7ccc(S(=O)(=O)[O-])cc7)c7ccc4[nH]7)C=C6)C=C5)cc3)c2)no1
REMARK SMILES IDX 20 1 19 2 17 3 18 4 16 6 15 7 13 8 14 9 12 11 8 12 9 13
REMARK SMILES IDX 86 14 10 15 11 16 7 17 5 18 6 19 4 21 1 22 2 23 3 24 88 25
REMARK SMILES IDX 87 26 21 27 22 28 23 29 24 30 25 32 26 33 27 34 85 35 28 36
REMARK SMILES IDX 84 37 29 38 30 39 31 40 78 41 32 42 83 43 77 44 79 45 33 46
REMARK SMILES IDX 82 47 76 48 75 49 34 51 64 52 45 53 63 54 46 55 49 56 62 57
REMARK SMILES IDX 80 58 47 59 48 60 61 62 81 63 50 64 35 65 36 66 44 67 37 68
REMARK SMILES IDX 43 69 38 70 39 71 40 72 41 73 42 74 65 75 66 76 74 77 67 78
REMARK SMILES IDX 73 79 68 80 69 81 70 82 71 83 72 84 51 85 52 86 60 87 53 88
REMARK SMILES IDX 59 89 54 90 55 91 56 92 57 93 58 94
REMARK H PARENT 19 5 15 10 7 20 23 31 79 50 49 61
REMARK Flexibility Score: inf
ROOT
ATOM      1  C   UNL A   1      32.093  26.367  26.369  1.00  0.00     0.117 C 
ENDROOT
BRANCH   1   2
ATOM      2  N   UNL A   1      30.678  26.195  26.587  1.00  0.00    -0.355 N 
ATOM      3  C   UNL A   1      29.896  25.086  26.509  1.00  0.00     0.239 C 
ATOM      4  O   UNL A   1      28.723  25.212  26.876  1.00  0.00    -0.273 OA
ATOM      5  H   UNL A   1      30.198  27.018  26.835  1.00  0.00     0.163 HD
BRANCH   3   6
ATOM      6  C   UNL A   1      30.444  23.690  26.166  1.00  0.00     0.216 C 
BRANCH   6   7
ATOM      7  N   UNL A   1      31.335  23.002  27.096  1.00  0.00    -0.343 N 
ATOM      8  C   UNL A   1      32.681  22.774  27.216  1.00  0.00     0.251 C 
ATOM      9  O   UNL A   1      33.042  22.262  28.278  1.00  0.00    -0.269 OA
ATOM     10  H   UNL A   1      30.833  22.592  27.838  1.00  0.00     0.164 HD
BRANCH   8  11
ATOM     11  C   UNL A   1      33.728  23.056  26.183  1.00  0.00     0.041 A 
ATOM     12  C   UNL A   1      34.620  23.090  23.910  1.00  0.00     0.042 A 
ATOM     13  C   UNL A   1      35.835  23.586  24.371  1.00  0.00     0.026 A 
ATOM     14  C   UNL A   1      33.624  22.744  24.829  1.00  0.00     0.040 A 
ATOM     15  C   UNL A   1      35.985  23.869  25.728  1.00  0.00     0.003 A 
ATOM     16  C   UNL A   1      34.930  23.636  26.618  1.00  0.00     0.014 A 
BRANCH  12  17
ATOM     17  N   UNL A   1      34.414  22.963  22.525  1.00  0.00    -0.321 N 
ATOM     18  C   UNL A   1      33.547  23.674  21.699  1.00  0.00     0.277 C 
ATOM     19  O   UNL A   1      33.324  23.228  20.572  1.00  0.00    -0.267 OA
ATOM     20  H   UNL A   1      34.959  22.277  22.077  1.00  0.00     0.170 HD
BRANCH  18  21
ATOM     21  C   UNL A   1      32.997  24.959  22.167  1.00  0.00     0.171 A 
ATOM     22  C   UNL A   1      30.512  27.539  22.979  1.00  0.00     0.091 C 
ATOM     23  C   UNL A   1      31.623  26.598  22.750  1.00  0.00     0.134 A 
ATOM     24  C   UNL A   1      31.727  25.230  22.761  1.00  0.00     0.082 A 
ATOM     25  O   UNL A   1      32.814  27.125  22.364  1.00  0.00    -0.361 OA
ATOM     26  N   UNL A   1      33.682  26.106  22.014  1.00  0.00    -0.074 NA
ENDBRANCH  18  21
ENDBRANCH  12  17
ENDBRANCH   8  11
ENDBRANCH   6   7
ENDBRANCH   3   6
ENDBRANCH   1   2
BRANCH   1  27
ATOM     27  C   UNL A   1      32.492  27.815  26.156  1.00  0.00     0.042 C 
BRANCH  27  28
ATOM     28  C   UNL A   1      33.602  28.256  27.096  1.00  0.00     0.118 C 
BRANCH  28  29
ATOM     29  N   UNL A   1      33.506  29.669  27.441  1.00  0.00    -0.352 N 
ATOM     30  C   UNL A   1      34.402  30.489  28.082  1.00  0.00     0.251 C 
ATOM     31  H   UNL A   1      32.666  30.105  27.172  1.00  0.00     0.163 HD
ATOM     32  O   UNL A   1      34.040  31.597  28.460  1.00  0.00    -0.269 OA
BRANCH  30  33
ATOM     33  C   UNL A   1      35.785  30.027  28.326  1.00  0.00     0.039 A 
ATOM     34  C   UNL A   1      36.705  30.079  27.278  1.00  0.00     0.014 A 
ATOM     35  C   UNL A   1      36.170  29.537  29.576  1.00  0.00     0.014 A 
ATOM     36  C   UNL A   1      38.028  29.698  27.507  1.00  0.00     0.010 A 
ATOM     37  C   UNL A   1      37.507  29.260  29.829  1.00  0.00     0.010 A 
ATOM     38  C   UNL A   1      38.449  29.325  28.794  1.00  0.00    -0.014 A 
BRANCH  38  39
ATOM     39  C   UNL A   1      39.870  29.004  29.070  1.00  0.00     0.031 A 
ATOM     40  C   UNL A   1      40.775  30.030  29.696  1.00  0.00     0.074 A 
ATOM     41  C   UNL A   1      40.355  27.798  28.712  1.00  0.00     0.049 A 
ATOM     42  N   UNL A   1      42.041  29.926  30.014  1.00  0.00    -0.248 NA
ATOM     43  C   UNL A   1      40.194  31.352  29.980  1.00  0.00     0.031 C 
ATOM     44  C   UNL A   1      39.589  26.741  28.047  1.00  0.00     0.029 A 
ATOM     45  N   UNL A   1      41.605  27.257  28.862  1.00  0.00    -0.354 N 
ATOM     46  C   UNL A   1      42.406  31.168  30.522  1.00  0.00     0.074 A 
ATOM     47  C   UNL A   1      41.249  32.027  30.411  1.00  0.00     0.031 C 
ATOM     48  C   UNL A   1      40.371  25.662  27.891  1.00  0.00     0.029 A 
ATOM     49  C   UNL A   1      41.704  25.964  28.402  1.00  0.00     0.049 A 
ATOM     50  H   UNL A   1      42.361  27.745  29.260  1.00  0.00     0.167 HD
ATOM     51  C   UNL A   1      43.590  31.552  31.055  1.00  0.00     0.031 A 
ATOM     52  C   UNL A   1      42.749  25.116  28.394  1.00  0.00     0.031 A 
ATOM     53  C   UNL A   1      44.739  30.690  31.160  1.00  0.00     0.049 A 
ATOM     54  C   UNL A   1      44.058  25.567  28.981  1.00  0.00     0.074 A 
ATOM     55  C   UNL A   1      45.969  30.963  31.732  1.00  0.00     0.029 A 
ATOM     56  N   UNL A   1      44.803  29.392  30.675  1.00  0.00    -0.354 N 
ATOM     57  N   UNL A   1      44.361  26.720  29.528  1.00  0.00    -0.248 NA
ATOM     58  C   UNL A   1      45.159  24.596  28.962  1.00  0.00     0.031 C 
ATOM     59  C   UNL A   1      46.797  29.852  31.535  1.00  0.00     0.029 A 
ATOM     60  C   UNL A   1      46.060  28.861  30.906  1.00  0.00     0.049 A 
ATOM     61  H   UNL A   1      44.062  28.919  30.232  1.00  0.00     0.167 HD
ATOM     62  C   UNL A   1      45.685  26.606  29.939  1.00  0.00     0.074 A 
ATOM     63  C   UNL A   1      46.111  25.262  29.600  1.00  0.00     0.031 C 
ATOM     64  C   UNL A   1      46.476  27.528  30.543  1.00  0.00     0.031 A 
BRANCH  51  65
ATOM     65  C   UNL A   1      43.699  32.971  31.555  1.00  0.00    -0.014 A 
ATOM     66  C   UNL A   1      44.137  34.009  30.713  1.00  0.00     0.010 A 
ATOM     67  C   UNL A   1      43.342  33.274  32.881  1.00  0.00     0.010 A 
ATOM     68  C   UNL A   1      44.263  35.313  31.200  1.00  0.00     0.020 A 
ATOM     69  C   UNL A   1      43.435  34.584  33.364  1.00  0.00     0.020 A 
ATOM     70  C   UNL A   1      43.915  35.591  32.524  1.00  0.00     0.054 A 
BRANCH  70  71
ATOM     71  S   UNL A   1      44.080  37.294  33.126  1.00  0.00     0.124 S 
ATOM     72  O   UNL A   1      44.024  38.060  31.883  1.00  0.00    -0.237 OA
ATOM     73  O   UNL A   1      42.921  37.437  34.003  1.00  0.00    -0.237 OA
ATOM     74  O   UNL A   1      45.375  37.300  33.802  1.00  0.00    -0.744 OA
ENDBRANCH  70  71
ENDBRANCH  51  65
BRANCH  52  75
ATOM     75  C   UNL A   1      42.585  23.744  27.837  1.00  0.00    -0.014 A 
ATOM     76  C   UNL A   1      42.096  22.700  28.640  1.00  0.00     0.010 A 
ATOM     77  C   UNL A   1      42.891  23.483  26.488  1.00  0.00     0.010 A 
ATOM     78  C   UNL A   1      41.926  21.418  28.111  1.00  0.00     0.020 A 
ATOM     79  C   UNL A   1      42.693  22.209  25.947  1.00  0.00     0.020 A 
ATOM     80  C   UNL A   1      42.220  21.182  26.765  1.00  0.00     0.054 A 
BRANCH  80  81
ATOM     81  S   UNL A   1      41.929  19.525  26.085  1.00  0.00     0.124 S 
ATOM     82  O   UNL A   1      40.485  19.533  25.873  1.00  0.00    -0.237 OA
ATOM     83  O   UNL A   1      42.747  19.534  24.876  1.00  0.00    -0.237 OA
ATOM     84  O   UNL A   1      42.402  18.634  27.141  1.00  0.00    -0.744 OA
ENDBRANCH  80  81
ENDBRANCH  52  75
BRANCH  64  85
ATOM     85  C   UNL A   1      47.879  27.104  30.894  1.00  0.00    -0.014 A 
ATOM     86  C   UNL A   1      48.162  26.438  32.100  1.00  0.00     0.010 A 
ATOM     87  C   UNL A   1      48.927  27.357  29.989  1.00  0.00     0.010 A 
ATOM     88  C   UNL A   1      49.476  26.079  32.417  1.00  0.00     0.020 A 
ATOM     89  C   UNL A   1      50.235  26.969  30.287  1.00  0.00     0.020 A 
ATOM     90  C   UNL A   1      50.504  26.350  31.509  1.00  0.00     0.054 A 
BRANCH  90  91
ATOM     91  S   UNL A   1      52.196  25.861  31.938  1.00  0.00     0.124 S 
ATOM     92  O   UNL A   1      52.914  26.130  30.695  1.00  0.00    -0.237 OA
ATOM     93  O   UNL A   1      52.514  26.751  33.053  1.00  0.00    -0.237 OA
ATOM     94  O   UNL A   1      52.070  24.449  32.292  1.00  0.00    -0.744 OA
ENDBRANCH  90  91
ENDBRANCH  64  85
ENDBRANCH  38  39
ENDBRANCH  30  33
ENDBRANCH  28  29
ENDBRANCH  27  28
ENDBRANCH   1  27
TORSDOF 17
ENDMDL
MODEL 3
REMARK VINA RESULT:     -10.9      1.322      2.490
REMARK SMILES Cc1cc(C(=O)Nc2cccc(C(=O)NCC(=O)NCCCNC(=O)c3ccc(-c4c5nc(c(-c6ccc(S(=O)(=O)[O-])cc6)c6ccc([nH]6)c(-c6ccc(S(=O)(=O)[O-])cc6)c6nc(c(-c7ccc(S(=O)(=O)[O-])cc7)c7ccc4[nH]7)C=C6)C=C5)cc3)c2)no1
REMARK SMILES IDX 20 1 19 2 17 3 18 4 16 6 15 7 13 8 14 9 12 11 8 12 9 13
REMARK SMILES IDX 86 14 10 15 11 16 7 17 5 18 6 19 4 21 1 22 2 23 3 24 88 25
REMARK SMILES IDX 87 26 21 27 22 28 23 29 24 30 25 32 26 33 27 34 85 35 28 36
REMARK SMILES IDX 84 37 29 38 30 39 31 40 78 41 32 42 83 43 77 44 79 45 33 46
REMARK SMILES IDX 82 47 76 48 75 49 34 51 64 52 45 53 63 54 46 55 49 56 62 57
REMARK SMILES IDX 80 58 47 59 48 60 61 62 81 63 50 64 35 65 36 66 44 67 37 68
REMARK SMILES IDX 43 69 38 70 39 71 40 72 41 73 42 74 65 75 66 76 74 77 67 78
REMARK SMILES IDX 73 79 68 80 69 81 70 82 71 83 72 84 51 85 52 86 60 87 53 88
REMARK SMILES IDX 59 89 54 90 55 91 56 92 57 93 58 94
REMARK H PARENT 19 5 15 10 7 20 23 31 79 50 49 61
REMARK Flexibility Score: inf
ROOT
ATOM      1  C   UNL A   1      31.919  29.176  25.113  1.00  0.00     0.117 C 
ENDROOT
BRANCH   1   2
ATOM      2  N   UNL A   1      30.948  28.265  24.557  1.00  0.00    -0.355 N 
ATOM      3  C   UNL A   1      30.602  27.004  24.927  1.00  0.00     0.239 C 
ATOM      4  O   UNL A   1      29.636  26.503  24.340  1.00  0.00    -0.273 OA
ATOM      5  H   UNL A   1      30.454  28.615  23.781  1.00  0.00     0.163 HD
BRANCH   3   6
ATOM      6  C   UNL A   1      31.227  26.275  26.129  1.00  0.00     0.216 C 
BRANCH   6   7
ATOM      7  N   UNL A   1      30.556  25.119  26.716  1.00  0.00    -0.343 N 
ATOM      8  C   UNL A   1      30.575  23.758  26.556  1.00  0.00     0.251 C 
ATOM      9  O   UNL A   1      29.943  23.114  27.397  1.00  0.00    -0.269 OA
ATOM     10  H   UNL A   1      29.917  25.390  27.415  1.00  0.00     0.164 HD
BRANCH   8  11
ATOM     11  C   UNL A   1      31.256  22.999  25.459  1.00  0.00     0.041 A 
ATOM     12  C   UNL A   1      32.607  21.174  24.559  1.00  0.00     0.042 A 
ATOM     13  C   UNL A   1      32.540  21.724  23.284  1.00  0.00     0.026 A 
ATOM     14  C   UNL A   1      32.047  21.866  25.639  1.00  0.00     0.040 A 
ATOM     15  C   UNL A   1      31.790  22.882  23.079  1.00  0.00     0.003 A 
ATOM     16  C   UNL A   1      31.130  23.493  24.151  1.00  0.00     0.014 A 
BRANCH  12  17
ATOM     17  N   UNL A   1      33.222  19.921  24.732  1.00  0.00    -0.321 N 
ATOM     18  C   UNL A   1      34.578  19.612  24.797  1.00  0.00     0.277 C 
ATOM     19  O   UNL A   1      34.909  18.432  24.681  1.00  0.00    -0.267 OA
ATOM     20  H   UNL A   1      32.608  19.157  24.819  1.00  0.00     0.170 HD
BRANCH  18  21
ATOM     21  C   UNL A   1      35.549  20.685  25.079  1.00  0.00     0.171 A 
ATOM     22  C   UNL A   1      36.850  23.932  26.199  1.00  0.00     0.091 C 
ATOM     23  C   UNL A   1      36.496  22.574  25.747  1.00  0.00     0.134 A 
ATOM     24  C   UNL A   1      35.516  21.681  26.101  1.00  0.00     0.082 A 
ATOM     25  O   UNL A   1      37.201  22.062  24.705  1.00  0.00    -0.361 OA
ATOM     26  N   UNL A   1      36.624  20.874  24.293  1.00  0.00    -0.074 NA
ENDBRANCH  18  21
ENDBRANCH  12  17
ENDBRANCH   8  11
ENDBRANCH   6   7
ENDBRANCH   3   6
ENDBRANCH   1   2
BRANCH   1  27
ATOM     27  C   UNL A   1      33.338  28.644  25.056  1.00  0.00     0.042 C 
BRANCH  27  28
ATOM     28  C   UNL A   1      34.028  28.686  26.410  1.00  0.00     0.118 C 
BRANCH  28  29
ATOM     29  N   UNL A   1      33.879  29.979  27.067  1.00  0.00    -0.352 N 
ATOM     30  C   UNL A   1      34.689  30.608  27.981  1.00  0.00     0.251 C 
ATOM     31  H   UNL A   1      33.070  30.480  26.816  1.00  0.00     0.163 HD
ATOM     32  O   UNL A   1      34.275  31.601  28.567  1.00  0.00    -0.269 OA
BRANCH  30  33
ATOM     33  C   UNL A   1      36.039  30.078  28.262  1.00  0.00     0.039 A 
ATOM     34  C   UNL A   1      37.019  30.174  27.272  1.00  0.00     0.014 A 
ATOM     35  C   UNL A   1      36.337  29.480  29.489  1.00  0.00     0.014 A 
ATOM     36  C   UNL A   1      38.314  29.729  27.541  1.00  0.00     0.010 A 
ATOM     37  C   UNL A   1      37.648  29.136  29.791  1.00  0.00     0.010 A 
ATOM     38  C   UNL A   1      38.649  29.243  28.816  1.00  0.00    -0.014 A 
BRANCH  38  39
ATOM     39  C   UNL A   1      40.041  28.850  29.143  1.00  0.00     0.031 A 
ATOM     40  C   UNL A   1      40.959  29.811  29.848  1.00  0.00     0.074 A 
ATOM     41  C   UNL A   1      40.490  27.638  28.759  1.00  0.00     0.049 A 
ATOM     42  N   UNL A   1      42.203  29.639  30.217  1.00  0.00    -0.248 NA
ATOM     43  C   UNL A   1      40.421  31.146  30.158  1.00  0.00     0.031 C 
ATOM     44  C   UNL A   1      39.711  26.641  28.019  1.00  0.00     0.029 A 
ATOM     45  N   UNL A   1      41.708  27.037  28.943  1.00  0.00    -0.354 N 
ATOM     46  C   UNL A   1      42.596  30.844  30.790  1.00  0.00     0.074 A 
ATOM     47  C   UNL A   1      41.483  31.757  30.662  1.00  0.00     0.031 C 
ATOM     48  C   UNL A   1      40.453  25.535  27.856  1.00  0.00     0.029 A 
ATOM     49  C   UNL A   1      41.773  25.759  28.437  1.00  0.00     0.049 A 
ATOM     50  H   UNL A   1      42.464  27.476  29.394  1.00  0.00     0.167 HD
ATOM     51  C   UNL A   1      43.770  31.155  31.390  1.00  0.00     0.031 A 
ATOM     52  C   UNL A   1      42.780  24.866  28.442  1.00  0.00     0.031 A 
ATOM     53  C   UNL A   1      44.875  30.240  31.512  1.00  0.00     0.049 A 
ATOM     54  C   UNL A   1      44.078  25.237  29.105  1.00  0.00     0.074 A 
ATOM     55  C   UNL A   1      46.088  30.436  32.148  1.00  0.00     0.029 A 
ATOM     56  N   UNL A   1      44.906  28.960  30.980  1.00  0.00    -0.354 N 
ATOM     57  N   UNL A   1      44.405  26.354  29.709  1.00  0.00    -0.248 NA
ATOM     58  C   UNL A   1      45.137  24.219  29.096  1.00  0.00     0.031 C 
ATOM     59  C   UNL A   1      46.876  29.298  31.945  1.00  0.00     0.029 A 
ATOM     60  C   UNL A   1      46.128  28.365  31.245  1.00  0.00     0.049 A 
ATOM     61  H   UNL A   1      44.167  28.536  30.486  1.00  0.00     0.167 HD
ATOM     62  C   UNL A   1      45.702  26.166  30.174  1.00  0.00     0.074 A 
ATOM     63  C   UNL A   1      46.086  24.819  29.802  1.00  0.00     0.031 C 
ATOM     64  C   UNL A   1      46.503  27.029  30.849  1.00  0.00     0.031 A 
BRANCH  51  65
ATOM     65  C   UNL A   1      43.916  32.548  31.950  1.00  0.00    -0.014 A 
ATOM     66  C   UNL A   1      44.530  33.572  31.206  1.00  0.00     0.010 A 
ATOM     67  C   UNL A   1      43.415  32.843  33.231  1.00  0.00     0.010 A 
ATOM     68  C   UNL A   1      44.687  34.850  31.751  1.00  0.00     0.020 A 
ATOM     69  C   UNL A   1      43.540  34.129  33.768  1.00  0.00     0.020 A 
ATOM     70  C   UNL A   1      44.193  35.119  33.031  1.00  0.00     0.054 A 
BRANCH  70  71
ATOM     71  S   UNL A   1      44.403  36.788  33.709  1.00  0.00     0.124 S 
ATOM     72  O   UNL A   1      44.081  36.582  35.119  1.00  0.00    -0.237 OA
ATOM     73  O   UNL A   1      45.806  37.075  33.422  1.00  0.00    -0.237 OA
ATOM     74  O   UNL A   1      43.438  37.591  32.962  1.00  0.00    -0.744 OA
ENDBRANCH  70  71
ENDBRANCH  51  65
BRANCH  52  75
ATOM     75  C   UNL A   1      42.584  23.525  27.825  1.00  0.00    -0.014 A 
ATOM     76  C   UNL A   1      43.062  23.258  26.530  1.00  0.00     0.010 A 
ATOM     77  C   UNL A   1      41.943  22.498  28.542  1.00  0.00     0.010 A 
ATOM     78  C   UNL A   1      42.892  21.994  25.959  1.00  0.00     0.020 A 
ATOM     79  C   UNL A   1      41.800  21.224  27.987  1.00  0.00     0.020 A 
ATOM     80  C   UNL A   1      42.268  20.982  26.694  1.00  0.00     0.054 A 
BRANCH  80  81
ATOM     81  S   UNL A   1      42.119  19.331  25.956  1.00  0.00     0.124 S 
ATOM     82  O   UNL A   1      42.646  18.476  27.015  1.00  0.00    -0.237 OA
ATOM     83  O   UNL A   1      40.683  19.225  25.711  1.00  0.00    -0.237 OA
ATOM     84  O   UNL A   1      42.942  19.418  24.753  1.00  0.00    -0.744 OA
ENDBRANCH  80  81
ENDBRANCH  52  75
BRANCH  64  85
ATOM     85  C   UNL A   1      47.869  26.531  31.245  1.00  0.00    -0.014 A 
ATOM     86  C   UNL A   1      48.989  26.734  30.419  1.00  0.00     0.010 A 
ATOM     87  C   UNL A   1      48.037  25.869  32.476  1.00  0.00     0.010 A 
ATOM     88  C   UNL A   1      50.241  26.238  30.792  1.00  0.00     0.020 A 
ATOM     89  C   UNL A   1      49.293  25.404  32.869  1.00  0.00     0.020 A 
ATOM     90  C   UNL A   1      50.385  25.573  32.014  1.00  0.00     0.054 A 
BRANCH  90  91
ATOM     91  S   UNL A   1      52.023  24.953  32.482  1.00  0.00     0.124 S 
ATOM     92  O   UNL A   1      51.822  23.507  32.447  1.00  0.00    -0.237 OA
ATOM     93  O   UNL A   1      52.882  25.494  31.431  1.00  0.00    -0.237 OA
ATOM     94  O   UNL A   1      52.241  25.520  33.811  1.00  0.00    -0.744 OA
ENDBRANCH  90  91
ENDBRANCH  64  85
ENDBRANCH  38  39
ENDBRANCH  30  33
ENDBRANCH  28  29
ENDBRANCH  27  28
ENDBRANCH   1  27
TORSDOF 17
ENDMDL
