MODEL 1
REMARK VINA RESULT:     -12.2      0.000      0.000
REMARK SMILES CCOC(=O)c1c(NC(=O)[C@@H]2[C@@H]3CC[C@@H](C3)[C@@H]2C(=O)NCCCNC(=O)c2ccc(-c3c4nc(c(-c5ccc(S(=O)(=O)[O-])cc5)c5ccc([nH]5)c(-c5ccc(S(=O)(=O)[O-])cc5)c5nc(c(-c6ccc(S(=O)(=O)[O-])cc6)c6ccc3[nH]6)C=C5)C=C4)cc2)sc2c1CCCC2
REMARK SMILES IDX 21 1 20 2 18 3 19 4 17 6 11 7 12 8 13 9 16 10 15 11 14 12
REMARK SMILES IDX 9 13 8 14 10 16 7 17 6 18 89 19 87 20 88 21 90 22 93 23
REMARK SMILES IDX 91 24 92 25 4 26 5 27 3 28 2 29 1 30 22 31 23 32 24 33 25 34
REMARK SMILES IDX 26 36 27 37 28 38 86 39 29 40 85 41 30 42 31 43 32 44 79 45
REMARK SMILES IDX 33 46 84 47 78 48 80 49 34 50 83 51 77 52 76 53 35 55 65 56
REMARK SMILES IDX 46 57 64 58 47 59 50 60 63 61 81 62 48 63 49 64 62 66 82 67
REMARK SMILES IDX 51 68 36 69 37 70 45 71 38 72 44 73 39 74 40 75 41 76 42 77
REMARK SMILES IDX 43 78 66 79 67 80 75 81 68 82 74 83 69 84 70 85 71 86 72 87
REMARK SMILES IDX 73 88 52 89 53 90 61 91 54 92 60 93 55 94 56 95 57 96 58 97
REMARK SMILES IDX 59 98
REMARK H PARENT 20 5 8 15 24 35 80 54 50 65
REMARK Flexibility Score: inf
ROOT
ATOM      1  C   UNL A   1      37.223  21.630  24.339  1.00  0.00     0.117 C 
ENDROOT
BRANCH   1   2
ATOM      2  N   UNL A   1      36.097  23.207  25.242  1.00  0.00    -0.356 N 
ATOM      3  C   UNL A   1      35.070  24.290  25.096  1.00  0.00     0.224 C 
ATOM      4  O   UNL A   1      35.041  25.112  26.024  1.00  0.00    -0.275 OA
ATOM      5  H   UNL A   1      36.385  23.236  26.184  1.00  0.00     0.163 HD
BRANCH   3   6
ATOM      6  C   UNL A   1      33.975  24.428  23.901  1.00  0.00     0.094 C 
ATOM      7  C   UNL A   1      32.479  24.892  24.011  1.00  0.00     0.094 C 
ATOM      8  C   UNL A   1      31.767  24.249  22.799  1.00  0.00     0.002 C 
ATOM      9  C   UNL A   1      31.513  22.756  22.971  1.00  0.00     0.005 C 
ATOM     10  C   UNL A   1      32.915  24.186  21.799  1.00  0.00     0.009 C 
ATOM     11  C   UNL A   1      33.841  23.383  22.758  1.00  0.00     0.002 C 
ATOM     12  C   UNL A   1      32.931  22.192  23.106  1.00  0.00     0.005 C 
BRANCH   7  13
ATOM     13  C   UNL A   1      31.827  24.648  25.333  1.00  0.00     0.229 C 
ATOM     14  N   UNL A   1      31.039  25.651  25.766  1.00  0.00    -0.317 N 
ATOM     15  H   UNL A   1      30.615  25.563  26.651  1.00  0.00     0.170 HD
ATOM     16  O   UNL A   1      31.954  23.637  26.013  1.00  0.00    -0.274 OA
BRANCH  14  17
ATOM     17  C   UNL A   1      30.794  26.786  25.038  1.00  0.00     0.110 A 
ATOM     18  C   UNL A   1      31.258  28.535  24.804  1.00  0.00     0.098 A 
ATOM     19  C   UNL A   1      29.867  29.500  23.875  1.00  0.00    -0.017 A 
ATOM     20  S   UNL A   1      28.660  26.390  24.128  1.00  0.00    -0.122 S 
ATOM     21  C   UNL A   1      28.530  28.571  23.415  1.00  0.00     0.011 A 
ATOM     22  C   UNL A   1      30.017  30.866  23.269  1.00  0.00     0.038 C 
ATOM     23  C   UNL A   1      27.623  28.918  22.268  1.00  0.00     0.047 C 
ATOM     24  C   UNL A   1      28.775  31.242  22.426  1.00  0.00     0.005 C 
ATOM     25  C   UNL A   1      28.263  30.111  21.502  1.00  0.00     0.006 C 
BRANCH  18  26
ATOM     26  C   UNL A   1      32.320  29.414  25.339  1.00  0.00     0.341 C 
ATOM     27  O   UNL A   1      32.260  30.071  26.365  1.00  0.00    -0.246 OA
BRANCH  26  28
ATOM     28  O   UNL A   1      33.361  29.440  24.436  1.00  0.00    -0.462 OA
BRANCH  28  29
ATOM     29  C   UNL A   1      33.972  28.246  23.903  1.00  0.00     0.230 C 
ATOM     30  C   UNL A   1      33.986  28.258  22.371  1.00  0.00     0.049 C 
ENDBRANCH  28  29
ENDBRANCH  26  28
ENDBRANCH  18  26
ENDBRANCH  14  17
ENDBRANCH   7  13
ENDBRANCH   3   6
ENDBRANCH   1   2
BRANCH   1  31
ATOM     31  C   UNL A   1      38.187  20.325  25.068  1.00  0.00     0.042 C 
BRANCH  31  32
ATOM     32  C   UNL A   1      39.328  20.636  26.057  1.00  0.00     0.118 C 
BRANCH  32  33
ATOM     33  N   UNL A   1      40.326  19.580  26.125  1.00  0.00    -0.352 N 
ATOM     34  C   UNL A   1      41.677  19.708  26.322  1.00  0.00     0.251 C 
ATOM     35  H   UNL A   1      39.990  18.662  26.017  1.00  0.00     0.163 HD
ATOM     36  O   UNL A   1      42.414  18.731  26.254  1.00  0.00    -0.269 OA
BRANCH  34  37
ATOM     37  C   UNL A   1      42.228  21.044  26.599  1.00  0.00     0.039 A 
ATOM     38  C   UNL A   1      42.507  21.895  25.529  1.00  0.00     0.014 A 
ATOM     39  C   UNL A   1      42.459  21.448  27.918  1.00  0.00     0.014 A 
ATOM     40  C   UNL A   1      43.000  23.173  25.784  1.00  0.00     0.010 A 
ATOM     41  C   UNL A   1      42.912  22.740  28.170  1.00  0.00     0.010 A 
ATOM     42  C   UNL A   1      43.194  23.611  27.105  1.00  0.00    -0.014 A 
BRANCH  42  43
ATOM     43  C   UNL A   1      43.710  24.976  27.373  1.00  0.00     0.031 A 
ATOM     44  C   UNL A   1      45.157  25.298  27.123  1.00  0.00     0.074 A 
ATOM     45  C   UNL A   1      42.871  25.917  27.850  1.00  0.00     0.049 A 
ATOM     46  N   UNL A   1      45.786  26.434  27.273  1.00  0.00    -0.248 NA
ATOM     47  C   UNL A   1      46.014  24.193  26.659  1.00  0.00     0.031 C 
ATOM     48  C   UNL A   1      41.455  25.707  28.159  1.00  0.00     0.029 A 
ATOM     49  N   UNL A   1      43.084  27.237  28.154  1.00  0.00    -0.354 N 
ATOM     50  C   UNL A   1      47.110  26.183  26.930  1.00  0.00     0.074 A 
ATOM     51  C   UNL A   1      47.204  24.774  26.614  1.00  0.00     0.031 C 
ATOM     52  C   UNL A   1      40.919  26.864  28.579  1.00  0.00     0.029 A 
ATOM     53  C   UNL A   1      41.958  27.889  28.603  1.00  0.00     0.049 A 
ATOM     54  H   UNL A   1      43.960  27.677  28.061  1.00  0.00     0.167 HD
ATOM     55  C   UNL A   1      48.148  27.050  26.866  1.00  0.00     0.031 A 
ATOM     56  C   UNL A   1      41.785  29.168  28.989  1.00  0.00     0.031 A 
ATOM     57  C   UNL A   1      48.040  28.449  27.184  1.00  0.00     0.049 A 
ATOM     58  C   UNL A   1      42.957  30.109  28.924  1.00  0.00     0.074 A 
ATOM     59  C   UNL A   1      49.017  29.427  27.112  1.00  0.00     0.029 A 
ATOM     60  N   UNL A   1      46.886  29.070  27.643  1.00  0.00    -0.354 N 
ATOM     61  N   UNL A   1      44.186  29.868  28.530  1.00  0.00    -0.248 NA
ATOM     62  C   UNL A   1      42.719  31.496  29.343  1.00  0.00     0.031 C 
ATOM     63  C   UNL A   1      48.469  30.626  27.580  1.00  0.00     0.029 A 
ATOM     64  C   UNL A   1      47.133  30.411  27.882  1.00  0.00     0.049 A 
ATOM     65  H   UNL A   1      46.020  28.622  27.777  1.00  0.00     0.167 HD
ATOM     66  C   UNL A   1      44.860  31.081  28.629  1.00  0.00     0.074 A 
ATOM     67  C   UNL A   1      43.897  32.055  29.101  1.00  0.00     0.031 C 
ATOM     68  C   UNL A   1      46.159  31.363  28.355  1.00  0.00     0.031 A 
BRANCH  55  69
ATOM     69  C   UNL A   1      49.489  26.506  26.444  1.00  0.00    -0.014 A 
ATOM     70  C   UNL A   1      49.934  26.616  25.114  1.00  0.00     0.010 A 
ATOM     71  C   UNL A   1      50.331  25.904  27.398  1.00  0.00     0.010 A 
ATOM     72  C   UNL A   1      51.177  26.096  24.736  1.00  0.00     0.020 A 
ATOM     73  C   UNL A   1      51.587  25.410  27.030  1.00  0.00     0.020 A 
ATOM     74  C   UNL A   1      51.994  25.494  25.697  1.00  0.00     0.054 A 
BRANCH  74  75
ATOM     75  S   UNL A   1      53.609  24.849  25.181  1.00  0.00     0.124 S 
ATOM     76  O   UNL A   1      54.465  25.257  26.292  1.00  0.00    -0.237 OA
ATOM     77  O   UNL A   1      53.361  23.413  25.075  1.00  0.00    -0.237 OA
ATOM     78  O   UNL A   1      53.867  25.529  23.914  1.00  0.00    -0.744 OA
ENDBRANCH  74  75
ENDBRANCH  55  69
BRANCH  56  79
ATOM     79  C   UNL A   1      40.447  29.633  29.453  1.00  0.00    -0.014 A 
ATOM     80  C   UNL A   1      40.148  29.703  30.825  1.00  0.00     0.010 A 
ATOM     81  C   UNL A   1      39.467  30.021  28.521  1.00  0.00     0.010 A 
ATOM     82  C   UNL A   1      38.889  30.133  31.255  1.00  0.00     0.020 A 
ATOM     83  C   UNL A   1      38.217  30.480  28.948  1.00  0.00     0.020 A 
ATOM     84  C   UNL A   1      37.932  30.520  30.314  1.00  0.00     0.054 A 
BRANCH  84  85
ATOM     85  S   UNL A   1      36.321  31.119  30.899  1.00  0.00     0.124 S 
ATOM     86  O   UNL A   1      36.650  32.458  31.377  1.00  0.00    -0.237 OA
ATOM     87  O   UNL A   1      35.505  31.061  29.688  1.00  0.00    -0.237 OA
ATOM     88  O   UNL A   1      35.953  30.156  31.934  1.00  0.00    -0.744 OA
ENDBRANCH  84  85
ENDBRANCH  56  79
BRANCH  68  89
ATOM     89  C   UNL A   1      46.606  32.789  28.528  1.00  0.00    -0.014 A 
ATOM     90  C   UNL A   1      46.785  33.639  27.422  1.00  0.00     0.010 A 
ATOM     91  C   UNL A   1      46.793  33.303  29.825  1.00  0.00     0.010 A 
ATOM     92  C   UNL A   1      47.175  34.968  27.608  1.00  0.00     0.020 A 
ATOM     93  C   UNL A   1      47.152  34.639  30.016  1.00  0.00     0.020 A 
ATOM     94  C   UNL A   1      47.355  35.459  28.905  1.00  0.00     0.054 A 
BRANCH  94  95
ATOM     95  S   UNL A   1      47.816  37.200  29.121  1.00  0.00     0.124 S 
ATOM     96  O   UNL A   1      46.715  37.890  28.457  1.00  0.00    -0.237 OA
ATOM     97  O   UNL A   1      47.861  37.340  30.575  1.00  0.00    -0.237 OA
ATOM     98  O   UNL A   1      49.110  37.302  28.451  1.00  0.00    -0.744 OA
ENDBRANCH  94  95
ENDBRANCH  68  89
ENDBRANCH  42  43
ENDBRANCH  34  37
ENDBRANCH  32  33
ENDBRANCH  31  32
ENDBRANCH   1  31
TORSDOF 18
ENDMDL
MODEL 2
REMARK VINA RESULT:     -12.2      2.369      9.089
REMARK SMILES CCOC(=O)c1c(NC(=O)[C@@H]2[C@@H]3CC[C@@H](C3)[C@@H]2C(=O)NCCCNC(=O)c2ccc(-c3c4nc(c(-c5ccc(S(=O)(=O)[O-])cc5)c5ccc([nH]5)c(-c5ccc(S(=O)(=O)[O-])cc5)c5nc(c(-c6ccc(S(=O)(=O)[O-])cc6)c6ccc3[nH]6)C=C5)C=C4)cc2)sc2c1CCCC2
REMARK SMILES IDX 21 1 20 2 18 3 19 4 17 6 11 7 12 8 13 9 16 10 15 11 14 12
REMARK SMILES IDX 9 13 8 14 10 16 7 17 6 18 89 19 87 20 88 21 90 22 93 23
REMARK SMILES IDX 91 24 92 25 4 26 5 27 3 28 2 29 1 30 22 31 23 32 24 33 25 34
REMARK SMILES IDX 26 36 27 37 28 38 86 39 29 40 85 41 30 42 31 43 32 44 79 45
REMARK SMILES IDX 33 46 84 47 78 48 80 49 34 50 83 51 77 52 76 53 35 55 65 56
REMARK SMILES IDX 46 57 64 58 47 59 50 60 63 61 81 62 48 63 49 64 62 66 82 67
REMARK SMILES IDX 51 68 36 69 37 70 45 71 38 72 44 73 39 74 40 75 41 76 42 77
REMARK SMILES IDX 43 78 66 79 67 80 75 81 68 82 74 83 69 84 70 85 71 86 72 87
REMARK SMILES IDX 73 88 52 89 53 90 61 91 54 92 60 93 55 94 56 95 57 96 58 97
REMARK SMILES IDX 59 98
REMARK H PARENT 20 5 8 15 24 35 80 54 50 65
REMARK Flexibility Score: inf
ROOT
ATOM      1  C   UNL A   1      33.260  29.174  27.018  1.00  0.00     0.117 C 
ENDROOT
BRANCH   1   2
ATOM      2  N   UNL A   1      31.849  27.575  26.861  1.00  0.00    -0.356 N 
ATOM      3  C   UNL A   1      31.145  26.573  25.995  1.00  0.00     0.224 C 
ATOM      4  O   UNL A   1      30.148  26.046  26.510  1.00  0.00    -0.275 OA
ATOM      5  H   UNL A   1      31.504  27.432  27.772  1.00  0.00     0.163 HD
BRANCH   3   6
ATOM      6  C   UNL A   1      31.609  26.077  24.517  1.00  0.00     0.094 C 
ATOM      7  C   UNL A   1      32.877  25.232  24.136  1.00  0.00     0.094 C 
ATOM      8  C   UNL A   1      33.171  25.591  22.661  1.00  0.00     0.002 C 
ATOM      9  C   UNL A   1      33.805  26.966  22.489  1.00  0.00     0.005 C 
ATOM     10  C   UNL A   1      31.766  25.906  22.162  1.00  0.00     0.009 C 
ATOM     11  C   UNL A   1      31.509  26.981  23.257  1.00  0.00     0.002 C 
ATOM     12  C   UNL A   1      32.726  27.899  23.049  1.00  0.00     0.005 C 
BRANCH   7  13
ATOM     13  C   UNL A   1      34.039  25.364  25.065  1.00  0.00     0.229 C 
ATOM     14  N   UNL A   1      34.583  24.196  25.456  1.00  0.00    -0.317 N 
ATOM     15  H   UNL A   1      35.327  24.220  26.101  1.00  0.00     0.170 HD
ATOM     16  O   UNL A   1      34.510  26.420  25.469  1.00  0.00    -0.274 OA
BRANCH  14  17
ATOM     17  C   UNL A   1      34.157  22.975  25.000  1.00  0.00     0.110 A 
ATOM     18  C   UNL A   1      32.697  21.989  24.525  1.00  0.00     0.098 A 
ATOM     19  C   UNL A   1      33.093  20.100  24.580  1.00  0.00    -0.017 A 
ATOM     20  S   UNL A   1      35.957  21.551  25.516  1.00  0.00    -0.122 S 
ATOM     21  C   UNL A   1      34.685  19.709  24.997  1.00  0.00     0.011 A 
ATOM     22  C   UNL A   1      32.234  19.017  23.990  1.00  0.00     0.038 C 
ATOM     23  C   UNL A   1      35.367  18.431  24.597  1.00  0.00     0.047 C 
ATOM     24  C   UNL A   1      32.955  17.649  24.033  1.00  0.00     0.005 C 
ATOM     25  C   UNL A   1      34.438  17.693  23.592  1.00  0.00     0.006 C 
BRANCH  18  26
ATOM     26  C   UNL A   1      31.260  22.278  24.330  1.00  0.00     0.341 C 
ATOM     27  O   UNL A   1      30.757  22.781  23.339  1.00  0.00    -0.246 OA
BRANCH  26  28
ATOM     28  O   UNL A   1      30.590  21.967  25.493  1.00  0.00    -0.462 OA
BRANCH  28  29
ATOM     29  C   UNL A   1      30.526  22.856  26.628  1.00  0.00     0.230 C 
ATOM     30  C   UNL A   1      29.220  22.677  27.409  1.00  0.00     0.049 C 
ENDBRANCH  28  29
ENDBRANCH  26  28
ENDBRANCH  18  26
ENDBRANCH  14  17
ENDBRANCH   7  13
ENDBRANCH   3   6
ENDBRANCH   1   2
BRANCH   1  31
ATOM     31  C   UNL A   1      35.006  29.154  27.351  1.00  0.00     0.042 C 
BRANCH  31  32
ATOM     32  C   UNL A   1      35.703  30.357  28.017  1.00  0.00     0.118 C 
BRANCH  32  33
ATOM     33  N   UNL A   1      35.569  30.362  29.465  1.00  0.00    -0.352 N 
ATOM     34  C   UNL A   1      36.493  29.972  30.400  1.00  0.00     0.251 C 
ATOM     35  H   UNL A   1      34.709  30.686  29.817  1.00  0.00     0.163 HD
ATOM     36  O   UNL A   1      36.203  29.936  31.590  1.00  0.00    -0.269 OA
BRANCH  34  37
ATOM     37  C   UNL A   1      37.837  29.582  29.945  1.00  0.00     0.039 A 
ATOM     38  C   UNL A   1      38.189  29.802  28.613  1.00  0.00     0.014 A 
ATOM     39  C   UNL A   1      38.742  29.005  30.842  1.00  0.00     0.014 A 
ATOM     40  C   UNL A   1      39.470  29.464  28.181  1.00  0.00     0.010 A 
ATOM     41  C   UNL A   1      40.034  28.707  30.417  1.00  0.00     0.010 A 
ATOM     42  C   UNL A   1      40.406  28.927  29.081  1.00  0.00    -0.014 A 
BRANCH  42  43
ATOM     43  C   UNL A   1      41.773  28.577  28.619  1.00  0.00     0.031 A 
ATOM     44  C   UNL A   1      42.845  29.629  28.573  1.00  0.00     0.074 A 
ATOM     45  C   UNL A   1      42.036  27.313  28.234  1.00  0.00     0.049 A 
ATOM     46  N   UNL A   1      44.099  29.512  28.223  1.00  0.00    -0.248 NA
ATOM     47  C   UNL A   1      42.453  30.997  28.954  1.00  0.00     0.031 C 
ATOM     48  C   UNL A   1      41.063  26.218  28.208  1.00  0.00     0.029 A 
ATOM     49  N   UNL A   1      43.199  26.732  27.796  1.00  0.00    -0.354 N 
ATOM     50  C   UNL A   1      44.645  30.787  28.334  1.00  0.00     0.074 A 
ATOM     51  C   UNL A   1      43.572  31.672  28.734  1.00  0.00     0.031 C 
ATOM     52  C   UNL A   1      41.676  25.093  27.807  1.00  0.00     0.029 A 
ATOM     53  C   UNL A   1      43.074  25.391  27.514  1.00  0.00     0.049 A 
ATOM     54  H   UNL A   1      44.042  27.228  27.692  1.00  0.00     0.167 HD
ATOM     55  C   UNL A   1      45.926  31.180  28.139  1.00  0.00     0.031 A 
ATOM     56  C   UNL A   1      43.986  24.504  27.070  1.00  0.00     0.031 A 
ATOM     57  C   UNL A   1      46.982  30.289  27.740  1.00  0.00     0.049 A 
ATOM     58  C   UNL A   1      45.398  24.968  26.845  1.00  0.00     0.074 A 
ATOM     59  C   UNL A   1      48.325  30.572  27.556  1.00  0.00     0.029 A 
ATOM     60  N   UNL A   1      46.816  28.940  27.456  1.00  0.00    -0.354 N 
ATOM     61  N   UNL A   1      45.911  26.164  27.023  1.00  0.00    -0.248 NA
ATOM     62  C   UNL A   1      46.360  23.965  26.372  1.00  0.00     0.031 C 
ATOM     63  C   UNL A   1      48.958  29.409  27.106  1.00  0.00     0.029 A 
ATOM     64  C   UNL A   1      48.024  28.384  27.073  1.00  0.00     0.049 A 
ATOM     65  H   UNL A   1      45.963  28.452  27.518  1.00  0.00     0.167 HD
ATOM     66  C   UNL A   1      47.261  26.048  26.709  1.00  0.00     0.074 A 
ATOM     67  C   UNL A   1      47.487  24.663  26.349  1.00  0.00     0.031 C 
ATOM     68  C   UNL A   1      48.226  27.002  26.716  1.00  0.00     0.031 A 
BRANCH  55  69
ATOM     69  C   UNL A   1      46.248  32.637  28.347  1.00  0.00    -0.014 A 
ATOM     70  C   UNL A   1      46.208  33.551  27.278  1.00  0.00     0.010 A 
ATOM     71  C   UNL A   1      46.563  33.109  29.635  1.00  0.00     0.010 A 
ATOM     72  C   UNL A   1      46.521  34.899  27.484  1.00  0.00     0.020 A 
ATOM     73  C   UNL A   1      46.846  34.461  29.850  1.00  0.00     0.020 A 
ATOM     74  C   UNL A   1      46.840  35.345  28.769  1.00  0.00     0.054 A 
BRANCH  74  75
ATOM     75  S   UNL A   1      47.219  37.102  29.009  1.00  0.00     0.124 S 
ATOM     76  O   UNL A   1      48.513  37.042  29.685  1.00  0.00    -0.237 OA
ATOM     77  O   UNL A   1      47.248  37.613  27.641  1.00  0.00    -0.237 OA
ATOM     78  O   UNL A   1      46.112  37.589  29.829  1.00  0.00    -0.744 OA
ENDBRANCH  74  75
ENDBRANCH  55  69
BRANCH  56  79
ATOM     79  C   UNL A   1      43.591  23.088  26.826  1.00  0.00    -0.014 A 
ATOM     80  C   UNL A   1      43.846  22.474  25.587  1.00  0.00     0.010 A 
ATOM     81  C   UNL A   1      42.967  22.339  27.841  1.00  0.00     0.010 A 
ATOM     82  C   UNL A   1      43.468  21.147  25.360  1.00  0.00     0.020 A 
ATOM     83  C   UNL A   1      42.613  21.003  27.629  1.00  0.00     0.020 A 
ATOM     84  C   UNL A   1      42.855  20.419  26.384  1.00  0.00     0.054 A 
BRANCH  84  85
ATOM     85  S   UNL A   1      42.415  18.684  26.082  1.00  0.00     0.124 S 
ATOM     86  O   UNL A   1      43.345  18.316  25.020  1.00  0.00    -0.237 OA
ATOM     87  O   UNL A   1      42.661  18.066  27.383  1.00  0.00    -0.237 OA
ATOM     88  O   UNL A   1      41.009  18.751  25.689  1.00  0.00    -0.744 OA
ENDBRANCH  84  85
ENDBRANCH  56  79
BRANCH  68  89
ATOM     89  C   UNL A   1      49.622  26.572  26.355  1.00  0.00    -0.014 A 
ATOM     90  C   UNL A   1      50.129  26.754  25.055  1.00  0.00     0.010 A 
ATOM     91  C   UNL A   1      50.460  26.032  27.348  1.00  0.00     0.010 A 
ATOM     92  C   UNL A   1      51.438  26.372  24.749  1.00  0.00     0.020 A 
ATOM     93  C   UNL A   1      51.778  25.679  27.053  1.00  0.00     0.020 A 
ATOM     94  C   UNL A   1      52.254  25.837  25.751  1.00  0.00     0.054 A 
BRANCH  94  95
ATOM     95  S   UNL A   1      53.964  25.393  25.338  1.00  0.00     0.124 S 
ATOM     96  O   UNL A   1      53.902  23.934  25.323  1.00  0.00    -0.237 OA
ATOM     97  O   UNL A   1      54.153  26.028  24.036  1.00  0.00    -0.237 OA
ATOM     98  O   UNL A   1      54.746  25.972  26.427  1.00  0.00    -0.744 OA
ENDBRANCH  94  95
ENDBRANCH  68  89
ENDBRANCH  42  43
ENDBRANCH  34  37
ENDBRANCH  32  33
ENDBRANCH  31  32
ENDBRANCH   1  31
TORSDOF 18
ENDMDL
MODEL 3
REMARK VINA RESULT:     -12.1      5.813      8.100
REMARK SMILES CCOC(=O)c1c(NC(=O)[C@@H]2[C@@H]3CC[C@@H](C3)[C@@H]2C(=O)NCCCNC(=O)c2ccc(-c3c4nc(c(-c5ccc(S(=O)(=O)[O-])cc5)c5ccc([nH]5)c(-c5ccc(S(=O)(=O)[O-])cc5)c5nc(c(-c6ccc(S(=O)(=O)[O-])cc6)c6ccc3[nH]6)C=C5)C=C4)cc2)sc2c1CCCC2
REMARK SMILES IDX 21 1 20 2 18 3 19 4 17 6 11 7 12 8 13 9 16 10 15 11 14 12
REMARK SMILES IDX 9 13 8 14 10 16 7 17 6 18 89 19 87 20 88 21 90 22 93 23
REMARK SMILES IDX 91 24 92 25 4 26 5 27 3 28 2 29 1 30 22 31 23 32 24 33 25 34
REMARK SMILES IDX 26 36 27 37 28 38 86 39 29 40 85 41 30 42 31 43 32 44 79 45
REMARK SMILES IDX 33 46 84 47 78 48 80 49 34 50 83 51 77 52 76 53 35 55 65 56
REMARK SMILES IDX 46 57 64 58 47 59 50 60 63 61 81 62 48 63 49 64 62 66 82 67
REMARK SMILES IDX 51 68 36 69 37 70 45 71 38 72 44 73 39 74 40 75 41 76 42 77
REMARK SMILES IDX 43 78 66 79 67 80 75 81 68 82 74 83 69 84 70 85 71 86 72 87
REMARK SMILES IDX 73 88 52 89 53 90 61 91 54 92 60 93 55 94 56 95 57 96 58 97
REMARK SMILES IDX 59 98
REMARK H PARENT 20 5 8 15 24 35 80 54 50 65
REMARK Flexibility Score: inf
ROOT
ATOM      1  C   UNL A   1      38.411  21.858  26.138  1.00  0.00     0.117 C 
ENDROOT
BRANCH   1   2
ATOM      2  N   UNL A   1      37.465  22.568  24.357  1.00  0.00    -0.356 N 
ATOM      3  C   UNL A   1      36.230  22.644  23.509  1.00  0.00     0.224 C 
ATOM      4  O   UNL A   1      36.418  23.027  22.345  1.00  0.00    -0.275 OA
ATOM      5  H   UNL A   1      38.155  23.077  23.872  1.00  0.00     0.163 HD
BRANCH   3   6
ATOM      6  C   UNL A   1      34.705  22.351  23.994  1.00  0.00     0.094 C 
ATOM      7  C   UNL A   1      33.846  23.167  25.025  1.00  0.00     0.094 C 
ATOM      8  C   UNL A   1      32.813  22.158  25.575  1.00  0.00     0.002 C 
ATOM      9  C   UNL A   1      33.406  21.167  26.570  1.00  0.00     0.005 C 
ATOM     10  C   UNL A   1      32.655  21.232  24.375  1.00  0.00     0.009 C 
ATOM     11  C   UNL A   1      34.177  20.919  24.288  1.00  0.00     0.002 C 
ATOM     12  C   UNL A   1      34.453  20.435  25.723  1.00  0.00     0.005 C 
BRANCH   7  13
ATOM     13  C   UNL A   1      34.624  23.909  26.062  1.00  0.00     0.229 C 
ATOM     14  N   UNL A   1      34.330  25.221  26.155  1.00  0.00    -0.317 N 
ATOM     15  H   UNL A   1      34.840  25.769  26.794  1.00  0.00     0.170 HD
ATOM     16  O   UNL A   1      35.467  23.421  26.804  1.00  0.00    -0.274 OA
BRANCH  14  17
ATOM     17  C   UNL A   1      33.356  25.830  25.408  1.00  0.00     0.110 A 
ATOM     18  C   UNL A   1      32.352  25.714  23.888  1.00  0.00     0.098 A 
ATOM     19  C   UNL A   1      31.642  27.442  23.397  1.00  0.00    -0.017 A 
ATOM     20  S   UNL A   1      33.408  28.055  26.170  1.00  0.00    -0.122 S 
ATOM     21  C   UNL A   1      32.023  28.705  24.456  1.00  0.00     0.011 A 
ATOM     22  C   UNL A   1      30.559  27.676  22.382  1.00  0.00     0.038 C 
ATOM     23  C   UNL A   1      31.193  29.949  24.610  1.00  0.00     0.047 C 
ATOM     24  C   UNL A   1      30.093  29.152  22.395  1.00  0.00     0.005 C 
ATOM     25  C   UNL A   1      29.876  29.742  23.809  1.00  0.00     0.006 C 
BRANCH  18  26
ATOM     26  C   UNL A   1      32.144  24.682  22.850  1.00  0.00     0.341 C 
ATOM     27  O   UNL A   1      31.221  23.886  22.804  1.00  0.00    -0.246 OA
BRANCH  26  28
ATOM     28  O   UNL A   1      33.219  24.708  21.988  1.00  0.00    -0.462 OA
BRANCH  28  29
ATOM     29  C   UNL A   1      33.103  24.438  20.575  1.00  0.00     0.230 C 
ATOM     30  C   UNL A   1      32.421  25.595  19.837  1.00  0.00     0.049 C 
ENDBRANCH  28  29
ENDBRANCH  26  28
ENDBRANCH  18  26
ENDBRANCH  14  17
ENDBRANCH   7  13
ENDBRANCH   3   6
ENDBRANCH   1   2
BRANCH   1  31
ATOM     31  C   UNL A   1      40.053  22.123  26.766  1.00  0.00     0.042 C 
BRANCH  31  32
ATOM     32  C   UNL A   1      40.538  23.533  27.157  1.00  0.00     0.118 C 
BRANCH  32  33
ATOM     33  N   UNL A   1      41.160  24.248  26.053  1.00  0.00    -0.352 N 
ATOM     34  C   UNL A   1      41.484  25.579  25.986  1.00  0.00     0.251 C 
ATOM     35  H   UNL A   1      41.375  23.710  25.257  1.00  0.00     0.163 HD
ATOM     36  O   UNL A   1      41.914  26.066  24.947  1.00  0.00    -0.269 OA
BRANCH  34  37
ATOM     37  C   UNL A   1      41.290  26.415  27.181  1.00  0.00     0.039 A 
ATOM     38  C   UNL A   1      42.174  27.468  27.418  1.00  0.00     0.014 A 
ATOM     39  C   UNL A   1      40.232  26.152  28.057  1.00  0.00     0.014 A 
ATOM     40  C   UNL A   1      41.979  28.283  28.532  1.00  0.00     0.010 A 
ATOM     41  C   UNL A   1      40.017  26.994  29.144  1.00  0.00     0.010 A 
ATOM     42  C   UNL A   1      40.893  28.062  29.396  1.00  0.00    -0.014 A 
BRANCH  42  43
ATOM     43  C   UNL A   1      40.684  28.939  30.575  1.00  0.00     0.031 A 
ATOM     44  C   UNL A   1      41.540  28.772  31.799  1.00  0.00     0.074 A 
ATOM     45  C   UNL A   1      39.715  29.874  30.538  1.00  0.00     0.049 A 
ATOM     46  N   UNL A   1      41.525  29.455  32.914  1.00  0.00    -0.248 NA
ATOM     47  C   UNL A   1      42.534  27.685  31.774  1.00  0.00     0.031 C 
ATOM     48  C   UNL A   1      38.804  30.103  29.414  1.00  0.00     0.029 A 
ATOM     49  N   UNL A   1      39.337  30.810  31.467  1.00  0.00    -0.354 N 
ATOM     50  C   UNL A   1      42.497  28.879  33.725  1.00  0.00     0.074 A 
ATOM     51  C   UNL A   1      43.047  27.758  32.994  1.00  0.00     0.031 C 
ATOM     52  C   UNL A   1      37.994  31.133  29.706  1.00  0.00     0.029 A 
ATOM     53  C   UNL A   1      38.302  31.616  31.048  1.00  0.00     0.049 A 
ATOM     54  H   UNL A   1      39.765  30.897  32.349  1.00  0.00     0.167 HD
ATOM     55  C   UNL A   1      42.907  29.260  34.958  1.00  0.00     0.031 A 
ATOM     56  C   UNL A   1      37.675  32.629  31.677  1.00  0.00     0.031 A 
ATOM     57  C   UNL A   1      42.349  30.376  35.675  1.00  0.00     0.049 A 
ATOM     58  C   UNL A   1      38.137  33.024  33.053  1.00  0.00     0.074 A 
ATOM     59  C   UNL A   1      42.718  30.878  36.911  1.00  0.00     0.029 A 
ATOM     60  N   UNL A   1      41.298  31.162  35.222  1.00  0.00    -0.354 N 
ATOM     61  N   UNL A   1      39.106  32.511  33.776  1.00  0.00    -0.248 NA
ATOM     62  C   UNL A   1      37.433  34.141  33.695  1.00  0.00     0.031 C 
ATOM     63  C   UNL A   1      41.854  31.930  37.230  1.00  0.00     0.029 A 
ATOM     64  C   UNL A   1      40.988  32.127  36.165  1.00  0.00     0.049 A 
ATOM     65  H   UNL A   1      40.841  31.049  34.358  1.00  0.00     0.167 HD
ATOM     66  C   UNL A   1      39.144  33.261  34.946  1.00  0.00     0.074 A 
ATOM     67  C   UNL A   1      38.114  34.273  34.826  1.00  0.00     0.031 C 
ATOM     68  C   UNL A   1      39.956  33.124  36.025  1.00  0.00     0.031 A 
BRANCH  55  69
ATOM     69  C   UNL A   1      44.003  28.457  35.610  1.00  0.00    -0.014 A 
ATOM     70  C   UNL A   1      45.359  28.746  35.369  1.00  0.00     0.010 A 
ATOM     71  C   UNL A   1      43.675  27.419  36.502  1.00  0.00     0.010 A 
ATOM     72  C   UNL A   1      46.365  27.985  35.973  1.00  0.00     0.020 A 
ATOM     73  C   UNL A   1      44.678  26.676  37.131  1.00  0.00     0.020 A 
ATOM     74  C   UNL A   1      46.017  26.952  36.849  1.00  0.00     0.054 A 
BRANCH  74  75
ATOM     75  S   UNL A   1      47.345  25.997  37.634  1.00  0.00     0.124 S 
ATOM     76  O   UNL A   1      46.707  24.696  37.824  1.00  0.00    -0.237 OA
ATOM     77  O   UNL A   1      48.403  26.034  36.628  1.00  0.00    -0.237 OA
ATOM     78  O   UNL A   1      47.628  26.736  38.861  1.00  0.00    -0.744 OA
ENDBRANCH  74  75
ENDBRANCH  55  69
BRANCH  56  79
ATOM     79  C   UNL A   1      36.557  33.347  31.003  1.00  0.00    -0.014 A 
ATOM     80  C   UNL A   1      36.775  34.053  29.807  1.00  0.00     0.010 A 
ATOM     81  C   UNL A   1      35.261  33.317  31.550  1.00  0.00     0.010 A 
ATOM     82  C   UNL A   1      35.723  34.732  29.182  1.00  0.00     0.020 A 
ATOM     83  C   UNL A   1      34.201  33.968  30.913  1.00  0.00     0.020 A 
ATOM     84  C   UNL A   1      34.442  34.683  29.738  1.00  0.00     0.054 A 
BRANCH  84  85
ATOM     85  S   UNL A   1      33.085  35.532  28.883  1.00  0.00     0.124 S 
ATOM     86  O   UNL A   1      32.320  36.082  29.997  1.00  0.00    -0.237 OA
ATOM     87  O   UNL A   1      33.794  36.507  28.058  1.00  0.00    -0.237 OA
ATOM     88  O   UNL A   1      32.426  34.461  28.139  1.00  0.00    -0.744 OA
ENDBRANCH  84  85
ENDBRANCH  56  79
BRANCH  68  89
ATOM     89  C   UNL A   1      39.785  34.113  37.146  1.00  0.00    -0.014 A 
ATOM     90  C   UNL A   1      38.965  33.828  38.253  1.00  0.00     0.010 A 
ATOM     91  C   UNL A   1      40.505  35.322  37.119  1.00  0.00     0.010 A 
ATOM     92  C   UNL A   1      38.842  34.750  39.296  1.00  0.00     0.020 A 
ATOM     93  C   UNL A   1      40.409  36.231  38.175  1.00  0.00     0.020 A 
ATOM     94  C   UNL A   1      39.566  35.946  39.250  1.00  0.00     0.054 A 
BRANCH  94  95
ATOM     95  S   UNL A   1      39.424  37.104  40.638  1.00  0.00     0.124 S 
ATOM     96  O   UNL A   1      40.824  37.365  40.959  1.00  0.00    -0.237 OA
ATOM     97  O   UNL A   1      38.696  38.224  40.046  1.00  0.00    -0.237 OA
ATOM     98  O   UNL A   1      38.684  36.350  41.646  1.00  0.00    -0.744 OA
ENDBRANCH  94  95
ENDBRANCH  68  89
ENDBRANCH  42  43
ENDBRANCH  34  37
ENDBRANCH  32  33
ENDBRANCH  31  32
ENDBRANCH   1  31
TORSDOF 18
ENDMDL
