MODEL 1
REMARK VINA RESULT:     -13.9      0.000      0.000
REMARK SMILES O=C(Cn1cc(/C=C2\SC(N3CCOCC3)=[NH+]C2=O)c2ccccc21)NCCCNC(=O)c1ccc(-c2c3nc(c(-c4ccc(S(=O)(=O)[O-])cc4)c4ccc([nH]4)c(-c4ccc(S(=O)(=O)[O-])cc4)c4nc(c(-c5ccc(S(=O)(=O)[O-])cc5)c5ccc2[nH]5)C=C4)C=C3)cc1
REMARK SMILES IDX 28 1 27 2 26 3 1 4 2 5 3 7 4 8 5 9 25 10 6 11 20 12 24 13
REMARK SMILES IDX 21 14 23 15 22 16 7 17 8 18 9 19 18 20 10 21 17 22 19 23
REMARK SMILES IDX 11 24 12 26 16 27 13 28 15 29 14 30 29 31 30 32 31 33 32 35
REMARK SMILES IDX 33 36 34 37 92 38 35 39 91 40 36 41 37 42 38 43 85 44 39 45
REMARK SMILES IDX 90 46 84 47 86 48 40 49 89 50 83 51 82 52 41 54 71 55 52 56
REMARK SMILES IDX 70 57 53 58 56 59 69 60 87 61 54 62 55 63 68 65 88 66 57 67
REMARK SMILES IDX 42 68 43 69 51 70 44 71 50 72 45 73 46 74 47 75 48 76 49 77
REMARK SMILES IDX 72 78 73 79 81 80 74 81 80 82 75 83 76 84 77 85 78 86 79 87
REMARK SMILES IDX 58 88 59 89 67 90 60 91 66 92 61 93 62 94 63 95 64 96 65 97
REMARK H PARENT 26 6 17 25 30 34 86 53 56 64
REMARK Flexibility Score: inf
ROOT
ATOM      1  C   UNL A   1      40.250  23.086  27.227  1.00  0.00     0.042 C 
ENDROOT
BRANCH   1   2
ATOM      2  C   UNL A   1      38.950  23.244  26.432  1.00  0.00     0.117 C 
BRANCH   2   3
ATOM      3  N   UNL A   1      38.289  21.980  26.147  1.00  0.00    -0.354 N 
ATOM      4  O   UNL A   1      37.317  22.614  24.159  1.00  0.00    -0.273 OA
ATOM      5  C   UNL A   1      37.555  21.749  24.999  1.00  0.00     0.239 C 
ATOM      6  H   UNL A   1      38.368  21.252  26.806  1.00  0.00     0.163 HD
BRANCH   5   7
ATOM      7  C   UNL A   1      36.965  20.356  24.879  1.00  0.00     0.222 C 
BRANCH   7   8
ATOM      8  N   UNL A   1      35.528  20.324  25.111  1.00  0.00    -0.337 N 
ATOM      9  C   UNL A   1      34.815  21.383  25.610  1.00  0.00     0.095 A 
ATOM     10  C   UNL A   1      34.673  19.282  24.805  1.00  0.00     0.049 A 
ATOM     11  C   UNL A   1      33.494  21.006  25.690  1.00  0.00     0.001 A 
ATOM     12  C   UNL A   1      33.385  19.682  25.187  1.00  0.00     0.007 A 
ATOM     13  C   UNL A   1      34.915  18.023  24.229  1.00  0.00     0.027 A 
ATOM     14  C   UNL A   1      32.307  18.791  24.994  1.00  0.00     0.011 A 
ATOM     15  C   UNL A   1      33.827  17.166  24.034  1.00  0.00     0.002 A 
ATOM     16  C   UNL A   1      32.541  17.540  24.414  1.00  0.00     0.001 A 
BRANCH  11  17
ATOM     17  C   UNL A   1      32.460  21.852  26.189  1.00  0.00     0.034 C 
ATOM     18  C   UNL A   1      32.167  23.075  25.727  1.00  0.00     0.110 C 
ATOM     19  S   UNL A   1      32.852  23.867  24.366  1.00  0.00     0.006 SA
ATOM     20  C   UNL A   1      31.180  23.981  26.370  1.00  0.00     0.346 C 
ATOM     21  C   UNL A   1      31.991  25.330  24.797  1.00  0.00     0.319 C 
ATOM     22  N   UNL A   1      31.221  25.248  25.834  1.00  0.00    -0.200 N 
ATOM     23  O   UNL A   1      30.429  23.625  27.277  1.00  0.00    -0.240 OA
ATOM     24  N   UNL A   1      32.237  26.454  24.065  1.00  0.00    -0.251 N 
ATOM     25  H   UNL A   1      30.719  26.011  26.201  1.00  0.00     0.316 HD
ATOM     26  C   UNL A   1      32.235  26.496  22.602  1.00  0.00     0.265 C 
ATOM     27  C   UNL A   1      32.470  27.753  24.697  1.00  0.00     0.265 C 
ATOM     28  C   UNL A   1      33.534  27.139  22.104  1.00  0.00     0.206 C 
ATOM     29  C   UNL A   1      33.769  28.349  24.124  1.00  0.00     0.206 C 
ATOM     30  O   UNL A   1      33.723  28.440  22.687  1.00  0.00    -0.373 OA
ENDBRANCH  11  17
ENDBRANCH   7   8
ENDBRANCH   5   7
ENDBRANCH   2   3
ENDBRANCH   1   2
BRANCH   1  31
ATOM     31  C   UNL A   1      41.210  22.014  26.707  1.00  0.00     0.118 C 
BRANCH  31  32
ATOM     32  N   UNL A   1      42.098  22.456  25.651  1.00  0.00    -0.352 N 
ATOM     33  C   UNL A   1      42.896  23.548  25.447  1.00  0.00     0.251 C 
ATOM     34  H   UNL A   1      42.137  21.819  24.901  1.00  0.00     0.163 HD
ATOM     35  O   UNL A   1      43.746  23.415  24.561  1.00  0.00    -0.269 OA
BRANCH  33  36
ATOM     36  C   UNL A   1      42.774  24.868  26.127  1.00  0.00     0.039 A 
ATOM     37  C   UNL A   1      43.235  25.180  27.404  1.00  0.00     0.014 A 
ATOM     38  C   UNL A   1      42.015  25.837  25.434  1.00  0.00     0.014 A 
ATOM     39  C   UNL A   1      42.856  26.384  28.008  1.00  0.00     0.010 A 
ATOM     40  C   UNL A   1      41.634  27.035  26.033  1.00  0.00     0.010 A 
ATOM     41  C   UNL A   1      42.007  27.284  27.346  1.00  0.00    -0.014 A 
BRANCH  41  42
ATOM     42  C   UNL A   1      41.585  28.498  28.046  1.00  0.00     0.031 A 
ATOM     43  C   UNL A   1      42.567  29.615  28.023  1.00  0.00     0.074 A 
ATOM     44  C   UNL A   1      40.394  28.671  28.660  1.00  0.00     0.049 A 
ATOM     45  N   UNL A   1      43.277  30.046  29.012  1.00  0.00    -0.248 NA
ATOM     46  C   UNL A   1      42.882  30.251  26.738  1.00  0.00     0.031 C 
ATOM     47  C   UNL A   1      39.201  27.822  28.625  1.00  0.00     0.029 A 
ATOM     48  N   UNL A   1      39.990  29.726  29.426  1.00  0.00    -0.354 N 
ATOM     49  C   UNL A   1      44.021  31.118  28.529  1.00  0.00     0.074 A 
ATOM     50  C   UNL A   1      43.824  31.126  27.099  1.00  0.00     0.031 C 
ATOM     51  C   UNL A   1      38.150  28.497  29.155  1.00  0.00     0.029 A 
ATOM     52  C   UNL A   1      38.630  29.750  29.713  1.00  0.00     0.049 A 
ATOM     53  H   UNL A   1      40.612  30.415  29.750  1.00  0.00     0.167 HD
ATOM     54  C   UNL A   1      44.628  32.005  29.365  1.00  0.00     0.031 A 
ATOM     55  C   UNL A   1      37.947  30.728  30.364  1.00  0.00     0.031 A 
ATOM     56  C   UNL A   1      44.681  31.513  30.717  1.00  0.00     0.049 A 
ATOM     57  C   UNL A   1      38.931  31.455  31.203  1.00  0.00     0.074 A 
ATOM     58  C   UNL A   1      45.286  30.434  31.328  1.00  0.00     0.029 A 
ATOM     59  N   UNL A   1      43.723  31.961  31.595  1.00  0.00    -0.354 N 
ATOM     60  N   UNL A   1      39.527  30.922  32.233  1.00  0.00    -0.248 NA
ATOM     61  C   UNL A   1      39.581  32.625  30.636  1.00  0.00     0.031 C 
ATOM     62  C   UNL A   1      44.336  29.985  32.290  1.00  0.00     0.029 A 
ATOM     63  C   UNL A   1      43.248  30.861  32.263  1.00  0.00     0.049 A 
ATOM     64  H   UNL A   1      43.432  32.892  31.720  1.00  0.00     0.167 HD
ATOM     65  C   UNL A   1      40.826  31.400  32.171  1.00  0.00     0.074 A 
ATOM     66  C   UNL A   1      40.778  32.508  31.217  1.00  0.00     0.031 C 
ATOM     67  C   UNL A   1      41.873  30.694  32.690  1.00  0.00     0.031 A 
BRANCH  54  68
ATOM     68  C   UNL A   1      44.926  33.443  29.032  1.00  0.00    -0.014 A 
ATOM     69  C   UNL A   1      46.162  33.871  28.512  1.00  0.00     0.010 A 
ATOM     70  C   UNL A   1      43.864  34.373  29.006  1.00  0.00     0.010 A 
ATOM     71  C   UNL A   1      46.340  35.158  27.997  1.00  0.00     0.020 A 
ATOM     72  C   UNL A   1      44.020  35.651  28.454  1.00  0.00     0.020 A 
ATOM     73  C   UNL A   1      45.262  36.036  27.957  1.00  0.00     0.054 A 
BRANCH  73  74
ATOM     74  S   UNL A   1      45.505  37.655  27.187  1.00  0.00     0.124 S 
ATOM     75  O   UNL A   1      46.426  37.335  26.099  1.00  0.00    -0.237 OA
ATOM     76  O   UNL A   1      44.150  38.016  26.782  1.00  0.00    -0.237 OA
ATOM     77  O   UNL A   1      46.069  38.467  28.263  1.00  0.00    -0.744 OA
ENDBRANCH  73  74
ENDBRANCH  54  68
BRANCH  55  78
ATOM     78  C   UNL A   1      36.670  31.368  29.942  1.00  0.00    -0.014 A 
ATOM     79  C   UNL A   1      36.556  31.911  28.646  1.00  0.00     0.010 A 
ATOM     80  C   UNL A   1      35.703  31.743  30.898  1.00  0.00     0.010 A 
ATOM     81  C   UNL A   1      35.577  32.865  28.343  1.00  0.00     0.020 A 
ATOM     82  C   UNL A   1      34.717  32.701  30.598  1.00  0.00     0.020 A 
ATOM     83  C   UNL A   1      34.689  33.286  29.332  1.00  0.00     0.054 A 
BRANCH  83  84
ATOM     84  S   UNL A   1      33.575  34.673  28.956  1.00  0.00     0.124 S 
ATOM     85  O   UNL A   1      32.627  34.059  28.030  1.00  0.00    -0.237 OA
ATOM     86  O   UNL A   1      33.037  35.010  30.271  1.00  0.00    -0.237 OA
ATOM     87  O   UNL A   1      34.457  35.679  28.372  1.00  0.00    -0.744 OA
ENDBRANCH  83  84
ENDBRANCH  55  78
BRANCH  67  88
ATOM     88  C   UNL A   1      41.598  29.488  33.567  1.00  0.00    -0.014 A 
ATOM     89  C   UNL A   1      41.602  29.695  34.958  1.00  0.00     0.010 A 
ATOM     90  C   UNL A   1      41.554  28.163  33.088  1.00  0.00     0.010 A 
ATOM     91  C   UNL A   1      41.612  28.620  35.848  1.00  0.00     0.020 A 
ATOM     92  C   UNL A   1      41.534  27.076  33.979  1.00  0.00     0.020 A 
ATOM     93  C   UNL A   1      41.592  27.316  35.355  1.00  0.00     0.054 A 
BRANCH  93  94
ATOM     94  S   UNL A   1      41.679  25.953  36.550  1.00  0.00     0.124 S 
ATOM     95  O   UNL A   1      40.597  26.286  37.475  1.00  0.00    -0.237 OA
ATOM     96  O   UNL A   1      41.444  24.777  35.714  1.00  0.00    -0.237 OA
ATOM     97  O   UNL A   1      43.025  26.055  37.108  1.00  0.00    -0.744 OA
ENDBRANCH  93  94
ENDBRANCH  67  88
ENDBRANCH  41  42
ENDBRANCH  33  36
ENDBRANCH  31  32
ENDBRANCH   1  31
TORSDOF 15
ENDMDL
MODEL 2
REMARK VINA RESULT:     -13.9      1.447      2.146
REMARK SMILES O=C(Cn1cc(/C=C2\SC(N3CCOCC3)=[NH+]C2=O)c2ccccc21)NCCCNC(=O)c1ccc(-c2c3nc(c(-c4ccc(S(=O)(=O)[O-])cc4)c4ccc([nH]4)c(-c4ccc(S(=O)(=O)[O-])cc4)c4nc(c(-c5ccc(S(=O)(=O)[O-])cc5)c5ccc2[nH]5)C=C4)C=C3)cc1
REMARK SMILES IDX 28 1 27 2 26 3 1 4 2 5 3 7 4 8 5 9 25 10 6 11 20 12 24 13
REMARK SMILES IDX 21 14 23 15 22 16 7 17 8 18 9 19 18 20 10 21 17 22 19 23
REMARK SMILES IDX 11 24 12 26 16 27 13 28 15 29 14 30 29 31 30 32 31 33 32 35
REMARK SMILES IDX 33 36 34 37 92 38 35 39 91 40 36 41 37 42 38 43 85 44 39 45
REMARK SMILES IDX 90 46 84 47 86 48 40 49 89 50 83 51 82 52 41 54 71 55 52 56
REMARK SMILES IDX 70 57 53 58 56 59 69 60 87 61 54 62 55 63 68 65 88 66 57 67
REMARK SMILES IDX 42 68 43 69 51 70 44 71 50 72 45 73 46 74 47 75 48 76 49 77
REMARK SMILES IDX 72 78 73 79 81 80 74 81 80 82 75 83 76 84 77 85 78 86 79 87
REMARK SMILES IDX 58 88 59 89 67 90 60 91 66 92 61 93 62 94 63 95 64 96 65 97
REMARK H PARENT 26 6 17 25 30 34 86 53 56 64
REMARK Flexibility Score: inf
ROOT
ATOM      1  C   UNL A   1      40.811  21.488  27.415  1.00  0.00     0.042 C 
ENDROOT
BRANCH   1   2
ATOM      2  C   UNL A   1      39.987  21.673  26.137  1.00  0.00     0.117 C 
BRANCH   2   3
ATOM      3  N   UNL A   1      38.634  22.145  26.385  1.00  0.00    -0.354 N 
ATOM      4  O   UNL A   1      37.575  20.770  24.873  1.00  0.00    -0.273 OA
ATOM      5  C   UNL A   1      37.519  21.618  25.759  1.00  0.00     0.239 C 
ATOM      6  H   UNL A   1      38.505  22.878  27.030  1.00  0.00     0.163 HD
BRANCH   5   7
ATOM      7  C   UNL A   1      36.195  22.233  26.174  1.00  0.00     0.222 C 
BRANCH   7   8
ATOM      8  N   UNL A   1      35.205  22.228  25.106  1.00  0.00    -0.337 N 
ATOM      9  C   UNL A   1      35.151  23.176  24.115  1.00  0.00     0.095 A 
ATOM     10  C   UNL A   1      34.244  21.260  24.887  1.00  0.00     0.049 A 
ATOM     11  C   UNL A   1      34.105  22.857  23.280  1.00  0.00     0.001 A 
ATOM     12  C   UNL A   1      33.519  21.651  23.751  1.00  0.00     0.007 A 
ATOM     13  C   UNL A   1      33.942  20.078  25.584  1.00  0.00     0.027 A 
ATOM     14  C   UNL A   1      32.456  20.836  23.306  1.00  0.00     0.011 A 
ATOM     15  C   UNL A   1      32.895  19.282  25.111  1.00  0.00     0.002 A 
ATOM     16  C   UNL A   1      32.158  19.654  23.991  1.00  0.00     0.001 A 
BRANCH  11  17
ATOM     17  C   UNL A   1      33.734  23.637  22.145  1.00  0.00     0.034 C 
ATOM     18  C   UNL A   1      33.412  24.937  22.170  1.00  0.00     0.110 C 
ATOM     19  S   UNL A   1      33.488  26.006  23.512  1.00  0.00     0.006 SA
ATOM     20  C   UNL A   1      32.889  25.676  20.991  1.00  0.00     0.346 C 
ATOM     21  C   UNL A   1      32.701  27.245  22.557  1.00  0.00     0.319 C 
ATOM     22  N   UNL A   1      32.434  26.930  21.331  1.00  0.00    -0.200 N 
ATOM     23  O   UNL A   1      32.866  25.204  19.856  1.00  0.00    -0.240 OA
ATOM     24  N   UNL A   1      32.368  28.413  23.179  1.00  0.00    -0.251 N 
ATOM     25  H   UNL A   1      31.957  27.524  20.708  1.00  0.00     0.316 HD
ATOM     26  C   UNL A   1      33.284  29.184  24.020  1.00  0.00     0.265 C 
ATOM     27  C   UNL A   1      31.056  29.035  23.003  1.00  0.00     0.265 C 
ATOM     28  C   UNL A   1      32.618  29.483  25.367  1.00  0.00     0.206 C 
ATOM     29  C   UNL A   1      30.466  29.335  24.393  1.00  0.00     0.206 C 
ATOM     30  O   UNL A   1      31.356  30.147  25.183  1.00  0.00    -0.373 OA
ENDBRANCH  11  17
ENDBRANCH   7   8
ENDBRANCH   5   7
ENDBRANCH   2   3
ENDBRANCH   1   2
BRANCH   1  31
ATOM     31  C   UNL A   1      42.312  21.281  27.204  1.00  0.00     0.118 C 
BRANCH  31  32
ATOM     32  N   UNL A   1      42.865  21.980  26.061  1.00  0.00    -0.352 N 
ATOM     33  C   UNL A   1      43.094  23.289  25.742  1.00  0.00     0.251 C 
ATOM     34  H   UNL A   1      43.143  21.365  25.344  1.00  0.00     0.163 HD
ATOM     35  O   UNL A   1      43.872  23.469  24.800  1.00  0.00    -0.269 OA
BRANCH  33  36
ATOM     36  C   UNL A   1      42.438  24.476  26.362  1.00  0.00     0.039 A 
ATOM     37  C   UNL A   1      41.558  25.352  25.730  1.00  0.00     0.014 A 
ATOM     38  C   UNL A   1      42.856  24.779  27.676  1.00  0.00     0.014 A 
ATOM     39  C   UNL A   1      41.195  26.548  26.357  1.00  0.00     0.010 A 
ATOM     40  C   UNL A   1      42.497  25.970  28.303  1.00  0.00     0.010 A 
ATOM     41  C   UNL A   1      41.711  26.885  27.618  1.00  0.00    -0.014 A 
BRANCH  41  42
ATOM     42  C   UNL A   1      41.352  28.178  28.202  1.00  0.00     0.031 A 
ATOM     43  C   UNL A   1      42.347  29.263  27.993  1.00  0.00     0.074 A 
ATOM     44  C   UNL A   1      40.205  28.444  28.864  1.00  0.00     0.049 A 
ATOM     45  N   UNL A   1      43.125  29.787  28.882  1.00  0.00    -0.248 NA
ATOM     46  C   UNL A   1      42.590  29.746  26.627  1.00  0.00     0.031 C 
ATOM     47  C   UNL A   1      39.000  27.623  28.998  1.00  0.00     0.029 A 
ATOM     48  N   UNL A   1      39.866  29.587  29.530  1.00  0.00    -0.354 N 
ATOM     49  C   UNL A   1      43.853  30.781  28.237  1.00  0.00     0.074 A 
ATOM     50  C   UNL A   1      43.566  30.634  26.830  1.00  0.00     0.031 C 
ATOM     51  C   UNL A   1      37.995  28.376  29.512  1.00  0.00     0.029 A 
ATOM     52  C   UNL A   1      38.528  29.672  29.895  1.00  0.00     0.049 A 
ATOM     53  H   UNL A   1      40.518  30.294  29.736  1.00  0.00     0.167 HD
ATOM     54  C   UNL A   1      44.525  31.742  28.929  1.00  0.00     0.031 A 
ATOM     55  C   UNL A   1      37.902  30.732  30.472  1.00  0.00     0.031 A 
ATOM     56  C   UNL A   1      44.656  31.403  30.322  1.00  0.00     0.049 A 
ATOM     57  C   UNL A   1      38.948  31.526  31.162  1.00  0.00     0.074 A 
ATOM     58  C   UNL A   1      45.282  30.385  31.013  1.00  0.00     0.029 A 
ATOM     59  N   UNL A   1      43.762  31.966  31.201  1.00  0.00    -0.354 N 
ATOM     60  N   UNL A   1      39.600  31.097  32.207  1.00  0.00    -0.248 NA
ATOM     61  C   UNL A   1      39.578  32.611  30.429  1.00  0.00     0.031 C 
ATOM     62  C   UNL A   1      44.388  30.067  32.075  1.00  0.00     0.029 A 
ATOM     63  C   UNL A   1      43.314  30.958  32.016  1.00  0.00     0.049 A 
ATOM     64  H   UNL A   1      43.494  32.912  31.238  1.00  0.00     0.167 HD
ATOM     65  C   UNL A   1      40.900  31.537  32.012  1.00  0.00     0.074 A 
ATOM     66  C   UNL A   1      40.807  32.533  30.945  1.00  0.00     0.031 C 
ATOM     67  C   UNL A   1      41.966  30.870  32.543  1.00  0.00     0.031 A 
BRANCH  54  68
ATOM     68  C   UNL A   1      44.823  33.127  28.419  1.00  0.00    -0.014 A 
ATOM     69  C   UNL A   1      43.821  34.068  28.120  1.00  0.00     0.010 A 
ATOM     70  C   UNL A   1      46.153  33.600  28.463  1.00  0.00     0.010 A 
ATOM     71  C   UNL A   1      44.119  35.411  27.870  1.00  0.00     0.020 A 
ATOM     72  C   UNL A   1      46.460  34.951  28.256  1.00  0.00     0.020 A 
ATOM     73  C   UNL A   1      45.437  35.847  27.955  1.00  0.00     0.054 A 
BRANCH  73  74
ATOM     74  S   UNL A   1      45.771  37.611  27.730  1.00  0.00     0.124 S 
ATOM     75  O   UNL A   1      46.386  37.966  29.006  1.00  0.00    -0.237 OA
ATOM     76  O   UNL A   1      46.664  37.616  26.576  1.00  0.00    -0.237 OA
ATOM     77  O   UNL A   1      44.448  38.184  27.494  1.00  0.00    -0.744 OA
ENDBRANCH  73  74
ENDBRANCH  54  68
BRANCH  55  78
ATOM     78  C   UNL A   1      36.611  31.348  30.059  1.00  0.00    -0.014 A 
ATOM     79  C   UNL A   1      36.428  31.760  28.724  1.00  0.00     0.010 A 
ATOM     80  C   UNL A   1      35.705  31.836  31.026  1.00  0.00     0.010 A 
ATOM     81  C   UNL A   1      35.445  32.696  28.381  1.00  0.00     0.020 A 
ATOM     82  C   UNL A   1      34.715  32.776  30.686  1.00  0.00     0.020 A 
ATOM     83  C   UNL A   1      34.621  33.230  29.370  1.00  0.00     0.054 A 
BRANCH  83  84
ATOM     84  S   UNL A   1      33.505  34.593  28.918  1.00  0.00     0.124 S 
ATOM     85  O   UNL A   1      34.434  35.577  28.370  1.00  0.00    -0.237 OA
ATOM     86  O   UNL A   1      32.616  33.962  27.944  1.00  0.00    -0.237 OA
ATOM     87  O   UNL A   1      32.875  34.962  30.182  1.00  0.00    -0.744 OA
ENDBRANCH  83  84
ENDBRANCH  55  78
BRANCH  67  88
ATOM     88  C   UNL A   1      41.729  29.776  33.564  1.00  0.00    -0.014 A 
ATOM     89  C   UNL A   1      42.009  30.084  34.908  1.00  0.00     0.010 A 
ATOM     90  C   UNL A   1      41.457  28.434  33.229  1.00  0.00     0.010 A 
ATOM     91  C   UNL A   1      42.067  29.085  35.881  1.00  0.00     0.020 A 
ATOM     92  C   UNL A   1      41.484  27.427  34.210  1.00  0.00     0.020 A 
ATOM     93  C   UNL A   1      41.819  27.760  35.526  1.00  0.00     0.054 A 
BRANCH  93  94
ATOM     94  S   UNL A   1      41.976  26.490  36.812  1.00  0.00     0.124 S 
ATOM     95  O   UNL A   1      43.010  27.054  37.676  1.00  0.00    -0.237 OA
ATOM     96  O   UNL A   1      40.634  26.450  37.390  1.00  0.00    -0.237 OA
ATOM     97  O   UNL A   1      42.368  25.288  36.079  1.00  0.00    -0.744 OA
ENDBRANCH  93  94
ENDBRANCH  67  88
ENDBRANCH  41  42
ENDBRANCH  33  36
ENDBRANCH  31  32
ENDBRANCH   1  31
TORSDOF 15
ENDMDL
MODEL 3
REMARK VINA RESULT:     -13.7      2.754      9.808
REMARK SMILES O=C(Cn1cc(/C=C2\SC(N3CCOCC3)=[NH+]C2=O)c2ccccc21)NCCCNC(=O)c1ccc(-c2c3nc(c(-c4ccc(S(=O)(=O)[O-])cc4)c4ccc([nH]4)c(-c4ccc(S(=O)(=O)[O-])cc4)c4nc(c(-c5ccc(S(=O)(=O)[O-])cc5)c5ccc2[nH]5)C=C4)C=C3)cc1
REMARK SMILES IDX 28 1 27 2 26 3 1 4 2 5 3 7 4 8 5 9 25 10 6 11 20 12 24 13
REMARK SMILES IDX 21 14 23 15 22 16 7 17 8 18 9 19 18 20 10 21 17 22 19 23
REMARK SMILES IDX 11 24 12 26 16 27 13 28 15 29 14 30 29 31 30 32 31 33 32 35
REMARK SMILES IDX 33 36 34 37 92 38 35 39 91 40 36 41 37 42 38 43 85 44 39 45
REMARK SMILES IDX 90 46 84 47 86 48 40 49 89 50 83 51 82 52 41 54 71 55 52 56
REMARK SMILES IDX 70 57 53 58 56 59 69 60 87 61 54 62 55 63 68 65 88 66 57 67
REMARK SMILES IDX 42 68 43 69 51 70 44 71 50 72 45 73 46 74 47 75 48 76 49 77
REMARK SMILES IDX 72 78 73 79 81 80 74 81 80 82 75 83 76 84 77 85 78 86 79 87
REMARK SMILES IDX 58 88 59 89 67 90 60 91 66 92 61 93 62 94 63 95 64 96 65 97
REMARK H PARENT 26 6 17 25 30 34 86 53 56 64
REMARK Flexibility Score: inf
ROOT
ATOM      1  C   UNL A   1      35.275  31.894  27.908  1.00  0.00     0.042 C 
ENDROOT
BRANCH   1   2
ATOM      2  C   UNL A   1      34.072  30.946  27.948  1.00  0.00     0.117 C 
BRANCH   2   3
ATOM      3  N   UNL A   1      33.590  30.567  26.628  1.00  0.00    -0.354 N 
ATOM      4  O   UNL A   1      34.730  28.573  26.477  1.00  0.00    -0.273 OA
ATOM      5  C   UNL A   1      33.926  29.376  26.011  1.00  0.00     0.239 C 
ATOM      6  H   UNL A   1      32.996  31.190  26.150  1.00  0.00     0.163 HD
BRANCH   5   7
ATOM      7  C   UNL A   1      33.300  29.158  24.646  1.00  0.00     0.222 C 
BRANCH   7   8
ATOM      8  N   UNL A   1      32.118  28.307  24.691  1.00  0.00    -0.337 N 
ATOM      9  C   UNL A   1      31.962  27.271  25.576  1.00  0.00     0.095 A 
ATOM     10  C   UNL A   1      30.977  28.451  23.925  1.00  0.00     0.049 A 
ATOM     11  C   UNL A   1      30.734  26.695  25.342  1.00  0.00     0.001 A 
ATOM     12  C   UNL A   1      30.098  27.426  24.302  1.00  0.00     0.007 A 
ATOM     13  C   UNL A   1      30.638  29.386  22.934  1.00  0.00     0.027 A 
ATOM     14  C   UNL A   1      28.844  27.331  23.661  1.00  0.00     0.011 A 
ATOM     15  C   UNL A   1      29.384  29.279  22.326  1.00  0.00     0.002 A 
ATOM     16  C   UNL A   1      28.499  28.265  22.680  1.00  0.00     0.001 A 
BRANCH  11  17
ATOM     17  C   UNL A   1      30.239  25.568  26.063  1.00  0.00     0.034 C 
ATOM     18  C   UNL A   1      30.925  24.444  26.312  1.00  0.00     0.110 C 
ATOM     19  S   UNL A   1      32.575  24.128  25.955  1.00  0.00     0.006 SA
ATOM     20  C   UNL A   1      30.324  23.238  26.938  1.00  0.00     0.346 C 
ATOM     21  C   UNL A   1      32.351  22.463  26.449  1.00  0.00     0.319 C 
ATOM     22  N   UNL A   1      31.173  22.156  26.886  1.00  0.00    -0.200 N 
ATOM     23  O   UNL A   1      29.198  23.225  27.432  1.00  0.00    -0.240 OA
ATOM     24  N   UNL A   1      33.396  21.602  26.279  1.00  0.00    -0.251 N 
ATOM     25  H   UNL A   1      30.912  21.245  27.153  1.00  0.00     0.316 HD
ATOM     26  C   UNL A   1      34.768  21.885  26.702  1.00  0.00     0.265 C 
ATOM     27  C   UNL A   1      33.215  20.270  25.701  1.00  0.00     0.265 C 
ATOM     28  C   UNL A   1      35.727  21.644  25.531  1.00  0.00     0.206 C 
ATOM     29  C   UNL A   1      34.231  20.091  24.558  1.00  0.00     0.206 C 
ATOM     30  O   UNL A   1      35.580  20.313  25.009  1.00  0.00    -0.373 OA
ENDBRANCH  11  17
ENDBRANCH   7   8
ENDBRANCH   5   7
ENDBRANCH   2   3
ENDBRANCH   1   2
BRANCH   1  31
ATOM     31  C   UNL A   1      35.178  33.116  28.822  1.00  0.00     0.118 C 
BRANCH  31  32
ATOM     32  N   UNL A   1      34.758  32.827  30.179  1.00  0.00    -0.352 N 
ATOM     33  C   UNL A   1      35.357  32.298  31.288  1.00  0.00     0.251 C 
ATOM     34  H   UNL A   1      33.818  33.070  30.340  1.00  0.00     0.163 HD
ATOM     35  O   UNL A   1      34.761  32.501  32.350  1.00  0.00    -0.269 OA
BRANCH  33  36
ATOM     36  C   UNL A   1      36.584  31.453  31.308  1.00  0.00     0.039 A 
ATOM     37  C   UNL A   1      37.899  31.914  31.315  1.00  0.00     0.014 A 
ATOM     38  C   UNL A   1      36.363  30.063  31.195  1.00  0.00     0.014 A 
ATOM     39  C   UNL A   1      38.953  31.018  31.105  1.00  0.00     0.010 A 
ATOM     40  C   UNL A   1      37.410  29.169  30.984  1.00  0.00     0.010 A 
ATOM     41  C   UNL A   1      38.705  29.656  30.881  1.00  0.00    -0.014 A 
BRANCH  41  42
ATOM     42  C   UNL A   1      39.837  28.772  30.600  1.00  0.00     0.031 A 
ATOM     43  C   UNL A   1      40.730  28.501  31.758  1.00  0.00     0.074 A 
ATOM     44  C   UNL A   1      40.092  28.184  29.410  1.00  0.00     0.049 A 
ATOM     45  N   UNL A   1      41.931  28.945  31.934  1.00  0.00    -0.248 NA
ATOM     46  C   UNL A   1      40.196  27.750  32.901  1.00  0.00     0.031 C 
ATOM     47  C   UNL A   1      39.254  28.115  28.211  1.00  0.00     0.029 A 
ATOM     48  N   UNL A   1      41.187  27.450  29.054  1.00  0.00    -0.354 N 
ATOM     49  C   UNL A   1      42.381  28.406  33.135  1.00  0.00     0.074 A 
ATOM     50  C   UNL A   1      41.234  27.773  33.741  1.00  0.00     0.031 C 
ATOM     51  C   UNL A   1      39.774  27.208  27.347  1.00  0.00     0.029 A 
ATOM     52  C   UNL A   1      41.059  26.759  27.855  1.00  0.00     0.049 A 
ATOM     53  H   UNL A   1      42.003  27.415  29.602  1.00  0.00     0.167 HD
ATOM     54  C   UNL A   1      43.701  28.400  33.469  1.00  0.00     0.031 A 
ATOM     55  C   UNL A   1      41.947  25.881  27.317  1.00  0.00     0.031 A 
ATOM     56  C   UNL A   1      44.468  29.279  32.626  1.00  0.00     0.049 A 
ATOM     57  C   UNL A   1      43.276  26.210  27.887  1.00  0.00     0.074 A 
ATOM     58  C   UNL A   1      44.471  30.641  32.401  1.00  0.00     0.029 A 
ATOM     59  N   UNL A   1      45.147  28.717  31.571  1.00  0.00    -0.354 N 
ATOM     60  N   UNL A   1      43.916  27.314  27.621  1.00  0.00    -0.248 NA
ATOM     61  C   UNL A   1      43.694  25.515  29.092  1.00  0.00     0.031 C 
ATOM     62  C   UNL A   1      44.697  30.775  31.001  1.00  0.00     0.029 A 
ATOM     63  C   UNL A   1      44.895  29.497  30.472  1.00  0.00     0.049 A 
ATOM     64  H   UNL A   1      45.708  27.910  31.600  1.00  0.00     0.167 HD
ATOM     65  C   UNL A   1      44.493  27.682  28.827  1.00  0.00     0.074 A 
ATOM     66  C   UNL A   1      44.391  26.494  29.674  1.00  0.00     0.031 C 
ATOM     67  C   UNL A   1      44.760  28.987  29.121  1.00  0.00     0.031 A 
BRANCH  54  68
ATOM     68  C   UNL A   1      44.360  27.390  34.370  1.00  0.00    -0.014 A 
ATOM     69  C   UNL A   1      44.746  27.677  35.693  1.00  0.00     0.010 A 
ATOM     70  C   UNL A   1      44.384  26.034  33.976  1.00  0.00     0.010 A 
ATOM     71  C   UNL A   1      45.141  26.673  36.581  1.00  0.00     0.020 A 
ATOM     72  C   UNL A   1      44.738  25.016  34.870  1.00  0.00     0.020 A 
ATOM     73  C   UNL A   1      45.119  25.345  36.168  1.00  0.00     0.054 A 
BRANCH  73  74
ATOM     74  S   UNL A   1      45.536  24.065  37.378  1.00  0.00     0.124 S 
ATOM     75  O   UNL A   1      45.151  22.847  36.670  1.00  0.00    -0.237 OA
ATOM     76  O   UNL A   1      46.971  24.263  37.561  1.00  0.00    -0.237 OA
ATOM     77  O   UNL A   1      44.709  24.403  38.534  1.00  0.00    -0.744 OA
ENDBRANCH  73  74
ENDBRANCH  54  68
BRANCH  55  78
ATOM     78  C   UNL A   1      41.653  24.528  26.769  1.00  0.00    -0.014 A 
ATOM     79  C   UNL A   1      40.725  23.694  27.425  1.00  0.00     0.010 A 
ATOM     80  C   UNL A   1      42.515  23.932  25.824  1.00  0.00     0.010 A 
ATOM     81  C   UNL A   1      40.721  22.309  27.220  1.00  0.00     0.020 A 
ATOM     82  C   UNL A   1      42.515  22.541  25.613  1.00  0.00     0.020 A 
ATOM     83  C   UNL A   1      41.643  21.735  26.346  1.00  0.00     0.054 A 
BRANCH  83  84
ATOM     84  S   UNL A   1      41.743  19.921  26.270  1.00  0.00     0.124 S 
ATOM     85  O   UNL A   1      42.784  19.717  25.267  1.00  0.00    -0.237 OA
ATOM     86  O   UNL A   1      42.115  19.569  27.638  1.00  0.00    -0.237 OA
ATOM     87  O   UNL A   1      40.400  19.515  25.870  1.00  0.00    -0.744 OA
ENDBRANCH  83  84
ENDBRANCH  55  78
BRANCH  67  88
ATOM     88  C   UNL A   1      44.659  30.035  28.030  1.00  0.00    -0.014 A 
ATOM     89  C   UNL A   1      45.831  30.317  27.304  1.00  0.00     0.010 A 
ATOM     90  C   UNL A   1      43.543  30.876  27.849  1.00  0.00     0.010 A 
ATOM     91  C   UNL A   1      45.910  31.427  26.462  1.00  0.00     0.020 A 
ATOM     92  C   UNL A   1      43.605  31.979  26.980  1.00  0.00     0.020 A 
ATOM     93  C   UNL A   1      44.802  32.261  26.315  1.00  0.00     0.054 A 
BRANCH  93  94
ATOM     94  S   UNL A   1      44.977  33.731  25.266  1.00  0.00     0.124 S 
ATOM     95  O   UNL A   1      46.405  34.020  25.376  1.00  0.00    -0.237 OA
ATOM     96  O   UNL A   1      44.539  33.247  23.958  1.00  0.00    -0.237 OA
ATOM     97  O   UNL A   1      44.095  34.717  25.886  1.00  0.00    -0.744 OA
ENDBRANCH  93  94
ENDBRANCH  67  88
ENDBRANCH  41  42
ENDBRANCH  33  36
ENDBRANCH  31  32
ENDBRANCH   1  31
TORSDOF 15
ENDMDL
