MODEL 1
REMARK VINA RESULT:     -10.7      0.000      0.000
REMARK SMILES CC[C@H](C)CN(CC)c1nc(C(=O)NCCCNC(=O)c2ccc(-c3c4nc(c(-c5ccc(S(=O)(=O)[O-])cc5)c5ccc([nH]5)c(-c5ccc(S(=O)(=O)[O-])cc5)c5nc(c(-c6ccc(S(=O)(=O)[O-])cc6)c6ccc3[nH]6)C=C5)C=C4)cc2)cc2ccccc12
REMARK SMILES IDX 15 1 14 2 12 3 13 4 11 6 9 7 10 8 87 9 82 10 86 11 81 12
REMARK SMILES IDX 83 13 85 14 84 15 6 16 5 17 3 18 4 19 2 20 1 21 7 22 8 23
REMARK SMILES IDX 16 24 17 25 18 26 19 27 20 29 21 30 22 31 80 32 23 33 79 34
REMARK SMILES IDX 24 35 25 36 26 37 73 38 27 39 78 40 72 41 74 42 28 43 77 44
REMARK SMILES IDX 71 45 70 46 29 48 59 49 40 50 58 51 41 52 44 53 57 54 75 55
REMARK SMILES IDX 42 56 43 57 56 59 76 60 45 61 30 62 31 63 39 64 32 65 38 66
REMARK SMILES IDX 33 67 34 68 35 69 36 70 37 71 60 72 61 73 69 74 62 75 68 76
REMARK SMILES IDX 63 77 64 78 65 79 66 80 67 81 46 82 47 83 55 84 48 85 54 86
REMARK SMILES IDX 49 87 50 88 51 89 52 90 53 91
REMARK H PARENT 14 5 18 28 74 47 44 58
REMARK Flexibility Score: inf
ROOT
ATOM      1  C   UNL A   1      33.986  23.203  25.458  1.00  0.00     0.118 C 
ENDROOT
BRANCH   1   2
ATOM      2  N   UNL A   1      32.790  23.083  26.259  1.00  0.00    -0.351 N 
ATOM      3  C   UNL A   1      31.852  24.020  26.615  1.00  0.00     0.269 C 
ATOM      4  O   UNL A   1      30.924  23.623  27.326  1.00  0.00    -0.268 OA
ATOM      5  H   UNL A   1      32.620  22.178  26.608  1.00  0.00     0.163 HD
BRANCH   3   6
ATOM      6  C   UNL A   1      31.863  25.454  26.149  1.00  0.00     0.131 A 
ATOM      7  C   UNL A   1      30.976  27.191  24.871  1.00  0.00     0.137 A 
ATOM      8  N   UNL A   1      31.042  25.869  25.152  1.00  0.00    -0.225 NA
ATOM      9  C   UNL A   1      31.675  28.146  25.658  1.00  0.00     0.024 A 
ATOM     10  C   UNL A   1      32.641  27.675  26.567  1.00  0.00    -0.012 A 
ATOM     11  C   UNL A   1      31.502  29.545  25.560  1.00  0.00     0.012 A 
ATOM     12  C   UNL A   1      32.724  26.311  26.818  1.00  0.00     0.043 A 
ATOM     13  C   UNL A   1      33.512  28.575  27.203  1.00  0.00     0.009 A 
ATOM     14  C   UNL A   1      32.366  30.436  26.197  1.00  0.00     0.001 A 
ATOM     15  C   UNL A   1      33.395  29.947  26.989  1.00  0.00     0.001 A 
BRANCH   7  16
ATOM     16  N   UNL A   1      30.338  27.597  23.691  1.00  0.00    -0.356 N 
BRANCH  16  17
ATOM     17  C   UNL A   1      31.179  27.701  22.471  1.00  0.00     0.121 C 
BRANCH  17  18
ATOM     18  C   UNL A   1      32.319  26.650  22.451  1.00  0.00     0.005 C 
ATOM     19  C   UNL A   1      32.326  25.854  21.136  1.00  0.00     0.009 C 
BRANCH  18  20
ATOM     20  C   UNL A   1      33.719  27.236  22.721  1.00  0.00     0.002 C 
ATOM     21  C   UNL A   1      33.683  28.765  22.770  1.00  0.00     0.004 C 
ENDBRANCH  18  20
ENDBRANCH  17  18
ENDBRANCH  16  17
BRANCH  16  22
ATOM     22  C   UNL A   1      28.913  27.303  23.516  1.00  0.00     0.114 C 
ATOM     23  C   UNL A   1      28.058  28.489  23.110  1.00  0.00     0.027 C 
ENDBRANCH  16  22
ENDBRANCH   7  16
ENDBRANCH   3   6
ENDBRANCH   1   2
BRANCH   1  24
ATOM     24  C   UNL A   1      35.242  23.271  26.306  1.00  0.00     0.042 C 
BRANCH  24  25
ATOM     25  C   UNL A   1      36.485  23.578  25.491  1.00  0.00     0.118 C 
BRANCH  25  26
ATOM     26  N   UNL A   1      37.562  22.622  25.740  1.00  0.00    -0.352 N 
ATOM     27  C   UNL A   1      38.826  22.822  26.232  1.00  0.00     0.251 C 
ATOM     28  H   UNL A   1      37.346  21.688  25.521  1.00  0.00     0.163 HD
ATOM     29  O   UNL A   1      39.657  21.916  26.157  1.00  0.00    -0.269 OA
BRANCH  27  30
ATOM     30  C   UNL A   1      39.196  24.119  26.834  1.00  0.00     0.039 A 
ATOM     31  C   UNL A   1      38.830  24.389  28.156  1.00  0.00     0.014 A 
ATOM     32  C   UNL A   1      39.897  25.073  26.095  1.00  0.00     0.014 A 
ATOM     33  C   UNL A   1      39.228  25.588  28.750  1.00  0.00     0.010 A 
ATOM     34  C   UNL A   1      40.389  26.211  26.722  1.00  0.00     0.010 A 
ATOM     35  C   UNL A   1      40.045  26.491  28.051  1.00  0.00    -0.014 A 
BRANCH  35  36
ATOM     36  C   UNL A   1      40.530  27.749  28.675  1.00  0.00     0.031 A 
ATOM     37  C   UNL A   1      41.933  27.822  29.219  1.00  0.00     0.074 A 
ATOM     38  C   UNL A   1      39.690  28.795  28.811  1.00  0.00     0.049 A 
ATOM     39  N   UNL A   1      42.515  28.800  29.865  1.00  0.00    -0.248 NA
ATOM     40  C   UNL A   1      42.785  26.633  29.043  1.00  0.00     0.031 C 
ATOM     41  C   UNL A   1      38.293  28.828  28.370  1.00  0.00     0.029 A 
ATOM     42  N   UNL A   1      39.887  30.033  29.369  1.00  0.00    -0.354 N 
ATOM     43  C   UNL A   1      43.784  28.334  30.193  1.00  0.00     0.074 A 
ATOM     44  C   UNL A   1      43.870  26.970  29.724  1.00  0.00     0.031 C 
ATOM     45  C   UNL A   1      37.771  30.034  28.644  1.00  0.00     0.029 A 
ATOM     46  C   UNL A   1      38.777  30.844  29.324  1.00  0.00     0.049 A 
ATOM     47  H   UNL A   1      40.743  30.315  29.765  1.00  0.00     0.167 HD
ATOM     48  C   UNL A   1      44.794  28.990  30.808  1.00  0.00     0.031 A 
ATOM     49  C   UNL A   1      38.586  32.095  29.788  1.00  0.00     0.031 A 
ATOM     50  C   UNL A   1      44.714  30.358  31.246  1.00  0.00     0.049 A 
ATOM     51  C   UNL A   1      39.729  32.803  30.463  1.00  0.00     0.074 A 
ATOM     52  C   UNL A   1      45.705  31.136  31.816  1.00  0.00     0.029 A 
ATOM     53  N   UNL A   1      43.580  31.151  31.158  1.00  0.00    -0.354 N 
ATOM     54  N   UNL A   1      40.945  32.369  30.697  1.00  0.00    -0.248 NA
ATOM     55  C   UNL A   1      39.481  34.175  30.925  1.00  0.00     0.031 C 
ATOM     56  C   UNL A   1      45.153  32.382  32.128  1.00  0.00     0.029 A 
ATOM     57  C   UNL A   1      43.840  32.403  31.687  1.00  0.00     0.049 A 
ATOM     58  H   UNL A   1      42.718  30.865  30.776  1.00  0.00     0.167 HD
ATOM     59  C   UNL A   1      41.616  33.428  31.300  1.00  0.00     0.074 A 
ATOM     60  C   UNL A   1      40.676  34.527  31.380  1.00  0.00     0.031 C 
ATOM     61  C   UNL A   1      42.894  33.489  31.746  1.00  0.00     0.031 A 
BRANCH  48  62
ATOM     62  C   UNL A   1      46.082  28.244  31.042  1.00  0.00    -0.014 A 
ATOM     63  C   UNL A   1      46.381  27.684  32.297  1.00  0.00     0.010 A 
ATOM     64  C   UNL A   1      46.971  28.037  29.972  1.00  0.00     0.010 A 
ATOM     65  C   UNL A   1      47.557  26.953  32.484  1.00  0.00     0.020 A 
ATOM     66  C   UNL A   1      48.133  27.280  30.146  1.00  0.00     0.020 A 
ATOM     67  C   UNL A   1      48.423  26.750  31.406  1.00  0.00     0.054 A 
BRANCH  67  68
ATOM     68  S   UNL A   1      49.910  25.744  31.665  1.00  0.00     0.124 S 
ATOM     69  O   UNL A   1      50.214  25.301  30.308  1.00  0.00    -0.237 OA
ATOM     70  O   UNL A   1      50.848  26.705  32.238  1.00  0.00    -0.237 OA
ATOM     71  O   UNL A   1      49.464  24.693  32.577  1.00  0.00    -0.744 OA
ENDBRANCH  67  68
ENDBRANCH  48  62
BRANCH  49  72
ATOM     72  C   UNL A   1      37.265  32.764  29.626  1.00  0.00    -0.014 A 
ATOM     73  C   UNL A   1      36.876  33.300  28.385  1.00  0.00     0.010 A 
ATOM     74  C   UNL A   1      36.391  32.887  30.723  1.00  0.00     0.010 A 
ATOM     75  C   UNL A   1      35.661  33.978  28.252  1.00  0.00     0.020 A 
ATOM     76  C   UNL A   1      35.160  33.533  30.586  1.00  0.00     0.020 A 
ATOM     77  C   UNL A   1      34.811  34.092  29.357  1.00  0.00     0.054 A 
BRANCH  77  78
ATOM     78  S   UNL A   1      33.230  34.959  29.157  1.00  0.00     0.124 S 
ATOM     79  O   UNL A   1      33.662  36.275  28.697  1.00  0.00    -0.237 OA
ATOM     80  O   UNL A   1      32.540  34.136  28.167  1.00  0.00    -0.237 OA
ATOM     81  O   UNL A   1      32.649  34.924  30.498  1.00  0.00    -0.744 OA
ENDBRANCH  77  78
ENDBRANCH  49  72
BRANCH  61  82
ATOM     82  C   UNL A   1      43.374  34.799  32.312  1.00  0.00    -0.014 A 
ATOM     83  C   UNL A   1      43.379  35.044  33.696  1.00  0.00     0.010 A 
ATOM     84  C   UNL A   1      43.879  35.781  31.439  1.00  0.00     0.010 A 
ATOM     85  C   UNL A   1      43.848  36.263  34.194  1.00  0.00     0.020 A 
ATOM     86  C   UNL A   1      44.379  36.986  31.935  1.00  0.00     0.020 A 
ATOM     87  C   UNL A   1      44.345  37.226  33.309  1.00  0.00     0.054 A 
BRANCH  87  88
ATOM     88  S   UNL A   1      44.983  38.783  33.985  1.00  0.00     0.124 S 
ATOM     89  O   UNL A   1      45.514  39.438  32.793  1.00  0.00    -0.237 OA
ATOM     90  O   UNL A   1      43.789  39.395  34.560  1.00  0.00    -0.237 OA
ATOM     91  O   UNL A   1      45.986  38.353  34.958  1.00  0.00    -0.744 OA
ENDBRANCH  87  88
ENDBRANCH  61  82
ENDBRANCH  35  36
ENDBRANCH  27  30
ENDBRANCH  25  26
ENDBRANCH  24  25
ENDBRANCH   1  24
TORSDOF 18
ENDMDL
MODEL 2
REMARK VINA RESULT:     -10.4      0.986      2.403
REMARK SMILES CC[C@H](C)CN(CC)c1nc(C(=O)NCCCNC(=O)c2ccc(-c3c4nc(c(-c5ccc(S(=O)(=O)[O-])cc5)c5ccc([nH]5)c(-c5ccc(S(=O)(=O)[O-])cc5)c5nc(c(-c6ccc(S(=O)(=O)[O-])cc6)c6ccc3[nH]6)C=C5)C=C4)cc2)cc2ccccc12
REMARK SMILES IDX 15 1 14 2 12 3 13 4 11 6 9 7 10 8 87 9 82 10 86 11 81 12
REMARK SMILES IDX 83 13 85 14 84 15 6 16 5 17 3 18 4 19 2 20 1 21 7 22 8 23
REMARK SMILES IDX 16 24 17 25 18 26 19 27 20 29 21 30 22 31 80 32 23 33 79 34
REMARK SMILES IDX 24 35 25 36 26 37 73 38 27 39 78 40 72 41 74 42 28 43 77 44
REMARK SMILES IDX 71 45 70 46 29 48 59 49 40 50 58 51 41 52 44 53 57 54 75 55
REMARK SMILES IDX 42 56 43 57 56 59 76 60 45 61 30 62 31 63 39 64 32 65 38 66
REMARK SMILES IDX 33 67 34 68 35 69 36 70 37 71 60 72 61 73 69 74 62 75 68 76
REMARK SMILES IDX 63 77 64 78 65 79 66 80 67 81 46 82 47 83 55 84 48 85 54 86
REMARK SMILES IDX 49 87 50 88 51 89 52 90 53 91
REMARK H PARENT 14 5 18 28 74 47 44 58
REMARK Flexibility Score: inf
ROOT
ATOM      1  C   UNL A   1      34.148  23.427  25.458  1.00  0.00     0.118 C 
ENDROOT
BRANCH   1   2
ATOM      2  N   UNL A   1      33.067  23.074  26.350  1.00  0.00    -0.351 N 
ATOM      3  C   UNL A   1      31.914  23.746  26.669  1.00  0.00     0.269 C 
ATOM      4  O   UNL A   1      31.166  23.193  27.482  1.00  0.00    -0.268 OA
ATOM      5  H   UNL A   1      33.177  22.207  26.803  1.00  0.00     0.163 HD
BRANCH   3   6
ATOM      6  C   UNL A   1      31.496  25.058  26.055  1.00  0.00     0.131 A 
ATOM      7  C   UNL A   1      31.994  27.208  25.300  1.00  0.00     0.137 A 
ATOM      8  N   UNL A   1      32.358  26.104  25.994  1.00  0.00    -0.225 NA
ATOM      9  C   UNL A   1      30.777  27.247  24.568  1.00  0.00     0.024 A 
ATOM     10  C   UNL A   1      29.837  26.223  24.789  1.00  0.00    -0.012 A 
ATOM     11  C   UNL A   1      30.420  28.273  23.663  1.00  0.00     0.012 A 
ATOM     12  C   UNL A   1      30.212  25.112  25.536  1.00  0.00     0.043 A 
ATOM     13  C   UNL A   1      28.538  26.330  24.267  1.00  0.00     0.009 A 
ATOM     14  C   UNL A   1      29.129  28.374  23.143  1.00  0.00     0.001 A 
ATOM     15  C   UNL A   1      28.178  27.420  23.477  1.00  0.00     0.001 A 
BRANCH   7  16
ATOM     16  N   UNL A   1      32.757  28.374  25.444  1.00  0.00    -0.356 N 
BRANCH  16  17
ATOM     17  C   UNL A   1      32.617  29.117  26.723  1.00  0.00     0.121 C 
BRANCH  17  18
ATOM     18  C   UNL A   1      32.768  30.648  26.534  1.00  0.00     0.005 C 
ATOM     19  C   UNL A   1      31.401  31.347  26.495  1.00  0.00     0.009 C 
BRANCH  18  20
ATOM     20  C   UNL A   1      33.677  31.324  27.580  1.00  0.00     0.002 C 
ATOM     21  C   UNL A   1      35.051  30.653  27.640  1.00  0.00     0.004 C 
ENDBRANCH  18  20
ENDBRANCH  17  18
ENDBRANCH  16  17
BRANCH  16  22
ATOM     22  C   UNL A   1      34.026  28.488  24.723  1.00  0.00     0.114 C 
ATOM     23  C   UNL A   1      33.908  28.953  23.283  1.00  0.00     0.027 C 
ENDBRANCH  16  22
ENDBRANCH   7  16
ENDBRANCH   3   6
ENDBRANCH   1   2
BRANCH   1  24
ATOM     24  C   UNL A   1      35.436  23.718  26.205  1.00  0.00     0.042 C 
BRANCH  24  25
ATOM     25  C   UNL A   1      36.620  23.923  25.276  1.00  0.00     0.118 C 
BRANCH  25  26
ATOM     26  N   UNL A   1      37.674  22.937  25.494  1.00  0.00    -0.352 N 
ATOM     27  C   UNL A   1      38.919  23.081  26.052  1.00  0.00     0.251 C 
ATOM     28  H   UNL A   1      37.458  22.025  25.195  1.00  0.00     0.163 HD
ATOM     29  O   UNL A   1      39.743  22.173  25.942  1.00  0.00    -0.269 OA
BRANCH  27  30
ATOM     30  C   UNL A   1      39.276  24.324  26.767  1.00  0.00     0.039 A 
ATOM     31  C   UNL A   1      38.867  24.492  28.092  1.00  0.00     0.014 A 
ATOM     32  C   UNL A   1      40.009  25.326  26.129  1.00  0.00     0.014 A 
ATOM     33  C   UNL A   1      39.252  25.636  28.793  1.00  0.00     0.010 A 
ATOM     34  C   UNL A   1      40.487  26.406  26.861  1.00  0.00     0.010 A 
ATOM     35  C   UNL A   1      40.099  26.584  28.196  1.00  0.00    -0.014 A 
BRANCH  35  36
ATOM     36  C   UNL A   1      40.570  27.784  28.933  1.00  0.00     0.031 A 
ATOM     37  C   UNL A   1      41.938  27.786  29.563  1.00  0.00     0.074 A 
ATOM     38  C   UNL A   1      39.745  28.839  29.091  1.00  0.00     0.049 A 
ATOM     39  N   UNL A   1      42.500  28.702  30.310  1.00  0.00    -0.248 NA
ATOM     40  C   UNL A   1      42.775  26.590  29.357  1.00  0.00     0.031 C 
ATOM     41  C   UNL A   1      38.379  28.936  28.570  1.00  0.00     0.029 A 
ATOM     42  N   UNL A   1      39.933  30.031  29.744  1.00  0.00    -0.354 N 
ATOM     43  C   UNL A   1      43.736  28.184  30.680  1.00  0.00     0.074 A 
ATOM     44  C   UNL A   1      43.823  26.853  30.123  1.00  0.00     0.031 C 
ATOM     45  C   UNL A   1      37.866  30.134  28.896  1.00  0.00     0.029 A 
ATOM     46  C   UNL A   1      38.845  30.870  29.690  1.00  0.00     0.049 A 
ATOM     47  H   UNL A   1      40.769  30.264  30.209  1.00  0.00     0.167 HD
ATOM     48  C   UNL A   1      44.720  28.771  31.398  1.00  0.00     0.031 A 
ATOM     49  C   UNL A   1      38.652  32.091  30.226  1.00  0.00     0.031 A 
ATOM     50  C   UNL A   1      44.641  30.108  31.924  1.00  0.00     0.049 A 
ATOM     51  C   UNL A   1      39.766  32.723  31.016  1.00  0.00     0.074 A 
ATOM     52  C   UNL A   1      45.611  30.821  32.605  1.00  0.00     0.029 A 
ATOM     53  N   UNL A   1      43.532  30.933  31.824  1.00  0.00    -0.354 N 
ATOM     54  N   UNL A   1      40.956  32.245  31.292  1.00  0.00    -0.248 NA
ATOM     55  C   UNL A   1      39.517  34.067  31.556  1.00  0.00     0.031 C 
ATOM     56  C   UNL A   1      45.067  32.056  32.969  1.00  0.00     0.029 A 
ATOM     57  C   UNL A   1      43.784  32.140  32.453  1.00  0.00     0.049 A 
ATOM     58  H   UNL A   1      42.689  30.695  31.372  1.00  0.00     0.167 HD
ATOM     59  C   UNL A   1      41.610  33.243  32.005  1.00  0.00     0.074 A 
ATOM     60  C   UNL A   1      40.689  34.357  32.105  1.00  0.00     0.031 C 
ATOM     61  C   UNL A   1      42.859  33.242  32.531  1.00  0.00     0.031 A 
BRANCH  48  62
ATOM     62  C   UNL A   1      45.976  27.980  31.656  1.00  0.00    -0.014 A 
ATOM     63  C   UNL A   1      46.025  27.001  32.666  1.00  0.00     0.010 A 
ATOM     64  C   UNL A   1      47.099  28.165  30.830  1.00  0.00     0.010 A 
ATOM     65  C   UNL A   1      47.181  26.241  32.860  1.00  0.00     0.020 A 
ATOM     66  C   UNL A   1      48.246  27.386  31.000  1.00  0.00     0.020 A 
ATOM     67  C   UNL A   1      48.282  26.434  32.022  1.00  0.00     0.054 A 
BRANCH  67  68
ATOM     68  S   UNL A   1      49.746  25.389  32.259  1.00  0.00     0.124 S 
ATOM     69  O   UNL A   1      49.265  24.413  33.233  1.00  0.00    -0.237 OA
ATOM     70  O   UNL A   1      49.988  24.871  30.916  1.00  0.00    -0.237 OA
ATOM     71  O   UNL A   1      50.759  26.318  32.759  1.00  0.00    -0.744 OA
ENDBRANCH  67  68
ENDBRANCH  48  62
BRANCH  49  72
ATOM     72  C   UNL A   1      37.357  32.802  30.033  1.00  0.00    -0.014 A 
ATOM     73  C   UNL A   1      36.322  32.683  30.978  1.00  0.00     0.010 A 
ATOM     74  C   UNL A   1      37.143  33.591  28.887  1.00  0.00     0.010 A 
ATOM     75  C   UNL A   1      35.088  33.305  30.764  1.00  0.00     0.020 A 
ATOM     76  C   UNL A   1      35.923  34.243  28.686  1.00  0.00     0.020 A 
ATOM     77  C   UNL A   1      34.897  34.079  29.616  1.00  0.00     0.054 A 
BRANCH  77  78
ATOM     78  S   UNL A   1      33.294  34.893  29.368  1.00  0.00     0.124 S 
ATOM     79  O   UNL A   1      32.621  33.966  28.463  1.00  0.00    -0.237 OA
ATOM     80  O   UNL A   1      32.758  34.956  30.725  1.00  0.00    -0.237 OA
ATOM     81  O   UNL A   1      33.653  36.185  28.788  1.00  0.00    -0.744 OA
ENDBRANCH  77  78
ENDBRANCH  49  72
BRANCH  61  82
ATOM     82  C   UNL A   1      43.330  34.498  33.213  1.00  0.00    -0.014 A 
ATOM     83  C   UNL A   1      43.097  34.722  34.582  1.00  0.00     0.010 A 
ATOM     84  C   UNL A   1      44.067  35.445  32.478  1.00  0.00     0.010 A 
ATOM     85  C   UNL A   1      43.562  35.890  35.193  1.00  0.00     0.020 A 
ATOM     86  C   UNL A   1      44.563  36.596  33.093  1.00  0.00     0.020 A 
ATOM     87  C   UNL A   1      44.293  36.819  34.444  1.00  0.00     0.054 A 
BRANCH  87  88
ATOM     88  S   UNL A   1      44.918  38.307  35.272  1.00  0.00     0.124 S 
ATOM     89  O   UNL A   1      46.363  38.123  35.177  1.00  0.00    -0.237 OA
ATOM     90  O   UNL A   1      44.366  39.384  34.456  1.00  0.00    -0.237 OA
ATOM     91  O   UNL A   1      44.365  38.209  36.622  1.00  0.00    -0.744 OA
ENDBRANCH  87  88
ENDBRANCH  61  82
ENDBRANCH  35  36
ENDBRANCH  27  30
ENDBRANCH  25  26
ENDBRANCH  24  25
ENDBRANCH   1  24
TORSDOF 18
ENDMDL
MODEL 3
REMARK VINA RESULT:     -10.4      1.744      2.171
REMARK SMILES CC[C@H](C)CN(CC)c1nc(C(=O)NCCCNC(=O)c2ccc(-c3c4nc(c(-c5ccc(S(=O)(=O)[O-])cc5)c5ccc([nH]5)c(-c5ccc(S(=O)(=O)[O-])cc5)c5nc(c(-c6ccc(S(=O)(=O)[O-])cc6)c6ccc3[nH]6)C=C5)C=C4)cc2)cc2ccccc12
REMARK SMILES IDX 15 1 14 2 12 3 13 4 11 6 9 7 10 8 87 9 82 10 86 11 81 12
REMARK SMILES IDX 83 13 85 14 84 15 6 16 5 17 3 18 4 19 2 20 1 21 7 22 8 23
REMARK SMILES IDX 16 24 17 25 18 26 19 27 20 29 21 30 22 31 80 32 23 33 79 34
REMARK SMILES IDX 24 35 25 36 26 37 73 38 27 39 78 40 72 41 74 42 28 43 77 44
REMARK SMILES IDX 71 45 70 46 29 48 59 49 40 50 58 51 41 52 44 53 57 54 75 55
REMARK SMILES IDX 42 56 43 57 56 59 76 60 45 61 30 62 31 63 39 64 32 65 38 66
REMARK SMILES IDX 33 67 34 68 35 69 36 70 37 71 60 72 61 73 69 74 62 75 68 76
REMARK SMILES IDX 63 77 64 78 65 79 66 80 67 81 46 82 47 83 55 84 48 85 54 86
REMARK SMILES IDX 49 87 50 88 51 89 52 90 53 91
REMARK H PARENT 14 5 18 28 74 47 44 58
REMARK Flexibility Score: inf
ROOT
ATOM      1  C   UNL A   1      33.882  23.178  25.571  1.00  0.00     0.118 C 
ENDROOT
BRANCH   1   2
ATOM      2  N   UNL A   1      32.639  23.077  26.301  1.00  0.00    -0.351 N 
ATOM      3  C   UNL A   1      31.685  24.024  26.581  1.00  0.00     0.269 C 
ATOM      4  O   UNL A   1      30.715  23.644  27.242  1.00  0.00    -0.268 OA
ATOM      5  H   UNL A   1      32.445  22.180  26.657  1.00  0.00     0.163 HD
BRANCH   3   6
ATOM      6  C   UNL A   1      31.731  25.448  26.089  1.00  0.00     0.131 A 
ATOM      7  C   UNL A   1      30.907  27.172  24.752  1.00  0.00     0.137 A 
ATOM      8  N   UNL A   1      30.945  25.855  25.060  1.00  0.00    -0.225 NA
ATOM      9  C   UNL A   1      31.595  28.133  25.541  1.00  0.00     0.024 A 
ATOM     10  C   UNL A   1      32.527  27.666  26.487  1.00  0.00    -0.012 A 
ATOM     11  C   UNL A   1      31.445  29.532  25.412  1.00  0.00     0.012 A 
ATOM     12  C   UNL A   1      32.583  26.306  26.767  1.00  0.00     0.043 A 
ATOM     13  C   UNL A   1      33.391  28.566  27.132  1.00  0.00     0.009 A 
ATOM     14  C   UNL A   1      32.302  30.423  26.057  1.00  0.00     0.001 A 
ATOM     15  C   UNL A   1      33.300  29.935  26.889  1.00  0.00     0.001 A 
BRANCH   7  16
ATOM     16  N   UNL A   1      30.309  27.564  23.546  1.00  0.00    -0.356 N 
BRANCH  16  17
ATOM     17  C   UNL A   1      31.124  27.417  22.312  1.00  0.00     0.121 C 
BRANCH  17  18
ATOM     18  C   UNL A   1      32.445  26.646  22.566  1.00  0.00     0.005 C 
ATOM     19  C   UNL A   1      32.419  25.257  21.911  1.00  0.00     0.009 C 
BRANCH  18  20
ATOM     20  C   UNL A   1      33.712  27.411  22.136  1.00  0.00     0.002 C 
ATOM     21  C   UNL A   1      33.823  28.756  22.858  1.00  0.00     0.004 C 
ENDBRANCH  18  20
ENDBRANCH  17  18
ENDBRANCH  16  17
BRANCH  16  22
ATOM     22  C   UNL A   1      28.852  27.488  23.417  1.00  0.00     0.114 C 
ATOM     23  C   UNL A   1      28.177  28.779  22.992  1.00  0.00     0.027 C 
ENDBRANCH  16  22
ENDBRANCH   7  16
ENDBRANCH   3   6
ENDBRANCH   1   2
BRANCH   1  24
ATOM     24  C   UNL A   1      35.077  23.339  26.491  1.00  0.00     0.042 C 
BRANCH  24  25
ATOM     25  C   UNL A   1      36.367  23.611  25.737  1.00  0.00     0.118 C 
BRANCH  25  26
ATOM     26  N   UNL A   1      37.378  22.585  25.979  1.00  0.00    -0.352 N 
ATOM     27  C   UNL A   1      38.696  22.708  26.340  1.00  0.00     0.251 C 
ATOM     28  H   UNL A   1      37.065  21.659  25.864  1.00  0.00     0.163 HD
ATOM     29  O   UNL A   1      39.437  21.727  26.276  1.00  0.00    -0.269 OA
BRANCH  27  30
ATOM     30  C   UNL A   1      39.227  24.012  26.787  1.00  0.00     0.039 A 
ATOM     31  C   UNL A   1      39.111  24.372  28.132  1.00  0.00     0.014 A 
ATOM     32  C   UNL A   1      39.834  24.882  25.880  1.00  0.00     0.014 A 
ATOM     33  C   UNL A   1      39.665  25.576  28.573  1.00  0.00     0.010 A 
ATOM     34  C   UNL A   1      40.482  26.021  26.340  1.00  0.00     0.010 A 
ATOM     35  C   UNL A   1      40.390  26.391  27.689  1.00  0.00    -0.014 A 
BRANCH  35  36
ATOM     36  C   UNL A   1      41.037  27.650  28.140  1.00  0.00     0.031 A 
ATOM     37  C   UNL A   1      42.537  27.781  28.087  1.00  0.00     0.074 A 
ATOM     38  C   UNL A   1      40.283  28.641  28.657  1.00  0.00     0.049 A 
ATOM     39  N   UNL A   1      43.292  28.765  28.505  1.00  0.00    -0.248 NA
ATOM     40  C   UNL A   1      43.291  26.649  27.521  1.00  0.00     0.031 C 
ATOM     41  C   UNL A   1      38.826  28.612  28.808  1.00  0.00     0.029 A 
ATOM     42  N   UNL A   1      40.641  29.867  29.161  1.00  0.00    -0.354 N 
ATOM     43  C   UNL A   1      44.603  28.359  28.276  1.00  0.00     0.074 A 
ATOM     44  C   UNL A   1      44.545  27.020  27.734  1.00  0.00     0.031 C 
ATOM     45  C   UNL A   1      38.413  29.776  29.335  1.00  0.00     0.029 A 
ATOM     46  C   UNL A   1      39.576  30.615  29.606  1.00  0.00     0.049 A 
ATOM     47  H   UNL A   1      41.573  30.181  29.201  1.00  0.00     0.167 HD
ATOM     48  C   UNL A   1      45.750  29.047  28.476  1.00  0.00     0.031 A 
ATOM     49  C   UNL A   1      39.540  31.835  30.177  1.00  0.00     0.031 A 
ATOM     50  C   UNL A   1      45.800  30.390  28.987  1.00  0.00     0.049 A 
ATOM     51  C   UNL A   1      40.831  32.580  30.383  1.00  0.00     0.074 A 
ATOM     52  C   UNL A   1      46.907  31.201  29.162  1.00  0.00     0.029 A 
ATOM     53  N   UNL A   1      44.697  31.121  29.401  1.00  0.00    -0.354 N 
ATOM     54  N   UNL A   1      42.055  32.207  30.092  1.00  0.00    -0.248 NA
ATOM     55  C   UNL A   1      40.737  33.918  30.983  1.00  0.00     0.031 C 
ATOM     56  C   UNL A   1      46.481  32.402  29.737  1.00  0.00     0.029 A 
ATOM     57  C   UNL A   1      45.100  32.366  29.854  1.00  0.00     0.049 A 
ATOM     58  H   UNL A   1      43.765  30.803  29.376  1.00  0.00     0.167 HD
ATOM     59  C   UNL A   1      42.871  33.278  30.438  1.00  0.00     0.074 A 
ATOM     60  C   UNL A   1      42.001  34.318  30.947  1.00  0.00     0.031 C 
ATOM     61  C   UNL A   1      44.218  33.393  30.345  1.00  0.00     0.031 A 
BRANCH  48  62
ATOM     62  C   UNL A   1      47.051  28.366  28.138  1.00  0.00    -0.014 A 
ATOM     63  C   UNL A   1      47.745  27.606  29.097  1.00  0.00     0.010 A 
ATOM     64  C   UNL A   1      47.547  28.427  26.824  1.00  0.00     0.010 A 
ATOM     65  C   UNL A   1      48.924  26.940  28.754  1.00  0.00     0.020 A 
ATOM     66  C   UNL A   1      48.710  27.737  26.468  1.00  0.00     0.020 A 
ATOM     67  C   UNL A   1      49.396  27.005  27.440  1.00  0.00     0.054 A 
BRANCH  67  68
ATOM     68  S   UNL A   1      50.896  26.079  27.010  1.00  0.00     0.124 S 
ATOM     69  O   UNL A   1      50.999  26.323  25.574  1.00  0.00    -0.237 OA
ATOM     70  O   UNL A   1      51.915  26.725  27.833  1.00  0.00    -0.237 OA
ATOM     71  O   UNL A   1      50.574  24.704  27.386  1.00  0.00    -0.744 OA
ENDBRANCH  67  68
ENDBRANCH  48  62
BRANCH  49  72
ATOM     72  C   UNL A   1      38.240  32.434  30.591  1.00  0.00    -0.014 A 
ATOM     73  C   UNL A   1      37.443  33.131  29.665  1.00  0.00     0.010 A 
ATOM     74  C   UNL A   1      37.800  32.327  31.923  1.00  0.00     0.010 A 
ATOM     75  C   UNL A   1      36.252  33.742  30.071  1.00  0.00     0.020 A 
ATOM     76  C   UNL A   1      36.593  32.906  32.325  1.00  0.00     0.020 A 
ATOM     77  C   UNL A   1      35.837  33.627  31.401  1.00  0.00     0.054 A 
BRANCH  77  78
ATOM     78  S   UNL A   1      34.279  34.411  31.901  1.00  0.00     0.124 S 
ATOM     79  O   UNL A   1      33.689  33.391  32.763  1.00  0.00    -0.237 OA
ATOM     80  O   UNL A   1      34.736  35.623  32.574  1.00  0.00    -0.237 OA
ATOM     81  O   UNL A   1      33.587  34.635  30.633  1.00  0.00    -0.744 OA
ENDBRANCH  77  78
ENDBRANCH  49  72
BRANCH  61  82
ATOM     82  C   UNL A   1      44.835  34.706  30.748  1.00  0.00    -0.014 A 
ATOM     83  C   UNL A   1      45.295  34.931  32.057  1.00  0.00     0.010 A 
ATOM     84  C   UNL A   1      45.004  35.712  29.778  1.00  0.00     0.010 A 
ATOM     85  C   UNL A   1      45.880  36.153  32.398  1.00  0.00     0.020 A 
ATOM     86  C   UNL A   1      45.620  36.921  30.106  1.00  0.00     0.020 A 
ATOM     87  C   UNL A   1      46.039  37.141  31.419  1.00  0.00     0.054 A 
BRANCH  87  88
ATOM     88  S   UNL A   1      46.838  38.702  31.879  1.00  0.00     0.124 S 
ATOM     89  O   UNL A   1      48.205  38.274  32.159  1.00  0.00    -0.237 OA
ATOM     90  O   UNL A   1      46.667  39.516  30.679  1.00  0.00    -0.237 OA
ATOM     91  O   UNL A   1      46.076  39.151  33.043  1.00  0.00    -0.744 OA
ENDBRANCH  87  88
ENDBRANCH  61  82
ENDBRANCH  35  36
ENDBRANCH  27  30
ENDBRANCH  25  26
ENDBRANCH  24  25
ENDBRANCH   1  24
TORSDOF 18
ENDMDL
