MODEL 1
REMARK VINA RESULT:     -12.0      0.000      0.000
REMARK SMILES Cc1ccc(N)cc1S(=O)(=O)Nc1cccc(C(=O)NCCCNC(=O)c2ccc(-c3c4nc(c(-c5ccc(S(=O)(=O)[O-])cc5)c5ccc([nH]5)c(-c5ccc(S(=O)(=O)[O-])cc5)c5nc(c(-c6ccc(S(=O)(=O)[O-])cc6)c6ccc3[nH]6)C=C5)C=C4)cc2)c1
REMARK SMILES IDX 21 1 20 2 18 3 19 4 17 6 13 7 14 8 87 9 15 10 16 11 12 12
REMARK SMILES IDX 9 14 10 15 11 16 8 17 1 18 2 19 3 20 4 21 7 22 5 23 6 24
REMARK SMILES IDX 22 27 23 28 24 29 25 30 26 32 27 33 28 34 86 35 29 36 85 37
REMARK SMILES IDX 30 38 31 39 32 40 79 41 33 42 84 43 78 44 80 45 34 46 83 47
REMARK SMILES IDX 77 48 76 49 35 51 65 52 46 53 64 54 47 55 50 56 63 57 81 58
REMARK SMILES IDX 48 59 49 60 62 62 82 63 51 64 36 65 37 66 45 67 38 68 44 69
REMARK SMILES IDX 39 70 40 71 41 72 42 73 43 74 66 75 67 76 75 77 68 78 74 79
REMARK SMILES IDX 69 80 70 81 71 82 72 83 73 84 52 85 53 86 61 87 54 88 60 89
REMARK SMILES IDX 55 90 56 91 57 92 58 93 59 94
REMARK H PARENT 20 5 12 13 6 25 6 26 24 31 80 50 50 61
REMARK Flexibility Score: inf
ROOT
ATOM      1  C   UNL A   1      38.380  23.478  26.449  1.00  0.00     0.118 C 
ENDROOT
BRANCH   1   2
ATOM      2  N   UNL A   1      37.973  23.339  25.061  1.00  0.00    -0.352 N 
ATOM      3  C   UNL A   1      36.796  22.956  24.469  1.00  0.00     0.251 C 
ATOM      4  O   UNL A   1      36.752  22.975  23.237  1.00  0.00    -0.269 OA
ATOM      5  H   UNL A   1      38.682  23.564  24.417  1.00  0.00     0.163 HD
BRANCH   3   6
ATOM      6  C   UNL A   1      35.557  22.603  25.223  1.00  0.00     0.041 A 
ATOM      7  C   UNL A   1      33.475  23.134  26.342  1.00  0.00     0.050 A 
ATOM      8  C   UNL A   1      33.143  21.777  26.383  1.00  0.00     0.027 A 
ATOM      9  C   UNL A   1      34.724  23.524  25.862  1.00  0.00     0.040 A 
ATOM     10  C   UNL A   1      34.006  20.829  25.841  1.00  0.00     0.003 A 
ATOM     11  C   UNL A   1      35.190  21.245  25.234  1.00  0.00     0.014 A 
BRANCH   7  12
ATOM     12  N   UNL A   1      32.434  24.049  26.650  1.00  0.00    -0.280 N 
ATOM     13  H   UNL A   1      32.315  24.270  27.601  1.00  0.00     0.180 HD
BRANCH  12  14
ATOM     14  S   UNL A   1      31.391  24.787  25.580  1.00  0.00     0.262 S 
ATOM     15  O   UNL A   1      30.591  25.731  26.330  1.00  0.00    -0.201 OA
ATOM     16  O   UNL A   1      30.770  23.696  24.854  1.00  0.00    -0.201 OA
BRANCH  14  17
ATOM     17  C   UNL A   1      32.282  25.740  24.351  1.00  0.00     0.092 A 
ATOM     18  C   UNL A   1      33.847  27.140  25.874  1.00  0.00     0.046 C 
ATOM     19  C   UNL A   1      33.234  26.748  24.566  1.00  0.00    -0.030 A 
ATOM     20  C   UNL A   1      33.658  27.501  23.450  1.00  0.00     0.007 A 
ATOM     21  C   UNL A   1      33.249  27.187  22.153  1.00  0.00     0.026 A 
ATOM     22  C   UNL A   1      31.903  25.419  23.026  1.00  0.00     0.048 A 
ATOM     23  C   UNL A   1      32.419  26.099  21.923  1.00  0.00     0.033 A 
BRANCH  23  24
ATOM     24  N   UNL A   1      32.012  25.782  20.642  1.00  0.00    -0.399 N 
ATOM     25  H   UNL A   1      31.796  26.498  20.001  1.00  0.00     0.156 HD
ATOM     26  H   UNL A   1      31.935  24.839  20.368  1.00  0.00     0.156 HD
ENDBRANCH  23  24
ENDBRANCH  14  17
ENDBRANCH  12  14
ENDBRANCH   7  12
ENDBRANCH   3   6
ENDBRANCH   1   2
BRANCH   1  27
ATOM     27  C   UNL A   1      39.602  22.615  26.757  1.00  0.00     0.042 C 
BRANCH  27  28
ATOM     28  C   UNL A   1      40.811  23.438  27.181  1.00  0.00     0.118 C 
BRANCH  28  29
ATOM     29  N   UNL A   1      41.368  24.194  26.070  1.00  0.00    -0.352 N 
ATOM     30  C   UNL A   1      41.573  25.545  25.950  1.00  0.00     0.251 C 
ATOM     31  H   UNL A   1      41.638  23.657  25.290  1.00  0.00     0.163 HD
ATOM     32  O   UNL A   1      41.898  26.009  24.860  1.00  0.00    -0.269 OA
BRANCH  30  33
ATOM     33  C   UNL A   1      41.381  26.447  27.111  1.00  0.00     0.039 A 
ATOM     34  C   UNL A   1      40.327  26.183  27.991  1.00  0.00     0.014 A 
ATOM     35  C   UNL A   1      42.196  27.564  27.318  1.00  0.00     0.014 A 
ATOM     36  C   UNL A   1      40.111  27.016  29.090  1.00  0.00     0.010 A 
ATOM     37  C   UNL A   1      42.027  28.350  28.457  1.00  0.00     0.010 A 
ATOM     38  C   UNL A   1      40.971  28.097  29.343  1.00  0.00    -0.014 A 
BRANCH  38  39
ATOM     39  C   UNL A   1      40.748  28.987  30.510  1.00  0.00     0.031 A 
ATOM     40  C   UNL A   1      41.639  28.888  31.720  1.00  0.00     0.074 A 
ATOM     41  C   UNL A   1      39.727  29.865  30.494  1.00  0.00     0.049 A 
ATOM     42  N   UNL A   1      41.613  29.592  32.823  1.00  0.00    -0.248 NA
ATOM     43  C   UNL A   1      42.677  27.845  31.699  1.00  0.00     0.031 C 
ATOM     44  C   UNL A   1      38.765  30.027  29.400  1.00  0.00     0.029 A 
ATOM     45  N   UNL A   1      39.332  30.795  31.423  1.00  0.00    -0.354 N 
ATOM     46  C   UNL A   1      42.611  29.063  33.634  1.00  0.00     0.074 A 
ATOM     47  C   UNL A   1      43.192  27.950  32.915  1.00  0.00     0.031 C 
ATOM     48  C   UNL A   1      37.924  31.030  29.701  1.00  0.00     0.029 A 
ATOM     49  C   UNL A   1      38.266  31.561  31.017  1.00  0.00     0.049 A 
ATOM     50  H   UNL A   1      39.772  30.903  32.297  1.00  0.00     0.167 HD
ATOM     51  C   UNL A   1      43.021  29.475  34.858  1.00  0.00     0.031 A 
ATOM     52  C   UNL A   1      37.643  32.588  31.627  1.00  0.00     0.031 A 
ATOM     53  C   UNL A   1      42.459  30.597  35.560  1.00  0.00     0.049 A 
ATOM     54  C   UNL A   1      38.135  33.048  32.972  1.00  0.00     0.074 A 
ATOM     55  C   UNL A   1      42.848  31.139  36.772  1.00  0.00     0.029 A 
ATOM     56  N   UNL A   1      41.386  31.351  35.110  1.00  0.00    -0.354 N 
ATOM     57  N   UNL A   1      39.126  32.580  33.691  1.00  0.00    -0.248 NA
ATOM     58  C   UNL A   1      37.430  34.186  33.577  1.00  0.00     0.031 C 
ATOM     59  C   UNL A   1      41.986  32.201  37.072  1.00  0.00     0.029 A 
ATOM     60  C   UNL A   1      41.088  32.344  36.026  1.00  0.00     0.049 A 
ATOM     61  H   UNL A   1      40.906  31.201  34.263  1.00  0.00     0.167 HD
ATOM     62  C   UNL A   1      39.184  33.385  34.823  1.00  0.00     0.074 A 
ATOM     63  C   UNL A   1      38.133  34.374  34.688  1.00  0.00     0.031 C 
ATOM     64  C   UNL A   1      40.037  33.318  35.875  1.00  0.00     0.031 A 
BRANCH  51  65
ATOM     65  C   UNL A   1      44.128  28.689  35.512  1.00  0.00    -0.014 A 
ATOM     66  C   UNL A   1      45.479  28.972  35.241  1.00  0.00     0.010 A 
ATOM     67  C   UNL A   1      43.812  27.648  36.403  1.00  0.00     0.010 A 
ATOM     68  C   UNL A   1      46.492  28.189  35.802  1.00  0.00     0.020 A 
ATOM     69  C   UNL A   1      44.824  26.880  36.986  1.00  0.00     0.020 A 
ATOM     70  C   UNL A   1      46.157  27.139  36.661  1.00  0.00     0.054 A 
BRANCH  70  71
ATOM     71  S   UNL A   1      47.487  26.124  37.362  1.00  0.00     0.124 S 
ATOM     72  O   UNL A   1      46.975  25.844  38.701  1.00  0.00    -0.237 OA
ATOM     73  O   UNL A   1      47.533  24.979  36.456  1.00  0.00    -0.237 OA
ATOM     74  O   UNL A   1      48.654  27.001  37.311  1.00  0.00    -0.744 OA
ENDBRANCH  70  71
ENDBRANCH  51  65
BRANCH  52  75
ATOM     75  C   UNL A   1      36.530  33.291  30.937  1.00  0.00    -0.014 A 
ATOM     76  C   UNL A   1      35.251  33.324  31.519  1.00  0.00     0.010 A 
ATOM     77  C   UNL A   1      36.746  33.957  29.718  1.00  0.00     0.010 A 
ATOM     78  C   UNL A   1      34.204  34.003  30.891  1.00  0.00     0.020 A 
ATOM     79  C   UNL A   1      35.707  34.656  29.098  1.00  0.00     0.020 A 
ATOM     80  C   UNL A   1      34.439  34.668  29.684  1.00  0.00     0.054 A 
BRANCH  80  81
ATOM     81  S   UNL A   1      33.083  35.601  28.921  1.00  0.00     0.124 S 
ATOM     82  O   UNL A   1      33.803  36.629  28.177  1.00  0.00    -0.237 OA
ATOM     83  O   UNL A   1      32.414  34.586  28.112  1.00  0.00    -0.237 OA
ATOM     84  O   UNL A   1      32.312  36.080  30.067  1.00  0.00    -0.744 OA
ENDBRANCH  80  81
ENDBRANCH  52  75
BRANCH  64  85
ATOM     85  C   UNL A   1      39.890  34.363  36.947  1.00  0.00    -0.014 A 
ATOM     86  C   UNL A   1      40.620  35.562  36.899  1.00  0.00     0.010 A 
ATOM     87  C   UNL A   1      38.974  34.155  37.994  1.00  0.00     0.010 A 
ATOM     88  C   UNL A   1      40.461  36.524  37.900  1.00  0.00     0.020 A 
ATOM     89  C   UNL A   1      38.796  35.124  38.983  1.00  0.00     0.020 A 
ATOM     90  C   UNL A   1      39.553  36.297  38.940  1.00  0.00     0.054 A 
BRANCH  90  91
ATOM     91  S   UNL A   1      39.336  37.572  40.210  1.00  0.00     0.124 S 
ATOM     92  O   UNL A   1      40.647  38.213  40.225  1.00  0.00    -0.237 OA
ATOM     93  O   UNL A   1      38.245  38.382  39.673  1.00  0.00    -0.237 OA
ATOM     94  O   UNL A   1      39.001  36.809  41.411  1.00  0.00    -0.744 OA
ENDBRANCH  90  91
ENDBRANCH  64  85
ENDBRANCH  38  39
ENDBRANCH  30  33
ENDBRANCH  28  29
ENDBRANCH  27  28
ENDBRANCH   1  27
TORSDOF 17
ENDMDL
MODEL 2
REMARK VINA RESULT:     -11.9      6.544     12.164
REMARK SMILES Cc1ccc(N)cc1S(=O)(=O)Nc1cccc(C(=O)NCCCNC(=O)c2ccc(-c3c4nc(c(-c5ccc(S(=O)(=O)[O-])cc5)c5ccc([nH]5)c(-c5ccc(S(=O)(=O)[O-])cc5)c5nc(c(-c6ccc(S(=O)(=O)[O-])cc6)c6ccc3[nH]6)C=C5)C=C4)cc2)c1
REMARK SMILES IDX 21 1 20 2 18 3 19 4 17 6 13 7 14 8 87 9 15 10 16 11 12 12
REMARK SMILES IDX 9 14 10 15 11 16 8 17 1 18 2 19 3 20 4 21 7 22 5 23 6 24
REMARK SMILES IDX 22 27 23 28 24 29 25 30 26 32 27 33 28 34 86 35 29 36 85 37
REMARK SMILES IDX 30 38 31 39 32 40 79 41 33 42 84 43 78 44 80 45 34 46 83 47
REMARK SMILES IDX 77 48 76 49 35 51 65 52 46 53 64 54 47 55 50 56 63 57 81 58
REMARK SMILES IDX 48 59 49 60 62 62 82 63 51 64 36 65 37 66 45 67 38 68 44 69
REMARK SMILES IDX 39 70 40 71 41 72 42 73 43 74 66 75 67 76 75 77 68 78 74 79
REMARK SMILES IDX 69 80 70 81 71 82 72 83 73 84 52 85 53 86 61 87 54 88 60 89
REMARK SMILES IDX 55 90 56 91 57 92 58 93 59 94
REMARK H PARENT 20 5 12 13 6 25 6 26 24 31 80 50 50 61
REMARK Flexibility Score: inf
ROOT
ATOM      1  C   UNL A   1      34.002  28.941  25.663  1.00  0.00     0.118 C 
ENDROOT
BRANCH   1   2
ATOM      2  N   UNL A   1      32.755  29.553  25.234  1.00  0.00    -0.352 N 
ATOM      3  C   UNL A   1      31.563  29.032  24.798  1.00  0.00     0.251 C 
ATOM      4  O   UNL A   1      30.661  29.831  24.537  1.00  0.00    -0.269 OA
ATOM      5  H   UNL A   1      32.769  30.536  25.262  1.00  0.00     0.163 HD
BRANCH   3   6
ATOM      6  C   UNL A   1      31.273  27.571  24.705  1.00  0.00     0.041 A 
ATOM      7  C   UNL A   1      31.371  25.407  23.620  1.00  0.00     0.050 A 
ATOM      8  C   UNL A   1      30.908  24.793  24.788  1.00  0.00     0.027 A 
ATOM      9  C   UNL A   1      31.445  26.797  23.554  1.00  0.00     0.040 A 
ATOM     10  C   UNL A   1      30.633  25.558  25.917  1.00  0.00     0.003 A 
ATOM     11  C   UNL A   1      30.848  26.935  25.884  1.00  0.00     0.014 A 
BRANCH   7  12
ATOM     12  N   UNL A   1      31.894  24.547  22.619  1.00  0.00    -0.280 N 
ATOM     13  H   UNL A   1      31.315  24.378  21.842  1.00  0.00     0.180 HD
BRANCH  12  14
ATOM     14  S   UNL A   1      33.380  23.791  22.615  1.00  0.00     0.262 S 
ATOM     15  O   UNL A   1      34.325  24.681  23.255  1.00  0.00    -0.201 OA
ATOM     16  O   UNL A   1      33.573  23.361  21.244  1.00  0.00    -0.201 OA
BRANCH  14  17
ATOM     17  C   UNL A   1      33.353  22.290  23.593  1.00  0.00     0.092 A 
ATOM     18  C   UNL A   1      31.837  20.786  22.119  1.00  0.00     0.046 C 
ATOM     19  C   UNL A   1      32.626  21.114  23.347  1.00  0.00    -0.030 A 
ATOM     20  C   UNL A   1      32.604  20.132  24.360  1.00  0.00     0.007 A 
ATOM     21  C   UNL A   1      33.371  20.254  25.520  1.00  0.00     0.026 A 
ATOM     22  C   UNL A   1      34.146  22.380  24.762  1.00  0.00     0.048 A 
ATOM     23  C   UNL A   1      34.202  21.350  25.700  1.00  0.00     0.033 A 
BRANCH  23  24
ATOM     24  N   UNL A   1      34.965  21.476  26.844  1.00  0.00    -0.399 N 
ATOM     25  H   UNL A   1      34.633  21.121  27.700  1.00  0.00     0.156 HD
ATOM     26  H   UNL A   1      35.842  21.923  26.805  1.00  0.00     0.156 HD
ENDBRANCH  23  24
ENDBRANCH  14  17
ENDBRANCH  12  14
ENDBRANCH   7  12
ENDBRANCH   3   6
ENDBRANCH   1   2
BRANCH   1  27
ATOM     27  C   UNL A   1      34.133  28.958  27.184  1.00  0.00     0.042 C 
BRANCH  27  28
ATOM     28  C   UNL A   1      35.383  29.688  27.658  1.00  0.00     0.118 C 
BRANCH  28  29
ATOM     29  N   UNL A   1      35.364  29.919  29.094  1.00  0.00    -0.352 N 
ATOM     30  C   UNL A   1      36.356  29.726  30.022  1.00  0.00     0.251 C 
ATOM     31  H   UNL A   1      34.514  30.265  29.453  1.00  0.00     0.163 HD
ATOM     32  O   UNL A   1      36.087  29.819  31.217  1.00  0.00    -0.269 OA
BRANCH  30  33
ATOM     33  C   UNL A   1      37.735  29.384  29.597  1.00  0.00     0.039 A 
ATOM     34  C   UNL A   1      38.111  29.657  28.279  1.00  0.00     0.014 A 
ATOM     35  C   UNL A   1      38.641  28.767  30.465  1.00  0.00     0.014 A 
ATOM     36  C   UNL A   1      39.399  29.341  27.842  1.00  0.00     0.010 A 
ATOM     37  C   UNL A   1      39.949  28.522  30.050  1.00  0.00     0.010 A 
ATOM     38  C   UNL A   1      40.335  28.787  28.729  1.00  0.00    -0.014 A 
BRANCH  38  39
ATOM     39  C   UNL A   1      41.706  28.448  28.272  1.00  0.00     0.031 A 
ATOM     40  C   UNL A   1      42.778  29.506  28.239  1.00  0.00     0.074 A 
ATOM     41  C   UNL A   1      41.982  27.196  27.859  1.00  0.00     0.049 A 
ATOM     42  N   UNL A   1      44.035  29.396  27.893  1.00  0.00    -0.248 NA
ATOM     43  C   UNL A   1      42.379  30.870  28.622  1.00  0.00     0.031 C 
ATOM     44  C   UNL A   1      41.020  26.092  27.800  1.00  0.00     0.029 A 
ATOM     45  N   UNL A   1      43.155  26.637  27.418  1.00  0.00    -0.354 N 
ATOM     46  C   UNL A   1      44.568  30.676  27.991  1.00  0.00     0.074 A 
ATOM     47  C   UNL A   1      43.488  31.553  28.385  1.00  0.00     0.031 C 
ATOM     48  C   UNL A   1      41.654  24.979  27.396  1.00  0.00     0.029 A 
ATOM     49  C   UNL A   1      43.056  25.295  27.141  1.00  0.00     0.049 A 
ATOM     50  H   UNL A   1      43.989  27.149  27.312  1.00  0.00     0.167 HD
ATOM     51  C   UNL A   1      45.844  31.084  27.789  1.00  0.00     0.031 A 
ATOM     52  C   UNL A   1      43.991  24.413  26.741  1.00  0.00     0.031 A 
ATOM     53  C   UNL A   1      46.922  30.206  27.422  1.00  0.00     0.049 A 
ATOM     54  C   UNL A   1      45.408  24.880  26.553  1.00  0.00     0.074 A 
ATOM     55  C   UNL A   1      48.264  30.506  27.263  1.00  0.00     0.029 A 
ATOM     56  N   UNL A   1      46.781  28.852  27.158  1.00  0.00    -0.354 N 
ATOM     57  N   UNL A   1      45.907  26.082  26.720  1.00  0.00    -0.248 NA
ATOM     58  C   UNL A   1      46.388  23.868  26.138  1.00  0.00     0.031 C 
ATOM     59  C   UNL A   1      48.927  29.339  26.867  1.00  0.00     0.029 A 
ATOM     60  C   UNL A   1      48.006  28.305  26.821  1.00  0.00     0.049 A 
ATOM     61  H   UNL A   1      45.932  28.353  27.204  1.00  0.00     0.167 HD
ATOM     62  C   UNL A   1      47.268  25.964  26.459  1.00  0.00     0.074 A 
ATOM     63  C   UNL A   1      47.512  24.574  26.130  1.00  0.00     0.031 C 
ATOM     64  C   UNL A   1      48.230  26.919  26.496  1.00  0.00     0.031 A 
BRANCH  51  65
ATOM     65  C   UNL A   1      46.130  32.554  27.956  1.00  0.00    -0.014 A 
ATOM     66  C   UNL A   1      46.481  33.090  29.208  1.00  0.00     0.010 A 
ATOM     67  C   UNL A   1      46.038  33.413  26.846  1.00  0.00     0.010 A 
ATOM     68  C   UNL A   1      46.674  34.466  29.360  1.00  0.00     0.020 A 
ATOM     69  C   UNL A   1      46.256  34.786  26.988  1.00  0.00     0.020 A 
ATOM     70  C   UNL A   1      46.547  35.307  28.250  1.00  0.00     0.054 A 
BRANCH  70  71
ATOM     71  S   UNL A   1      46.784  37.091  28.474  1.00  0.00     0.124 S 
ATOM     72  O   UNL A   1      47.267  37.159  29.851  1.00  0.00    -0.237 OA
ATOM     73  O   UNL A   1      47.771  37.419  27.447  1.00  0.00    -0.237 OA
ATOM     74  O   UNL A   1      45.451  37.647  28.252  1.00  0.00    -0.744 OA
ENDBRANCH  70  71
ENDBRANCH  51  65
BRANCH  52  75
ATOM     75  C   UNL A   1      43.627  22.983  26.558  1.00  0.00    -0.014 A 
ATOM     76  C   UNL A   1      44.094  22.276  25.436  1.00  0.00     0.010 A 
ATOM     77  C   UNL A   1      42.844  22.313  27.513  1.00  0.00     0.010 A 
ATOM     78  C   UNL A   1      43.779  20.925  25.268  1.00  0.00     0.020 A 
ATOM     79  C   UNL A   1      42.544  20.956  27.359  1.00  0.00     0.020 A 
ATOM     80  C   UNL A   1      43.006  20.272  26.233  1.00  0.00     0.054 A 
BRANCH  80  81
ATOM     81  S   UNL A   1      42.666  18.502  26.029  1.00  0.00     0.124 S 
ATOM     82  O   UNL A   1      43.017  17.972  27.343  1.00  0.00    -0.237 OA
ATOM     83  O   UNL A   1      41.243  18.487  25.700  1.00  0.00    -0.237 OA
ATOM     84  O   UNL A   1      43.554  18.108  24.936  1.00  0.00    -0.744 OA
ENDBRANCH  80  81
ENDBRANCH  52  75
BRANCH  64  85
ATOM     85  C   UNL A   1      49.640  26.485  26.207  1.00  0.00    -0.014 A 
ATOM     86  C   UNL A   1      50.409  25.817  27.175  1.00  0.00     0.010 A 
ATOM     87  C   UNL A   1      50.187  26.715  24.932  1.00  0.00     0.010 A 
ATOM     88  C   UNL A   1      51.715  25.414  26.882  1.00  0.00     0.020 A 
ATOM     89  C   UNL A   1      51.483  26.294  24.628  1.00  0.00     0.020 A 
ATOM     90  C   UNL A   1      52.246  25.660  25.612  1.00  0.00     0.054 A 
BRANCH  90  91
ATOM     91  S   UNL A   1      53.930  25.098  25.240  1.00  0.00     0.124 S 
ATOM     92  O   UNL A   1      53.724  23.679  24.972  1.00  0.00    -0.237 OA
ATOM     93  O   UNL A   1      54.294  25.911  24.083  1.00  0.00    -0.237 OA
ATOM     94  O   UNL A   1      54.672  25.402  26.463  1.00  0.00    -0.744 OA
ENDBRANCH  90  91
ENDBRANCH  64  85
ENDBRANCH  38  39
ENDBRANCH  30  33
ENDBRANCH  28  29
ENDBRANCH  27  28
ENDBRANCH   1  27
TORSDOF 17
ENDMDL
MODEL 3
REMARK VINA RESULT:     -11.7      4.343      9.503
REMARK SMILES Cc1ccc(N)cc1S(=O)(=O)Nc1cccc(C(=O)NCCCNC(=O)c2ccc(-c3c4nc(c(-c5ccc(S(=O)(=O)[O-])cc5)c5ccc([nH]5)c(-c5ccc(S(=O)(=O)[O-])cc5)c5nc(c(-c6ccc(S(=O)(=O)[O-])cc6)c6ccc3[nH]6)C=C5)C=C4)cc2)c1
REMARK SMILES IDX 21 1 20 2 18 3 19 4 17 6 13 7 14 8 87 9 15 10 16 11 12 12
REMARK SMILES IDX 9 14 10 15 11 16 8 17 1 18 2 19 3 20 4 21 7 22 5 23 6 24
REMARK SMILES IDX 22 27 23 28 24 29 25 30 26 32 27 33 28 34 86 35 29 36 85 37
REMARK SMILES IDX 30 38 31 39 32 40 79 41 33 42 84 43 78 44 80 45 34 46 83 47
REMARK SMILES IDX 77 48 76 49 35 51 65 52 46 53 64 54 47 55 50 56 63 57 81 58
REMARK SMILES IDX 48 59 49 60 62 62 82 63 51 64 36 65 37 66 45 67 38 68 44 69
REMARK SMILES IDX 39 70 40 71 41 72 42 73 43 74 66 75 67 76 75 77 68 78 74 79
REMARK SMILES IDX 69 80 70 81 71 82 72 83 73 84 52 85 53 86 61 87 54 88 60 89
REMARK SMILES IDX 55 90 56 91 57 92 58 93 59 94
REMARK H PARENT 20 5 12 13 6 25 6 26 24 31 80 50 50 61
REMARK Flexibility Score: inf
ROOT
ATOM      1  C   UNL A   1      33.443  28.366  24.340  1.00  0.00     0.118 C 
ENDROOT
BRANCH   1   2
ATOM      2  N   UNL A   1      33.696  27.835  23.010  1.00  0.00    -0.352 N 
ATOM      3  C   UNL A   1      33.317  26.676  22.381  1.00  0.00     0.251 C 
ATOM      4  O   UNL A   1      33.669  26.530  21.210  1.00  0.00    -0.269 OA
ATOM      5  H   UNL A   1      34.249  28.425  22.449  1.00  0.00     0.163 HD
BRANCH   3   6
ATOM      6  C   UNL A   1      32.443  25.637  23.001  1.00  0.00     0.041 A 
ATOM      7  C   UNL A   1      32.046  23.641  24.316  1.00  0.00     0.050 A 
ATOM      8  C   UNL A   1      30.676  23.919  24.337  1.00  0.00     0.027 A 
ATOM      9  C   UNL A   1      32.900  24.441  23.558  1.00  0.00     0.040 A 
ATOM     10  C   UNL A   1      30.184  25.054  23.700  1.00  0.00     0.003 A 
ATOM     11  C   UNL A   1      31.068  25.925  23.066  1.00  0.00     0.014 A 
BRANCH   7  12
ATOM     12  N   UNL A   1      32.501  22.640  25.213  1.00  0.00    -0.280 N 
ATOM     13  H   UNL A   1      32.072  21.758  25.137  1.00  0.00     0.180 HD
BRANCH  12  14
ATOM     14  S   UNL A   1      33.681  22.792  26.380  1.00  0.00     0.262 S 
ATOM     15  O   UNL A   1      33.329  21.914  27.475  1.00  0.00    -0.201 OA
ATOM     16  O   UNL A   1      33.817  24.221  26.585  1.00  0.00    -0.201 OA
BRANCH  14  17
ATOM     17  C   UNL A   1      35.274  22.237  25.776  1.00  0.00     0.092 A 
ATOM     18  C   UNL A   1      34.645  19.898  24.846  1.00  0.00     0.046 C 
ATOM     19  C   UNL A   1      35.598  20.990  25.218  1.00  0.00    -0.030 A 
ATOM     20  C   UNL A   1      36.962  20.704  24.996  1.00  0.00     0.007 A 
ATOM     21  C   UNL A   1      37.957  21.661  25.202  1.00  0.00     0.026 A 
ATOM     22  C   UNL A   1      36.295  23.202  25.949  1.00  0.00     0.048 A 
ATOM     23  C   UNL A   1      37.624  22.943  25.617  1.00  0.00     0.033 A 
BRANCH  23  24
ATOM     24  N   UNL A   1      38.603  23.895  25.820  1.00  0.00    -0.399 N 
ATOM     25  H   UNL A   1      38.824  24.535  25.106  1.00  0.00     0.156 HD
ATOM     26  H   UNL A   1      39.083  23.933  26.680  1.00  0.00     0.156 HD
ENDBRANCH  23  24
ENDBRANCH  14  17
ENDBRANCH  12  14
ENDBRANCH   7  12
ENDBRANCH   3   6
ENDBRANCH   1   2
BRANCH   1  27
ATOM     27  C   UNL A   1      34.302  27.663  25.389  1.00  0.00     0.042 C 
BRANCH  27  28
ATOM     28  C   UNL A   1      33.776  27.859  26.805  1.00  0.00     0.118 C 
BRANCH  28  29
ATOM     29  N   UNL A   1      33.478  29.255  27.084  1.00  0.00    -0.352 N 
ATOM     30  C   UNL A   1      34.253  30.207  27.696  1.00  0.00     0.251 C 
ATOM     31  H   UNL A   1      32.589  29.562  26.791  1.00  0.00     0.163 HD
ATOM     32  O   UNL A   1      33.753  31.290  27.992  1.00  0.00    -0.269 OA
BRANCH  30  33
ATOM     33  C   UNL A   1      35.673  29.933  28.023  1.00  0.00     0.039 A 
ATOM     34  C   UNL A   1      35.992  29.551  29.329  1.00  0.00     0.014 A 
ATOM     35  C   UNL A   1      36.689  30.085  27.074  1.00  0.00     0.014 A 
ATOM     36  C   UNL A   1      37.320  29.293  29.675  1.00  0.00     0.010 A 
ATOM     37  C   UNL A   1      38.004  29.754  27.401  1.00  0.00     0.010 A 
ATOM     38  C   UNL A   1      38.336  29.375  28.709  1.00  0.00    -0.014 A 
BRANCH  38  39
ATOM     39  C   UNL A   1      39.750  29.101  29.068  1.00  0.00     0.031 A 
ATOM     40  C   UNL A   1      40.381  27.781  28.714  1.00  0.00     0.074 A 
ATOM     41  C   UNL A   1      40.459  30.029  29.740  1.00  0.00     0.049 A 
ATOM     42  N   UNL A   1      41.605  27.369  28.925  1.00  0.00    -0.248 NA
ATOM     43  C   UNL A   1      39.518  26.785  28.059  1.00  0.00     0.031 C 
ATOM     44  C   UNL A   1      39.948  31.330  30.182  1.00  0.00     0.029 A 
ATOM     45  N   UNL A   1      41.765  30.025  30.161  1.00  0.00    -0.354 N 
ATOM     46  C   UNL A   1      41.651  26.062  28.454  1.00  0.00     0.074 A 
ATOM     47  C   UNL A   1      40.322  25.734  27.988  1.00  0.00     0.031 C 
ATOM     48  C   UNL A   1      40.944  32.016  30.767  1.00  0.00     0.029 A 
ATOM     49  C   UNL A   1      42.151  31.195  30.769  1.00  0.00     0.049 A 
ATOM     50  H   UNL A   1      42.367  29.257  30.040  1.00  0.00     0.167 HD
ATOM     51  C   UNL A   1      42.707  25.215  28.396  1.00  0.00     0.031 A 
ATOM     52  C   UNL A   1      43.347  31.573  31.259  1.00  0.00     0.031 A 
ATOM     53  C   UNL A   1      44.034  25.550  28.837  1.00  0.00     0.049 A 
ATOM     54  C   UNL A   1      44.513  30.629  31.157  1.00  0.00     0.074 A 
ATOM     55  C   UNL A   1      45.187  24.790  28.758  1.00  0.00     0.029 A 
ATOM     56  N   UNL A   1      44.384  26.749  29.439  1.00  0.00    -0.354 N 
ATOM     57  N   UNL A   1      44.554  29.423  30.643  1.00  0.00    -0.248 NA
ATOM     58  C   UNL A   1      45.797  31.106  31.687  1.00  0.00     0.031 C 
ATOM     59  C   UNL A   1      46.230  25.517  29.346  1.00  0.00     0.029 A 
ATOM     60  C   UNL A   1      45.732  26.745  29.752  1.00  0.00     0.049 A 
ATOM     61  H   UNL A   1      43.765  27.494  29.618  1.00  0.00     0.167 HD
ATOM     62  C   UNL A   1      45.875  29.007  30.761  1.00  0.00     0.074 A 
ATOM     63  C   UNL A   1      46.601  30.093  31.389  1.00  0.00     0.031 C 
ATOM     64  C   UNL A   1      46.438  27.835  30.377  1.00  0.00     0.031 A 
BRANCH  51  65
ATOM     65  C   UNL A   1      42.452  23.837  27.842  1.00  0.00    -0.014 A 
ATOM     66  C   UNL A   1      42.101  22.767  28.685  1.00  0.00     0.010 A 
ATOM     67  C   UNL A   1      42.575  23.607  26.460  1.00  0.00     0.010 A 
ATOM     68  C   UNL A   1      41.937  21.480  28.165  1.00  0.00     0.020 A 
ATOM     69  C   UNL A   1      42.387  22.327  25.932  1.00  0.00     0.020 A 
ATOM     70  C   UNL A   1      42.094  21.265  26.792  1.00  0.00     0.054 A 
BRANCH  70  71
ATOM     71  S   UNL A   1      41.895  19.585  26.141  1.00  0.00     0.124 S 
ATOM     72  O   UNL A   1      40.457  19.527  25.895  1.00  0.00    -0.237 OA
ATOM     73  O   UNL A   1      42.736  19.597  24.946  1.00  0.00    -0.237 OA
ATOM     74  O   UNL A   1      42.376  18.734  27.228  1.00  0.00    -0.744 OA
ENDBRANCH  70  71
ENDBRANCH  51  65
BRANCH  52  75
ATOM     75  C   UNL A   1      43.514  32.936  31.828  1.00  0.00    -0.014 A 
ATOM     76  C   UNL A   1      43.825  34.018  30.985  1.00  0.00     0.010 A 
ATOM     77  C   UNL A   1      43.331  33.169  33.203  1.00  0.00     0.010 A 
ATOM     78  C   UNL A   1      43.958  35.308  31.506  1.00  0.00     0.020 A 
ATOM     79  C   UNL A   1      43.442  34.462  33.724  1.00  0.00     0.020 A 
ATOM     80  C   UNL A   1      43.764  35.521  32.874  1.00  0.00     0.054 A 
BRANCH  80  81
ATOM     81  S   UNL A   1      43.875  37.214  33.518  1.00  0.00     0.124 S 
ATOM     82  O   UNL A   1      43.887  38.005  32.291  1.00  0.00    -0.237 OA
ATOM     83  O   UNL A   1      42.666  37.326  34.331  1.00  0.00    -0.237 OA
ATOM     84  O   UNL A   1      45.126  37.210  34.274  1.00  0.00    -0.744 OA
ENDBRANCH  80  81
ENDBRANCH  52  75
BRANCH  64  85
ATOM     85  C   UNL A   1      47.918  27.680  30.595  1.00  0.00    -0.014 A 
ATOM     86  C   UNL A   1      48.427  27.173  31.802  1.00  0.00     0.010 A 
ATOM     87  C   UNL A   1      48.807  28.010  29.556  1.00  0.00     0.010 A 
ATOM     88  C   UNL A   1      49.805  27.029  31.979  1.00  0.00     0.020 A 
ATOM     89  C   UNL A   1      50.184  27.847  29.722  1.00  0.00     0.020 A 
ATOM     90  C   UNL A   1      50.676  27.372  30.940  1.00  0.00     0.054 A 
BRANCH  90  91
ATOM     91  S   UNL A   1      52.460  27.145  31.178  1.00  0.00     0.124 S 
ATOM     92  O   UNL A   1      52.908  26.824  29.827  1.00  0.00    -0.237 OA
ATOM     93  O   UNL A   1      52.886  28.444  31.691  1.00  0.00    -0.237 OA
ATOM     94  O   UNL A   1      52.542  26.047  32.140  1.00  0.00    -0.744 OA
ENDBRANCH  90  91
ENDBRANCH  64  85
ENDBRANCH  38  39
ENDBRANCH  30  33
ENDBRANCH  28  29
ENDBRANCH  27  28
ENDBRANCH   1  27
TORSDOF 17
ENDMDL
