MODEL 1
REMARK VINA RESULT:      -8.9      0.000      0.000
REMARK SMILES CS(=O)(=O)N(Cc1ccc(Cl)cc1)c1ccc(C(=O)Nc2ccccc2C(=O)NCCCNC(=O)c2ccc(-c3c4nc(c(-c5ccc(S(=O)(=O)[O-])cc5)c5ccc([nH]5)c(-c5ccc(S(=O)(=O)[O-])cc5)c5nc(c(-c6ccc(S(=O)(=O)[O-])cc6)c6ccc3[nH]6)C=C5)C=C4)cc2)cc1
REMARK SMILES IDX 30 1 29 2 27 3 28 4 26 6 21 7 22 8 23 9 25 10 24 11 20 12
REMARK SMILES IDX 18 13 19 14 17 16 14 17 15 18 97 19 16 20 96 21 5 22 2 23
REMARK SMILES IDX 1 24 3 25 4 26 6 27 7 28 8 29 13 30 9 31 12 32 10 33 11 34
REMARK SMILES IDX 31 35 32 36 33 37 34 38 35 40 36 41 37 42 95 43 38 44 94 45
REMARK SMILES IDX 39 46 40 47 41 48 88 49 42 50 93 51 87 52 89 53 43 54 92 55
REMARK SMILES IDX 86 56 85 57 44 59 74 60 55 61 73 62 56 63 59 64 72 65 90 66
REMARK SMILES IDX 57 67 58 68 71 70 91 71 60 72 45 73 46 74 54 75 47 76 53 77
REMARK SMILES IDX 48 78 49 79 50 80 51 81 52 82 75 83 76 84 84 85 77 86 83 87
REMARK SMILES IDX 78 88 79 89 80 90 81 91 82 92 61 93 62 94 70 95 63 96 69 97
REMARK SMILES IDX 64 98 65 99 66 100 67 101 68 102
REMARK H PARENT 29 5 20 15 33 39 89 58 59 69
REMARK Flexibility Score: inf
ROOT
ATOM      1  C   UNL A   1      46.009  44.027  33.450  1.00  0.00     0.118 C 
ENDROOT
BRANCH   1   2
ATOM      2  N   UNL A   1      45.340  44.047  32.160  1.00  0.00    -0.352 N 
ATOM      3  C   UNL A   1      45.612  43.393  30.993  1.00  0.00     0.253 C 
ATOM      4  O   UNL A   1      44.850  43.582  30.043  1.00  0.00    -0.269 OA
ATOM      5  H   UNL A   1      44.552  44.636  32.121  1.00  0.00     0.163 HD
BRANCH   3   6
ATOM      6  C   UNL A   1      46.818  42.546  30.794  1.00  0.00     0.063 A 
ATOM      7  C   UNL A   1      47.982  42.864  30.072  1.00  0.00     0.054 A 
ATOM      8  C   UNL A   1      48.945  41.859  29.867  1.00  0.00     0.027 A 
ATOM      9  C   UNL A   1      48.844  40.617  30.494  1.00  0.00     0.002 A 
ATOM     10  C   UNL A   1      46.737  41.288  31.432  1.00  0.00     0.016 A 
ATOM     11  C   UNL A   1      47.753  40.341  31.304  1.00  0.00     0.001 A 
BRANCH   7  12
ATOM     12  N   UNL A   1      48.365  44.116  29.554  1.00  0.00    -0.321 N 
ATOM     13  C   UNL A   1      48.223  44.720  28.326  1.00  0.00     0.255 C 
ATOM     14  O   UNL A   1      48.843  45.768  28.133  1.00  0.00    -0.269 OA
ATOM     15  H   UNL A   1      48.835  44.678  30.211  1.00  0.00     0.170 HD
BRANCH  13  16
ATOM     16  C   UNL A   1      47.310  44.235  27.261  1.00  0.00     0.040 A 
ATOM     17  C   UNL A   1      45.650  43.204  25.219  1.00  0.00     0.052 A 
ATOM     18  C   UNL A   1      46.919  42.664  25.447  1.00  0.00     0.028 A 
ATOM     19  C   UNL A   1      45.242  44.286  26.001  1.00  0.00     0.028 A 
ATOM     20  C   UNL A   1      47.731  43.154  26.476  1.00  0.00     0.016 A 
ATOM     21  C   UNL A   1      46.096  44.846  26.954  1.00  0.00     0.016 A 
BRANCH  17  22
ATOM     22  N   UNL A   1      44.747  42.522  24.302  1.00  0.00    -0.266 N 
BRANCH  22  23
ATOM     23  S   UNL A   1      44.984  42.890  22.651  1.00  0.00     0.232 S 
ATOM     24  C   UNL A   1      43.329  42.900  22.003  1.00  0.00     0.183 C 
ATOM     25  O   UNL A   1      45.669  41.785  22.017  1.00  0.00    -0.207 OA
ATOM     26  O   UNL A   1      45.505  44.242  22.551  1.00  0.00    -0.207 OA
ENDBRANCH  22  23
BRANCH  22  27
ATOM     27  C   UNL A   1      43.320  42.486  24.761  1.00  0.00     0.170 C 
BRANCH  27  28
ATOM     28  C   UNL A   1      43.030  41.252  25.602  1.00  0.00    -0.027 A 
ATOM     29  C   UNL A   1      44.080  40.456  26.089  1.00  0.00     0.007 A 
ATOM     30  C   UNL A   1      41.708  40.834  25.828  1.00  0.00     0.007 A 
ATOM     31  C   UNL A   1      43.817  39.239  26.727  1.00  0.00     0.021 A 
ATOM     32  C   UNL A   1      41.446  39.627  26.482  1.00  0.00     0.021 A 
ATOM     33  C   UNL A   1      42.501  38.826  26.912  1.00  0.00     0.041 A 
ATOM     34  Cl  UNL A   1      42.172  37.310  27.656  1.00  0.00    -0.084 Cl
ENDBRANCH  27  28
ENDBRANCH  22  27
ENDBRANCH  17  22
ENDBRANCH  13  16
ENDBRANCH   7  12
ENDBRANCH   3   6
ENDBRANCH   1   2
BRANCH   1  35
ATOM     35  C   UNL A   1      45.111  43.566  34.589  1.00  0.00     0.042 C 
BRANCH  35  36
ATOM     36  C   UNL A   1      44.451  42.210  34.358  1.00  0.00     0.118 C 
BRANCH  36  37
ATOM     37  N   UNL A   1      43.170  42.271  33.661  1.00  0.00    -0.352 N 
ATOM     38  C   UNL A   1      42.622  41.446  32.702  1.00  0.00     0.251 C 
ATOM     39  H   UNL A   1      42.599  43.030  33.921  1.00  0.00     0.163 HD
ATOM     40  O   UNL A   1      41.534  41.721  32.205  1.00  0.00    -0.269 OA
BRANCH  38  41
ATOM     41  C   UNL A   1      43.372  40.264  32.230  1.00  0.00     0.039 A 
ATOM     42  C   UNL A   1      43.921  39.383  33.166  1.00  0.00     0.014 A 
ATOM     43  C   UNL A   1      43.473  39.987  30.871  1.00  0.00     0.014 A 
ATOM     44  C   UNL A   1      44.441  38.156  32.739  1.00  0.00     0.010 A 
ATOM     45  C   UNL A   1      43.870  38.722  30.461  1.00  0.00     0.010 A 
ATOM     46  C   UNL A   1      44.343  37.780  31.391  1.00  0.00    -0.014 A 
BRANCH  46  47
ATOM     47  C   UNL A   1      44.695  36.419  30.900  1.00  0.00     0.031 A 
ATOM     48  C   UNL A   1      45.971  36.223  30.122  1.00  0.00     0.074 A 
ATOM     49  C   UNL A   1      43.809  35.405  31.006  1.00  0.00     0.049 A 
ATOM     50  N   UNL A   1      46.330  35.223  29.360  1.00  0.00    -0.248 NA
ATOM     51  C   UNL A   1      46.943  37.329  30.157  1.00  0.00     0.031 C 
ATOM     52  C   UNL A   1      42.514  35.466  31.689  1.00  0.00     0.029 A 
ATOM     53  N   UNL A   1      43.855  34.125  30.507  1.00  0.00    -0.354 N 
ATOM     54  C   UNL A   1      47.528  35.610  28.771  1.00  0.00     0.074 A 
ATOM     55  C   UNL A   1      47.820  36.947  29.240  1.00  0.00     0.031 C 
ATOM     56  C   UNL A   1      41.900  34.276  31.582  1.00  0.00     0.029 A 
ATOM     57  C   UNL A   1      42.725  33.386  30.775  1.00  0.00     0.049 A 
ATOM     58  H   UNL A   1      44.624  33.770  30.006  1.00  0.00     0.167 HD
ATOM     59  C   UNL A   1      48.319  34.913  27.923  1.00  0.00     0.031 A 
ATOM     60  C   UNL A   1      42.376  32.141  30.392  1.00  0.00     0.031 A 
ATOM     61  C   UNL A   1      48.068  33.556  27.526  1.00  0.00     0.049 A 
ATOM     62  C   UNL A   1      43.312  31.355  29.514  1.00  0.00     0.074 A 
ATOM     63  C   UNL A   1      48.856  32.728  26.747  1.00  0.00     0.029 A 
ATOM     64  N   UNL A   1      46.957  32.816  27.901  1.00  0.00    -0.354 N 
ATOM     65  N   UNL A   1      44.457  31.727  28.995  1.00  0.00    -0.248 NA
ATOM     66  C   UNL A   1      42.911  29.982  29.172  1.00  0.00     0.031 C 
ATOM     67  C   UNL A   1      48.210  31.494  26.631  1.00  0.00     0.029 A 
ATOM     68  C   UNL A   1      47.039  31.542  27.370  1.00  0.00     0.049 A 
ATOM     69  H   UNL A   1      46.219  33.150  28.461  1.00  0.00     0.167 HD
ATOM     70  C   UNL A   1      44.927  30.625  28.290  1.00  0.00     0.074 A 
ATOM     71  C   UNL A   1      43.948  29.571  28.454  1.00  0.00     0.031 C 
ATOM     72  C   UNL A   1      46.068  30.498  27.571  1.00  0.00     0.031 A 
BRANCH  59  73
ATOM     73  C   UNL A   1      49.539  35.604  27.375  1.00  0.00    -0.014 A 
ATOM     74  C   UNL A   1      50.720  35.704  28.130  1.00  0.00     0.010 A 
ATOM     75  C   UNL A   1      49.514  36.126  26.068  1.00  0.00     0.010 A 
ATOM     76  C   UNL A   1      51.840  36.356  27.608  1.00  0.00     0.020 A 
ATOM     77  C   UNL A   1      50.642  36.753  25.531  1.00  0.00     0.020 A 
ATOM     78  C   UNL A   1      51.792  36.881  26.313  1.00  0.00     0.054 A 
BRANCH  78  79
ATOM     79  S   UNL A   1      53.267  37.701  25.650  1.00  0.00     0.124 S 
ATOM     80  O   UNL A   1      53.021  37.643  24.212  1.00  0.00    -0.237 OA
ATOM     81  O   UNL A   1      53.190  39.033  26.246  1.00  0.00    -0.237 OA
ATOM     82  O   UNL A   1      54.370  36.871  26.128  1.00  0.00    -0.744 OA
ENDBRANCH  78  79
ENDBRANCH  59  73
BRANCH  60  83
ATOM     83  C   UNL A   1      41.083  31.555  30.837  1.00  0.00    -0.014 A 
ATOM     84  C   UNL A   1      41.005  30.851  32.052  1.00  0.00     0.010 A 
ATOM     85  C   UNL A   1      39.922  31.699  30.056  1.00  0.00     0.010 A 
ATOM     86  C   UNL A   1      39.798  30.279  32.465  1.00  0.00     0.020 A 
ATOM     87  C   UNL A   1      38.708  31.150  30.478  1.00  0.00     0.020 A 
ATOM     88  C   UNL A   1      38.657  30.430  31.674  1.00  0.00     0.054 A 
BRANCH  88  89
ATOM     89  S   UNL A   1      37.090  29.716  32.247  1.00  0.00     0.124 S 
ATOM     90  O   UNL A   1      36.470  30.851  32.923  1.00  0.00    -0.237 OA
ATOM     91  O   UNL A   1      36.455  29.296  31.000  1.00  0.00    -0.237 OA
ATOM     92  O   UNL A   1      37.514  28.623  33.118  1.00  0.00    -0.744 OA
ENDBRANCH  88  89
ENDBRANCH  60  83
BRANCH  72  93
ATOM     93  C   UNL A   1      46.361  29.163  26.949  1.00  0.00    -0.014 A 
ATOM     94  C   UNL A   1      46.968  28.135  27.691  1.00  0.00     0.010 A 
ATOM     95  C   UNL A   1      45.919  28.902  25.640  1.00  0.00     0.010 A 
ATOM     96  C   UNL A   1      47.129  26.866  27.130  1.00  0.00     0.020 A 
ATOM     97  C   UNL A   1      46.060  27.630  25.083  1.00  0.00     0.020 A 
ATOM     98  C   UNL A   1      46.668  26.619  25.832  1.00  0.00     0.054 A 
BRANCH  98  99
ATOM     99  S   UNL A   1      46.802  24.939  25.160  1.00  0.00     0.124 S 
ATOM    100  O   UNL A   1      45.440  24.686  24.701  1.00  0.00    -0.237 OA
ATOM    101  O   UNL A   1      47.802  25.094  24.106  1.00  0.00    -0.237 OA
ATOM    102  O   UNL A   1      47.234  24.143  26.306  1.00  0.00    -0.744 OA
ENDBRANCH  98  99
ENDBRANCH  72  93
ENDBRANCH  46  47
ENDBRANCH  38  41
ENDBRANCH  36  37
ENDBRANCH  35  36
ENDBRANCH   1  35
TORSDOF 19
ENDMDL
MODEL 2
REMARK VINA RESULT:      -8.9      5.028     10.511
REMARK SMILES CS(=O)(=O)N(Cc1ccc(Cl)cc1)c1ccc(C(=O)Nc2ccccc2C(=O)NCCCNC(=O)c2ccc(-c3c4nc(c(-c5ccc(S(=O)(=O)[O-])cc5)c5ccc([nH]5)c(-c5ccc(S(=O)(=O)[O-])cc5)c5nc(c(-c6ccc(S(=O)(=O)[O-])cc6)c6ccc3[nH]6)C=C5)C=C4)cc2)cc1
REMARK SMILES IDX 30 1 29 2 27 3 28 4 26 6 21 7 22 8 23 9 25 10 24 11 20 12
REMARK SMILES IDX 18 13 19 14 17 16 14 17 15 18 97 19 16 20 96 21 5 22 2 23
REMARK SMILES IDX 1 24 3 25 4 26 6 27 7 28 8 29 13 30 9 31 12 32 10 33 11 34
REMARK SMILES IDX 31 35 32 36 33 37 34 38 35 40 36 41 37 42 95 43 38 44 94 45
REMARK SMILES IDX 39 46 40 47 41 48 88 49 42 50 93 51 87 52 89 53 43 54 92 55
REMARK SMILES IDX 86 56 85 57 44 59 74 60 55 61 73 62 56 63 59 64 72 65 90 66
REMARK SMILES IDX 57 67 58 68 71 70 91 71 60 72 45 73 46 74 54 75 47 76 53 77
REMARK SMILES IDX 48 78 49 79 50 80 51 81 52 82 75 83 76 84 84 85 77 86 83 87
REMARK SMILES IDX 78 88 79 89 80 90 81 91 82 92 61 93 62 94 70 95 63 96 69 97
REMARK SMILES IDX 64 98 65 99 66 100 67 101 68 102
REMARK H PARENT 29 5 20 15 33 39 89 58 59 69
REMARK Flexibility Score: inf
ROOT
ATOM      1  C   UNL A   1      38.457  32.871  36.191  1.00  0.00     0.118 C 
ENDROOT
BRANCH   1   2
ATOM      2  N   UNL A   1      37.331  32.532  35.338  1.00  0.00    -0.352 N 
ATOM      3  C   UNL A   1      37.252  32.319  33.991  1.00  0.00     0.253 C 
ATOM      4  O   UNL A   1      36.151  32.017  33.526  1.00  0.00    -0.269 OA
ATOM      5  H   UNL A   1      36.474  32.441  35.814  1.00  0.00     0.163 HD
BRANCH   3   6
ATOM      6  C   UNL A   1      38.397  32.519  33.065  1.00  0.00     0.063 A 
ATOM      7  C   UNL A   1      39.635  31.853  33.074  1.00  0.00     0.054 A 
ATOM      8  C   UNL A   1      40.651  32.304  32.210  1.00  0.00     0.027 A 
ATOM      9  C   UNL A   1      40.405  33.281  31.246  1.00  0.00     0.002 A 
ATOM     10  C   UNL A   1      38.160  33.499  32.074  1.00  0.00     0.016 A 
ATOM     11  C   UNL A   1      39.147  33.859  31.157  1.00  0.00     0.001 A 
BRANCH   7  12
ATOM     12  N   UNL A   1      40.000  30.710  33.812  1.00  0.00    -0.321 N 
ATOM     13  C   UNL A   1      40.139  29.379  33.496  1.00  0.00     0.255 C 
ATOM     14  O   UNL A   1      40.295  28.586  34.427  1.00  0.00    -0.269 OA
ATOM     15  H   UNL A   1      40.197  30.908  34.756  1.00  0.00     0.170 HD
BRANCH  13  16
ATOM     16  C   UNL A   1      40.197  28.855  32.108  1.00  0.00     0.040 A 
ATOM     17  C   UNL A   1      40.439  27.835  29.483  1.00  0.00     0.052 A 
ATOM     18  C   UNL A   1      41.576  28.143  30.236  1.00  0.00     0.028 A 
ATOM     19  C   UNL A   1      39.186  28.078  30.049  1.00  0.00     0.028 A 
ATOM     20  C   UNL A   1      41.459  28.621  31.545  1.00  0.00     0.016 A 
ATOM     21  C   UNL A   1      39.069  28.658  31.314  1.00  0.00     0.016 A 
BRANCH  17  22
ATOM     22  N   UNL A   1      40.599  27.125  28.221  1.00  0.00    -0.266 N 
BRANCH  22  23
ATOM     23  S   UNL A   1      41.060  28.102  26.898  1.00  0.00     0.232 S 
ATOM     24  C   UNL A   1      39.681  29.209  26.722  1.00  0.00     0.183 C 
ATOM     25  O   UNL A   1      41.093  27.290  25.703  1.00  0.00    -0.207 OA
ATOM     26  O   UNL A   1      42.213  28.893  27.290  1.00  0.00    -0.207 OA
ENDBRANCH  22  23
BRANCH  22  27
ATOM     27  C   UNL A   1      39.521  26.120  27.942  1.00  0.00     0.170 C 
BRANCH  27  28
ATOM     28  C   UNL A   1      40.093  24.729  27.711  1.00  0.00    -0.027 A 
ATOM     29  C   UNL A   1      39.371  23.771  26.982  1.00  0.00     0.007 A 
ATOM     30  C   UNL A   1      41.310  24.350  28.302  1.00  0.00     0.007 A 
ATOM     31  C   UNL A   1      39.819  22.449  26.902  1.00  0.00     0.021 A 
ATOM     32  C   UNL A   1      41.766  23.033  28.204  1.00  0.00     0.021 A 
ATOM     33  C   UNL A   1      41.011  22.084  27.521  1.00  0.00     0.041 A 
ATOM     34  Cl  UNL A   1      41.545  20.450  27.464  1.00  0.00    -0.084 Cl
ENDBRANCH  27  28
ENDBRANCH  22  27
ENDBRANCH  17  22
ENDBRANCH  13  16
ENDBRANCH   7  12
ENDBRANCH   3   6
ENDBRANCH   1   2
BRANCH   1  35
ATOM     35  C   UNL A   1      38.045  33.328  37.582  1.00  0.00     0.042 C 
BRANCH  35  36
ATOM     36  C   UNL A   1      39.212  33.719  38.484  1.00  0.00     0.118 C 
BRANCH  36  37
ATOM     37  N   UNL A   1      39.320  35.151  38.749  1.00  0.00    -0.352 N 
ATOM     38  C   UNL A   1      40.093  36.124  38.153  1.00  0.00     0.251 C 
ATOM     39  H   UNL A   1      38.741  35.477  39.475  1.00  0.00     0.163 HD
ATOM     40  O   UNL A   1      40.066  37.275  38.578  1.00  0.00    -0.269 OA
BRANCH  38  41
ATOM     41  C   UNL A   1      41.001  35.770  37.043  1.00  0.00     0.039 A 
ATOM     42  C   UNL A   1      42.323  35.414  37.326  1.00  0.00     0.014 A 
ATOM     43  C   UNL A   1      40.532  35.720  35.734  1.00  0.00     0.014 A 
ATOM     44  C   UNL A   1      43.125  34.872  36.316  1.00  0.00     0.010 A 
ATOM     45  C   UNL A   1      41.282  35.066  34.767  1.00  0.00     0.010 A 
ATOM     46  C   UNL A   1      42.583  34.615  35.048  1.00  0.00    -0.014 A 
BRANCH  46  47
ATOM     47  C   UNL A   1      43.314  33.865  33.989  1.00  0.00     0.031 A 
ATOM     48  C   UNL A   1      43.625  34.548  32.682  1.00  0.00     0.074 A 
ATOM     49  C   UNL A   1      43.552  32.543  34.130  1.00  0.00     0.049 A 
ATOM     50  N   UNL A   1      43.974  34.023  31.537  1.00  0.00    -0.248 NA
ATOM     51  C   UNL A   1      43.458  36.012  32.646  1.00  0.00     0.031 C 
ATOM     52  C   UNL A   1      43.259  31.741  35.321  1.00  0.00     0.029 A 
ATOM     53  N   UNL A   1      44.071  31.630  33.244  1.00  0.00    -0.354 N 
ATOM     54  C   UNL A   1      43.996  35.078  30.631  1.00  0.00     0.074 A 
ATOM     55  C   UNL A   1      43.597  36.266  31.353  1.00  0.00     0.031 C 
ATOM     56  C   UNL A   1      43.618  30.466  35.098  1.00  0.00     0.029 A 
ATOM     57  C   UNL A   1      44.111  30.344  33.731  1.00  0.00     0.049 A 
ATOM     58  H   UNL A   1      44.386  31.874  32.343  1.00  0.00     0.167 HD
ATOM     59  C   UNL A   1      44.328  35.061  29.319  1.00  0.00     0.031 A 
ATOM     60  C   UNL A   1      44.475  29.189  33.140  1.00  0.00     0.031 A 
ATOM     61  C   UNL A   1      44.804  33.895  28.629  1.00  0.00     0.049 A 
ATOM     62  C   UNL A   1      44.918  29.209  31.702  1.00  0.00     0.074 A 
ATOM     63  C   UNL A   1      45.256  33.792  27.325  1.00  0.00     0.029 A 
ATOM     64  N   UNL A   1      44.917  32.634  29.193  1.00  0.00    -0.354 N 
ATOM     65  N   UNL A   1      44.965  30.224  30.872  1.00  0.00    -0.248 NA
ATOM     66  C   UNL A   1      45.360  27.933  31.122  1.00  0.00     0.031 C 
ATOM     67  C   UNL A   1      45.621  32.464  27.093  1.00  0.00     0.029 A 
ATOM     68  C   UNL A   1      45.432  31.748  28.265  1.00  0.00     0.049 A 
ATOM     69  H   UNL A   1      44.666  32.404  30.118  1.00  0.00     0.167 HD
ATOM     70  C   UNL A   1      45.468  29.713  29.682  1.00  0.00     0.074 A 
ATOM     71  C   UNL A   1      45.717  28.304  29.899  1.00  0.00     0.031 C 
ATOM     72  C   UNL A   1      45.702  30.355  28.512  1.00  0.00     0.031 A 
BRANCH  59  73
ATOM     73  C   UNL A   1      44.198  36.346  28.547  1.00  0.00    -0.014 A 
ATOM     74  C   UNL A   1      42.979  36.716  27.951  1.00  0.00     0.010 A 
ATOM     75  C   UNL A   1      45.301  37.213  28.448  1.00  0.00     0.010 A 
ATOM     76  C   UNL A   1      42.880  37.909  27.230  1.00  0.00     0.020 A 
ATOM     77  C   UNL A   1      45.197  38.421  27.753  1.00  0.00     0.020 A 
ATOM     78  C   UNL A   1      43.990  38.752  27.132  1.00  0.00     0.054 A 
BRANCH  78  79
ATOM     79  S   UNL A   1      43.827  40.306  26.211  1.00  0.00     0.124 S 
ATOM     80  O   UNL A   1      44.001  41.299  27.267  1.00  0.00    -0.237 OA
ATOM     81  O   UNL A   1      44.917  40.222  25.242  1.00  0.00    -0.237 OA
ATOM     82  O   UNL A   1      42.483  40.231  25.641  1.00  0.00    -0.744 OA
ENDBRANCH  78  79
ENDBRANCH  59  73
BRANCH  60  83
ATOM     83  C   UNL A   1      44.442  27.912  33.905  1.00  0.00    -0.014 A 
ATOM     84  C   UNL A   1      43.280  27.120  33.910  1.00  0.00     0.010 A 
ATOM     85  C   UNL A   1      45.567  27.479  34.628  1.00  0.00     0.010 A 
ATOM     86  C   UNL A   1      43.235  25.931  34.643  1.00  0.00     0.020 A 
ATOM     87  C   UNL A   1      45.534  26.277  35.342  1.00  0.00     0.020 A 
ATOM     88  C   UNL A   1      44.362  25.518  35.357  1.00  0.00     0.054 A 
BRANCH  88  89
ATOM     89  S   UNL A   1      44.297  23.951  36.271  1.00  0.00     0.124 S 
ATOM     90  O   UNL A   1      43.271  23.216  35.537  1.00  0.00    -0.237 OA
ATOM     91  O   UNL A   1      45.660  23.444  36.134  1.00  0.00    -0.237 OA
ATOM     92  O   UNL A   1      43.928  24.362  37.623  1.00  0.00    -0.744 OA
ENDBRANCH  88  89
ENDBRANCH  60  83
BRANCH  72  93
ATOM     93  C   UNL A   1      46.309  29.566  27.387  1.00  0.00    -0.014 A 
ATOM     94  C   UNL A   1      45.501  28.904  26.447  1.00  0.00     0.010 A 
ATOM     95  C   UNL A   1      47.705  29.584  27.209  1.00  0.00     0.010 A 
ATOM     96  C   UNL A   1      46.081  28.271  25.346  1.00  0.00     0.020 A 
ATOM     97  C   UNL A   1      48.286  28.969  26.099  1.00  0.00     0.020 A 
ATOM     98  C   UNL A   1      47.470  28.313  25.175  1.00  0.00     0.054 A 
BRANCH  98  99
ATOM     99  S   UNL A   1      48.191  27.565  23.687  1.00  0.00     0.124 S 
ATOM    100  O   UNL A   1      47.889  26.151  23.882  1.00  0.00    -0.237 OA
ATOM    101  O   UNL A   1      47.457  28.222  22.609  1.00  0.00    -0.237 OA
ATOM    102  O   UNL A   1      49.606  27.919  23.775  1.00  0.00    -0.744 OA
ENDBRANCH  98  99
ENDBRANCH  72  93
ENDBRANCH  46  47
ENDBRANCH  38  41
ENDBRANCH  36  37
ENDBRANCH  35  36
ENDBRANCH   1  35
TORSDOF 19
ENDMDL
MODEL 3
REMARK VINA RESULT:      -8.8      5.068     12.357
REMARK SMILES CS(=O)(=O)N(Cc1ccc(Cl)cc1)c1ccc(C(=O)Nc2ccccc2C(=O)NCCCNC(=O)c2ccc(-c3c4nc(c(-c5ccc(S(=O)(=O)[O-])cc5)c5ccc([nH]5)c(-c5ccc(S(=O)(=O)[O-])cc5)c5nc(c(-c6ccc(S(=O)(=O)[O-])cc6)c6ccc3[nH]6)C=C5)C=C4)cc2)cc1
REMARK SMILES IDX 30 1 29 2 27 3 28 4 26 6 21 7 22 8 23 9 25 10 24 11 20 12
REMARK SMILES IDX 18 13 19 14 17 16 14 17 15 18 97 19 16 20 96 21 5 22 2 23
REMARK SMILES IDX 1 24 3 25 4 26 6 27 7 28 8 29 13 30 9 31 12 32 10 33 11 34
REMARK SMILES IDX 31 35 32 36 33 37 34 38 35 40 36 41 37 42 95 43 38 44 94 45
REMARK SMILES IDX 39 46 40 47 41 48 88 49 42 50 93 51 87 52 89 53 43 54 92 55
REMARK SMILES IDX 86 56 85 57 44 59 74 60 55 61 73 62 56 63 59 64 72 65 90 66
REMARK SMILES IDX 57 67 58 68 71 70 91 71 60 72 45 73 46 74 54 75 47 76 53 77
REMARK SMILES IDX 48 78 49 79 50 80 51 81 52 82 75 83 76 84 84 85 77 86 83 87
REMARK SMILES IDX 78 88 79 89 80 90 81 91 82 92 61 93 62 94 70 95 63 96 69 97
REMARK SMILES IDX 64 98 65 99 66 100 67 101 68 102
REMARK H PARENT 29 5 20 15 33 39 89 58 59 69
REMARK Flexibility Score: inf
ROOT
ATOM      1  C   UNL A   1      35.149  34.208  30.798  1.00  0.00     0.118 C 
ENDROOT
BRANCH   1   2
ATOM      2  N   UNL A   1      36.477  33.801  30.370  1.00  0.00    -0.352 N 
ATOM      3  C   UNL A   1      36.889  32.795  29.543  1.00  0.00     0.253 C 
ATOM      4  O   UNL A   1      38.098  32.691  29.332  1.00  0.00    -0.269 OA
ATOM      5  H   UNL A   1      37.207  34.346  30.742  1.00  0.00     0.163 HD
BRANCH   3   6
ATOM      6  C   UNL A   1      35.965  31.783  28.967  1.00  0.00     0.063 A 
ATOM      7  C   UNL A   1      35.776  30.454  29.388  1.00  0.00     0.054 A 
ATOM      8  C   UNL A   1      34.970  29.606  28.605  1.00  0.00     0.027 A 
ATOM      9  C   UNL A   1      34.237  30.094  27.523  1.00  0.00     0.002 A 
ATOM     10  C   UNL A   1      35.206  32.264  27.877  1.00  0.00     0.016 A 
ATOM     11  C   UNL A   1      34.331  31.435  27.177  1.00  0.00     0.001 A 
BRANCH   7  12
ATOM     12  N   UNL A   1      36.249  29.842  30.565  1.00  0.00    -0.321 N 
ATOM     13  C   UNL A   1      37.320  29.026  30.847  1.00  0.00     0.255 C 
ATOM     14  O   UNL A   1      37.355  28.498  31.960  1.00  0.00    -0.269 OA
ATOM     15  H   UNL A   1      35.694  30.040  31.353  1.00  0.00     0.170 HD
BRANCH  13  16
ATOM     16  C   UNL A   1      38.468  28.814  29.930  1.00  0.00     0.040 A 
ATOM     17  C   UNL A   1      40.706  28.325  28.273  1.00  0.00     0.052 A 
ATOM     18  C   UNL A   1      40.700  27.906  29.607  1.00  0.00     0.028 A 
ATOM     19  C   UNL A   1      39.593  29.020  27.795  1.00  0.00     0.028 A 
ATOM     20  C   UNL A   1      39.583  28.122  30.421  1.00  0.00     0.016 A 
ATOM     21  C   UNL A   1      38.524  29.332  28.637  1.00  0.00     0.016 A 
BRANCH  17  22
ATOM     22  N   UNL A   1      41.782  27.880  27.398  1.00  0.00    -0.266 N 
BRANCH  22  23
ATOM     23  S   UNL A   1      43.093  28.966  27.261  1.00  0.00     0.232 S 
ATOM     24  C   UNL A   1      44.444  28.050  27.964  1.00  0.00     0.183 C 
ATOM     25  O   UNL A   1      42.862  30.096  28.133  1.00  0.00    -0.207 OA
ATOM     26  O   UNL A   1      43.381  29.163  25.851  1.00  0.00    -0.207 OA
ENDBRANCH  22  23
BRANCH  22  27
ATOM     27  C   UNL A   1      41.313  27.263  26.114  1.00  0.00     0.170 C 
BRANCH  27  28
ATOM     28  C   UNL A   1      41.045  25.773  26.271  1.00  0.00    -0.027 A 
ATOM     29  C   UNL A   1      39.802  25.315  26.736  1.00  0.00     0.007 A 
ATOM     30  C   UNL A   1      42.066  24.836  26.044  1.00  0.00     0.007 A 
ATOM     31  C   UNL A   1      39.604  23.962  27.031  1.00  0.00     0.021 A 
ATOM     32  C   UNL A   1      41.861  23.481  26.321  1.00  0.00     0.021 A 
ATOM     33  C   UNL A   1      40.638  23.053  26.830  1.00  0.00     0.041 A 
ATOM     34  Cl  UNL A   1      40.416  21.395  27.232  1.00  0.00    -0.084 Cl
ENDBRANCH  27  28
ENDBRANCH  22  27
ENDBRANCH  17  22
ENDBRANCH  13  16
ENDBRANCH   7  12
ENDBRANCH   3   6
ENDBRANCH   1   2
BRANCH   1  35
ATOM     35  C   UNL A   1      35.071  34.557  32.277  1.00  0.00     0.042 C 
BRANCH  35  36
ATOM     36  C   UNL A   1      34.905  33.352  33.198  1.00  0.00     0.118 C 
BRANCH  36  37
ATOM     37  N   UNL A   1      35.227  33.611  34.598  1.00  0.00    -0.352 N 
ATOM     38  C   UNL A   1      36.382  33.389  35.316  1.00  0.00     0.251 C 
ATOM     39  H   UNL A   1      34.494  34.013  35.118  1.00  0.00     0.163 HD
ATOM     40  O   UNL A   1      36.414  33.636  36.518  1.00  0.00    -0.269 OA
BRANCH  38  41
ATOM     41  C   UNL A   1      37.562  32.797  34.653  1.00  0.00     0.039 A 
ATOM     42  C   UNL A   1      37.383  32.018  33.506  1.00  0.00     0.014 A 
ATOM     43  C   UNL A   1      38.845  33.066  35.119  1.00  0.00     0.014 A 
ATOM     44  C   UNL A   1      38.496  31.635  32.750  1.00  0.00     0.010 A 
ATOM     45  C   UNL A   1      39.935  32.796  34.304  1.00  0.00     0.010 A 
ATOM     46  C   UNL A   1      39.775  32.093  33.098  1.00  0.00    -0.014 A 
BRANCH  46  47
ATOM     47  C   UNL A   1      40.973  31.889  32.236  1.00  0.00     0.031 A 
ATOM     48  C   UNL A   1      41.816  30.654  32.425  1.00  0.00     0.074 A 
ATOM     49  C   UNL A   1      41.394  32.871  31.410  1.00  0.00     0.049 A 
ATOM     50  N   UNL A   1      43.033  30.412  32.012  1.00  0.00    -0.248 NA
ATOM     51  C   UNL A   1      41.233  29.574  33.241  1.00  0.00     0.031 C 
ATOM     52  C   UNL A   1      40.704  34.140  31.165  1.00  0.00     0.029 A 
ATOM     53  N   UNL A   1      42.529  32.964  30.641  1.00  0.00    -0.354 N 
ATOM     54  C   UNL A   1      43.386  29.192  32.578  1.00  0.00     0.074 A 
ATOM     55  C   UNL A   1      42.266  28.758  33.385  1.00  0.00     0.031 C 
ATOM     56  C   UNL A   1      41.418  34.874  30.295  1.00  0.00     0.029 A 
ATOM     57  C   UNL A   1      42.645  34.157  29.965  1.00  0.00     0.049 A 
ATOM     58  H   UNL A   1      43.198  32.244  30.579  1.00  0.00     0.167 HD
ATOM     59  C   UNL A   1      44.534  28.491  32.431  1.00  0.00     0.031 A 
ATOM     60  C   UNL A   1      43.636  34.637  29.189  1.00  0.00     0.031 A 
ATOM     61  C   UNL A   1      45.608  28.886  31.563  1.00  0.00     0.049 A 
ATOM     62  C   UNL A   1      44.870  33.802  28.975  1.00  0.00     0.074 A 
ATOM     63  C   UNL A   1      46.773  28.200  31.270  1.00  0.00     0.029 A 
ATOM     64  N   UNL A   1      45.636  30.059  30.825  1.00  0.00    -0.354 N 
ATOM     65  N   UNL A   1      45.170  32.635  29.492  1.00  0.00    -0.248 NA
ATOM     66  C   UNL A   1      45.896  34.346  28.074  1.00  0.00     0.031 C 
ATOM     67  C   UNL A   1      47.518  28.969  30.372  1.00  0.00     0.029 A 
ATOM     68  C   UNL A   1      46.798  30.116  30.077  1.00  0.00     0.049 A 
ATOM     69  H   UNL A   1      44.934  30.749  30.833  1.00  0.00     0.167 HD
ATOM     70  C   UNL A   1      46.405  32.292  28.955  1.00  0.00     0.074 A 
ATOM     71  C   UNL A   1      46.795  33.369  28.071  1.00  0.00     0.031 C 
ATOM     72  C   UNL A   1      47.151  31.183  29.178  1.00  0.00     0.031 A 
BRANCH  59  73
ATOM     73  C   UNL A   1      44.684  27.218  33.220  1.00  0.00    -0.014 A 
ATOM     74  C   UNL A   1      44.401  25.967  32.644  1.00  0.00     0.010 A 
ATOM     75  C   UNL A   1      45.151  27.273  34.546  1.00  0.00     0.010 A 
ATOM     76  C   UNL A   1      44.538  24.797  33.395  1.00  0.00     0.020 A 
ATOM     77  C   UNL A   1      45.318  26.102  35.291  1.00  0.00     0.020 A 
ATOM     78  C   UNL A   1      44.991  24.872  34.715  1.00  0.00     0.054 A 
BRANCH  78  79
ATOM     79  S   UNL A   1      45.183  23.336  35.659  1.00  0.00     0.124 S 
ATOM     80  O   UNL A   1      45.365  23.840  37.017  1.00  0.00    -0.237 OA
ATOM     81  O   UNL A   1      43.919  22.645  35.411  1.00  0.00    -0.237 OA
ATOM     82  O   UNL A   1      46.360  22.707  35.064  1.00  0.00    -0.744 OA
ENDBRANCH  78  79
ENDBRANCH  59  73
BRANCH  60  83
ATOM     83  C   UNL A   1      43.507  35.975  28.549  1.00  0.00    -0.014 A 
ATOM     84  C   UNL A   1      44.139  37.095  29.117  1.00  0.00     0.010 A 
ATOM     85  C   UNL A   1      42.757  36.138  27.371  1.00  0.00     0.010 A 
ATOM     86  C   UNL A   1      44.004  38.359  28.534  1.00  0.00     0.020 A 
ATOM     87  C   UNL A   1      42.641  37.396  26.770  1.00  0.00     0.020 A 
ATOM     88  C   UNL A   1      43.253  38.501  27.365  1.00  0.00     0.054 A 
BRANCH  88  89
ATOM     89  S   UNL A   1      43.123  40.142  26.600  1.00  0.00     0.124 S 
ATOM     90  O   UNL A   1      44.246  40.131  25.667  1.00  0.00    -0.237 OA
ATOM     91  O   UNL A   1      41.794  40.108  25.993  1.00  0.00    -0.237 OA
ATOM     92  O   UNL A   1      43.257  41.056  27.732  1.00  0.00    -0.744 OA
ENDBRANCH  88  89
ENDBRANCH  60  83
BRANCH  72  93
ATOM     93  C   UNL A   1      48.437  31.038  28.415  1.00  0.00    -0.014 A 
ATOM     94  C   UNL A   1      48.515  30.224  27.272  1.00  0.00     0.010 A 
ATOM     95  C   UNL A   1      49.548  31.817  28.787  1.00  0.00     0.010 A 
ATOM     96  C   UNL A   1      49.687  30.191  26.514  1.00  0.00     0.020 A 
ATOM     97  C   UNL A   1      50.714  31.801  28.020  1.00  0.00     0.020 A 
ATOM     98  C   UNL A   1      50.778  30.985  26.888  1.00  0.00     0.054 A 
BRANCH  98  99
ATOM     99  S   UNL A   1      52.254  30.997  25.834  1.00  0.00     0.124 S 
ATOM    100  O   UNL A   1      52.593  32.416  25.803  1.00  0.00    -0.237 OA
ATOM    101  O   UNL A   1      53.183  30.145  26.573  1.00  0.00    -0.237 OA
ATOM    102  O   UNL A   1      51.780  30.440  24.569  1.00  0.00    -0.744 OA
ENDBRANCH  98  99
ENDBRANCH  72  93
ENDBRANCH  46  47
ENDBRANCH  38  41
ENDBRANCH  36  37
ENDBRANCH  35  36
ENDBRANCH   1  35
TORSDOF 19
ENDMDL
