MODEL 1
REMARK VINA RESULT:     -11.5      0.000      0.000
REMARK SMILES CC(C)[NH2+][C@@]1(C(=O)NCCCNC(=O)c2ccc(-c3c4nc(c(-c5ccc(S(=O)(=O)[O-])cc5)c5ccc([nH]5)c(-c5ccc(S(=O)(=O)[O-])cc5)c5nc(c(-c6ccc(S(=O)(=O)[O-])cc6)c6ccc3[nH]6)C=C5)C=C4)cc2)CC[C@H](Oc2ccccc2F)C1
REMARK SMILES IDX 10 1 9 2 8 3 6 4 7 5 5 7 75 8 86 9 76 10 77 11 4 12 2 15
REMARK SMILES IDX 1 16 3 17 78 18 79 19 80 20 84 21 81 22 83 23 85 24 82 25
REMARK SMILES IDX 11 26 12 27 13 28 14 30 15 31 16 32 74 33 17 34 73 35 18 36
REMARK SMILES IDX 19 37 20 38 67 39 21 40 72 41 66 42 68 43 22 44 71 45 65 46
REMARK SMILES IDX 64 47 23 49 53 50 34 51 52 52 35 53 38 54 51 55 69 56 36 57
REMARK SMILES IDX 37 58 50 60 70 61 39 62 24 63 25 64 33 65 26 66 32 67 27 68
REMARK SMILES IDX 28 69 29 70 30 71 31 72 54 73 55 74 63 75 56 76 62 77 57 78
REMARK SMILES IDX 58 79 59 80 60 81 61 82 40 83 41 84 49 85 42 86 48 87 43 88
REMARK SMILES IDX 44 89 45 90 46 91 47 92
REMARK H PARENT 8 6 4 13 4 14 12 29 68 48 38 59
REMARK Flexibility Score: inf
ROOT
ATOM      1  C   UNL A   1      33.282  27.750  26.251  1.00  0.00     0.042 C 
ENDROOT
BRANCH   1   2
ATOM      2  C   UNL A   1      31.834  28.174  26.458  1.00  0.00     0.118 C 
BRANCH   2   3
ATOM      3  N   UNL A   1      30.970  27.050  26.745  1.00  0.00    -0.351 N 
ATOM      4  C   UNL A   1      30.354  26.113  25.986  1.00  0.00     0.281 C 
ATOM      5  O   UNL A   1      29.645  25.326  26.638  1.00  0.00    -0.268 OA
ATOM      6  H   UNL A   1      30.792  26.942  27.708  1.00  0.00     0.163 HD
BRANCH   4   7
ATOM      7  C   UNL A   1      30.405  25.981  24.409  1.00  0.00     0.179 C 
ATOM      8  C   UNL A   1      31.598  26.546  23.648  1.00  0.00     0.083 C 
ATOM      9  C   UNL A   1      29.175  26.684  23.791  1.00  0.00     0.124 C 
ATOM     10  C   UNL A   1      31.176  27.869  23.031  1.00  0.00     0.052 C 
ATOM     11  C   UNL A   1      29.655  27.880  22.948  1.00  0.00     0.180 C 
BRANCH   7  12
ATOM     12  N   UNL A   1      30.248  24.511  24.097  1.00  0.00    -0.332 N 
ATOM     13  H   UNL A   1      29.513  24.142  24.700  1.00  0.00     0.347 HD
ATOM     14  H   UNL A   1      30.037  24.464  23.100  1.00  0.00     0.347 HD
BRANCH  12  15
ATOM     15  C   UNL A   1      31.450  23.673  24.287  1.00  0.00     0.176 C 
ATOM     16  C   UNL A   1      31.124  22.582  25.318  1.00  0.00     0.075 C 
ATOM     17  C   UNL A   1      31.864  22.991  22.979  1.00  0.00     0.075 C 
ENDBRANCH  12  15
ENDBRANCH   7  12
BRANCH  11  18
ATOM     18  O   UNL A   1      28.984  29.021  23.480  1.00  0.00    -0.487 OA
BRANCH  18  19
ATOM     19  C   UNL A   1      28.598  30.100  22.747  1.00  0.00     0.155 A 
ATOM     20  C   UNL A   1      28.018  30.090  21.482  1.00  0.00     0.049 A 
ATOM     21  C   UNL A   1      28.930  31.335  23.318  1.00  0.00     0.165 A 
ATOM     22  C   UNL A   1      27.894  31.283  20.758  1.00  0.00     0.004 A 
ATOM     23  C   UNL A   1      28.791  32.526  22.615  1.00  0.00     0.043 A 
ATOM     24  F   UNL A   1      29.478  31.379  24.544  1.00  0.00    -0.203 F 
ATOM     25  C   UNL A   1      28.295  32.498  21.317  1.00  0.00     0.003 A 
ENDBRANCH  18  19
ENDBRANCH  11  18
ENDBRANCH   4   7
ENDBRANCH   2   3
ENDBRANCH   1   2
BRANCH   1  26
ATOM     26  C   UNL A   1      34.198  28.881  25.795  1.00  0.00     0.118 C 
BRANCH  26  27
ATOM     27  N   UNL A   1      34.005  30.080  26.605  1.00  0.00    -0.352 N 
ATOM     28  C   UNL A   1      34.691  30.563  27.695  1.00  0.00     0.251 C 
ATOM     29  H   UNL A   1      33.249  30.643  26.320  1.00  0.00     0.163 HD
ATOM     30  O   UNL A   1      34.151  31.431  28.381  1.00  0.00    -0.269 OA
BRANCH  28  31
ATOM     31  C   UNL A   1      36.047  30.081  28.063  1.00  0.00     0.039 A 
ATOM     32  C   UNL A   1      36.245  29.533  29.339  1.00  0.00     0.014 A 
ATOM     33  C   UNL A   1      37.149  30.247  27.223  1.00  0.00     0.014 A 
ATOM     34  C   UNL A   1      37.520  29.119  29.745  1.00  0.00     0.010 A 
ATOM     35  C   UNL A   1      38.400  29.749  27.590  1.00  0.00     0.010 A 
ATOM     36  C   UNL A   1      38.608  29.199  28.863  1.00  0.00    -0.014 A 
BRANCH  36  37
ATOM     37  C   UNL A   1      39.977  28.754  29.251  1.00  0.00     0.031 A 
ATOM     38  C   UNL A   1      40.912  29.707  29.954  1.00  0.00     0.074 A 
ATOM     39  C   UNL A   1      40.416  27.528  28.903  1.00  0.00     0.049 A 
ATOM     40  N   UNL A   1      42.174  29.551  30.265  1.00  0.00    -0.248 NA
ATOM     41  C   UNL A   1      40.362  31.019  30.331  1.00  0.00     0.031 C 
ATOM     42  C   UNL A   1      39.631  26.517  28.194  1.00  0.00     0.029 A 
ATOM     43  N   UNL A   1      41.639  26.929  29.083  1.00  0.00    -0.354 N 
ATOM     44  C   UNL A   1      42.576  30.751  30.841  1.00  0.00     0.074 A 
ATOM     45  C   UNL A   1      41.437  31.642  30.793  1.00  0.00     0.031 C 
ATOM     46  C   UNL A   1      40.386  25.422  28.005  1.00  0.00     0.029 A 
ATOM     47  C   UNL A   1      41.719  25.665  28.548  1.00  0.00     0.049 A 
ATOM     48  H   UNL A   1      42.388  27.364  29.552  1.00  0.00     0.167 HD
ATOM     49  C   UNL A   1      43.775  31.081  31.380  1.00  0.00     0.031 A 
ATOM     50  C   UNL A   1      42.748  24.797  28.489  1.00  0.00     0.031 A 
ATOM     51  C   UNL A   1      44.901  30.188  31.451  1.00  0.00     0.049 A 
ATOM     52  C   UNL A   1      44.066  25.176  29.101  1.00  0.00     0.074 A 
ATOM     53  C   UNL A   1      46.138  30.406  32.032  1.00  0.00     0.029 A 
ATOM     54  N   UNL A   1      44.926  28.905  30.926  1.00  0.00    -0.354 N 
ATOM     55  N   UNL A   1      44.408  26.298  29.689  1.00  0.00    -0.248 NA
ATOM     56  C   UNL A   1      45.134  24.167  29.056  1.00  0.00     0.031 C 
ATOM     57  C   UNL A   1      46.926  29.268  31.823  1.00  0.00     0.029 A 
ATOM     58  C   UNL A   1      46.162  28.323  31.157  1.00  0.00     0.049 A 
ATOM     59  H   UNL A   1      44.177  28.470  30.458  1.00  0.00     0.167 HD
ATOM     60  C   UNL A   1      45.723  26.120  30.106  1.00  0.00     0.074 A 
ATOM     61  C   UNL A   1      46.110  24.779  29.714  1.00  0.00     0.031 C 
ATOM     62  C   UNL A   1      46.534  26.989  30.758  1.00  0.00     0.031 A 
BRANCH  49  63
ATOM     63  C   UNL A   1      43.926  32.476  31.932  1.00  0.00    -0.014 A 
ATOM     64  C   UNL A   1      43.639  32.759  33.280  1.00  0.00     0.010 A 
ATOM     65  C   UNL A   1      44.371  33.517  31.096  1.00  0.00     0.010 A 
ATOM     66  C   UNL A   1      43.734  34.066  33.766  1.00  0.00     0.020 A 
ATOM     67  C   UNL A   1      44.497  34.820  31.586  1.00  0.00     0.020 A 
ATOM     68  C   UNL A   1      44.154  35.091  32.913  1.00  0.00     0.054 A 
BRANCH  68  69
ATOM     69  S   UNL A   1      44.263  36.778  33.567  1.00  0.00     0.124 S 
ATOM     70  O   UNL A   1      43.468  37.528  32.597  1.00  0.00    -0.237 OA
ATOM     71  O   UNL A   1      43.671  36.649  34.895  1.00  0.00    -0.237 OA
ATOM     72  O   UNL A   1      45.696  37.065  33.553  1.00  0.00    -0.744 OA
ENDBRANCH  68  69
ENDBRANCH  49  63
BRANCH  50  73
ATOM     73  C   UNL A   1      42.553  23.469  27.845  1.00  0.00    -0.014 A 
ATOM     74  C   UNL A   1      43.031  23.233  26.545  1.00  0.00     0.010 A 
ATOM     75  C   UNL A   1      41.927  22.421  28.546  1.00  0.00     0.010 A 
ATOM     76  C   UNL A   1      42.883  21.975  25.954  1.00  0.00     0.020 A 
ATOM     77  C   UNL A   1      41.800  21.155  27.967  1.00  0.00     0.020 A 
ATOM     78  C   UNL A   1      42.273  20.942  26.670  1.00  0.00     0.054 A 
BRANCH  78  79
ATOM     79  S   UNL A   1      42.163  19.298  25.910  1.00  0.00     0.124 S 
ATOM     80  O   UNL A   1      42.992  19.457  24.719  1.00  0.00    -0.237 OA
ATOM     81  O   UNL A   1      42.713  18.432  26.952  1.00  0.00    -0.237 OA
ATOM     82  O   UNL A   1      40.733  19.130  25.664  1.00  0.00    -0.744 OA
ENDBRANCH  78  79
ENDBRANCH  50  73
BRANCH  62  83
ATOM     83  C   UNL A   1      47.915  26.510  31.117  1.00  0.00    -0.014 A 
ATOM     84  C   UNL A   1      49.004  26.712  30.253  1.00  0.00     0.010 A 
ATOM     85  C   UNL A   1      48.133  25.897  32.365  1.00  0.00     0.010 A 
ATOM     86  C   UNL A   1      50.284  26.286  30.618  1.00  0.00     0.020 A 
ATOM     87  C   UNL A   1      49.414  25.492  32.745  1.00  0.00     0.020 A 
ATOM     88  C   UNL A   1      50.481  25.676  31.862  1.00  0.00     0.054 A 
BRANCH  88  89
ATOM     89  S   UNL A   1      52.158  25.173  32.335  1.00  0.00     0.124 S 
ATOM     90  O   UNL A   1      52.952  25.681  31.221  1.00  0.00    -0.237 OA
ATOM     91  O   UNL A   1      52.353  25.859  33.611  1.00  0.00    -0.237 OA
ATOM     92  O   UNL A   1      52.071  23.717  32.425  1.00  0.00    -0.744 OA
ENDBRANCH  88  89
ENDBRANCH  62  83
ENDBRANCH  36  37
ENDBRANCH  28  31
ENDBRANCH  26  27
ENDBRANCH   1  26
TORSDOF 17
ENDMDL
MODEL 2
REMARK VINA RESULT:     -11.2      2.972      9.096
REMARK SMILES CC(C)[NH2+][C@@]1(C(=O)NCCCNC(=O)c2ccc(-c3c4nc(c(-c5ccc(S(=O)(=O)[O-])cc5)c5ccc([nH]5)c(-c5ccc(S(=O)(=O)[O-])cc5)c5nc(c(-c6ccc(S(=O)(=O)[O-])cc6)c6ccc3[nH]6)C=C5)C=C4)cc2)CC[C@H](Oc2ccccc2F)C1
REMARK SMILES IDX 10 1 9 2 8 3 6 4 7 5 5 7 75 8 86 9 76 10 77 11 4 12 2 15
REMARK SMILES IDX 1 16 3 17 78 18 79 19 80 20 84 21 81 22 83 23 85 24 82 25
REMARK SMILES IDX 11 26 12 27 13 28 14 30 15 31 16 32 74 33 17 34 73 35 18 36
REMARK SMILES IDX 19 37 20 38 67 39 21 40 72 41 66 42 68 43 22 44 71 45 65 46
REMARK SMILES IDX 64 47 23 49 53 50 34 51 52 52 35 53 38 54 51 55 69 56 36 57
REMARK SMILES IDX 37 58 50 60 70 61 39 62 24 63 25 64 33 65 26 66 32 67 27 68
REMARK SMILES IDX 28 69 29 70 30 71 31 72 54 73 55 74 63 75 56 76 62 77 57 78
REMARK SMILES IDX 58 79 59 80 60 81 61 82 40 83 41 84 49 85 42 86 48 87 43 88
REMARK SMILES IDX 44 89 45 90 46 91 47 92
REMARK H PARENT 8 6 4 13 4 14 12 29 68 48 38 59
REMARK Flexibility Score: inf
ROOT
ATOM      1  C   UNL A   1      35.369  23.572  25.475  1.00  0.00     0.042 C 
ENDROOT
BRANCH   1   2
ATOM      2  C   UNL A   1      34.591  22.648  24.547  1.00  0.00     0.118 C 
BRANCH   2   3
ATOM      3  N   UNL A   1      34.021  23.356  23.421  1.00  0.00    -0.351 N 
ATOM      4  C   UNL A   1      32.923  24.128  23.248  1.00  0.00     0.281 C 
ATOM      5  O   UNL A   1      32.766  24.522  22.079  1.00  0.00    -0.268 OA
ATOM      6  H   UNL A   1      34.552  23.255  22.598  1.00  0.00     0.163 HD
BRANCH   4   7
ATOM      7  C   UNL A   1      31.838  24.500  24.340  1.00  0.00     0.179 C 
ATOM      8  C   UNL A   1      30.480  25.030  23.897  1.00  0.00     0.083 C 
ATOM      9  C   UNL A   1      32.401  25.594  25.276  1.00  0.00     0.124 C 
ATOM     10  C   UNL A   1      30.479  26.537  24.092  1.00  0.00     0.052 C 
ATOM     11  C   UNL A   1      31.566  26.877  25.103  1.00  0.00     0.180 C 
BRANCH   7  12
ATOM     12  N   UNL A   1      31.653  23.271  25.197  1.00  0.00    -0.332 N 
ATOM     13  H   UNL A   1      30.854  22.754  24.831  1.00  0.00     0.347 HD
ATOM     14  H   UNL A   1      32.538  22.767  25.147  1.00  0.00     0.347 HD
BRANCH  12  15
ATOM     15  C   UNL A   1      31.415  23.509  26.636  1.00  0.00     0.176 C 
ATOM     16  C   UNL A   1      30.003  23.013  26.984  1.00  0.00     0.075 C 
ATOM     17  C   UNL A   1      32.421  22.741  27.500  1.00  0.00     0.075 C 
ENDBRANCH  12  15
ENDBRANCH   7  12
BRANCH  11  18
ATOM     18  O   UNL A   1      32.495  27.896  24.740  1.00  0.00    -0.487 OA
BRANCH  18  19
ATOM     19  C   UNL A   1      33.040  28.790  25.609  1.00  0.00     0.155 A 
ATOM     20  C   UNL A   1      34.229  28.650  26.318  1.00  0.00     0.049 A 
ATOM     21  C   UNL A   1      32.237  29.908  25.868  1.00  0.00     0.165 A 
ATOM     22  C   UNL A   1      34.539  29.546  27.351  1.00  0.00     0.004 A 
ATOM     23  C   UNL A   1      32.547  30.813  26.876  1.00  0.00     0.043 A 
ATOM     24  F   UNL A   1      31.090  30.078  25.190  1.00  0.00    -0.203 F 
ATOM     25  C   UNL A   1      33.691  30.616  27.640  1.00  0.00     0.003 A 
ENDBRANCH  18  19
ENDBRANCH  11  18
ENDBRANCH   4   7
ENDBRANCH   2   3
ENDBRANCH   1   2
BRANCH   1  26
ATOM     26  C   UNL A   1      36.791  23.863  25.007  1.00  0.00     0.118 C 
BRANCH  26  27
ATOM     27  N   UNL A   1      37.721  22.831  25.457  1.00  0.00    -0.352 N 
ATOM     28  C   UNL A   1      38.949  22.917  26.069  1.00  0.00     0.251 C 
ATOM     29  H   UNL A   1      37.413  21.910  25.293  1.00  0.00     0.163 HD
ATOM     30  O   UNL A   1      39.665  21.915  26.073  1.00  0.00    -0.269 OA
BRANCH  28  31
ATOM     31  C   UNL A   1      39.432  24.161  26.721  1.00  0.00     0.039 A 
ATOM     32  C   UNL A   1      39.053  24.418  28.047  1.00  0.00     0.014 A 
ATOM     33  C   UNL A   1      40.164  25.127  26.031  1.00  0.00     0.014 A 
ATOM     34  C   UNL A   1      39.440  25.607  28.679  1.00  0.00     0.010 A 
ATOM     35  C   UNL A   1      40.631  26.266  26.689  1.00  0.00     0.010 A 
ATOM     36  C   UNL A   1      40.257  26.533  28.014  1.00  0.00    -0.014 A 
BRANCH  36  37
ATOM     37  C   UNL A   1      40.705  27.801  28.658  1.00  0.00     0.031 A 
ATOM     38  C   UNL A   1      42.087  27.901  29.253  1.00  0.00     0.074 A 
ATOM     39  C   UNL A   1      39.850  28.835  28.785  1.00  0.00     0.049 A 
ATOM     40  N   UNL A   1      42.618  28.868  29.958  1.00  0.00    -0.248 NA
ATOM     41  C   UNL A   1      42.981  26.748  29.055  1.00  0.00     0.031 C 
ATOM     42  C   UNL A   1      38.475  28.865  28.286  1.00  0.00     0.029 A 
ATOM     43  N   UNL A   1      40.006  30.058  29.392  1.00  0.00    -0.354 N 
ATOM     44  C   UNL A   1      43.889  28.429  30.313  1.00  0.00     0.074 A 
ATOM     45  C   UNL A   1      44.031  27.088  29.787  1.00  0.00     0.031 C 
ATOM     46  C   UNL A   1      37.915  30.045  28.598  1.00  0.00     0.029 A 
ATOM     47  C   UNL A   1      38.878  30.843  29.351  1.00  0.00     0.049 A 
ATOM     48  H   UNL A   1      40.847  30.344  29.818  1.00  0.00     0.167 HD
ATOM     49  C   UNL A   1      44.859  29.082  30.997  1.00  0.00     0.031 A 
ATOM     50  C   UNL A   1      38.636  32.064  29.865  1.00  0.00     0.031 A 
ATOM     51  C   UNL A   1      44.727  30.424  31.499  1.00  0.00     0.049 A 
ATOM     52  C   UNL A   1      39.727  32.779  30.610  1.00  0.00     0.074 A 
ATOM     53  C   UNL A   1      45.674  31.198  32.149  1.00  0.00     0.029 A 
ATOM     54  N   UNL A   1      43.579  31.195  31.404  1.00  0.00    -0.354 N 
ATOM     55  N   UNL A   1      40.941  32.365  30.888  1.00  0.00    -0.248 NA
ATOM     56  C   UNL A   1      39.422  34.131  31.099  1.00  0.00     0.031 C 
ATOM     57  C   UNL A   1      45.084  32.421  32.483  1.00  0.00     0.029 A 
ATOM     58  C   UNL A   1      43.786  32.430  31.996  1.00  0.00     0.049 A 
ATOM     59  H   UNL A   1      42.739  30.908  30.978  1.00  0.00     0.167 HD
ATOM     60  C   UNL A   1      41.552  33.416  31.563  1.00  0.00     0.074 A 
ATOM     61  C   UNL A   1      40.580  34.488  31.640  1.00  0.00     0.031 C 
ATOM     62  C   UNL A   1      42.809  33.486  32.069  1.00  0.00     0.031 A 
BRANCH  49  63
ATOM     63  C   UNL A   1      46.150  28.344  31.244  1.00  0.00    -0.014 A 
ATOM     64  C   UNL A   1      46.324  27.548  32.391  1.00  0.00     0.010 A 
ATOM     65  C   UNL A   1      47.200  28.437  30.313  1.00  0.00     0.010 A 
ATOM     66  C   UNL A   1      47.544  26.909  32.633  1.00  0.00     0.020 A 
ATOM     67  C   UNL A   1      48.412  27.775  30.535  1.00  0.00     0.020 A 
ATOM     68  C   UNL A   1      48.584  27.035  31.707  1.00  0.00     0.054 A 
BRANCH  68  69
ATOM     69  S   UNL A   1      50.158  26.202  32.049  1.00  0.00     0.124 S 
ATOM     70  O   UNL A   1      50.338  26.474  33.473  1.00  0.00    -0.237 OA
ATOM     71  O   UNL A   1      49.869  24.812  31.708  1.00  0.00    -0.237 OA
ATOM     72  O   UNL A   1      51.106  26.873  31.161  1.00  0.00    -0.744 OA
ENDBRANCH  68  69
ENDBRANCH  49  63
BRANCH  50  73
ATOM     73  C   UNL A   1      37.303  32.697  29.661  1.00  0.00    -0.014 A 
ATOM     74  C   UNL A   1      36.361  32.718  30.703  1.00  0.00     0.010 A 
ATOM     75  C   UNL A   1      36.988  33.319  28.439  1.00  0.00     0.010 A 
ATOM     76  C   UNL A   1      35.124  33.344  30.526  1.00  0.00     0.020 A 
ATOM     77  C   UNL A   1      35.762  33.968  28.267  1.00  0.00     0.020 A 
ATOM     78  C   UNL A   1      34.834  33.971  29.311  1.00  0.00     0.054 A 
BRANCH  78  79
ATOM     79  S   UNL A   1      33.253  34.845  29.133  1.00  0.00     0.124 S 
ATOM     80  O   UNL A   1      32.703  34.754  30.483  1.00  0.00    -0.237 OA
ATOM     81  O   UNL A   1      33.677  36.178  28.711  1.00  0.00    -0.237 OA
ATOM     82  O   UNL A   1      32.548  34.072  28.114  1.00  0.00    -0.744 OA
ENDBRANCH  78  79
ENDBRANCH  50  73
BRANCH  62  83
ATOM     83  C   UNL A   1      43.218  34.776  32.727  1.00  0.00    -0.014 A 
ATOM     84  C   UNL A   1      43.631  35.883  31.967  1.00  0.00     0.010 A 
ATOM     85  C   UNL A   1      43.136  34.895  34.127  1.00  0.00     0.010 A 
ATOM     86  C   UNL A   1      43.979  37.081  32.598  1.00  0.00     0.020 A 
ATOM     87  C   UNL A   1      43.459  36.098  34.759  1.00  0.00     0.020 A 
ATOM     88  C   UNL A   1      43.893  37.180  33.990  1.00  0.00     0.054 A 
BRANCH  88  89
ATOM     89  S   UNL A   1      44.305  38.759  34.783  1.00  0.00     0.124 S 
ATOM     90  O   UNL A   1      43.834  38.546  36.147  1.00  0.00    -0.237 OA
ATOM     91  O   UNL A   1      45.757  38.830  34.623  1.00  0.00    -0.237 OA
ATOM     92  O   UNL A   1      43.551  39.742  34.009  1.00  0.00    -0.744 OA
ENDBRANCH  88  89
ENDBRANCH  62  83
ENDBRANCH  36  37
ENDBRANCH  28  31
ENDBRANCH  26  27
ENDBRANCH   1  26
TORSDOF 17
ENDMDL
MODEL 3
REMARK VINA RESULT:     -11.1      2.768      8.990
REMARK SMILES CC(C)[NH2+][C@@]1(C(=O)NCCCNC(=O)c2ccc(-c3c4nc(c(-c5ccc(S(=O)(=O)[O-])cc5)c5ccc([nH]5)c(-c5ccc(S(=O)(=O)[O-])cc5)c5nc(c(-c6ccc(S(=O)(=O)[O-])cc6)c6ccc3[nH]6)C=C5)C=C4)cc2)CC[C@H](Oc2ccccc2F)C1
REMARK SMILES IDX 10 1 9 2 8 3 6 4 7 5 5 7 75 8 86 9 76 10 77 11 4 12 2 15
REMARK SMILES IDX 1 16 3 17 78 18 79 19 80 20 84 21 81 22 83 23 85 24 82 25
REMARK SMILES IDX 11 26 12 27 13 28 14 30 15 31 16 32 74 33 17 34 73 35 18 36
REMARK SMILES IDX 19 37 20 38 67 39 21 40 72 41 66 42 68 43 22 44 71 45 65 46
REMARK SMILES IDX 64 47 23 49 53 50 34 51 52 52 35 53 38 54 51 55 69 56 36 57
REMARK SMILES IDX 37 58 50 60 70 61 39 62 24 63 25 64 33 65 26 66 32 67 27 68
REMARK SMILES IDX 28 69 29 70 30 71 31 72 54 73 55 74 63 75 56 76 62 77 57 78
REMARK SMILES IDX 58 79 59 80 60 81 61 82 40 83 41 84 49 85 42 86 48 87 43 88
REMARK SMILES IDX 44 89 45 90 46 91 47 92
REMARK H PARENT 8 6 4 13 4 14 12 29 68 48 38 59
REMARK Flexibility Score: inf
ROOT
ATOM      1  C   UNL A   1      35.126  23.518  25.788  1.00  0.00     0.042 C 
ENDROOT
BRANCH   1   2
ATOM      2  C   UNL A   1      34.065  23.402  24.701  1.00  0.00     0.118 C 
BRANCH   2   3
ATOM      3  N   UNL A   1      34.039  24.561  23.836  1.00  0.00    -0.351 N 
ATOM      4  C   UNL A   1      33.426  25.767  23.889  1.00  0.00     0.281 C 
ATOM      5  O   UNL A   1      33.636  26.482  22.893  1.00  0.00    -0.268 OA
ATOM      6  H   UNL A   1      34.591  24.448  23.029  1.00  0.00     0.163 HD
BRANCH   4   7
ATOM      7  C   UNL A   1      32.459  26.295  25.028  1.00  0.00     0.179 C 
ATOM      8  C   UNL A   1      31.383  25.371  25.585  1.00  0.00     0.083 C 
ATOM      9  C   UNL A   1      31.688  27.534  24.518  1.00  0.00     0.124 C 
ATOM     10  C   UNL A   1      30.057  25.765  24.957  1.00  0.00     0.052 C 
ATOM     11  C   UNL A   1      30.188  27.195  24.450  1.00  0.00     0.180 C 
BRANCH   7  12
ATOM     12  N   UNL A   1      33.344  26.785  26.149  1.00  0.00    -0.332 N 
ATOM     13  H   UNL A   1      33.146  26.216  26.972  1.00  0.00     0.347 HD
ATOM     14  H   UNL A   1      34.299  26.700  25.800  1.00  0.00     0.347 HD
BRANCH  12  15
ATOM     15  C   UNL A   1      33.187  28.203  26.532  1.00  0.00     0.176 C 
ATOM     16  C   UNL A   1      32.177  28.285  27.687  1.00  0.00     0.075 C 
ATOM     17  C   UNL A   1      34.515  28.800  27.010  1.00  0.00     0.075 C 
ENDBRANCH  12  15
ENDBRANCH   7  12
BRANCH  11  18
ATOM     18  O   UNL A   1      29.796  27.444  23.102  1.00  0.00    -0.487 OA
BRANCH  18  19
ATOM     19  C   UNL A   1      29.283  28.622  22.652  1.00  0.00     0.155 A 
ATOM     20  C   UNL A   1      29.973  29.645  22.008  1.00  0.00     0.049 A 
ATOM     21  C   UNL A   1      27.939  28.831  22.984  1.00  0.00     0.165 A 
ATOM     22  C   UNL A   1      29.361  30.891  21.818  1.00  0.00     0.004 A 
ATOM     23  C   UNL A   1      27.317  30.057  22.780  1.00  0.00     0.043 A 
ATOM     24  F   UNL A   1      27.241  27.857  23.593  1.00  0.00    -0.203 F 
ATOM     25  C   UNL A   1      28.041  31.102  22.217  1.00  0.00     0.003 A 
ENDBRANCH  18  19
ENDBRANCH  11  18
ENDBRANCH   4   7
ENDBRANCH   2   3
ENDBRANCH   1   2
BRANCH   1  26
ATOM     26  C   UNL A   1      36.510  23.882  25.263  1.00  0.00     0.118 C 
BRANCH  26  27
ATOM     27  N   UNL A   1      37.493  22.856  25.601  1.00  0.00    -0.352 N 
ATOM     28  C   UNL A   1      38.762  22.947  26.122  1.00  0.00     0.251 C 
ATOM     29  H   UNL A   1      37.193  21.935  25.423  1.00  0.00     0.163 HD
ATOM     30  O   UNL A   1      39.497  21.964  26.032  1.00  0.00    -0.269 OA
BRANCH  28  31
ATOM     31  C   UNL A   1      39.266  24.176  26.787  1.00  0.00     0.039 A 
ATOM     32  C   UNL A   1      38.890  24.427  28.115  1.00  0.00     0.014 A 
ATOM     33  C   UNL A   1      40.017  25.135  26.107  1.00  0.00     0.014 A 
ATOM     34  C   UNL A   1      39.298  25.602  28.759  1.00  0.00     0.010 A 
ATOM     35  C   UNL A   1      40.503  26.259  26.777  1.00  0.00     0.010 A 
ATOM     36  C   UNL A   1      40.132  26.520  28.104  1.00  0.00    -0.014 A 
BRANCH  36  37
ATOM     37  C   UNL A   1      40.602  27.773  28.760  1.00  0.00     0.031 A 
ATOM     38  C   UNL A   1      41.982  27.840  29.366  1.00  0.00     0.074 A 
ATOM     39  C   UNL A   1      39.768  28.824  28.890  1.00  0.00     0.049 A 
ATOM     40  N   UNL A   1      42.528  28.791  30.081  1.00  0.00    -0.248 NA
ATOM     41  C   UNL A   1      42.853  26.670  29.164  1.00  0.00     0.031 C 
ATOM     42  C   UNL A   1      38.397  28.886  28.382  1.00  0.00     0.029 A 
ATOM     43  N   UNL A   1      39.945  30.038  29.508  1.00  0.00    -0.354 N 
ATOM     44  C   UNL A   1      43.787  28.322  30.441  1.00  0.00     0.074 A 
ATOM     45  C   UNL A   1      43.905  26.982  29.905  1.00  0.00     0.031 C 
ATOM     46  C   UNL A   1      37.860  30.075  28.700  1.00  0.00     0.029 A 
ATOM     47  C   UNL A   1      38.835  30.847  29.465  1.00  0.00     0.049 A 
ATOM     48  H   UNL A   1      40.789  30.304  29.941  1.00  0.00     0.167 HD
ATOM     49  C   UNL A   1      44.766  28.950  31.136  1.00  0.00     0.031 A 
ATOM     50  C   UNL A   1      38.614  32.069  29.987  1.00  0.00     0.031 A 
ATOM     51  C   UNL A   1      44.659  30.291  31.648  1.00  0.00     0.049 A 
ATOM     52  C   UNL A   1      39.714  32.755  30.745  1.00  0.00     0.074 A 
ATOM     53  C   UNL A   1      45.617  31.039  32.310  1.00  0.00     0.029 A 
ATOM     54  N   UNL A   1      43.527  31.085  31.552  1.00  0.00    -0.354 N 
ATOM     55  N   UNL A   1      40.918  32.314  31.028  1.00  0.00    -0.248 NA
ATOM     56  C   UNL A   1      39.435  34.109  31.243  1.00  0.00     0.031 C 
ATOM     57  C   UNL A   1      45.050  32.272  32.650  1.00  0.00     0.029 A 
ATOM     58  C   UNL A   1      43.757  32.311  32.155  1.00  0.00     0.049 A 
ATOM     59  H   UNL A   1      42.684  30.819  31.118  1.00  0.00     0.167 HD
ATOM     60  C   UNL A   1      41.547  33.347  31.715  1.00  0.00     0.074 A 
ATOM     61  C   UNL A   1      40.596  34.438  31.794  1.00  0.00     0.031 C 
ATOM     62  C   UNL A   1      42.801  33.387  32.229  1.00  0.00     0.031 A 
BRANCH  49  63
ATOM     63  C   UNL A   1      46.040  28.183  31.385  1.00  0.00    -0.014 A 
ATOM     64  C   UNL A   1      47.119  28.255  30.485  1.00  0.00     0.010 A 
ATOM     65  C   UNL A   1      46.166  27.387  32.539  1.00  0.00     0.010 A 
ATOM     66  C   UNL A   1      48.275  27.499  30.702  1.00  0.00     0.020 A 
ATOM     67  C   UNL A   1      47.332  26.654  32.775  1.00  0.00     0.020 A 
ATOM     68  C   UNL A   1      48.371  26.695  31.842  1.00  0.00     0.054 A 
BRANCH  68  69
ATOM     69  S   UNL A   1      49.878  25.721  32.095  1.00  0.00     0.124 S 
ATOM     70  O   UNL A   1      49.444  24.752  33.099  1.00  0.00    -0.237 OA
ATOM     71  O   UNL A   1      50.137  25.174  30.767  1.00  0.00    -0.237 OA
ATOM     72  O   UNL A   1      50.854  26.704  32.560  1.00  0.00    -0.744 OA
ENDBRANCH  68  69
ENDBRANCH  49  63
BRANCH  50  73
ATOM     73  C   UNL A   1      37.296  32.731  29.780  1.00  0.00    -0.014 A 
ATOM     74  C   UNL A   1      36.333  32.730  30.802  1.00  0.00     0.010 A 
ATOM     75  C   UNL A   1      37.016  33.402  28.575  1.00  0.00     0.010 A 
ATOM     76  C   UNL A   1      35.110  33.383  30.624  1.00  0.00     0.020 A 
ATOM     77  C   UNL A   1      35.804  34.077  28.402  1.00  0.00     0.020 A 
ATOM     78  C   UNL A   1      34.855  34.058  29.427  1.00  0.00     0.054 A 
BRANCH  78  79
ATOM     79  S   UNL A   1      33.293  34.964  29.250  1.00  0.00     0.124 S 
ATOM     80  O   UNL A   1      32.757  34.914  30.607  1.00  0.00    -0.237 OA
ATOM     81  O   UNL A   1      33.741  36.278  28.794  1.00  0.00    -0.237 OA
ATOM     82  O   UNL A   1      32.558  34.187  28.255  1.00  0.00    -0.744 OA
ENDBRANCH  78  79
ENDBRANCH  50  73
BRANCH  62  83
ATOM     83  C   UNL A   1      43.233  34.663  32.901  1.00  0.00    -0.014 A 
ATOM     84  C   UNL A   1      43.700  35.757  32.154  1.00  0.00     0.010 A 
ATOM     85  C   UNL A   1      43.116  34.784  34.298  1.00  0.00     0.010 A 
ATOM     86  C   UNL A   1      44.069  36.943  32.795  1.00  0.00     0.020 A 
ATOM     87  C   UNL A   1      43.460  35.975  34.940  1.00  0.00     0.020 A 
ATOM     88  C   UNL A   1      43.948  37.044  34.185  1.00  0.00     0.054 A 
BRANCH  88  89
ATOM     89  S   UNL A   1      44.388  38.609  34.991  1.00  0.00     0.124 S 
ATOM     90  O   UNL A   1      43.669  39.582  34.175  1.00  0.00    -0.237 OA
ATOM     91  O   UNL A   1      43.878  38.427  36.348  1.00  0.00    -0.237 OA
ATOM     92  O   UNL A   1      45.844  38.658  34.880  1.00  0.00    -0.744 OA
ENDBRANCH  88  89
ENDBRANCH  62  83
ENDBRANCH  36  37
ENDBRANCH  28  31
ENDBRANCH  26  27
ENDBRANCH   1  26
TORSDOF 17
ENDMDL
