MODEL 1
REMARK VINA RESULT:     -12.7      0.000      0.000
REMARK SMILES CC1(C)S[C@@H]2[C@H]([NH2+]Cn3nnc4ccccc43)C(=O)N2[C@@H]1C(=O)NCCCNC(=O)c1ccc(-c2c3nc(c(-c4ccc(S(=O)(=O)[O-])cc4)c4ccc([nH]4)c(-c4ccc(S(=O)(=O)[O-])cc4)c4nc(c(-c5ccc(S(=O)(=O)[O-])cc5)c5ccc2[nH]5)C=C4)C=C3)cc1
REMARK SMILES IDX 26 1 25 2 24 3 22 4 23 5 21 7 1 8 2 9 3 10 4 11 5 12 20 13
REMARK SMILES IDX 6 14 18 15 19 16 7 17 8 20 9 21 10 22 17 23 11 24 12 25
REMARK SMILES IDX 16 26 13 27 15 28 14 29 27 30 28 31 29 32 30 34 31 35 32 36
REMARK SMILES IDX 90 37 33 38 89 39 34 40 35 41 36 42 83 43 37 44 88 45 82 46
REMARK SMILES IDX 84 47 38 48 87 49 81 50 80 51 39 53 69 54 50 55 68 56 51 57
REMARK SMILES IDX 54 58 67 59 85 60 52 61 53 62 66 64 86 65 55 66 40 67 41 68
REMARK SMILES IDX 49 69 42 70 48 71 43 72 44 73 45 74 46 75 47 76 70 77 71 78
REMARK SMILES IDX 79 79 72 80 78 81 73 82 74 83 75 84 76 85 77 86 56 87 57 88
REMARK SMILES IDX 65 89 58 90 64 91 59 92 60 93 61 94 62 95 63 96
REMARK H PARENT 24 6 7 18 7 19 28 33 84 52 54 63
REMARK Flexibility Score: inf
ROOT
ATOM      1  C   UNL A   1      33.383  28.544  27.180  1.00  0.00     0.042 C 
ENDROOT
BRANCH   1   2
ATOM      2  C   UNL A   1      31.856  28.483  27.032  1.00  0.00     0.117 C 
BRANCH   2   3
ATOM      3  N   UNL A   1      31.297  27.137  26.984  1.00  0.00    -0.354 N 
ATOM      4  C   UNL A   1      31.550  26.080  26.155  1.00  0.00     0.244 C 
ATOM      5  O   UNL A   1      31.203  24.967  26.578  1.00  0.00    -0.273 OA
ATOM      6  H   UNL A   1      30.616  26.958  27.671  1.00  0.00     0.163 HD
BRANCH   4   7
ATOM      7  C   UNL A   1      32.354  26.146  24.831  1.00  0.00     0.191 C 
ATOM      8  C   UNL A   1      30.070  26.996  23.833  1.00  0.00     0.026 C 
ATOM      9  C   UNL A   1      31.555  26.707  23.607  1.00  0.00     0.042 C 
ATOM     10  C   UNL A   1      32.235  27.955  23.018  1.00  0.00     0.026 C 
ATOM     11  S   UNL A   1      31.637  25.415  22.252  1.00  0.00    -0.121 SA
ATOM     12  C   UNL A   1      33.104  24.647  22.957  1.00  0.00     0.213 C 
ATOM     13  N   UNL A   1      32.902  24.897  24.374  1.00  0.00    -0.306 N 
ATOM     14  C   UNL A   1      33.283  23.150  23.345  1.00  0.00     0.307 C 
ATOM     15  C   UNL A   1      33.620  23.855  24.782  1.00  0.00     0.285 C 
ATOM     16  O   UNL A   1      34.116  23.597  25.867  1.00  0.00    -0.268 OA
BRANCH  14  17
ATOM     17  N   UNL A   1      32.052  22.331  23.451  1.00  0.00    -0.315 N 
ATOM     18  H   UNL A   1      31.286  22.844  23.013  1.00  0.00     0.348 HD
ATOM     19  H   UNL A   1      31.894  22.162  24.444  1.00  0.00     0.348 HD
BRANCH  17  20
ATOM     20  C   UNL A   1      32.153  21.019  22.808  1.00  0.00     0.415 C 
BRANCH  20  21
ATOM     21  N   UNL A   1      32.339  20.047  23.879  1.00  0.00    -0.194 N 
ATOM     22  N   UNL A   1      32.016  20.410  25.132  1.00  0.00    -0.061 NA
ATOM     23  C   UNL A   1      32.809  18.754  23.829  1.00  0.00     0.095 A 
ATOM     24  N   UNL A   1      32.368  19.419  25.931  1.00  0.00    -0.130 NA
ATOM     25  C   UNL A   1      32.815  18.382  25.168  1.00  0.00     0.113 A 
ATOM     26  C   UNL A   1      33.238  17.886  22.818  1.00  0.00     0.030 A 
ATOM     27  C   UNL A   1      33.247  17.101  25.540  1.00  0.00     0.032 A 
ATOM     28  C   UNL A   1      33.698  16.619  23.215  1.00  0.00     0.002 A 
ATOM     29  C   UNL A   1      33.702  16.228  24.553  1.00  0.00     0.002 A 
ENDBRANCH  20  21
ENDBRANCH  17  20
ENDBRANCH  14  17
ENDBRANCH   4   7
ENDBRANCH   2   3
ENDBRANCH   1   2
BRANCH   1  30
ATOM     30  C   UNL A   1      34.055  29.892  26.905  1.00  0.00     0.118 C 
BRANCH  30  31
ATOM     31  N   UNL A   1      33.899  30.886  27.952  1.00  0.00    -0.352 N 
ATOM     32  C   UNL A   1      34.751  31.574  28.779  1.00  0.00     0.251 C 
ATOM     33  H   UNL A   1      32.956  31.123  28.105  1.00  0.00     0.163 HD
ATOM     34  O   UNL A   1      34.288  32.625  29.238  1.00  0.00    -0.269 OA
BRANCH  32  35
ATOM     35  C   UNL A   1      36.106  31.138  29.234  1.00  0.00     0.039 A 
ATOM     36  C   UNL A   1      37.231  31.949  29.367  1.00  0.00     0.014 A 
ATOM     37  C   UNL A   1      36.273  29.744  29.404  1.00  0.00     0.014 A 
ATOM     38  C   UNL A   1      38.498  31.367  29.540  1.00  0.00     0.010 A 
ATOM     39  C   UNL A   1      37.537  29.163  29.549  1.00  0.00     0.010 A 
ATOM     40  C   UNL A   1      38.667  29.971  29.541  1.00  0.00    -0.014 A 
BRANCH  40  41
ATOM     41  C   UNL A   1      40.037  29.420  29.540  1.00  0.00     0.031 A 
ATOM     42  C   UNL A   1      40.680  29.278  30.876  1.00  0.00     0.074 A 
ATOM     43  C   UNL A   1      40.693  28.908  28.473  1.00  0.00     0.049 A 
ATOM     44  N   UNL A   1      41.823  29.731  31.282  1.00  0.00    -0.248 NA
ATOM     45  C   UNL A   1      39.916  28.552  31.900  1.00  0.00     0.031 C 
ATOM     46  C   UNL A   1      40.162  28.637  27.138  1.00  0.00     0.029 A 
ATOM     47  N   UNL A   1      41.969  28.407  28.395  1.00  0.00    -0.354 N 
ATOM     48  C   UNL A   1      41.991  29.242  32.574  1.00  0.00     0.074 A 
ATOM     49  C   UNL A   1      40.749  28.605  32.937  1.00  0.00     0.031 C 
ATOM     50  C   UNL A   1      41.011  27.830  26.465  1.00  0.00     0.029 A 
ATOM     51  C   UNL A   1      42.194  27.614  27.276  1.00  0.00     0.049 A 
ATOM     52  H   UNL A   1      42.660  28.593  29.070  1.00  0.00     0.167 HD
ATOM     53  C   UNL A   1      43.180  29.259  33.238  1.00  0.00     0.031 A 
ATOM     54  C   UNL A   1      43.222  26.752  27.071  1.00  0.00     0.031 A 
ATOM     55  C   UNL A   1      44.133  30.168  32.667  1.00  0.00     0.049 A 
ATOM     56  C   UNL A   1      44.333  27.143  27.969  1.00  0.00     0.074 A 
ATOM     57  C   UNL A   1      44.142  31.530  32.434  1.00  0.00     0.029 A 
ATOM     58  N   UNL A   1      45.176  29.659  31.933  1.00  0.00    -0.354 N 
ATOM     59  N   UNL A   1      45.044  28.227  27.836  1.00  0.00    -0.248 NA
ATOM     60  C   UNL A   1      44.442  26.476  29.255  1.00  0.00     0.031 C 
ATOM     61  C   UNL A   1      44.863  31.695  31.218  1.00  0.00     0.029 A 
ATOM     62  C   UNL A   1      45.275  30.429  30.799  1.00  0.00     0.049 A 
ATOM     63  H   UNL A   1      45.744  28.891  32.173  1.00  0.00     0.167 HD
ATOM     64  C   UNL A   1      45.356  28.606  29.133  1.00  0.00     0.074 A 
ATOM     65  C   UNL A   1      45.060  27.432  29.949  1.00  0.00     0.031 C 
ATOM     66  C   UNL A   1      45.561  29.914  29.473  1.00  0.00     0.031 A 
BRANCH  53  67
ATOM     67  C   UNL A   1      43.529  28.264  34.309  1.00  0.00    -0.014 A 
ATOM     68  C   UNL A   1      43.862  26.928  34.002  1.00  0.00     0.010 A 
ATOM     69  C   UNL A   1      43.725  28.685  35.638  1.00  0.00     0.010 A 
ATOM     70  C   UNL A   1      44.294  26.028  34.976  1.00  0.00     0.020 A 
ATOM     71  C   UNL A   1      44.209  27.802  36.616  1.00  0.00     0.020 A 
ATOM     72  C   UNL A   1      44.473  26.473  36.280  1.00  0.00     0.054 A 
BRANCH  72  73
ATOM     73  S   UNL A   1      45.136  25.305  37.494  1.00  0.00     0.124 S 
ATOM     74  O   UNL A   1      44.793  24.020  36.893  1.00  0.00    -0.237 OA
ATOM     75  O   UNL A   1      46.558  25.636  37.506  1.00  0.00    -0.237 OA
ATOM     76  O   UNL A   1      44.412  25.636  38.718  1.00  0.00    -0.744 OA
ENDBRANCH  72  73
ENDBRANCH  53  67
BRANCH  54  77
ATOM     77  C   UNL A   1      43.117  25.379  26.498  1.00  0.00    -0.014 A 
ATOM     78  C   UNL A   1      43.100  24.252  27.345  1.00  0.00     0.010 A 
ATOM     79  C   UNL A   1      43.346  25.157  25.125  1.00  0.00     0.010 A 
ATOM     80  C   UNL A   1      43.392  22.972  26.869  1.00  0.00     0.020 A 
ATOM     81  C   UNL A   1      43.653  23.874  24.640  1.00  0.00     0.020 A 
ATOM     82  C   UNL A   1      43.713  22.798  25.527  1.00  0.00     0.054 A 
BRANCH  82  83
ATOM     83  S   UNL A   1      44.315  21.168  25.003  1.00  0.00     0.124 S 
ATOM     84  O   UNL A   1      44.506  21.363  23.569  1.00  0.00    -0.237 OA
ATOM     85  O   UNL A   1      45.542  21.019  25.783  1.00  0.00    -0.237 OA
ATOM     86  O   UNL A   1      43.231  20.262  25.373  1.00  0.00    -0.744 OA
ENDBRANCH  82  83
ENDBRANCH  54  77
BRANCH  66  87
ATOM     87  C   UNL A   1      45.755  30.951  28.381  1.00  0.00    -0.014 A 
ATOM     88  C   UNL A   1      47.071  31.238  27.969  1.00  0.00     0.010 A 
ATOM     89  C   UNL A   1      44.718  31.783  27.912  1.00  0.00     0.010 A 
ATOM     90  C   UNL A   1      47.351  32.342  27.155  1.00  0.00     0.020 A 
ATOM     91  C   UNL A   1      44.988  32.875  27.072  1.00  0.00     0.020 A 
ATOM     92  C   UNL A   1      46.308  33.166  26.726  1.00  0.00     0.054 A 
BRANCH  92  93
ATOM     93  S   UNL A   1      46.713  34.641  25.749  1.00  0.00     0.124 S 
ATOM     94  O   UNL A   1      46.409  35.727  26.679  1.00  0.00    -0.237 OA
ATOM     95  O   UNL A   1      48.132  34.455  25.451  1.00  0.00    -0.237 OA
ATOM     96  O   UNL A   1      45.825  34.560  24.592  1.00  0.00    -0.744 OA
ENDBRANCH  92  93
ENDBRANCH  66  87
ENDBRANCH  40  41
ENDBRANCH  32  35
ENDBRANCH  30  31
ENDBRANCH   1  30
TORSDOF 16
ENDMDL
MODEL 2
REMARK VINA RESULT:     -12.7      1.720      2.374
REMARK SMILES CC1(C)S[C@@H]2[C@H]([NH2+]Cn3nnc4ccccc43)C(=O)N2[C@@H]1C(=O)NCCCNC(=O)c1ccc(-c2c3nc(c(-c4ccc(S(=O)(=O)[O-])cc4)c4ccc([nH]4)c(-c4ccc(S(=O)(=O)[O-])cc4)c4nc(c(-c5ccc(S(=O)(=O)[O-])cc5)c5ccc2[nH]5)C=C4)C=C3)cc1
REMARK SMILES IDX 26 1 25 2 24 3 22 4 23 5 21 7 1 8 2 9 3 10 4 11 5 12 20 13
REMARK SMILES IDX 6 14 18 15 19 16 7 17 8 20 9 21 10 22 17 23 11 24 12 25
REMARK SMILES IDX 16 26 13 27 15 28 14 29 27 30 28 31 29 32 30 34 31 35 32 36
REMARK SMILES IDX 90 37 33 38 89 39 34 40 35 41 36 42 83 43 37 44 88 45 82 46
REMARK SMILES IDX 84 47 38 48 87 49 81 50 80 51 39 53 69 54 50 55 68 56 51 57
REMARK SMILES IDX 54 58 67 59 85 60 52 61 53 62 66 64 86 65 55 66 40 67 41 68
REMARK SMILES IDX 49 69 42 70 48 71 43 72 44 73 45 74 46 75 47 76 70 77 71 78
REMARK SMILES IDX 79 79 72 80 78 81 73 82 74 83 75 84 76 85 77 86 56 87 57 88
REMARK SMILES IDX 65 89 58 90 64 91 59 92 60 93 61 94 62 95 63 96
REMARK H PARENT 24 6 7 18 7 19 28 33 84 52 54 63
REMARK Flexibility Score: inf
ROOT
ATOM      1  C   UNL A   1      33.579  28.381  27.021  1.00  0.00     0.042 C 
ENDROOT
BRANCH   1   2
ATOM      2  C   UNL A   1      33.651  27.396  25.846  1.00  0.00     0.117 C 
BRANCH   2   3
ATOM      3  N   UNL A   1      34.080  27.980  24.580  1.00  0.00    -0.354 N 
ATOM      4  C   UNL A   1      33.466  28.052  23.361  1.00  0.00     0.244 C 
ATOM      5  O   UNL A   1      33.901  28.918  22.587  1.00  0.00    -0.273 OA
ATOM      6  H   UNL A   1      34.971  28.398  24.609  1.00  0.00     0.163 HD
BRANCH   4   7
ATOM      7  C   UNL A   1      32.202  27.258  22.942  1.00  0.00     0.191 C 
ATOM      8  C   UNL A   1      30.978  28.924  24.574  1.00  0.00     0.026 C 
ATOM      9  C   UNL A   1      30.862  27.788  23.557  1.00  0.00     0.042 C 
ATOM     10  C   UNL A   1      29.862  28.187  22.458  1.00  0.00     0.026 C 
ATOM     11  S   UNL A   1      30.059  26.356  24.458  1.00  0.00    -0.121 SA
ATOM     12  C   UNL A   1      30.985  25.133  23.514  1.00  0.00     0.213 C 
ATOM     13  N   UNL A   1      32.219  25.853  23.252  1.00  0.00    -0.306 N 
ATOM     14  C   UNL A   1      31.882  23.995  24.082  1.00  0.00     0.307 C 
ATOM     15  C   UNL A   1      32.970  24.762  23.131  1.00  0.00     0.285 C 
ATOM     16  O   UNL A   1      34.073  24.597  22.634  1.00  0.00    -0.268 OA
BRANCH  14  17
ATOM     17  N   UNL A   1      32.281  24.099  25.506  1.00  0.00    -0.315 N 
ATOM     18  H   UNL A   1      31.606  24.696  25.986  1.00  0.00     0.348 HD
ATOM     19  H   UNL A   1      33.226  24.485  25.521  1.00  0.00     0.348 HD
BRANCH  17  20
ATOM     20  C   UNL A   1      32.337  22.814  26.204  1.00  0.00     0.415 C 
BRANCH  20  21
ATOM     21  N   UNL A   1      33.484  22.096  25.660  1.00  0.00    -0.194 N 
ATOM     22  N   UNL A   1      33.282  20.874  25.139  1.00  0.00    -0.061 NA
ATOM     23  C   UNL A   1      34.805  22.472  25.578  1.00  0.00     0.095 A 
ATOM     24  N   UNL A   1      34.465  20.385  24.815  1.00  0.00    -0.130 NA
ATOM     25  C   UNL A   1      35.407  21.345  25.031  1.00  0.00     0.113 A 
ATOM     26  C   UNL A   1      35.542  23.612  25.921  1.00  0.00     0.030 A 
ATOM     27  C   UNL A   1      36.789  21.331  24.793  1.00  0.00     0.032 A 
ATOM     28  C   UNL A   1      36.930  23.565  25.705  1.00  0.00     0.002 A 
ATOM     29  C   UNL A   1      37.547  22.446  25.148  1.00  0.00     0.002 A 
ENDBRANCH  20  21
ENDBRANCH  17  20
ENDBRANCH  14  17
ENDBRANCH   4   7
ENDBRANCH   2   3
ENDBRANCH   1   2
BRANCH   1  30
ATOM     30  C   UNL A   1      34.112  29.795  26.777  1.00  0.00     0.118 C 
BRANCH  30  31
ATOM     31  N   UNL A   1      33.899  30.733  27.864  1.00  0.00    -0.352 N 
ATOM     32  C   UNL A   1      34.708  31.420  28.734  1.00  0.00     0.251 C 
ATOM     33  H   UNL A   1      32.945  30.923  28.012  1.00  0.00     0.163 HD
ATOM     34  O   UNL A   1      34.193  32.429  29.231  1.00  0.00    -0.269 OA
BRANCH  32  35
ATOM     35  C   UNL A   1      36.074  31.023  29.191  1.00  0.00     0.039 A 
ATOM     36  C   UNL A   1      37.152  31.879  29.406  1.00  0.00     0.014 A 
ATOM     37  C   UNL A   1      36.311  29.631  29.270  1.00  0.00     0.014 A 
ATOM     38  C   UNL A   1      38.444  31.351  29.570  1.00  0.00     0.010 A 
ATOM     39  C   UNL A   1      37.599  29.106  29.407  1.00  0.00     0.010 A 
ATOM     40  C   UNL A   1      38.686  29.969  29.480  1.00  0.00    -0.014 A 
BRANCH  40  41
ATOM     41  C   UNL A   1      40.082  29.489  29.475  1.00  0.00     0.031 A 
ATOM     42  C   UNL A   1      40.665  29.178  30.809  1.00  0.00     0.074 A 
ATOM     43  C   UNL A   1      40.817  29.177  28.383  1.00  0.00     0.049 A 
ATOM     44  N   UNL A   1      41.761  29.617  31.343  1.00  0.00    -0.248 NA
ATOM     45  C   UNL A   1      39.894  28.270  31.669  1.00  0.00     0.031 C 
ATOM     46  C   UNL A   1      40.368  29.086  26.994  1.00  0.00     0.029 A 
ATOM     47  N   UNL A   1      42.121  28.754  28.304  1.00  0.00    -0.354 N 
ATOM     48  C   UNL A   1      41.892  28.946  32.555  1.00  0.00     0.074 A 
ATOM     49  C   UNL A   1      40.670  28.203  32.749  1.00  0.00     0.031 C 
ATOM     50  C   UNL A   1      41.292  28.431  26.259  1.00  0.00     0.029 A 
ATOM     51  C   UNL A   1      42.444  28.150  27.094  1.00  0.00     0.049 A 
ATOM     52  H   UNL A   1      42.767  28.867  29.038  1.00  0.00     0.167 HD
ATOM     53  C   UNL A   1      43.044  28.918  33.281  1.00  0.00     0.031 A 
ATOM     54  C   UNL A   1      43.527  27.379  26.822  1.00  0.00     0.031 A 
ATOM     55  C   UNL A   1      43.972  29.947  32.906  1.00  0.00     0.049 A 
ATOM     56  C   UNL A   1      44.569  27.681  27.830  1.00  0.00     0.074 A 
ATOM     57  C   UNL A   1      43.918  31.327  32.880  1.00  0.00     0.029 A 
ATOM     58  N   UNL A   1      45.077  29.604  32.166  1.00  0.00    -0.354 N 
ATOM     59  N   UNL A   1      45.225  28.804  27.901  1.00  0.00    -0.248 NA
ATOM     60  C   UNL A   1      44.651  26.832  29.007  1.00  0.00     0.031 C 
ATOM     61  C   UNL A   1      44.687  31.708  31.744  1.00  0.00     0.029 A 
ATOM     62  C   UNL A   1      45.189  30.540  31.166  1.00  0.00     0.049 A 
ATOM     63  H   UNL A   1      45.673  28.836  32.321  1.00  0.00     0.167 HD
ATOM     64  C   UNL A   1      45.451  28.996  29.255  1.00  0.00     0.074 A 
ATOM     65  C   UNL A   1      45.181  27.700  29.869  1.00  0.00     0.031 C 
ATOM     66  C   UNL A   1      45.567  30.246  29.796  1.00  0.00     0.031 A 
BRANCH  53  67
ATOM     67  C   UNL A   1      43.394  27.790  34.210  1.00  0.00    -0.014 A 
ATOM     68  C   UNL A   1      43.698  26.498  33.729  1.00  0.00     0.010 A 
ATOM     69  C   UNL A   1      43.620  28.035  35.578  1.00  0.00     0.010 A 
ATOM     70  C   UNL A   1      44.132  25.476  34.573  1.00  0.00     0.020 A 
ATOM     71  C   UNL A   1      44.105  27.027  36.427  1.00  0.00     0.020 A 
ATOM     72  C   UNL A   1      44.340  25.749  35.919  1.00  0.00     0.054 A 
BRANCH  72  73
ATOM     73  S   UNL A   1      45.004  24.426  36.963  1.00  0.00     0.124 S 
ATOM     74  O   UNL A   1      44.340  24.687  38.237  1.00  0.00    -0.237 OA
ATOM     75  O   UNL A   1      44.571  23.222  36.261  1.00  0.00    -0.237 OA
ATOM     76  O   UNL A   1      46.444  24.670  36.948  1.00  0.00    -0.744 OA
ENDBRANCH  72  73
ENDBRANCH  53  67
BRANCH  54  77
ATOM     77  C   UNL A   1      43.526  26.105  26.046  1.00  0.00    -0.014 A 
ATOM     78  C   UNL A   1      42.603  25.083  26.354  1.00  0.00     0.010 A 
ATOM     79  C   UNL A   1      44.618  25.767  25.221  1.00  0.00     0.010 A 
ATOM     80  C   UNL A   1      42.805  23.765  25.942  1.00  0.00     0.020 A 
ATOM     81  C   UNL A   1      44.835  24.440  24.813  1.00  0.00     0.020 A 
ATOM     82  C   UNL A   1      43.945  23.442  25.213  1.00  0.00     0.054 A 
BRANCH  82  83
ATOM     83  S   UNL A   1      44.287  21.687  24.905  1.00  0.00     0.124 S 
ATOM     84  O   UNL A   1      45.456  21.454  25.748  1.00  0.00    -0.237 OA
ATOM     85  O   UNL A   1      43.055  21.042  25.352  1.00  0.00    -0.237 OA
ATOM     86  O   UNL A   1      44.531  21.627  23.467  1.00  0.00    -0.744 OA
ENDBRANCH  82  83
ENDBRANCH  54  77
BRANCH  66  87
ATOM     87  C   UNL A   1      45.757  31.445  28.884  1.00  0.00    -0.014 A 
ATOM     88  C   UNL A   1      44.610  32.147  28.467  1.00  0.00     0.010 A 
ATOM     89  C   UNL A   1      46.987  31.762  28.270  1.00  0.00     0.010 A 
ATOM     90  C   UNL A   1      44.674  33.099  27.444  1.00  0.00     0.020 A 
ATOM     91  C   UNL A   1      47.064  32.737  27.263  1.00  0.00     0.020 A 
ATOM     92  C   UNL A   1      45.900  33.376  26.834  1.00  0.00     0.054 A 
BRANCH  92  93
ATOM     93  S   UNL A   1      45.935  34.547  25.448  1.00  0.00     0.124 S 
ATOM     94  O   UNL A   1      45.051  33.907  24.474  1.00  0.00    -0.237 OA
ATOM     95  O   UNL A   1      45.416  35.776  26.045  1.00  0.00    -0.237 OA
ATOM     96  O   UNL A   1      47.342  34.597  25.056  1.00  0.00    -0.744 OA
ENDBRANCH  92  93
ENDBRANCH  66  87
ENDBRANCH  40  41
ENDBRANCH  32  35
ENDBRANCH  30  31
ENDBRANCH   1  30
TORSDOF 16
ENDMDL
MODEL 3
REMARK VINA RESULT:     -12.7      2.710      9.544
REMARK SMILES CC1(C)S[C@@H]2[C@H]([NH2+]Cn3nnc4ccccc43)C(=O)N2[C@@H]1C(=O)NCCCNC(=O)c1ccc(-c2c3nc(c(-c4ccc(S(=O)(=O)[O-])cc4)c4ccc([nH]4)c(-c4ccc(S(=O)(=O)[O-])cc4)c4nc(c(-c5ccc(S(=O)(=O)[O-])cc5)c5ccc2[nH]5)C=C4)C=C3)cc1
REMARK SMILES IDX 26 1 25 2 24 3 22 4 23 5 21 7 1 8 2 9 3 10 4 11 5 12 20 13
REMARK SMILES IDX 6 14 18 15 19 16 7 17 8 20 9 21 10 22 17 23 11 24 12 25
REMARK SMILES IDX 16 26 13 27 15 28 14 29 27 30 28 31 29 32 30 34 31 35 32 36
REMARK SMILES IDX 90 37 33 38 89 39 34 40 35 41 36 42 83 43 37 44 88 45 82 46
REMARK SMILES IDX 84 47 38 48 87 49 81 50 80 51 39 53 69 54 50 55 68 56 51 57
REMARK SMILES IDX 54 58 67 59 85 60 52 61 53 62 66 64 86 65 55 66 40 67 41 68
REMARK SMILES IDX 49 69 42 70 48 71 43 72 44 73 45 74 46 75 47 76 70 77 71 78
REMARK SMILES IDX 79 79 72 80 78 81 73 82 74 83 75 84 76 85 77 86 56 87 57 88
REMARK SMILES IDX 65 89 58 90 64 91 59 92 60 93 61 94 62 95 63 96
REMARK H PARENT 24 6 7 18 7 19 28 33 84 52 54 63
REMARK Flexibility Score: inf
ROOT
ATOM      1  C   UNL A   1      39.683  22.065  26.180  1.00  0.00     0.042 C 
ENDROOT
BRANCH   1   2
ATOM      2  C   UNL A   1      39.046  23.137  27.076  1.00  0.00     0.117 C 
BRANCH   2   3
ATOM      3  N   UNL A   1      37.997  23.925  26.439  1.00  0.00    -0.354 N 
ATOM      4  C   UNL A   1      36.711  23.612  26.096  1.00  0.00     0.244 C 
ATOM      5  O   UNL A   1      35.951  24.576  25.914  1.00  0.00    -0.273 OA
ATOM      6  H   UNL A   1      38.262  24.846  26.217  1.00  0.00     0.163 HD
BRANCH   4   7
ATOM      7  C   UNL A   1      36.108  22.184  26.069  1.00  0.00     0.191 C 
ATOM      8  C   UNL A   1      36.645  22.329  23.494  1.00  0.00     0.026 C 
ATOM      9  C   UNL A   1      36.144  21.485  24.668  1.00  0.00     0.042 C 
ATOM     10  C   UNL A   1      36.932  20.165  24.721  1.00  0.00     0.026 C 
ATOM     11  S   UNL A   1      34.386  20.993  24.247  1.00  0.00    -0.121 SA
ATOM     12  C   UNL A   1      33.871  21.040  25.972  1.00  0.00     0.213 C 
ATOM     13  N   UNL A   1      34.740  22.079  26.499  1.00  0.00    -0.306 N 
ATOM     14  C   UNL A   1      32.690  21.855  26.575  1.00  0.00     0.307 C 
ATOM     15  C   UNL A   1      33.921  22.428  27.487  1.00  0.00     0.285 C 
ATOM     16  O   UNL A   1      34.123  23.062  28.511  1.00  0.00    -0.268 OA
BRANCH  14  17
ATOM     17  N   UNL A   1      32.124  22.940  25.737  1.00  0.00    -0.315 N 
ATOM     18  H   UNL A   1      31.497  22.520  25.050  1.00  0.00     0.348 HD
ATOM     19  H   UNL A   1      32.913  23.422  25.306  1.00  0.00     0.348 HD
BRANCH  17  20
ATOM     20  C   UNL A   1      31.373  23.945  26.492  1.00  0.00     0.415 C 
BRANCH  20  21
ATOM     21  N   UNL A   1      31.131  25.054  25.578  1.00  0.00    -0.194 N 
ATOM     22  N   UNL A   1      30.686  24.775  24.341  1.00  0.00    -0.061 NA
ATOM     23  C   UNL A   1      31.283  26.408  25.770  1.00  0.00     0.095 A 
ATOM     24  N   UNL A   1      30.647  25.913  23.671  1.00  0.00    -0.130 NA
ATOM     25  C   UNL A   1      30.965  26.929  24.521  1.00  0.00     0.113 A 
ATOM     26  C   UNL A   1      31.668  27.229  26.838  1.00  0.00     0.030 A 
ATOM     27  C   UNL A   1      31.009  28.314  24.305  1.00  0.00     0.032 A 
ATOM     28  C   UNL A   1      31.738  28.610  26.590  1.00  0.00     0.002 A 
ATOM     29  C   UNL A   1      31.412  29.148  25.346  1.00  0.00     0.002 A 
ENDBRANCH  20  21
ENDBRANCH  17  20
ENDBRANCH  14  17
ENDBRANCH   4   7
ENDBRANCH   2   3
ENDBRANCH   1   2
BRANCH   1  30
ATOM     30  C   UNL A   1      41.178  21.798  26.370  1.00  0.00     0.118 C 
BRANCH  30  31
ATOM     31  N   UNL A   1      42.029  22.239  25.279  1.00  0.00    -0.352 N 
ATOM     32  C   UNL A   1      42.919  23.265  25.088  1.00  0.00     0.251 C 
ATOM     33  H   UNL A   1      41.950  21.661  24.487  1.00  0.00     0.163 HD
ATOM     34  O   UNL A   1      43.750  23.070  24.193  1.00  0.00    -0.269 OA
BRANCH  32  35
ATOM     35  C   UNL A   1      42.917  24.593  25.775  1.00  0.00     0.039 A 
ATOM     36  C   UNL A   1      43.718  24.965  26.852  1.00  0.00     0.014 A 
ATOM     37  C   UNL A   1      41.901  25.489  25.369  1.00  0.00     0.014 A 
ATOM     38  C   UNL A   1      43.427  26.136  27.571  1.00  0.00     0.010 A 
ATOM     39  C   UNL A   1      41.594  26.641  26.100  1.00  0.00     0.010 A 
ATOM     40  C   UNL A   1      42.311  26.930  27.255  1.00  0.00    -0.014 A 
BRANCH  40  41
ATOM     41  C   UNL A   1      41.949  28.042  28.155  1.00  0.00     0.031 A 
ATOM     42  C   UNL A   1      42.923  29.166  28.222  1.00  0.00     0.074 A 
ATOM     43  C   UNL A   1      40.770  28.197  28.802  1.00  0.00     0.049 A 
ATOM     44  N   UNL A   1      43.491  29.693  29.260  1.00  0.00    -0.248 NA
ATOM     45  C   UNL A   1      43.335  29.757  26.941  1.00  0.00     0.031 C 
ATOM     46  C   UNL A   1      39.549  27.409  28.644  1.00  0.00     0.029 A 
ATOM     47  N   UNL A   1      40.379  29.185  29.671  1.00  0.00    -0.354 N 
ATOM     48  C   UNL A   1      44.235  30.768  28.785  1.00  0.00     0.074 A 
ATOM     49  C   UNL A   1      44.179  30.703  27.345  1.00  0.00     0.031 C 
ATOM     50  C   UNL A   1      38.508  28.067  29.198  1.00  0.00     0.029 A 
ATOM     51  C   UNL A   1      39.002  29.267  29.846  1.00  0.00     0.049 A 
ATOM     52  H   UNL A   1      41.015  29.781  30.127  1.00  0.00     0.167 HD
ATOM     53  C   UNL A   1      44.749  31.742  29.587  1.00  0.00     0.031 A 
ATOM     54  C   UNL A   1      38.300  30.297  30.383  1.00  0.00     0.031 A 
ATOM     55  C   UNL A   1      44.806  31.363  30.970  1.00  0.00     0.049 A 
ATOM     56  C   UNL A   1      39.227  31.097  31.216  1.00  0.00     0.074 A 
ATOM     57  C   UNL A   1      45.427  30.342  31.661  1.00  0.00     0.029 A 
ATOM     58  N   UNL A   1      43.888  31.897  31.841  1.00  0.00    -0.354 N 
ATOM     59  N   UNL A   1      39.746  30.694  32.340  1.00  0.00    -0.248 NA
ATOM     60  C   UNL A   1      39.862  32.256  30.612  1.00  0.00     0.031 C 
ATOM     61  C   UNL A   1      44.529  30.004  32.713  1.00  0.00     0.029 A 
ATOM     62  C   UNL A   1      43.430  30.859  32.617  1.00  0.00     0.049 A 
ATOM     63  H   UNL A   1      43.611  32.840  31.897  1.00  0.00     0.167 HD
ATOM     64  C   UNL A   1      41.006  31.271  32.375  1.00  0.00     0.074 A 
ATOM     65  C   UNL A   1      40.972  32.309  31.349  1.00  0.00     0.031 C 
ATOM     66  C   UNL A   1      42.051  30.683  33.032  1.00  0.00     0.031 A 
BRANCH  53  67
ATOM     67  C   UNL A   1      45.011  33.141  29.103  1.00  0.00    -0.014 A 
ATOM     68  C   UNL A   1      46.306  33.573  28.743  1.00  0.00     0.010 A 
ATOM     69  C   UNL A   1      43.941  34.006  28.807  1.00  0.00     0.010 A 
ATOM     70  C   UNL A   1      46.541  34.830  28.189  1.00  0.00     0.020 A 
ATOM     71  C   UNL A   1      44.161  35.254  28.202  1.00  0.00     0.020 A 
ATOM     72  C   UNL A   1      45.463  35.664  27.914  1.00  0.00     0.054 A 
BRANCH  72  73
ATOM     73  S   UNL A   1      45.797  37.245  27.097  1.00  0.00     0.124 S 
ATOM     74  O   UNL A   1      46.622  37.927  28.090  1.00  0.00    -0.237 OA
ATOM     75  O   UNL A   1      46.488  36.831  25.879  1.00  0.00    -0.237 OA
ATOM     76  O   UNL A   1      44.466  37.812  26.893  1.00  0.00    -0.744 OA
ENDBRANCH  72  73
ENDBRANCH  53  67
BRANCH  54  77
ATOM     77  C   UNL A   1      37.026  30.863  29.852  1.00  0.00    -0.014 A 
ATOM     78  C   UNL A   1      36.944  31.303  28.515  1.00  0.00     0.010 A 
ATOM     79  C   UNL A   1      35.997  31.259  30.731  1.00  0.00     0.010 A 
ATOM     80  C   UNL A   1      35.939  32.173  28.090  1.00  0.00     0.020 A 
ATOM     81  C   UNL A   1      34.990  32.146  30.314  1.00  0.00     0.020 A 
ATOM     82  C   UNL A   1      34.994  32.627  29.005  1.00  0.00     0.054 A 
BRANCH  82  83
ATOM     83  S   UNL A   1      33.856  33.936  28.470  1.00  0.00     0.124 S 
ATOM     84  O   UNL A   1      34.750  34.840  27.753  1.00  0.00    -0.237 OA
ATOM     85  O   UNL A   1      32.904  33.206  27.636  1.00  0.00    -0.237 OA
ATOM     86  O   UNL A   1      33.312  34.455  29.722  1.00  0.00    -0.744 OA
ENDBRANCH  82  83
ENDBRANCH  54  77
BRANCH  66  87
ATOM     87  C   UNL A   1      41.784  29.541  33.995  1.00  0.00    -0.014 A 
ATOM     88  C   UNL A   1      41.920  29.794  35.374  1.00  0.00     0.010 A 
ATOM     89  C   UNL A   1      41.616  28.203  33.582  1.00  0.00     0.010 A 
ATOM     90  C   UNL A   1      41.933  28.750  36.305  1.00  0.00     0.020 A 
ATOM     91  C   UNL A   1      41.598  27.153  34.513  1.00  0.00     0.020 A 
ATOM     92  C   UNL A   1      41.790  27.432  35.867  1.00  0.00     0.054 A 
BRANCH  92  93
ATOM     93  S   UNL A   1      41.904  26.094  37.089  1.00  0.00     0.124 S 
ATOM     94  O   UNL A   1      40.545  26.041  37.625  1.00  0.00    -0.237 OA
ATOM     95  O   UNL A   1      42.298  24.943  36.277  1.00  0.00    -0.237 OA
ATOM     96  O   UNL A   1      42.917  26.557  38.034  1.00  0.00    -0.744 OA
ENDBRANCH  92  93
ENDBRANCH  66  87
ENDBRANCH  40  41
ENDBRANCH  32  35
ENDBRANCH  30  31
ENDBRANCH   1  30
TORSDOF 16
ENDMDL
