MODEL 1
REMARK VINA RESULT:     -12.7      0.000      0.000
REMARK SMILES N#CC1=C(N)N2C(=O)[C@@H](CC(=O)NCCCNC(=O)c3ccc(-c4c5nc(c(-c6ccc(S(=O)(=O)[O-])cc6)c6ccc([nH]6)c(-c6ccc(S(=O)(=O)[O-])cc6)c6nc(c(-c7ccc(S(=O)(=O)[O-])cc7)c7ccc4[nH]7)C=C6)C=C5)cc3)SC2=C(C#N)[C@H]1c1ccc(Cl)cc1
REMARK SMILES IDX 15 1 14 2 13 3 11 4 12 5 10 7 9 8 3 9 4 10 85 11 6 12 82 13
REMARK SMILES IDX 7 14 81 15 8 16 80 17 2 18 1 19 5 20 86 23 87 24 92 25 88 26
REMARK SMILES IDX 91 27 89 28 90 29 83 30 84 31 16 32 17 33 18 34 19 36 20 37
REMARK SMILES IDX 21 38 79 39 22 40 78 41 23 42 24 43 25 44 72 45 26 46 77 47
REMARK SMILES IDX 71 48 73 49 27 50 76 51 70 52 69 53 28 55 58 56 39 57 57 58
REMARK SMILES IDX 40 59 43 60 56 61 74 62 41 63 42 64 55 66 75 67 44 68 29 69
REMARK SMILES IDX 30 70 38 71 31 72 37 73 32 74 33 75 34 76 35 77 36 78 59 79
REMARK SMILES IDX 60 80 68 81 61 82 67 83 62 84 63 85 64 86 65 87 66 88 45 89
REMARK SMILES IDX 46 90 54 91 47 92 53 93 48 94 49 95 50 96 51 97 52 98
REMARK H PARENT 13 6 5 21 5 22 17 35 73 54 43 65
REMARK Flexibility Score: inf
ROOT
ATOM      1  C   UNL A   1      37.910  22.873  25.838  1.00  0.00     0.042 C 
ENDROOT
BRANCH   1   2
ATOM      2  C   UNL A   1      36.422  22.899  26.194  1.00  0.00     0.117 C 
BRANCH   2   3
ATOM      3  N   UNL A   1      35.692  21.699  25.817  1.00  0.00    -0.356 N 
ATOM      4  C   UNL A   1      34.865  21.467  24.765  1.00  0.00     0.221 C 
ATOM      5  O   UNL A   1      34.358  20.354  24.629  1.00  0.00    -0.275 OA
ATOM      6  H   UNL A   1      35.816  20.933  26.422  1.00  0.00     0.163 HD
BRANCH   4   7
ATOM      7  C   UNL A   1      34.580  22.563  23.770  1.00  0.00     0.125 C 
BRANCH   7   8
ATOM      8  C   UNL A   1      33.225  22.433  23.079  1.00  0.00     0.152 C 
ATOM      9  C   UNL A   1      30.931  26.546  23.122  1.00  0.00     0.083 C 
ATOM     10  C   UNL A   1      31.553  25.674  22.310  1.00  0.00     0.126 C 
ATOM     11  C   UNL A   1      30.782  26.327  24.619  1.00  0.00     0.107 C 
ATOM     12  N   UNL A   1      32.004  24.481  22.865  1.00  0.00    -0.258 N 
ATOM     13  C   UNL A   1      30.826  24.844  24.924  1.00  0.00     0.073 C 
ATOM     14  C   UNL A   1      32.871  23.626  22.207  1.00  0.00     0.247 C 
ATOM     15  C   UNL A   1      31.496  24.048  24.075  1.00  0.00     0.099 C 
ATOM     16  O   UNL A   1      33.351  23.834  21.096  1.00  0.00    -0.273 OA
ATOM     17  S   UNL A   1      31.895  22.384  24.349  1.00  0.00    -0.093 SA
BRANCH   9  18
ATOM     18  C   UNL A   1      30.318  27.819  22.560  1.00  0.00     0.100 C 
ATOM     19  N   UNL A   1      29.810  28.874  22.094  1.00  0.00    -0.193 NA
ENDBRANCH   9  18
BRANCH  10  20
ATOM     20  N   UNL A   1      31.742  25.935  20.980  1.00  0.00    -0.384 N 
ATOM     21  H   UNL A   1      31.561  26.835  20.625  1.00  0.00     0.158 HD
ATOM     22  H   UNL A   1      32.058  25.223  20.379  1.00  0.00     0.158 HD
ENDBRANCH  10  20
BRANCH  11  23
ATOM     23  C   UNL A   1      31.839  27.136  25.414  1.00  0.00    -0.034 A 
ATOM     24  C   UNL A   1      31.544  27.794  26.627  1.00  0.00     0.006 A 
ATOM     25  C   UNL A   1      33.164  27.214  24.945  1.00  0.00     0.006 A 
ATOM     26  C   UNL A   1      32.526  28.495  27.336  1.00  0.00     0.021 A 
ATOM     27  C   UNL A   1      34.153  27.893  25.669  1.00  0.00     0.021 A 
ATOM     28  C   UNL A   1      33.829  28.535  26.859  1.00  0.00     0.041 A 
ATOM     29  Cl  UNL A   1      35.038  29.383  27.740  1.00  0.00    -0.084 Cl
ENDBRANCH  11  23
BRANCH  13  30
ATOM     30  C   UNL A   1      30.252  24.380  26.141  1.00  0.00     0.098 C 
ATOM     31  N   UNL A   1      29.812  23.976  27.137  1.00  0.00    -0.193 NA
ENDBRANCH  13  30
ENDBRANCH   7   8
ENDBRANCH   4   7
ENDBRANCH   2   3
ENDBRANCH   1   2
BRANCH   1  32
ATOM     32  C   UNL A   1      38.705  24.051  26.392  1.00  0.00     0.118 C 
BRANCH  32  33
ATOM     33  N   UNL A   1      40.127  23.858  26.145  1.00  0.00    -0.352 N 
ATOM     34  C   UNL A   1      41.165  24.705  26.447  1.00  0.00     0.251 C 
ATOM     35  H   UNL A   1      40.376  23.013  25.707  1.00  0.00     0.163 HD
ATOM     36  O   UNL A   1      42.226  24.605  25.838  1.00  0.00    -0.269 OA
BRANCH  34  37
ATOM     37  C   UNL A   1      40.999  25.730  27.502  1.00  0.00     0.039 A 
ATOM     38  C   UNL A   1      39.980  25.580  28.445  1.00  0.00     0.014 A 
ATOM     39  C   UNL A   1      41.824  26.859  27.535  1.00  0.00     0.014 A 
ATOM     40  C   UNL A   1      39.819  26.540  29.446  1.00  0.00     0.010 A 
ATOM     41  C   UNL A   1      41.708  27.776  28.578  1.00  0.00     0.010 A 
ATOM     42  C   UNL A   1      40.699  27.631  29.542  1.00  0.00    -0.014 A 
BRANCH  42  43
ATOM     43  C   UNL A   1      40.579  28.625  30.641  1.00  0.00     0.031 A 
ATOM     44  C   UNL A   1      41.457  28.524  31.860  1.00  0.00     0.074 A 
ATOM     45  C   UNL A   1      39.647  29.597  30.559  1.00  0.00     0.049 A 
ATOM     46  N   UNL A   1      41.459  29.266  32.938  1.00  0.00    -0.248 NA
ATOM     47  C   UNL A   1      42.451  27.437  31.880  1.00  0.00     0.031 C 
ATOM     48  C   UNL A   1      38.719  29.790  29.443  1.00  0.00     0.029 A 
ATOM     49  N   UNL A   1      39.323  30.605  31.434  1.00  0.00    -0.354 N 
ATOM     50  C   UNL A   1      42.449  28.740  33.760  1.00  0.00     0.074 A 
ATOM     51  C   UNL A   1      42.983  27.577  33.086  1.00  0.00     0.031 C 
ATOM     52  C   UNL A   1      37.956  30.869  29.684  1.00  0.00     0.029 A 
ATOM     53  C   UNL A   1      38.298  31.411  30.995  1.00  0.00     0.049 A 
ATOM     54  H   UNL A   1      39.783  30.739  32.295  1.00  0.00     0.167 HD
ATOM     55  C   UNL A   1      42.896  29.198  34.955  1.00  0.00     0.031 A 
ATOM     56  C   UNL A   1      37.689  32.458  31.586  1.00  0.00     0.031 A 
ATOM     57  C   UNL A   1      42.355  30.350  35.629  1.00  0.00     0.049 A 
ATOM     58  C   UNL A   1      38.155  32.901  32.949  1.00  0.00     0.074 A 
ATOM     59  C   UNL A   1      42.752  30.905  36.833  1.00  0.00     0.029 A 
ATOM     60  N   UNL A   1      41.303  31.122  35.162  1.00  0.00    -0.354 N 
ATOM     61  N   UNL A   1      39.131  32.423  33.683  1.00  0.00    -0.248 NA
ATOM     62  C   UNL A   1      37.443  34.032  33.558  1.00  0.00     0.031 C 
ATOM     63  C   UNL A   1      41.898  31.972  37.125  1.00  0.00     0.029 A 
ATOM     64  C   UNL A   1      41.020  32.133  36.066  1.00  0.00     0.049 A 
ATOM     65  H   UNL A   1      40.828  30.974  34.313  1.00  0.00     0.167 HD
ATOM     66  C   UNL A   1      39.175  33.221  34.821  1.00  0.00     0.074 A 
ATOM     67  C   UNL A   1      38.140  34.223  34.669  1.00  0.00     0.031 C 
ATOM     68  C   UNL A   1      39.995  33.133  35.896  1.00  0.00     0.031 A 
BRANCH  55  69
ATOM     69  C   UNL A   1      44.032  28.454  35.610  1.00  0.00    -0.014 A 
ATOM     70  C   UNL A   1      43.784  27.379  36.484  1.00  0.00     0.010 A 
ATOM     71  C   UNL A   1      45.364  28.789  35.305  1.00  0.00     0.010 A 
ATOM     72  C   UNL A   1      44.842  26.678  37.065  1.00  0.00     0.020 A 
ATOM     73  C   UNL A   1      46.427  28.067  35.857  1.00  0.00     0.020 A 
ATOM     74  C   UNL A   1      46.158  27.024  36.745  1.00  0.00     0.054 A 
BRANCH  74  75
ATOM     75  S   UNL A   1      47.507  26.067  37.487  1.00  0.00     0.124 S 
ATOM     76  O   UNL A   1      47.024  24.696  37.336  1.00  0.00    -0.237 OA
ATOM     77  O   UNL A   1      48.649  26.425  36.650  1.00  0.00    -0.237 OA
ATOM     78  O   UNL A   1      47.568  26.556  38.862  1.00  0.00    -0.744 OA
ENDBRANCH  74  75
ENDBRANCH  55  69
BRANCH  56  79
ATOM     79  C   UNL A   1      36.563  33.161  30.906  1.00  0.00    -0.014 A 
ATOM     80  C   UNL A   1      36.792  33.947  29.761  1.00  0.00     0.010 A 
ATOM     81  C   UNL A   1      35.256  33.077  31.422  1.00  0.00     0.010 A 
ATOM     82  C   UNL A   1      35.749  34.669  29.175  1.00  0.00     0.020 A 
ATOM     83  C   UNL A   1      34.203  33.766  30.815  1.00  0.00     0.020 A 
ATOM     84  C   UNL A   1      34.461  34.575  29.707  1.00  0.00     0.054 A 
BRANCH  84  85
ATOM     85  S   UNL A   1      33.121  35.513  28.924  1.00  0.00     0.124 S 
ATOM     86  O   UNL A   1      32.423  36.069  30.079  1.00  0.00    -0.237 OA
ATOM     87  O   UNL A   1      33.851  36.474  28.100  1.00  0.00    -0.237 OA
ATOM     88  O   UNL A   1      32.383  34.496  28.177  1.00  0.00    -0.744 OA
ENDBRANCH  84  85
ENDBRANCH  56  79
BRANCH  68  89
ATOM     89  C   UNL A   1      39.850  34.179  36.973  1.00  0.00    -0.014 A 
ATOM     90  C   UNL A   1      40.359  35.480  36.811  1.00  0.00     0.010 A 
ATOM     91  C   UNL A   1      39.140  33.864  38.147  1.00  0.00     0.010 A 
ATOM     92  C   UNL A   1      40.188  36.435  37.816  1.00  0.00     0.020 A 
ATOM     93  C   UNL A   1      38.934  34.827  39.137  1.00  0.00     0.020 A 
ATOM     94  C   UNL A   1      39.471  36.105  38.971  1.00  0.00     0.054 A 
BRANCH  94  95
ATOM     95  S   UNL A   1      39.218  37.382  40.233  1.00  0.00     0.124 S 
ATOM     96  O   UNL A   1      38.360  38.335  39.535  1.00  0.00    -0.237 OA
ATOM     97  O   UNL A   1      38.578  36.636  41.315  1.00  0.00    -0.237 OA
ATOM     98  O   UNL A   1      40.568  37.856  40.524  1.00  0.00    -0.744 OA
ENDBRANCH  94  95
ENDBRANCH  68  89
ENDBRANCH  42  43
ENDBRANCH  34  37
ENDBRANCH  32  33
ENDBRANCH   1  32
TORSDOF 18
ENDMDL
MODEL 2
REMARK VINA RESULT:     -12.5      6.042     11.544
REMARK SMILES N#CC1=C(N)N2C(=O)[C@@H](CC(=O)NCCCNC(=O)c3ccc(-c4c5nc(c(-c6ccc(S(=O)(=O)[O-])cc6)c6ccc([nH]6)c(-c6ccc(S(=O)(=O)[O-])cc6)c6nc(c(-c7ccc(S(=O)(=O)[O-])cc7)c7ccc4[nH]7)C=C6)C=C5)cc3)SC2=C(C#N)[C@H]1c1ccc(Cl)cc1
REMARK SMILES IDX 15 1 14 2 13 3 11 4 12 5 10 7 9 8 3 9 4 10 85 11 6 12 82 13
REMARK SMILES IDX 7 14 81 15 8 16 80 17 2 18 1 19 5 20 86 23 87 24 92 25 88 26
REMARK SMILES IDX 91 27 89 28 90 29 83 30 84 31 16 32 17 33 18 34 19 36 20 37
REMARK SMILES IDX 21 38 79 39 22 40 78 41 23 42 24 43 25 44 72 45 26 46 77 47
REMARK SMILES IDX 71 48 73 49 27 50 76 51 70 52 69 53 28 55 58 56 39 57 57 58
REMARK SMILES IDX 40 59 43 60 56 61 74 62 41 63 42 64 55 66 75 67 44 68 29 69
REMARK SMILES IDX 30 70 38 71 31 72 37 73 32 74 33 75 34 76 35 77 36 78 59 79
REMARK SMILES IDX 60 80 68 81 61 82 67 83 62 84 63 85 64 86 65 87 66 88 45 89
REMARK SMILES IDX 46 90 54 91 47 92 53 93 48 94 49 95 50 96 51 97 52 98
REMARK H PARENT 13 6 5 21 5 22 17 35 73 54 43 65
REMARK Flexibility Score: inf
ROOT
ATOM      1  C   UNL A   1      34.523  29.016  27.496  1.00  0.00     0.042 C 
ENDROOT
BRANCH   1   2
ATOM      2  C   UNL A   1      34.272  28.602  26.044  1.00  0.00     0.117 C 
BRANCH   2   3
ATOM      3  N   UNL A   1      33.086  29.194  25.446  1.00  0.00    -0.356 N 
ATOM      4  C   UNL A   1      31.798  28.763  25.436  1.00  0.00     0.221 C 
ATOM      5  O   UNL A   1      30.938  29.440  24.874  1.00  0.00    -0.275 OA
ATOM      6  H   UNL A   1      33.242  30.041  24.971  1.00  0.00     0.163 HD
BRANCH   4   7
ATOM      7  C   UNL A   1      31.427  27.470  26.117  1.00  0.00     0.125 C 
BRANCH   7   8
ATOM      8  C   UNL A   1      30.398  26.642  25.351  1.00  0.00     0.152 C 
ATOM      9  C   UNL A   1      32.040  22.310  24.504  1.00  0.00     0.083 C 
ATOM     10  C   UNL A   1      31.126  22.989  25.218  1.00  0.00     0.126 C 
ATOM     11  C   UNL A   1      33.003  22.979  23.536  1.00  0.00     0.107 C 
ATOM     12  N   UNL A   1      31.012  24.356  24.990  1.00  0.00    -0.258 N 
ATOM     13  C   UNL A   1      32.405  24.278  23.038  1.00  0.00     0.073 C 
ATOM     14  C   UNL A   1      30.303  25.201  25.827  1.00  0.00     0.247 C 
ATOM     15  C   UNL A   1      31.521  24.907  23.830  1.00  0.00     0.099 C 
ATOM     16  O   UNL A   1      29.731  24.851  26.855  1.00  0.00    -0.273 OA
ATOM     17  S   UNL A   1      30.910  26.511  23.590  1.00  0.00    -0.093 SA
BRANCH   9  18
ATOM     18  C   UNL A   1      32.143  20.798  24.625  1.00  0.00     0.100 C 
ATOM     19  N   UNL A   1      32.229  19.544  24.725  1.00  0.00    -0.193 NA
ENDBRANCH   9  18
BRANCH  10  20
ATOM     20  N   UNL A   1      30.327  22.371  26.140  1.00  0.00    -0.384 N 
ATOM     21  H   UNL A   1      29.364  22.268  25.965  1.00  0.00     0.158 HD
ATOM     22  H   UNL A   1      30.715  22.030  26.978  1.00  0.00     0.158 HD
ENDBRANCH  10  20
BRANCH  11  23
ATOM     23  C   UNL A   1      34.403  23.169  24.175  1.00  0.00    -0.034 A 
ATOM     24  C   UNL A   1      35.603  22.946  23.467  1.00  0.00     0.006 A 
ATOM     25  C   UNL A   1      34.514  23.605  25.510  1.00  0.00     0.006 A 
ATOM     26  C   UNL A   1      36.853  23.150  24.064  1.00  0.00     0.021 A 
ATOM     27  C   UNL A   1      35.764  23.836  26.097  1.00  0.00     0.021 A 
ATOM     28  C   UNL A   1      36.929  23.603  25.374  1.00  0.00     0.041 A 
ATOM     29  Cl  UNL A   1      38.465  23.870  26.100  1.00  0.00    -0.084 Cl
ENDBRANCH  11  23
BRANCH  13  30
ATOM     30  C   UNL A   1      32.881  24.823  21.812  1.00  0.00     0.098 C 
ATOM     31  N   UNL A   1      33.239  25.253  20.794  1.00  0.00    -0.193 NA
ENDBRANCH  13  30
ENDBRANCH   7   8
ENDBRANCH   4   7
ENDBRANCH   2   3
ENDBRANCH   1   2
BRANCH   1  32
ATOM     32  C   UNL A   1      35.377  30.271  27.648  1.00  0.00     0.118 C 
BRANCH  32  33
ATOM     33  N   UNL A   1      35.357  30.727  29.031  1.00  0.00    -0.352 N 
ATOM     34  C   UNL A   1      36.241  30.426  30.038  1.00  0.00     0.251 C 
ATOM     35  H   UNL A   1      34.616  31.327  29.275  1.00  0.00     0.163 HD
ATOM     36  O   UNL A   1      35.890  30.543  31.208  1.00  0.00    -0.269 OA
BRANCH  34  37
ATOM     37  C   UNL A   1      37.608  29.965  29.707  1.00  0.00     0.039 A 
ATOM     38  C   UNL A   1      38.035  29.993  28.378  1.00  0.00     0.014 A 
ATOM     39  C   UNL A   1      38.454  29.468  30.704  1.00  0.00     0.014 A 
ATOM     40  C   UNL A   1      39.325  29.564  28.057  1.00  0.00     0.010 A 
ATOM     41  C   UNL A   1      39.764  29.110  30.392  1.00  0.00     0.010 A 
ATOM     42  C   UNL A   1      40.212  29.148  29.064  1.00  0.00    -0.014 A 
BRANCH  42  43
ATOM     43  C   UNL A   1      41.609  28.750  28.744  1.00  0.00     0.031 A 
ATOM     44  C   UNL A   1      42.719  29.767  28.778  1.00  0.00     0.074 A 
ATOM     45  C   UNL A   1      41.872  27.478  28.381  1.00  0.00     0.049 A 
ATOM     46  N   UNL A   1      43.984  29.617  28.480  1.00  0.00    -0.248 NA
ATOM     47  C   UNL A   1      42.358  31.137  29.184  1.00  0.00     0.031 C 
ATOM     48  C   UNL A   1      40.882  26.402  28.286  1.00  0.00     0.029 A 
ATOM     49  N   UNL A   1      43.051  26.872  28.020  1.00  0.00    -0.354 N 
ATOM     50  C   UNL A   1      44.569  30.865  28.663  1.00  0.00     0.074 A 
ATOM     51  C   UNL A   1      43.509  31.777  29.034  1.00  0.00     0.031 C 
ATOM     52  C   UNL A   1      41.499  25.264  27.926  1.00  0.00     0.029 A 
ATOM     53  C   UNL A   1      42.916  25.539  27.709  1.00  0.00     0.049 A 
ATOM     54  H   UNL A   1      43.912  27.349  27.987  1.00  0.00     0.167 HD
ATOM     55  C   UNL A   1      45.873  31.217  28.559  1.00  0.00     0.031 A 
ATOM     56  C   UNL A   1      43.825  24.640  27.283  1.00  0.00     0.031 A 
ATOM     57  C   UNL A   1      46.925  30.311  28.179  1.00  0.00     0.049 A 
ATOM     58  C   UNL A   1      45.257  25.077  27.103  1.00  0.00     0.074 A 
ATOM     59  C   UNL A   1      48.280  30.567  28.065  1.00  0.00     0.029 A 
ATOM     60  N   UNL A   1      46.742  28.976  27.850  1.00  0.00    -0.354 N 
ATOM     61  N   UNL A   1      45.797  26.249  27.335  1.00  0.00    -0.248 NA
ATOM     62  C   UNL A   1      46.202  24.065  26.614  1.00  0.00     0.031 C 
ATOM     63  C   UNL A   1      48.907  29.406  27.603  1.00  0.00     0.029 A 
ATOM     64  C   UNL A   1      47.956  28.404  27.508  1.00  0.00     0.049 A 
ATOM     65  H   UNL A   1      45.878  28.506  27.859  1.00  0.00     0.167 HD
ATOM     66  C   UNL A   1      47.152  26.103  27.058  1.00  0.00     0.074 A 
ATOM     67  C   UNL A   1      47.351  24.724  26.660  1.00  0.00     0.031 C 
ATOM     68  C   UNL A   1      48.143  27.025  27.126  1.00  0.00     0.031 A 
BRANCH  55  69
ATOM     69  C   UNL A   1      46.239  32.648  28.868  1.00  0.00    -0.014 A 
ATOM     70  C   UNL A   1      46.624  33.031  30.166  1.00  0.00     0.010 A 
ATOM     71  C   UNL A   1      46.262  33.608  27.840  1.00  0.00     0.010 A 
ATOM     72  C   UNL A   1      46.988  34.351  30.437  1.00  0.00     0.020 A 
ATOM     73  C   UNL A   1      46.659  34.923  28.099  1.00  0.00     0.020 A 
ATOM     74  C   UNL A   1      47.007  35.289  29.401  1.00  0.00     0.054 A 
BRANCH  74  75
ATOM     75  S   UNL A   1      47.524  36.985  29.781  1.00  0.00     0.124 S 
ATOM     76  O   UNL A   1      46.715  37.764  28.846  1.00  0.00    -0.237 OA
ATOM     77  O   UNL A   1      47.161  37.121  31.189  1.00  0.00    -0.237 OA
ATOM     78  O   UNL A   1      48.959  36.983  29.506  1.00  0.00    -0.744 OA
ENDBRANCH  74  75
ENDBRANCH  55  69
BRANCH  56  79
ATOM     79  C   UNL A   1      43.419  23.238  26.980  1.00  0.00    -0.014 A 
ATOM     80  C   UNL A   1      42.752  22.459  27.944  1.00  0.00     0.010 A 
ATOM     81  C   UNL A   1      43.729  22.658  25.736  1.00  0.00     0.010 A 
ATOM     82  C   UNL A   1      42.446  21.119  27.687  1.00  0.00     0.020 A 
ATOM     83  C   UNL A   1      43.388  21.332  25.460  1.00  0.00     0.020 A 
ATOM     84  C   UNL A   1      42.768  20.564  26.446  1.00  0.00     0.054 A 
BRANCH  84  85
ATOM     85  S   UNL A   1      42.351  18.827  26.131  1.00  0.00     0.124 S 
ATOM     86  O   UNL A   1      42.610  18.213  27.429  1.00  0.00    -0.237 OA
ATOM     87  O   UNL A   1      40.946  18.908  25.736  1.00  0.00    -0.237 OA
ATOM     88  O   UNL A   1      43.271  18.444  25.062  1.00  0.00    -0.744 OA
ENDBRANCH  84  85
ENDBRANCH  56  79
BRANCH  68  89
ATOM     89  C   UNL A   1      49.546  26.567  26.815  1.00  0.00    -0.014 A 
ATOM     90  C   UNL A   1      50.406  26.093  27.822  1.00  0.00     0.010 A 
ATOM     91  C   UNL A   1      49.988  26.561  25.479  1.00  0.00     0.010 A 
ATOM     92  C   UNL A   1      51.693  25.652  27.501  1.00  0.00     0.020 A 
ATOM     93  C   UNL A   1      51.259  26.085  25.150  1.00  0.00     0.020 A 
ATOM     94  C   UNL A   1      52.109  25.645  26.165  1.00  0.00     0.054 A 
BRANCH  94  95
ATOM     95  S   UNL A   1      53.764  25.015  25.773  1.00  0.00     0.124 S 
ATOM     96  O   UNL A   1      54.416  25.037  27.079  1.00  0.00    -0.237 OA
ATOM     97  O   UNL A   1      53.478  23.687  25.235  1.00  0.00    -0.237 OA
ATOM     98  O   UNL A   1      54.281  25.977  24.803  1.00  0.00    -0.744 OA
ENDBRANCH  94  95
ENDBRANCH  68  89
ENDBRANCH  42  43
ENDBRANCH  34  37
ENDBRANCH  32  33
ENDBRANCH   1  32
TORSDOF 18
ENDMDL
MODEL 3
REMARK VINA RESULT:     -12.3      0.618      7.916
REMARK SMILES N#CC1=C(N)N2C(=O)[C@@H](CC(=O)NCCCNC(=O)c3ccc(-c4c5nc(c(-c6ccc(S(=O)(=O)[O-])cc6)c6ccc([nH]6)c(-c6ccc(S(=O)(=O)[O-])cc6)c6nc(c(-c7ccc(S(=O)(=O)[O-])cc7)c7ccc4[nH]7)C=C6)C=C5)cc3)SC2=C(C#N)[C@H]1c1ccc(Cl)cc1
REMARK SMILES IDX 15 1 14 2 13 3 11 4 12 5 10 7 9 8 3 9 4 10 85 11 6 12 82 13
REMARK SMILES IDX 7 14 81 15 8 16 80 17 2 18 1 19 5 20 86 23 87 24 92 25 88 26
REMARK SMILES IDX 91 27 89 28 90 29 83 30 84 31 16 32 17 33 18 34 19 36 20 37
REMARK SMILES IDX 21 38 79 39 22 40 78 41 23 42 24 43 25 44 72 45 26 46 77 47
REMARK SMILES IDX 71 48 73 49 27 50 76 51 70 52 69 53 28 55 58 56 39 57 57 58
REMARK SMILES IDX 40 59 43 60 56 61 74 62 41 63 42 64 55 66 75 67 44 68 29 69
REMARK SMILES IDX 30 70 38 71 31 72 37 73 32 74 33 75 34 76 35 77 36 78 59 79
REMARK SMILES IDX 60 80 68 81 61 82 67 83 62 84 63 85 64 86 65 87 66 88 45 89
REMARK SMILES IDX 46 90 54 91 47 92 53 93 48 94 49 95 50 96 51 97 52 98
REMARK H PARENT 13 6 5 21 5 22 17 35 73 54 43 65
REMARK Flexibility Score: inf
ROOT
ATOM      1  C   UNL A   1      39.204  22.217  26.311  1.00  0.00     0.042 C 
ENDROOT
BRANCH   1   2
ATOM      2  C   UNL A   1      37.821  22.530  25.735  1.00  0.00     0.117 C 
BRANCH   2   3
ATOM      3  N   UNL A   1      37.001  21.359  25.467  1.00  0.00    -0.356 N 
ATOM      4  C   UNL A   1      35.784  21.255  24.875  1.00  0.00     0.221 C 
ATOM      5  O   UNL A   1      35.272  20.145  24.735  1.00  0.00    -0.275 OA
ATOM      6  H   UNL A   1      37.391  20.505  25.762  1.00  0.00     0.163 HD
BRANCH   4   7
ATOM      7  C   UNL A   1      35.070  22.491  24.388  1.00  0.00     0.125 C 
BRANCH   7   8
ATOM      8  C   UNL A   1      33.779  22.200  23.628  1.00  0.00     0.152 C 
ATOM      9  C   UNL A   1      31.114  26.071  23.323  1.00  0.00     0.083 C 
ATOM     10  C   UNL A   1      31.863  25.225  22.595  1.00  0.00     0.126 C 
ATOM     11  C   UNL A   1      30.892  25.908  24.819  1.00  0.00     0.107 C 
ATOM     12  N   UNL A   1      32.388  24.109  23.237  1.00  0.00    -0.258 N 
ATOM     13  C   UNL A   1      31.056  24.452  25.202  1.00  0.00     0.073 C 
ATOM     14  C   UNL A   1      33.371  23.312  22.675  1.00  0.00     0.247 C 
ATOM     15  C   UNL A   1      31.849  23.685  24.436  1.00  0.00     0.099 C 
ATOM     16  O   UNL A   1      33.897  23.512  21.584  1.00  0.00    -0.273 OA
ATOM     17  S   UNL A   1      32.383  22.082  24.820  1.00  0.00    -0.093 SA
BRANCH   9  18
ATOM     18  C   UNL A   1      30.422  27.251  22.661  1.00  0.00     0.100 C 
ATOM     19  N   UNL A   1      29.848  28.230  22.112  1.00  0.00    -0.193 NA
ENDBRANCH   9  18
BRANCH  10  20
ATOM     20  N   UNL A   1      32.110  25.441  21.267  1.00  0.00    -0.384 N 
ATOM     21  H   UNL A   1      32.698  24.828  20.770  1.00  0.00     0.158 HD
ATOM     22  H   UNL A   1      31.699  26.209  20.808  1.00  0.00     0.158 HD
ENDBRANCH  10  20
BRANCH  11  23
ATOM     23  C   UNL A   1      31.818  26.851  25.630  1.00  0.00    -0.034 A 
ATOM     24  C   UNL A   1      31.390  27.527  26.793  1.00  0.00     0.006 A 
ATOM     25  C   UNL A   1      33.155  27.041  25.230  1.00  0.00     0.006 A 
ATOM     26  C   UNL A   1      32.257  28.351  27.519  1.00  0.00     0.021 A 
ATOM     27  C   UNL A   1      34.029  27.845  25.972  1.00  0.00     0.021 A 
ATOM     28  C   UNL A   1      33.575  28.500  27.112  1.00  0.00     0.041 A 
ATOM     29  Cl  UNL A   1      34.643  29.501  28.015  1.00  0.00    -0.084 Cl
ENDBRANCH  11  23
BRANCH  13  30
ATOM     30  C   UNL A   1      30.452  23.993  26.407  1.00  0.00     0.098 C 
ATOM     31  N   UNL A   1      29.992  23.597  27.397  1.00  0.00    -0.193 NA
ENDBRANCH  13  30
ENDBRANCH   7   8
ENDBRANCH   4   7
ENDBRANCH   2   3
ENDBRANCH   1   2
BRANCH   1  32
ATOM     32  C   UNL A   1      39.876  23.401  26.998  1.00  0.00     0.118 C 
BRANCH  32  33
ATOM     33  N   UNL A   1      40.926  23.945  26.148  1.00  0.00    -0.352 N 
ATOM     34  C   UNL A   1      41.391  25.235  26.091  1.00  0.00     0.251 C 
ATOM     35  H   UNL A   1      41.358  23.305  25.537  1.00  0.00     0.163 HD
ATOM     36  O   UNL A   1      41.970  25.627  25.082  1.00  0.00    -0.269 OA
BRANCH  34  37
ATOM     37  C   UNL A   1      41.192  26.144  27.243  1.00  0.00     0.039 A 
ATOM     38  C   UNL A   1      40.149  25.894  28.137  1.00  0.00     0.014 A 
ATOM     39  C   UNL A   1      42.011  27.264  27.417  1.00  0.00     0.014 A 
ATOM     40  C   UNL A   1      39.956  26.743  29.229  1.00  0.00     0.010 A 
ATOM     41  C   UNL A   1      41.863  28.066  28.546  1.00  0.00     0.010 A 
ATOM     42  C   UNL A   1      40.829  27.819  29.462  1.00  0.00    -0.014 A 
BRANCH  42  43
ATOM     43  C   UNL A   1      40.675  28.693  30.655  1.00  0.00     0.031 A 
ATOM     44  C   UNL A   1      39.651  29.797  30.665  1.00  0.00     0.074 A 
ATOM     45  C   UNL A   1      41.489  28.519  31.717  1.00  0.00     0.049 A 
ATOM     46  N   UNL A   1      39.409  30.688  31.592  1.00  0.00    -0.248 NA
ATOM     47  C   UNL A   1      38.798  29.928  29.471  1.00  0.00     0.031 C 
ATOM     48  C   UNL A   1      42.537  27.501  31.824  1.00  0.00     0.029 A 
ATOM     49  N   UNL A   1      41.565  29.195  32.910  1.00  0.00    -0.354 N 
ATOM     50  C   UNL A   1      38.380  31.482  31.097  1.00  0.00     0.074 A 
ATOM     51  C   UNL A   1      38.087  31.008  29.762  1.00  0.00     0.031 C 
ATOM     52  C   UNL A   1      43.127  27.598  33.026  1.00  0.00     0.029 A 
ATOM     53  C   UNL A   1      42.541  28.719  33.755  1.00  0.00     0.049 A 
ATOM     54  H   UNL A   1      40.975  29.950  33.139  1.00  0.00     0.167 HD
ATOM     55  C   UNL A   1      37.717  32.495  31.707  1.00  0.00     0.031 A 
ATOM     56  C   UNL A   1      42.932  29.144  34.972  1.00  0.00     0.031 A 
ATOM     57  C   UNL A   1      38.018  32.971  33.031  1.00  0.00     0.049 A 
ATOM     58  C   UNL A   1      42.229  30.321  35.597  1.00  0.00     0.074 A 
ATOM     59  C   UNL A   1      37.391  33.979  33.745  1.00  0.00     0.029 A 
ATOM     60  N   UNL A   1      39.028  32.478  33.843  1.00  0.00    -0.354 N 
ATOM     61  N   UNL A   1      41.221  31.021  35.133  1.00  0.00    -0.248 NA
ATOM     62  C   UNL A   1      42.709  30.759  36.914  1.00  0.00     0.031 C 
ATOM     63  C   UNL A   1      38.065  34.138  34.959  1.00  0.00     0.029 A 
ATOM     64  C   UNL A   1      39.059  33.177  35.038  1.00  0.00     0.049 A 
ATOM     65  H   UNL A   1      39.633  31.739  33.605  1.00  0.00     0.167 HD
ATOM     66  C   UNL A   1      40.923  31.955  36.120  1.00  0.00     0.074 A 
ATOM     67  C   UNL A   1      41.844  31.717  37.213  1.00  0.00     0.031 C 
ATOM     68  C   UNL A   1      39.973  32.922  36.124  1.00  0.00     0.031 A 
BRANCH  55  69
ATOM     69  C   UNL A   1      36.594  33.155  30.947  1.00  0.00    -0.014 A 
ATOM     70  C   UNL A   1      35.251  32.921  31.295  1.00  0.00     0.010 A 
ATOM     71  C   UNL A   1      36.881  34.068  29.915  1.00  0.00     0.010 A 
ATOM     72  C   UNL A   1      34.218  33.558  30.605  1.00  0.00     0.020 A 
ATOM     73  C   UNL A   1      35.851  34.734  29.244  1.00  0.00     0.020 A 
ATOM     74  C   UNL A   1      34.525  34.464  29.586  1.00  0.00     0.054 A 
BRANCH  74  75
ATOM     75  S   UNL A   1      33.160  35.303  28.737  1.00  0.00     0.124 S 
ATOM     76  O   UNL A   1      33.872  36.252  27.883  1.00  0.00    -0.237 OA
ATOM     77  O   UNL A   1      32.496  34.205  28.038  1.00  0.00    -0.237 OA
ATOM     78  O   UNL A   1      32.389  35.904  29.823  1.00  0.00    -0.744 OA
ENDBRANCH  74  75
ENDBRANCH  55  69
BRANCH  56  79
ATOM     79  C   UNL A   1      44.053  28.468  35.686  1.00  0.00    -0.014 A 
ATOM     80  C   UNL A   1      45.388  28.845  35.448  1.00  0.00     0.010 A 
ATOM     81  C   UNL A   1      43.795  27.414  36.583  1.00  0.00     0.010 A 
ATOM     82  C   UNL A   1      46.441  28.155  36.056  1.00  0.00     0.020 A 
ATOM     83  C   UNL A   1      44.843  26.749  37.224  1.00  0.00     0.020 A 
ATOM     84  C   UNL A   1      46.160  27.109  36.939  1.00  0.00     0.054 A 
BRANCH  84  85
ATOM     85  S   UNL A   1      47.542  26.235  37.725  1.00  0.00     0.124 S 
ATOM     86  O   UNL A   1      47.419  24.898  37.153  1.00  0.00    -0.237 OA
ATOM     87  O   UNL A   1      48.698  27.011  37.281  1.00  0.00    -0.237 OA
ATOM     88  O   UNL A   1      47.243  26.336  39.152  1.00  0.00    -0.744 OA
ENDBRANCH  84  85
ENDBRANCH  56  79
BRANCH  68  89
ATOM     89  C   UNL A   1      39.840  33.766  37.366  1.00  0.00    -0.014 A 
ATOM     90  C   UNL A   1      40.579  34.951  37.535  1.00  0.00     0.010 A 
ATOM     91  C   UNL A   1      38.913  33.391  38.357  1.00  0.00     0.010 A 
ATOM     92  C   UNL A   1      40.416  35.726  38.687  1.00  0.00     0.020 A 
ATOM     93  C   UNL A   1      38.721  34.183  39.491  1.00  0.00     0.020 A 
ATOM     94  C   UNL A   1      39.484  35.340  39.655  1.00  0.00     0.054 A 
BRANCH  94  95
ATOM     95  S   UNL A   1      39.255  36.396  41.112  1.00  0.00     0.124 S 
ATOM     96  O   UNL A   1      38.708  37.614  40.523  1.00  0.00    -0.237 OA
ATOM     97  O   UNL A   1      38.323  35.617  41.924  1.00  0.00    -0.237 OA
ATOM     98  O   UNL A   1      40.601  36.522  41.665  1.00  0.00    -0.744 OA
ENDBRANCH  94  95
ENDBRANCH  68  89
ENDBRANCH  42  43
ENDBRANCH  34  37
ENDBRANCH  32  33
ENDBRANCH   1  32
TORSDOF 18
ENDMDL
