MODEL 1
REMARK VINA RESULT:     -12.2      0.000      0.000
REMARK SMILES Cc1sc(C(=O)NCCCNC(=O)c2ccc(-c3c4nc(c(-c5ccc(S(=O)(=O)[O-])cc5)c5ccc([nH]5)c(-c5ccc(S(=O)(=O)[O-])cc5)c5nc(c(-c6ccc(S(=O)(=O)[O-])cc6)c6ccc3[nH]6)C=C5)C=C4)cc2)cc1S(=O)(=O)N1C[C@@H](C)[C@H](C)C1
REMARK SMILES IDX 9 1 8 2 7 3 5 4 6 5 4 7 1 8 2 9 3 10 75 11 74 12 76 13 77 14
REMARK SMILES IDX 78 15 79 16 80 17 85 18 81 19 83 20 82 21 84 22 10 23 11 24
REMARK SMILES IDX 12 25 13 27 14 28 15 29 73 30 16 31 72 32 17 33 18 34 19 35
REMARK SMILES IDX 66 36 20 37 71 38 65 39 67 40 21 41 70 42 64 43 63 44 22 46
REMARK SMILES IDX 52 47 33 48 51 49 34 50 37 51 50 52 68 53 35 54 36 55 49 57
REMARK SMILES IDX 69 58 38 59 23 60 24 61 32 62 25 63 31 64 26 65 27 66 28 67
REMARK SMILES IDX 29 68 30 69 53 70 54 71 62 72 55 73 61 74 56 75 57 76 58 77
REMARK SMILES IDX 59 78 60 79 39 80 40 81 48 82 41 83 47 84 42 85 43 86 44 87
REMARK SMILES IDX 45 88 46 89
REMARK H PARENT 7 6 11 26 67 45 37 56
REMARK Flexibility Score: inf
ROOT
ATOM      1  C   UNL A   1      34.975  29.959  27.471  1.00  0.00     0.042 C 
ENDROOT
BRANCH   1   2
ATOM      2  C   UNL A   1      33.549  30.449  27.235  1.00  0.00     0.118 C 
BRANCH   2   3
ATOM      3  N   UNL A   1      32.585  29.484  27.720  1.00  0.00    -0.351 N 
ATOM      4  C   UNL A   1      31.764  28.599  27.071  1.00  0.00     0.261 C 
ATOM      5  O   UNL A   1      31.042  27.922  27.809  1.00  0.00    -0.268 OA
ATOM      6  H   UNL A   1      32.504  29.459  28.701  1.00  0.00     0.163 HD
BRANCH   4   7
ATOM      7  C   UNL A   1      31.794  28.450  25.623  1.00  0.00     0.093 A 
ATOM      8  C   UNL A   1      30.640  29.476  22.025  1.00  0.00     0.058 C 
ATOM      9  C   UNL A   1      31.233  28.820  23.213  1.00  0.00     0.022 A 
ATOM     10  S   UNL A   1      30.937  29.616  24.706  1.00  0.00    -0.134 S 
ATOM     11  C   UNL A   1      31.994  27.682  23.399  1.00  0.00     0.097 A 
ATOM     12  C   UNL A   1      32.396  27.544  24.773  1.00  0.00     0.047 A 
BRANCH  11  13
ATOM     13  S   UNL A   1      32.479  26.446  22.262  1.00  0.00     0.244 S 
ATOM     14  O   UNL A   1      31.312  26.308  21.425  1.00  0.00    -0.207 OA
ATOM     15  O   UNL A   1      33.726  26.981  21.747  1.00  0.00    -0.207 OA
BRANCH  13  16
ATOM     16  N   UNL A   1      32.805  24.974  22.946  1.00  0.00    -0.197 NA
ATOM     17  C   UNL A   1      31.813  23.909  23.036  1.00  0.00     0.106 C 
ATOM     18  C   UNL A   1      34.166  24.518  23.199  1.00  0.00     0.106 C 
ATOM     19  C   UNL A   1      32.617  22.646  23.371  1.00  0.00     0.005 C 
ATOM     20  C   UNL A   1      34.087  22.996  23.069  1.00  0.00     0.005 C 
ATOM     21  C   UNL A   1      32.135  21.443  22.565  1.00  0.00     0.009 C 
ATOM     22  C   UNL A   1      35.068  22.290  23.993  1.00  0.00     0.009 C 
ENDBRANCH  13  16
ENDBRANCH  11  13
ENDBRANCH   4   7
ENDBRANCH   2   3
ENDBRANCH   1   2
BRANCH   1  23
ATOM     23  C   UNL A   1      35.823  30.968  28.241  1.00  0.00     0.118 C 
BRANCH  23  24
ATOM     24  N   UNL A   1      35.775  30.724  29.676  1.00  0.00    -0.352 N 
ATOM     25  C   UNL A   1      36.610  29.988  30.474  1.00  0.00     0.251 C 
ATOM     26  H   UNL A   1      35.025  31.156  30.147  1.00  0.00     0.163 HD
ATOM     27  O   UNL A   1      36.235  29.664  31.597  1.00  0.00    -0.269 OA
BRANCH  25  28
ATOM     28  C   UNL A   1      37.951  29.604  29.995  1.00  0.00     0.039 A 
ATOM     29  C   UNL A   1      38.901  29.172  30.923  1.00  0.00     0.014 A 
ATOM     30  C   UNL A   1      38.295  29.735  28.645  1.00  0.00     0.014 A 
ATOM     31  C   UNL A   1      40.186  28.846  30.492  1.00  0.00     0.010 A 
ATOM     32  C   UNL A   1      39.549  29.327  28.205  1.00  0.00     0.010 A 
ATOM     33  C   UNL A   1      40.515  28.903  29.127  1.00  0.00    -0.014 A 
BRANCH  33  34
ATOM     34  C   UNL A   1      41.875  28.552  28.653  1.00  0.00     0.031 A 
ATOM     35  C   UNL A   1      42.946  29.607  28.580  1.00  0.00     0.074 A 
ATOM     36  C   UNL A   1      42.130  27.291  28.252  1.00  0.00     0.049 A 
ATOM     37  N   UNL A   1      44.185  29.498  28.174  1.00  0.00    -0.248 NA
ATOM     38  C   UNL A   1      42.571  30.972  28.991  1.00  0.00     0.031 C 
ATOM     39  C   UNL A   1      41.157  26.194  28.236  1.00  0.00     0.029 A 
ATOM     40  N   UNL A   1      43.283  26.718  27.781  1.00  0.00    -0.354 N 
ATOM     41  C   UNL A   1      44.728  30.774  28.265  1.00  0.00     0.074 A 
ATOM     42  C   UNL A   1      43.670  31.654  28.708  1.00  0.00     0.031 C 
ATOM     43  C   UNL A   1      41.766  25.074  27.816  1.00  0.00     0.029 A 
ATOM     44  C   UNL A   1      43.154  25.380  27.492  1.00  0.00     0.049 A 
ATOM     45  H   UNL A   1      44.123  27.217  27.662  1.00  0.00     0.167 HD
ATOM     46  C   UNL A   1      45.999  31.174  28.024  1.00  0.00     0.031 A 
ATOM     47  C   UNL A   1      44.055  24.499  27.018  1.00  0.00     0.031 A 
ATOM     48  C   UNL A   1      47.048  30.288  27.592  1.00  0.00     0.049 A 
ATOM     49  C   UNL A   1      45.461  24.967  26.756  1.00  0.00     0.074 A 
ATOM     50  C   UNL A   1      48.382  30.578  27.369  1.00  0.00     0.029 A 
ATOM     51  N   UNL A   1      46.881  28.938  27.317  1.00  0.00    -0.354 N 
ATOM     52  N   UNL A   1      45.973  26.166  26.911  1.00  0.00    -0.248 NA
ATOM     53  C   UNL A   1      46.414  23.959  26.276  1.00  0.00     0.031 C 
ATOM     54  C   UNL A   1      49.009  29.418  26.904  1.00  0.00     0.029 A 
ATOM     55  C   UNL A   1      48.082  28.387  26.906  1.00  0.00     0.049 A 
ATOM     56  H   UNL A   1      46.033  28.446  27.403  1.00  0.00     0.167 HD
ATOM     57  C   UNL A   1      47.317  26.048  26.576  1.00  0.00     0.074 A 
ATOM     58  C   UNL A   1      47.540  24.658  26.230  1.00  0.00     0.031 C 
ATOM     59  C   UNL A   1      48.283  27.001  26.561  1.00  0.00     0.031 A 
BRANCH  46  60
ATOM     60  C   UNL A   1      46.321  32.634  28.217  1.00  0.00    -0.014 A 
ATOM     61  C   UNL A   1      46.750  33.129  29.463  1.00  0.00     0.010 A 
ATOM     62  C   UNL A   1      46.229  33.520  27.128  1.00  0.00     0.010 A 
ATOM     63  C   UNL A   1      47.038  34.488  29.626  1.00  0.00     0.020 A 
ATOM     64  C   UNL A   1      46.547  34.874  27.279  1.00  0.00     0.020 A 
ATOM     65  C   UNL A   1      46.933  35.351  28.532  1.00  0.00     0.054 A 
BRANCH  65  66
ATOM     66  S   UNL A   1      47.337  37.104  28.769  1.00  0.00     0.124 S 
ATOM     67  O   UNL A   1      48.749  37.041  29.136  1.00  0.00    -0.237 OA
ATOM     68  O   UNL A   1      47.055  37.677  27.454  1.00  0.00    -0.237 OA
ATOM     69  O   UNL A   1      46.435  37.528  29.836  1.00  0.00    -0.744 OA
ENDBRANCH  65  66
ENDBRANCH  46  60
BRANCH  47  70
ATOM     70  C   UNL A   1      43.659  23.083  26.784  1.00  0.00    -0.014 A 
ATOM     71  C   UNL A   1      43.974  22.442  25.573  1.00  0.00     0.010 A 
ATOM     72  C   UNL A   1      42.975  22.362  27.780  1.00  0.00     0.010 A 
ATOM     73  C   UNL A   1      43.592  21.115  25.352  1.00  0.00     0.020 A 
ATOM     74  C   UNL A   1      42.620  21.025  27.576  1.00  0.00     0.020 A 
ATOM     75  C   UNL A   1      42.918  20.415  26.357  1.00  0.00     0.054 A 
BRANCH  75  76
ATOM     76  S   UNL A   1      42.471  18.681  26.065  1.00  0.00     0.124 S 
ATOM     77  O   UNL A   1      42.723  18.079  27.370  1.00  0.00    -0.237 OA
ATOM     78  O   UNL A   1      41.068  18.779  25.673  1.00  0.00    -0.237 OA
ATOM     79  O   UNL A   1      43.381  18.268  24.998  1.00  0.00    -0.744 OA
ENDBRANCH  75  76
ENDBRANCH  47  70
BRANCH  59  80
ATOM     80  C   UNL A   1      49.678  26.563  26.199  1.00  0.00    -0.014 A 
ATOM     81  C   UNL A   1      50.210  26.787  24.916  1.00  0.00     0.010 A 
ATOM     82  C   UNL A   1      50.480  25.945  27.175  1.00  0.00     0.010 A 
ATOM     83  C   UNL A   1      51.502  26.356  24.604  1.00  0.00     0.020 A 
ATOM     84  C   UNL A   1      51.784  25.544  26.877  1.00  0.00     0.020 A 
ATOM     85  C   UNL A   1      52.280  25.735  25.586  1.00  0.00     0.054 A 
BRANCH  85  86
ATOM     86  S   UNL A   1      53.960  25.203  25.161  1.00  0.00     0.124 S 
ATOM     87  O   UNL A   1      53.786  23.765  24.977  1.00  0.00    -0.237 OA
ATOM     88  O   UNL A   1      54.239  25.963  23.945  1.00  0.00    -0.237 OA
ATOM     89  O   UNL A   1      54.752  25.590  26.326  1.00  0.00    -0.744 OA
ENDBRANCH  85  86
ENDBRANCH  59  80
ENDBRANCH  33  34
ENDBRANCH  25  28
ENDBRANCH  23  24
ENDBRANCH   1  23
TORSDOF 15
ENDMDL
MODEL 2
REMARK VINA RESULT:     -12.1      4.290     10.319
REMARK SMILES Cc1sc(C(=O)NCCCNC(=O)c2ccc(-c3c4nc(c(-c5ccc(S(=O)(=O)[O-])cc5)c5ccc([nH]5)c(-c5ccc(S(=O)(=O)[O-])cc5)c5nc(c(-c6ccc(S(=O)(=O)[O-])cc6)c6ccc3[nH]6)C=C5)C=C4)cc2)cc1S(=O)(=O)N1C[C@@H](C)[C@H](C)C1
REMARK SMILES IDX 9 1 8 2 7 3 5 4 6 5 4 7 1 8 2 9 3 10 75 11 74 12 76 13 77 14
REMARK SMILES IDX 78 15 79 16 80 17 85 18 81 19 83 20 82 21 84 22 10 23 11 24
REMARK SMILES IDX 12 25 13 27 14 28 15 29 73 30 16 31 72 32 17 33 18 34 19 35
REMARK SMILES IDX 66 36 20 37 71 38 65 39 67 40 21 41 70 42 64 43 63 44 22 46
REMARK SMILES IDX 52 47 33 48 51 49 34 50 37 51 50 52 68 53 35 54 36 55 49 57
REMARK SMILES IDX 69 58 38 59 23 60 24 61 32 62 25 63 31 64 26 65 27 66 28 67
REMARK SMILES IDX 29 68 30 69 53 70 54 71 62 72 55 73 61 74 56 75 57 76 58 77
REMARK SMILES IDX 59 78 60 79 39 80 40 81 48 82 41 83 47 84 42 85 43 86 44 87
REMARK SMILES IDX 45 88 46 89
REMARK H PARENT 7 6 11 26 67 45 37 56
REMARK Flexibility Score: inf
ROOT
ATOM      1  C   UNL A   1      35.306  23.131  25.234  1.00  0.00     0.042 C 
ENDROOT
BRANCH   1   2
ATOM      2  C   UNL A   1      34.656  22.203  26.256  1.00  0.00     0.118 C 
BRANCH   2   3
ATOM      3  N   UNL A   1      33.803  21.233  25.602  1.00  0.00    -0.351 N 
ATOM      4  C   UNL A   1      32.681  21.372  24.826  1.00  0.00     0.261 C 
ATOM      5  O   UNL A   1      32.184  20.311  24.436  1.00  0.00    -0.268 OA
ATOM      6  H   UNL A   1      34.080  20.298  25.741  1.00  0.00     0.163 HD
BRANCH   4   7
ATOM      7  C   UNL A   1      32.162  22.682  24.461  1.00  0.00     0.093 A 
ATOM      8  C   UNL A   1      31.822  25.686  21.973  1.00  0.00     0.058 C 
ATOM      9  C   UNL A   1      31.781  24.770  23.135  1.00  0.00     0.022 A 
ATOM     10  S   UNL A   1      32.476  23.222  22.865  1.00  0.00    -0.134 S 
ATOM     11  C   UNL A   1      31.293  24.877  24.424  1.00  0.00     0.097 A 
ATOM     12  C   UNL A   1      31.426  23.634  25.136  1.00  0.00     0.047 A 
BRANCH  11  13
ATOM     13  S   UNL A   1      30.608  26.248  25.264  1.00  0.00     0.244 S 
ATOM     14  O   UNL A   1      29.595  26.710  24.346  1.00  0.00    -0.207 OA
ATOM     15  O   UNL A   1      30.263  25.673  26.551  1.00  0.00    -0.207 OA
BRANCH  13  16
ATOM     16  N   UNL A   1      31.670  27.489  25.533  1.00  0.00    -0.197 NA
ATOM     17  C   UNL A   1      31.385  28.867  25.149  1.00  0.00     0.106 C 
ATOM     18  C   UNL A   1      32.793  27.367  26.453  1.00  0.00     0.106 C 
ATOM     19  C   UNL A   1      32.423  29.711  25.903  1.00  0.00     0.005 C 
ATOM     20  C   UNL A   1      33.002  28.784  26.988  1.00  0.00     0.005 C 
ATOM     21  C   UNL A   1      31.799  30.972  26.494  1.00  0.00     0.009 C 
ATOM     22  C   UNL A   1      34.465  29.071  27.296  1.00  0.00     0.009 C 
ENDBRANCH  13  16
ENDBRANCH  11  13
ENDBRANCH   4   7
ENDBRANCH   2   3
ENDBRANCH   1   2
BRANCH   1  23
ATOM     23  C   UNL A   1      36.570  23.800  25.770  1.00  0.00     0.118 C 
BRANCH  23  24
ATOM     24  N   UNL A   1      37.655  22.842  25.935  1.00  0.00    -0.352 N 
ATOM     25  C   UNL A   1      38.955  23.040  26.314  1.00  0.00     0.251 C 
ATOM     26  H   UNL A   1      37.415  21.905  25.745  1.00  0.00     0.163 HD
ATOM     27  O   UNL A   1      39.782  22.156  26.108  1.00  0.00    -0.269 OA
BRANCH  25  28
ATOM     28  C   UNL A   1      39.355  24.296  26.978  1.00  0.00     0.039 A 
ATOM     29  C   UNL A   1      40.082  25.242  26.252  1.00  0.00     0.014 A 
ATOM     30  C   UNL A   1      39.076  24.511  28.332  1.00  0.00     0.014 A 
ATOM     31  C   UNL A   1      40.504  26.414  26.877  1.00  0.00     0.010 A 
ATOM     32  C   UNL A   1      39.422  25.717  28.930  1.00  0.00     0.010 A 
ATOM     33  C   UNL A   1      40.161  26.670  28.216  1.00  0.00    -0.014 A 
BRANCH  33  34
ATOM     34  C   UNL A   1      40.596  27.916  28.892  1.00  0.00     0.031 A 
ATOM     35  C   UNL A   1      41.981  28.016  29.473  1.00  0.00     0.074 A 
ATOM     36  C   UNL A   1      39.728  28.939  29.014  1.00  0.00     0.049 A 
ATOM     37  N   UNL A   1      42.535  29.011  30.117  1.00  0.00    -0.248 NA
ATOM     38  C   UNL A   1      42.851  26.833  29.339  1.00  0.00     0.031 C 
ATOM     39  C   UNL A   1      38.345  28.938  28.529  1.00  0.00     0.029 A 
ATOM     40  N   UNL A   1      39.879  30.176  29.583  1.00  0.00    -0.354 N 
ATOM     41  C   UNL A   1      43.804  28.571  30.476  1.00  0.00     0.074 A 
ATOM     42  C   UNL A   1      43.919  27.200  30.031  1.00  0.00     0.031 C 
ATOM     43  C   UNL A   1      37.789  30.132  28.786  1.00  0.00     0.029 A 
ATOM     44  C   UNL A   1      38.757  30.965  29.492  1.00  0.00     0.049 A 
ATOM     45  H   UNL A   1      40.713  30.473  30.015  1.00  0.00     0.167 HD
ATOM     46  C   UNL A   1      44.794  29.255  31.098  1.00  0.00     0.031 A 
ATOM     47  C   UNL A   1      38.532  32.219  29.929  1.00  0.00     0.031 A 
ATOM     48  C   UNL A   1      44.672  30.623  31.529  1.00  0.00     0.049 A 
ATOM     49  C   UNL A   1      39.647  32.957  30.619  1.00  0.00     0.074 A 
ATOM     50  C   UNL A   1      45.630  31.426  32.123  1.00  0.00     0.029 A 
ATOM     51  N   UNL A   1      43.522  31.390  31.412  1.00  0.00    -0.354 N 
ATOM     52  N   UNL A   1      40.863  32.546  30.892  1.00  0.00    -0.248 NA
ATOM     53  C   UNL A   1      39.364  34.334  31.043  1.00  0.00     0.031 C 
ATOM     54  C   UNL A   1      45.041  32.660  32.417  1.00  0.00     0.029 A 
ATOM     55  C   UNL A   1      43.739  32.650  31.942  1.00  0.00     0.049 A 
ATOM     56  H   UNL A   1      42.678  31.083  31.011  1.00  0.00     0.167 HD
ATOM     57  C   UNL A   1      41.501  33.627  31.491  1.00  0.00     0.074 A 
ATOM     58  C   UNL A   1      40.540  34.712  31.523  1.00  0.00     0.031 C 
ATOM     59  C   UNL A   1      42.768  33.717  31.969  1.00  0.00     0.031 A 
BRANCH  46  60
ATOM     60  C   UNL A   1      46.089  28.529  31.356  1.00  0.00    -0.014 A 
ATOM     61  C   UNL A   1      46.286  27.782  32.533  1.00  0.00     0.010 A 
ATOM     62  C   UNL A   1      47.113  28.562  30.392  1.00  0.00     0.010 A 
ATOM     63  C   UNL A   1      47.496  27.120  32.760  1.00  0.00     0.020 A 
ATOM     64  C   UNL A   1      48.314  27.874  30.601  1.00  0.00     0.020 A 
ATOM     65  C   UNL A   1      48.503  27.172  31.792  1.00  0.00     0.054 A 
BRANCH  65  66
ATOM     66  S   UNL A   1      50.053  26.282  32.103  1.00  0.00     0.124 S 
ATOM     67  O   UNL A   1      50.209  26.444  33.546  1.00  0.00    -0.237 OA
ATOM     68  O   UNL A   1      49.739  24.928  31.654  1.00  0.00    -0.237 OA
ATOM     69  O   UNL A   1      51.033  26.994  31.287  1.00  0.00    -0.744 OA
ENDBRANCH  65  66
ENDBRANCH  46  60
BRANCH  47  70
ATOM     70  C   UNL A   1      37.207  32.859  29.704  1.00  0.00    -0.014 A 
ATOM     71  C   UNL A   1      36.200  32.783  30.682  1.00  0.00     0.010 A 
ATOM     72  C   UNL A   1      36.951  33.563  28.514  1.00  0.00     0.010 A 
ATOM     73  C   UNL A   1      34.953  33.377  30.464  1.00  0.00     0.020 A 
ATOM     74  C   UNL A   1      35.717  34.187  28.305  1.00  0.00     0.020 A 
ATOM     75  C   UNL A   1      34.721  34.077  29.276  1.00  0.00     0.054 A 
BRANCH  75  76
ATOM     76  S   UNL A   1      33.111  34.876  29.034  1.00  0.00     0.124 S 
ATOM     77  O   UNL A   1      33.498  36.198  28.552  1.00  0.00    -0.237 OA
ATOM     78  O   UNL A   1      32.470  34.005  28.051  1.00  0.00    -0.237 OA
ATOM     79  O   UNL A   1      32.510  34.847  30.367  1.00  0.00    -0.744 OA
ENDBRANCH  75  76
ENDBRANCH  47  70
BRANCH  59  80
ATOM     80  C   UNL A   1      43.202  35.047  32.526  1.00  0.00    -0.014 A 
ATOM     81  C   UNL A   1      43.713  36.061  31.697  1.00  0.00     0.010 A 
ATOM     82  C   UNL A   1      43.062  35.294  33.905  1.00  0.00     0.010 A 
ATOM     83  C   UNL A   1      44.122  37.280  32.244  1.00  0.00     0.020 A 
ATOM     84  C   UNL A   1      43.437  36.523  34.450  1.00  0.00     0.020 A 
ATOM     85  C   UNL A   1      43.984  37.502  33.618  1.00  0.00     0.054 A 
BRANCH  85  86
ATOM     86  S   UNL A   1      44.502  39.100  34.300  1.00  0.00     0.124 S 
ATOM     87  O   UNL A   1      45.931  39.109  33.998  1.00  0.00    -0.237 OA
ATOM     88  O   UNL A   1      43.693  40.051  33.541  1.00  0.00    -0.237 OA
ATOM     89  O   UNL A   1      44.166  38.998  35.718  1.00  0.00    -0.744 OA
ENDBRANCH  85  86
ENDBRANCH  59  80
ENDBRANCH  33  34
ENDBRANCH  25  28
ENDBRANCH  23  24
ENDBRANCH   1  23
TORSDOF 15
ENDMDL
MODEL 3
REMARK VINA RESULT:     -12.1      1.395      2.186
REMARK SMILES Cc1sc(C(=O)NCCCNC(=O)c2ccc(-c3c4nc(c(-c5ccc(S(=O)(=O)[O-])cc5)c5ccc([nH]5)c(-c5ccc(S(=O)(=O)[O-])cc5)c5nc(c(-c6ccc(S(=O)(=O)[O-])cc6)c6ccc3[nH]6)C=C5)C=C4)cc2)cc1S(=O)(=O)N1C[C@@H](C)[C@H](C)C1
REMARK SMILES IDX 9 1 8 2 7 3 5 4 6 5 4 7 1 8 2 9 3 10 75 11 74 12 76 13 77 14
REMARK SMILES IDX 78 15 79 16 80 17 85 18 81 19 83 20 82 21 84 22 10 23 11 24
REMARK SMILES IDX 12 25 13 27 14 28 15 29 73 30 16 31 72 32 17 33 18 34 19 35
REMARK SMILES IDX 66 36 20 37 71 38 65 39 67 40 21 41 70 42 64 43 63 44 22 46
REMARK SMILES IDX 52 47 33 48 51 49 34 50 37 51 50 52 68 53 35 54 36 55 49 57
REMARK SMILES IDX 69 58 38 59 23 60 24 61 32 62 25 63 31 64 26 65 27 66 28 67
REMARK SMILES IDX 29 68 30 69 53 70 54 71 62 72 55 73 61 74 56 75 57 76 58 77
REMARK SMILES IDX 59 78 60 79 39 80 40 81 48 82 41 83 47 84 42 85 43 86 44 87
REMARK SMILES IDX 45 88 46 89
REMARK H PARENT 7 6 11 26 67 45 37 56
REMARK Flexibility Score: inf
ROOT
ATOM      1  C   UNL A   1      33.872  29.617  26.907  1.00  0.00     0.042 C 
ENDROOT
BRANCH   1   2
ATOM      2  C   UNL A   1      33.843  29.278  25.419  1.00  0.00     0.118 C 
BRANCH   2   3
ATOM      3  N   UNL A   1      32.514  29.463  24.874  1.00  0.00    -0.351 N 
ATOM      4  C   UNL A   1      31.564  28.573  24.446  1.00  0.00     0.261 C 
ATOM      5  O   UNL A   1      30.527  29.086  24.016  1.00  0.00    -0.268 OA
ATOM      6  H   UNL A   1      32.243  30.407  24.795  1.00  0.00     0.163 HD
BRANCH   4   7
ATOM      7  C   UNL A   1      31.764  27.134  24.548  1.00  0.00     0.093 A 
ATOM      8  C   UNL A   1      31.384  23.723  26.432  1.00  0.00     0.058 C 
ATOM      9  C   UNL A   1      31.733  24.821  25.502  1.00  0.00     0.022 A 
ATOM     10  S   UNL A   1      31.018  26.340  25.870  1.00  0.00    -0.134 S 
ATOM     11  C   UNL A   1      32.523  24.905  24.371  1.00  0.00     0.097 A 
ATOM     12  C   UNL A   1      32.445  26.213  23.778  1.00  0.00     0.047 A 
BRANCH  11  13
ATOM     13  S   UNL A   1      33.566  23.715  23.629  1.00  0.00     0.244 S 
ATOM     14  O   UNL A   1      32.675  22.601  23.413  1.00  0.00    -0.207 OA
ATOM     15  O   UNL A   1      34.134  24.460  22.521  1.00  0.00    -0.207 OA
BRANCH  13  16
ATOM     16  N   UNL A   1      34.815  23.204  24.587  1.00  0.00    -0.197 NA
ATOM     17  C   UNL A   1      35.110  21.793  24.811  1.00  0.00     0.106 C 
ATOM     18  C   UNL A   1      35.895  24.092  24.999  1.00  0.00     0.106 C 
ATOM     19  C   UNL A   1      36.521  21.776  25.417  1.00  0.00     0.005 C 
ATOM     20  C   UNL A   1      37.108  23.173  25.144  1.00  0.00     0.005 C 
ATOM     21  C   UNL A   1      37.376  20.663  24.817  1.00  0.00     0.009 C 
ATOM     22  C   UNL A   1      38.056  23.644  26.237  1.00  0.00     0.009 C 
ENDBRANCH  13  16
ENDBRANCH  11  13
ENDBRANCH   4   7
ENDBRANCH   2   3
ENDBRANCH   1   2
BRANCH   1  23
ATOM     23  C   UNL A   1      35.254  29.425  27.526  1.00  0.00     0.118 C 
BRANCH  23  24
ATOM     24  N   UNL A   1      35.298  29.911  28.899  1.00  0.00    -0.352 N 
ATOM     25  C   UNL A   1      36.282  29.794  29.843  1.00  0.00     0.251 C 
ATOM     26  H   UNL A   1      34.496  30.400  29.193  1.00  0.00     0.163 HD
ATOM     27  O   UNL A   1      36.011  30.009  31.022  1.00  0.00    -0.269 OA
BRANCH  25  28
ATOM     28  C   UNL A   1      37.656  29.430  29.448  1.00  0.00     0.039 A 
ATOM     29  C   UNL A   1      38.503  28.858  30.399  1.00  0.00     0.014 A 
ATOM     30  C   UNL A   1      38.132  29.715  28.164  1.00  0.00     0.014 A 
ATOM     31  C   UNL A   1      39.818  28.547  30.054  1.00  0.00     0.010 A 
ATOM     32  C   UNL A   1      39.414  29.325  27.795  1.00  0.00     0.010 A 
ATOM     33  C   UNL A   1      40.278  28.761  28.744  1.00  0.00    -0.014 A 
BRANCH  33  34
ATOM     34  C   UNL A   1      41.671  28.429  28.359  1.00  0.00     0.031 A 
ATOM     35  C   UNL A   1      42.724  29.504  28.327  1.00  0.00     0.074 A 
ATOM     36  C   UNL A   1      41.974  27.165  28.001  1.00  0.00     0.049 A 
ATOM     37  N   UNL A   1      43.986  29.412  27.998  1.00  0.00    -0.248 NA
ATOM     38  C   UNL A   1      42.297  30.869  28.685  1.00  0.00     0.031 C 
ATOM     39  C   UNL A   1      41.025  26.049  27.951  1.00  0.00     0.029 A 
ATOM     40  N   UNL A   1      43.163  26.608  27.613  1.00  0.00    -0.354 N 
ATOM     41  C   UNL A   1      44.498  30.702  28.093  1.00  0.00     0.074 A 
ATOM     42  C   UNL A   1      43.398  31.568  28.453  1.00  0.00     0.031 C 
ATOM     43  C   UNL A   1      41.679  24.933  27.593  1.00  0.00     0.029 A 
ATOM     44  C   UNL A   1      43.079  25.261  27.345  1.00  0.00     0.049 A 
ATOM     45  H   UNL A   1      44.000  27.121  27.533  1.00  0.00     0.167 HD
ATOM     46  C   UNL A   1      45.773  31.123  27.920  1.00  0.00     0.031 A 
ATOM     47  C   UNL A   1      44.024  24.389  26.944  1.00  0.00     0.031 A 
ATOM     48  C   UNL A   1      46.863  30.250  27.571  1.00  0.00     0.049 A 
ATOM     49  C   UNL A   1      45.433  24.882  26.757  1.00  0.00     0.074 A 
ATOM     50  C   UNL A   1      48.202  30.563  27.421  1.00  0.00     0.029 A 
ATOM     51  N   UNL A   1      46.739  28.892  27.315  1.00  0.00    -0.354 N 
ATOM     52  N   UNL A   1      45.911  26.093  26.915  1.00  0.00    -0.248 NA
ATOM     53  C   UNL A   1      46.433  23.884  26.356  1.00  0.00     0.031 C 
ATOM     54  C   UNL A   1      48.878  29.407  27.019  1.00  0.00     0.029 A 
ATOM     55  C   UNL A   1      47.973  28.358  26.988  1.00  0.00     0.049 A 
ATOM     56  H   UNL A   1      45.897  28.384  27.361  1.00  0.00     0.167 HD
ATOM     57  C   UNL A   1      47.275  25.997  26.664  1.00  0.00     0.074 A 
ATOM     58  C   UNL A   1      47.545  24.605  26.362  1.00  0.00     0.031 C 
ATOM     59  C   UNL A   1      48.221  26.969  26.686  1.00  0.00     0.031 A 
BRANCH  46  60
ATOM     60  C   UNL A   1      46.054  32.593  28.100  1.00  0.00    -0.014 A 
ATOM     61  C   UNL A   1      45.955  33.492  27.021  1.00  0.00     0.010 A 
ATOM     62  C   UNL A   1      46.387  33.091  29.373  1.00  0.00     0.010 A 
ATOM     63  C   UNL A   1      46.226  34.852  27.203  1.00  0.00     0.020 A 
ATOM     64  C   UNL A   1      46.627  34.456  29.566  1.00  0.00     0.020 A 
ATOM     65  C   UNL A   1      46.561  35.324  28.475  1.00  0.00     0.054 A 
BRANCH  65  66
ATOM     66  S   UNL A   1      46.882  37.097  28.685  1.00  0.00     0.124 S 
ATOM     67  O   UNL A   1      46.790  37.585  27.312  1.00  0.00    -0.237 OA
ATOM     68  O   UNL A   1      45.800  37.514  29.574  1.00  0.00    -0.237 OA
ATOM     69  O   UNL A   1      48.218  37.141  29.273  1.00  0.00    -0.744 OA
ENDBRANCH  65  66
ENDBRANCH  46  60
BRANCH  47  70
ATOM     70  C   UNL A   1      43.669  22.961  26.718  1.00  0.00    -0.014 A 
ATOM     71  C   UNL A   1      44.148  22.275  25.588  1.00  0.00     0.010 A 
ATOM     72  C   UNL A   1      42.862  22.274  27.642  1.00  0.00     0.010 A 
ATOM     73  C   UNL A   1      43.807  20.937  25.373  1.00  0.00     0.020 A 
ATOM     74  C   UNL A   1      42.544  20.926  27.448  1.00  0.00     0.020 A 
ATOM     75  C   UNL A   1      43.007  20.270  26.306  1.00  0.00     0.054 A 
BRANCH  75  76
ATOM     76  S   UNL A   1      42.613  18.522  26.028  1.00  0.00     0.124 S 
ATOM     77  O   UNL A   1      41.178  18.573  25.764  1.00  0.00    -0.237 OA
ATOM     78  O   UNL A   1      43.456  18.186  24.884  1.00  0.00    -0.237 OA
ATOM     79  O   UNL A   1      42.995  17.880  27.285  1.00  0.00    -0.744 OA
ENDBRANCH  75  76
ENDBRANCH  47  70
BRANCH  59  80
ATOM     80  C   UNL A   1      49.644  26.553  26.416  1.00  0.00    -0.014 A 
ATOM     81  C   UNL A   1      50.459  26.020  27.430  1.00  0.00     0.010 A 
ATOM     82  C   UNL A   1      50.160  26.670  25.112  1.00  0.00     0.010 A 
ATOM     83  C   UNL A   1      51.780  25.657  27.155  1.00  0.00     0.020 A 
ATOM     84  C   UNL A   1      51.468  26.276  24.826  1.00  0.00     0.020 A 
ATOM     85  C   UNL A   1      52.277  25.790  25.854  1.00  0.00     0.054 A 
BRANCH  85  86
ATOM     86  S   UNL A   1      53.987  25.292  25.519  1.00  0.00     0.124 S 
ATOM     87  O   UNL A   1      54.705  25.899  26.636  1.00  0.00    -0.237 OA
ATOM     88  O   UNL A   1      53.907  23.834  25.541  1.00  0.00    -0.237 OA
ATOM     89  O   UNL A   1      54.268  25.875  24.209  1.00  0.00    -0.744 OA
ENDBRANCH  85  86
ENDBRANCH  59  80
ENDBRANCH  33  34
ENDBRANCH  25  28
ENDBRANCH  23  24
ENDBRANCH   1  23
TORSDOF 15
ENDMDL
