MODEL 1
REMARK VINA RESULT:     -11.6      0.000      0.000
REMARK SMILES CCc1ccc(S(=O)(=O)Cc2noc(C(=O)NCCCNC(=O)c3ccc(-c4c5nc(c(-c6ccc(S(=O)(=O)[O-])cc6)c6ccc([nH]6)c(-c6ccc(S(=O)(=O)[O-])cc6)c6nc(c(-c7ccc(S(=O)(=O)[O-])cc7)c7ccc4[nH]7)C=C6)C=C5)cc3)n2)cc1
REMARK SMILES IDX 18 1 17 2 15 3 16 4 14 6 11 7 12 8 84 9 13 10 10 11 7 12
REMARK SMILES IDX 8 13 9 14 6 15 3 16 4 17 86 18 5 19 85 20 2 21 1 22 19 23
REMARK SMILES IDX 20 24 21 25 22 26 23 28 24 29 25 30 83 31 26 32 82 33 27 34
REMARK SMILES IDX 28 35 29 36 76 37 30 38 81 39 75 40 77 41 31 42 80 43 74 44
REMARK SMILES IDX 73 45 32 47 62 48 43 49 61 50 44 51 47 52 60 53 78 54 45 55
REMARK SMILES IDX 46 56 59 58 79 59 48 60 33 61 34 62 42 63 35 64 41 65 36 66
REMARK SMILES IDX 37 67 38 68 39 69 40 70 63 71 64 72 72 73 65 74 71 75 66 76
REMARK SMILES IDX 67 77 68 78 69 79 70 80 49 81 50 82 58 83 51 84 57 85 52 86
REMARK SMILES IDX 53 87 54 88 55 89 56 90
REMARK H PARENT 17 5 21 27 77 46 47 57
REMARK Flexibility Score: inf
ROOT
ATOM      1  C   UNL A   1      33.566  30.395  27.008  1.00  0.00     0.118 C 
ENDROOT
BRANCH   1   2
ATOM      2  N   UNL A   1      32.596  29.510  27.628  1.00  0.00    -0.348 N 
ATOM      3  C   UNL A   1      31.969  28.378  27.144  1.00  0.00     0.309 C 
ATOM      4  O   UNL A   1      31.194  27.826  27.928  1.00  0.00    -0.264 OA
ATOM      5  H   UNL A   1      32.344  29.758  28.547  1.00  0.00     0.163 HD
BRANCH   3   6
ATOM      6  C   UNL A   1      32.223  27.872  25.804  1.00  0.00     0.315 A 
ATOM      7  C   UNL A   1      32.863  26.925  24.037  1.00  0.00     0.187 A 
ATOM      8  N   UNL A   1      31.714  27.512  23.673  1.00  0.00    -0.061 NA
ATOM      9  N   UNL A   1      33.238  27.174  25.334  1.00  0.00    -0.186 NA
ATOM     10  O   UNL A   1      31.280  28.131  24.845  1.00  0.00    -0.329 OA
BRANCH   7  11
ATOM     11  C   UNL A   1      33.668  26.174  23.055  1.00  0.00     0.223 C 
BRANCH  11  12
ATOM     12  S   UNL A   1      33.481  24.421  23.124  1.00  0.00     0.185 S 
ATOM     13  O   UNL A   1      33.530  23.935  21.757  1.00  0.00    -0.223 OA
ATOM     14  O   UNL A   1      32.326  24.118  23.955  1.00  0.00    -0.223 OA
BRANCH  12  15
ATOM     15  C   UNL A   1      34.900  23.716  23.926  1.00  0.00     0.067 A 
ATOM     16  C   UNL A   1      37.139  22.482  25.081  1.00  0.00    -0.048 A 
ATOM     17  C   UNL A   1      36.904  22.386  23.704  1.00  0.00     0.005 A 
ATOM     18  C   UNL A   1      36.259  23.250  25.862  1.00  0.00     0.005 A 
ATOM     19  C   UNL A   1      35.787  22.990  23.128  1.00  0.00     0.020 A 
ATOM     20  C   UNL A   1      35.141  23.865  25.292  1.00  0.00     0.020 A 
BRANCH  16  21
ATOM     21  C   UNL A   1      38.299  21.789  25.762  1.00  0.00     0.032 C 
ATOM     22  C   UNL A   1      39.323  22.718  26.400  1.00  0.00     0.009 C 
ENDBRANCH  16  21
ENDBRANCH  12  15
ENDBRANCH  11  12
ENDBRANCH   7  11
ENDBRANCH   3   6
ENDBRANCH   1   2
BRANCH   1  23
ATOM     23  C   UNL A   1      34.943  30.255  27.643  1.00  0.00     0.042 C 
BRANCH  23  24
ATOM     24  C   UNL A   1      35.416  31.462  28.447  1.00  0.00     0.118 C 
BRANCH  24  25
ATOM     25  N   UNL A   1      35.512  31.193  29.876  1.00  0.00    -0.352 N 
ATOM     26  C   UNL A   1      36.454  30.561  30.651  1.00  0.00     0.251 C 
ATOM     27  H   UNL A   1      34.747  31.534  30.391  1.00  0.00     0.163 HD
ATOM     28  O   UNL A   1      36.181  30.377  31.839  1.00  0.00    -0.269 OA
BRANCH  26  29
ATOM     29  C   UNL A   1      37.750  30.058  30.121  1.00  0.00     0.039 A 
ATOM     30  C   UNL A   1      38.656  29.490  31.030  1.00  0.00     0.014 A 
ATOM     31  C   UNL A   1      38.129  30.178  28.785  1.00  0.00     0.014 A 
ATOM     32  C   UNL A   1      39.887  28.986  30.597  1.00  0.00     0.010 A 
ATOM     33  C   UNL A   1      39.325  29.614  28.334  1.00  0.00     0.010 A 
ATOM     34  C   UNL A   1      40.227  29.036  29.241  1.00  0.00    -0.014 A 
BRANCH  34  35
ATOM     35  C   UNL A   1      41.578  28.630  28.780  1.00  0.00     0.031 A 
ATOM     36  C   UNL A   1      42.663  29.672  28.712  1.00  0.00     0.074 A 
ATOM     37  C   UNL A   1      41.832  27.358  28.415  1.00  0.00     0.049 A 
ATOM     38  N   UNL A   1      43.909  29.547  28.333  1.00  0.00    -0.248 NA
ATOM     39  C   UNL A   1      42.291  31.043  29.105  1.00  0.00     0.031 C 
ATOM     40  C   UNL A   1      40.863  26.261  28.419  1.00  0.00     0.029 A 
ATOM     41  N   UNL A   1      42.991  26.776  27.962  1.00  0.00    -0.354 N 
ATOM     42  C   UNL A   1      44.460  30.819  28.430  1.00  0.00     0.074 A 
ATOM     43  C   UNL A   1      43.404  31.712  28.850  1.00  0.00     0.031 C 
ATOM     44  C   UNL A   1      41.470  25.138  27.998  1.00  0.00     0.029 A 
ATOM     45  C   UNL A   1      42.863  25.437  27.673  1.00  0.00     0.049 A 
ATOM     46  H   UNL A   1      43.835  27.270  27.855  1.00  0.00     0.167 HD
ATOM     47  C   UNL A   1      45.738  31.210  28.211  1.00  0.00     0.031 A 
ATOM     48  C   UNL A   1      43.767  24.555  27.197  1.00  0.00     0.031 A 
ATOM     49  C   UNL A   1      46.791  30.319  27.804  1.00  0.00     0.049 A 
ATOM     50  C   UNL A   1      45.180  25.018  26.951  1.00  0.00     0.074 A 
ATOM     51  C   UNL A   1      48.128  30.606  27.603  1.00  0.00     0.029 A 
ATOM     52  N   UNL A   1      46.622  28.971  27.531  1.00  0.00    -0.354 N 
ATOM     53  N   UNL A   1      45.701  26.212  27.116  1.00  0.00    -0.248 NA
ATOM     54  C   UNL A   1      46.136  24.007  26.477  1.00  0.00     0.031 C 
ATOM     55  C   UNL A   1      48.759  29.443  27.149  1.00  0.00     0.029 A 
ATOM     56  C   UNL A   1      47.828  28.416  27.136  1.00  0.00     0.049 A 
ATOM     57  H   UNL A   1      45.772  28.480  27.606  1.00  0.00     0.167 HD
ATOM     58  C   UNL A   1      47.051  26.085  26.799  1.00  0.00     0.074 A 
ATOM     59  C   UNL A   1      47.268  24.696  26.454  1.00  0.00     0.031 C 
ATOM     60  C   UNL A   1      48.025  27.030  26.793  1.00  0.00     0.031 A 
BRANCH  47  61
ATOM     61  C   UNL A   1      46.062  32.668  28.398  1.00  0.00    -0.014 A 
ATOM     62  C   UNL A   1      46.684  33.135  29.571  1.00  0.00     0.010 A 
ATOM     63  C   UNL A   1      45.775  33.581  27.366  1.00  0.00     0.010 A 
ATOM     64  C   UNL A   1      46.981  34.491  29.722  1.00  0.00     0.020 A 
ATOM     65  C   UNL A   1      46.099  34.933  27.501  1.00  0.00     0.020 A 
ATOM     66  C   UNL A   1      46.689  35.382  28.685  1.00  0.00     0.054 A 
BRANCH  66  67
ATOM     67  S   UNL A   1      47.125  37.129  28.892  1.00  0.00     0.124 S 
ATOM     68  O   UNL A   1      46.217  37.541  29.959  1.00  0.00    -0.237 OA
ATOM     69  O   UNL A   1      48.538  37.064  29.259  1.00  0.00    -0.237 OA
ATOM     70  O   UNL A   1      46.852  37.713  27.581  1.00  0.00    -0.744 OA
ENDBRANCH  66  67
ENDBRANCH  47  61
BRANCH  48  71
ATOM     71  C   UNL A   1      43.373  23.143  26.925  1.00  0.00    -0.014 A 
ATOM     72  C   UNL A   1      42.724  22.370  27.906  1.00  0.00     0.010 A 
ATOM     73  C   UNL A   1      43.677  22.550  25.685  1.00  0.00     0.010 A 
ATOM     74  C   UNL A   1      42.418  21.026  27.665  1.00  0.00     0.020 A 
ATOM     75  C   UNL A   1      43.343  21.216  25.429  1.00  0.00     0.020 A 
ATOM     76  C   UNL A   1      42.732  20.457  26.428  1.00  0.00     0.054 A 
BRANCH  76  77
ATOM     77  S   UNL A   1      42.301  18.720  26.126  1.00  0.00     0.124 S 
ATOM     78  O   UNL A   1      43.202  18.369  25.034  1.00  0.00    -0.237 OA
ATOM     79  O   UNL A   1      42.593  18.096  27.415  1.00  0.00    -0.237 OA
ATOM     80  O   UNL A   1      40.883  18.776  25.777  1.00  0.00    -0.744 OA
ENDBRANCH  76  77
ENDBRANCH  48  71
BRANCH  60  81
ATOM     81  C   UNL A   1      49.422  26.584  26.445  1.00  0.00    -0.014 A 
ATOM     82  C   UNL A   1      49.926  26.698  25.137  1.00  0.00     0.010 A 
ATOM     83  C   UNL A   1      50.253  26.067  27.456  1.00  0.00     0.010 A 
ATOM     84  C   UNL A   1      51.215  26.247  24.836  1.00  0.00     0.020 A 
ATOM     85  C   UNL A   1      51.554  25.649  27.166  1.00  0.00     0.020 A 
ATOM     86  C   UNL A   1      52.017  25.720  25.852  1.00  0.00     0.054 A 
BRANCH  86  87
ATOM     87  S   UNL A   1      53.686  25.143  25.436  1.00  0.00     0.124 S 
ATOM     88  O   UNL A   1      53.934  25.821  24.167  1.00  0.00    -0.237 OA
ATOM     89  O   UNL A   1      54.480  25.618  26.568  1.00  0.00    -0.237 OA
ATOM     90  O   UNL A   1      53.540  23.692  25.351  1.00  0.00    -0.744 OA
ENDBRANCH  86  87
ENDBRANCH  60  81
ENDBRANCH  34  35
ENDBRANCH  26  29
ENDBRANCH  24  25
ENDBRANCH  23  24
ENDBRANCH   1  23
TORSDOF 17
ENDMDL
MODEL 2
REMARK VINA RESULT:     -11.4      2.980      3.758
REMARK SMILES CCc1ccc(S(=O)(=O)Cc2noc(C(=O)NCCCNC(=O)c3ccc(-c4c5nc(c(-c6ccc(S(=O)(=O)[O-])cc6)c6ccc([nH]6)c(-c6ccc(S(=O)(=O)[O-])cc6)c6nc(c(-c7ccc(S(=O)(=O)[O-])cc7)c7ccc4[nH]7)C=C6)C=C5)cc3)n2)cc1
REMARK SMILES IDX 18 1 17 2 15 3 16 4 14 6 11 7 12 8 84 9 13 10 10 11 7 12
REMARK SMILES IDX 8 13 9 14 6 15 3 16 4 17 86 18 5 19 85 20 2 21 1 22 19 23
REMARK SMILES IDX 20 24 21 25 22 26 23 28 24 29 25 30 83 31 26 32 82 33 27 34
REMARK SMILES IDX 28 35 29 36 76 37 30 38 81 39 75 40 77 41 31 42 80 43 74 44
REMARK SMILES IDX 73 45 32 47 62 48 43 49 61 50 44 51 47 52 60 53 78 54 45 55
REMARK SMILES IDX 46 56 59 58 79 59 48 60 33 61 34 62 42 63 35 64 41 65 36 66
REMARK SMILES IDX 37 67 38 68 39 69 40 70 63 71 64 72 72 73 65 74 71 75 66 76
REMARK SMILES IDX 67 77 68 78 69 79 70 80 49 81 50 82 58 83 51 84 57 85 52 86
REMARK SMILES IDX 53 87 54 88 55 89 56 90
REMARK H PARENT 17 5 21 27 77 46 47 57
REMARK Flexibility Score: inf
ROOT
ATOM      1  C   UNL A   1      32.953  29.302  24.808  1.00  0.00     0.118 C 
ENDROOT
BRANCH   1   2
ATOM      2  N   UNL A   1      33.667  29.133  23.555  1.00  0.00    -0.348 N 
ATOM      3  C   UNL A   1      33.624  28.114  22.623  1.00  0.00     0.309 C 
ATOM      4  O   UNL A   1      34.348  28.267  21.637  1.00  0.00    -0.264 OA
ATOM      5  H   UNL A   1      34.284  29.868  23.333  1.00  0.00     0.163 HD
BRANCH   3   6
ATOM      6  C   UNL A   1      32.767  26.951  22.794  1.00  0.00     0.315 A 
ATOM      7  C   UNL A   1      31.837  25.110  23.211  1.00  0.00     0.187 A 
ATOM      8  N   UNL A   1      30.813  25.901  22.860  1.00  0.00    -0.061 NA
ATOM      9  N   UNL A   1      33.068  25.711  23.127  1.00  0.00    -0.186 NA
ATOM     10  O   UNL A   1      31.424  27.125  22.593  1.00  0.00    -0.329 OA
BRANCH   7  11
ATOM     11  C   UNL A   1      31.612  23.692  23.550  1.00  0.00     0.223 C 
BRANCH  11  12
ATOM     12  S   UNL A   1      32.074  23.236  25.191  1.00  0.00     0.185 S 
ATOM     13  O   UNL A   1      31.485  21.935  25.452  1.00  0.00    -0.223 OA
ATOM     14  O   UNL A   1      31.774  24.352  26.076  1.00  0.00    -0.223 OA
BRANCH  12  15
ATOM     15  C   UNL A   1      33.830  22.979  25.251  1.00  0.00     0.067 A 
ATOM     16  C   UNL A   1      36.579  22.421  25.296  1.00  0.00    -0.048 A 
ATOM     17  C   UNL A   1      35.737  21.781  24.377  1.00  0.00     0.005 A 
ATOM     18  C   UNL A   1      36.027  23.382  26.159  1.00  0.00     0.005 A 
ATOM     19  C   UNL A   1      34.369  22.050  24.359  1.00  0.00     0.020 A 
ATOM     20  C   UNL A   1      34.658  23.663  26.142  1.00  0.00     0.020 A 
BRANCH  16  21
ATOM     21  C   UNL A   1      38.057  22.114  25.400  1.00  0.00     0.032 C 
ATOM     22  C   UNL A   1      38.841  23.018  26.341  1.00  0.00     0.009 C 
ENDBRANCH  16  21
ENDBRANCH  12  15
ENDBRANCH  11  12
ENDBRANCH   7  11
ENDBRANCH   3   6
ENDBRANCH   1   2
BRANCH   1  23
ATOM     23  C   UNL A   1      33.081  28.074  25.699  1.00  0.00     0.042 C 
BRANCH  23  24
ATOM     24  C   UNL A   1      33.684  28.329  27.077  1.00  0.00     0.118 C 
BRANCH  24  25
ATOM     25  N   UNL A   1      33.592  29.723  27.491  1.00  0.00    -0.352 N 
ATOM     26  C   UNL A   1      34.461  30.573  28.131  1.00  0.00     0.251 C 
ATOM     27  H   UNL A   1      32.731  30.142  27.263  1.00  0.00     0.163 HD
ATOM     28  O   UNL A   1      34.031  31.680  28.461  1.00  0.00    -0.269 OA
BRANCH  26  29
ATOM     29  C   UNL A   1      35.860  30.207  28.477  1.00  0.00     0.039 A 
ATOM     30  C   UNL A   1      36.840  30.337  27.481  1.00  0.00     0.014 A 
ATOM     31  C   UNL A   1      36.232  29.689  29.717  1.00  0.00     0.014 A 
ATOM     32  C   UNL A   1      38.177  30.023  27.742  1.00  0.00     0.010 A 
ATOM     33  C   UNL A   1      37.576  29.441  30.007  1.00  0.00     0.010 A 
ATOM     34  C   UNL A   1      38.557  29.580  29.014  1.00  0.00    -0.014 A 
BRANCH  34  35
ATOM     35  C   UNL A   1      39.942  29.116  29.275  1.00  0.00     0.031 A 
ATOM     36  C   UNL A   1      40.916  30.070  29.917  1.00  0.00     0.074 A 
ATOM     37  C   UNL A   1      40.332  27.872  28.936  1.00  0.00     0.049 A 
ATOM     38  N   UNL A   1      42.173  29.884  30.229  1.00  0.00    -0.248 NA
ATOM     39  C   UNL A   1      40.414  31.418  30.232  1.00  0.00     0.031 C 
ATOM     40  C   UNL A   1      39.489  26.862  28.293  1.00  0.00     0.029 A 
ATOM     41  N   UNL A   1      41.547  27.248  29.080  1.00  0.00    -0.354 N 
ATOM     42  C   UNL A   1      42.610  31.091  30.762  1.00  0.00     0.074 A 
ATOM     43  C   UNL A   1      41.504  32.019  30.682  1.00  0.00     0.031 C 
ATOM     44  C   UNL A   1      40.211  25.742  28.109  1.00  0.00     0.029 A 
ATOM     45  C   UNL A   1      41.571  25.960  28.597  1.00  0.00     0.049 A 
ATOM     46  H   UNL A   1      42.328  27.681  29.493  1.00  0.00     0.167 HD
ATOM     47  C   UNL A   1      43.817  31.398  31.292  1.00  0.00     0.031 A 
ATOM     48  C   UNL A   1      42.576  25.062  28.552  1.00  0.00     0.031 A 
ATOM     49  C   UNL A   1      44.913  30.472  31.380  1.00  0.00     0.049 A 
ATOM     50  C   UNL A   1      43.915  25.433  29.139  1.00  0.00     0.074 A 
ATOM     51  C   UNL A   1      46.161  30.670  31.943  1.00  0.00     0.029 A 
ATOM     52  N   UNL A   1      44.894  29.177  30.889  1.00  0.00    -0.354 N 
ATOM     53  N   UNL A   1      44.288  26.558  29.703  1.00  0.00    -0.248 NA
ATOM     54  C   UNL A   1      44.962  24.402  29.105  1.00  0.00     0.031 C 
ATOM     55  C   UNL A   1      46.918  29.513  31.738  1.00  0.00     0.029 A 
ATOM     56  C   UNL A   1      46.119  28.571  31.111  1.00  0.00     0.049 A 
ATOM     57  H   UNL A   1      44.124  28.751  30.446  1.00  0.00     0.167 HD
ATOM     58  C   UNL A   1      45.601  26.356  30.121  1.00  0.00     0.074 A 
ATOM     59  C   UNL A   1      45.947  24.996  29.763  1.00  0.00     0.031 C 
ATOM     60  C   UNL A   1      46.446  27.216  30.744  1.00  0.00     0.031 A 
BRANCH  47  61
ATOM     61  C   UNL A   1      44.016  32.799  31.806  1.00  0.00    -0.014 A 
ATOM     62  C   UNL A   1      44.462  33.832  30.960  1.00  0.00     0.010 A 
ATOM     63  C   UNL A   1      43.716  33.096  33.148  1.00  0.00     0.010 A 
ATOM     64  C   UNL A   1      44.637  35.126  31.455  1.00  0.00     0.020 A 
ATOM     65  C   UNL A   1      43.859  34.396  33.639  1.00  0.00     0.020 A 
ATOM     66  C   UNL A   1      44.332  35.401  32.792  1.00  0.00     0.054 A 
BRANCH  66  67
ATOM     67  S   UNL A   1      44.526  37.099  33.396  1.00  0.00     0.124 S 
ATOM     68  O   UNL A   1      44.974  36.880  34.769  1.00  0.00    -0.237 OA
ATOM     69  O   UNL A   1      45.531  37.647  32.488  1.00  0.00    -0.237 OA
ATOM     70  O   UNL A   1      43.189  37.671  33.261  1.00  0.00    -0.744 OA
ENDBRANCH  66  67
ENDBRANCH  47  61
BRANCH  48  71
ATOM     71  C   UNL A   1      42.364  23.721  27.935  1.00  0.00    -0.014 A 
ATOM     72  C   UNL A   1      41.920  22.632  28.707  1.00  0.00     0.010 A 
ATOM     73  C   UNL A   1      42.639  23.519  26.570  1.00  0.00     0.010 A 
ATOM     74  C   UNL A   1      41.788  21.361  28.135  1.00  0.00     0.020 A 
ATOM     75  C   UNL A   1      42.476  22.258  25.986  1.00  0.00     0.020 A 
ATOM     76  C   UNL A   1      42.068  21.183  26.777  1.00  0.00     0.054 A 
BRANCH  76  77
ATOM     77  S   UNL A   1      41.863  19.533  26.048  1.00  0.00     0.124 S 
ATOM     78  O   UNL A   1      42.742  19.603  24.886  1.00  0.00    -0.237 OA
ATOM     79  O   UNL A   1      42.308  18.655  27.128  1.00  0.00    -0.237 OA
ATOM     80  O   UNL A   1      40.434  19.467  25.752  1.00  0.00    -0.744 OA
ENDBRANCH  76  77
ENDBRANCH  48  71
BRANCH  60  81
ATOM     81  C   UNL A   1      47.811  26.697  31.120  1.00  0.00    -0.014 A 
ATOM     82  C   UNL A   1      48.926  26.888  30.285  1.00  0.00     0.010 A 
ATOM     83  C   UNL A   1      47.981  26.028  32.347  1.00  0.00     0.010 A 
ATOM     84  C   UNL A   1      50.173  26.369  30.643  1.00  0.00     0.020 A 
ATOM     85  C   UNL A   1      49.234  25.539  32.724  1.00  0.00     0.020 A 
ATOM     86  C   UNL A   1      50.317  25.692  31.858  1.00  0.00     0.054 A 
BRANCH  86  87
ATOM     87  S   UNL A   1      51.946  25.029  32.301  1.00  0.00     0.124 S 
ATOM     88  O   UNL A   1      51.703  23.590  32.277  1.00  0.00    -0.237 OA
ATOM     89  O   UNL A   1      52.802  25.541  31.233  1.00  0.00    -0.237 OA
ATOM     90  O   UNL A   1      52.203  25.597  33.623  1.00  0.00    -0.744 OA
ENDBRANCH  86  87
ENDBRANCH  60  81
ENDBRANCH  34  35
ENDBRANCH  26  29
ENDBRANCH  24  25
ENDBRANCH  23  24
ENDBRANCH   1  23
TORSDOF 17
ENDMDL
MODEL 3
REMARK VINA RESULT:     -11.3      5.178      6.544
REMARK SMILES CCc1ccc(S(=O)(=O)Cc2noc(C(=O)NCCCNC(=O)c3ccc(-c4c5nc(c(-c6ccc(S(=O)(=O)[O-])cc6)c6ccc([nH]6)c(-c6ccc(S(=O)(=O)[O-])cc6)c6nc(c(-c7ccc(S(=O)(=O)[O-])cc7)c7ccc4[nH]7)C=C6)C=C5)cc3)n2)cc1
REMARK SMILES IDX 18 1 17 2 15 3 16 4 14 6 11 7 12 8 84 9 13 10 10 11 7 12
REMARK SMILES IDX 8 13 9 14 6 15 3 16 4 17 86 18 5 19 85 20 2 21 1 22 19 23
REMARK SMILES IDX 20 24 21 25 22 26 23 28 24 29 25 30 83 31 26 32 82 33 27 34
REMARK SMILES IDX 28 35 29 36 76 37 30 38 81 39 75 40 77 41 31 42 80 43 74 44
REMARK SMILES IDX 73 45 32 47 62 48 43 49 61 50 44 51 47 52 60 53 78 54 45 55
REMARK SMILES IDX 46 56 59 58 79 59 48 60 33 61 34 62 42 63 35 64 41 65 36 66
REMARK SMILES IDX 37 67 38 68 39 69 40 70 63 71 64 72 72 73 65 74 71 75 66 76
REMARK SMILES IDX 67 77 68 78 69 79 70 80 49 81 50 82 58 83 51 84 57 85 52 86
REMARK SMILES IDX 53 87 54 88 55 89 56 90
REMARK H PARENT 17 5 21 27 77 46 47 57
REMARK Flexibility Score: inf
ROOT
ATOM      1  C   UNL A   1      31.479  29.564  25.007  1.00  0.00     0.118 C 
ENDROOT
BRANCH   1   2
ATOM      2  N   UNL A   1      30.867  29.702  23.697  1.00  0.00    -0.348 N 
ATOM      3  C   UNL A   1      30.414  28.746  22.808  1.00  0.00     0.309 C 
ATOM      4  O   UNL A   1      29.921  29.183  21.766  1.00  0.00    -0.264 OA
ATOM      5  H   UNL A   1      30.757  30.631  23.392  1.00  0.00     0.163 HD
BRANCH   3   6
ATOM      6  C   UNL A   1      30.501  27.323  23.098  1.00  0.00     0.315 A 
ATOM      7  C   UNL A   1      30.937  25.273  23.288  1.00  0.00     0.187 A 
ATOM      8  N   UNL A   1      30.034  25.487  24.255  1.00  0.00    -0.061 NA
ATOM      9  N   UNL A   1      31.208  26.375  22.515  1.00  0.00    -0.186 NA
ATOM     10  O   UNL A   1      29.751  26.847  24.140  1.00  0.00    -0.329 OA
BRANCH   7  11
ATOM     11  C   UNL A   1      31.483  23.923  23.052  1.00  0.00     0.223 C 
BRANCH  11  12
ATOM     12  S   UNL A   1      33.105  23.653  23.693  1.00  0.00     0.185 S 
ATOM     13  O   UNL A   1      33.149  24.265  25.009  1.00  0.00    -0.223 OA
ATOM     14  O   UNL A   1      34.069  24.056  22.681  1.00  0.00    -0.223 OA
BRANCH  12  15
ATOM     15  C   UNL A   1      33.338  21.916  23.974  1.00  0.00     0.067 A 
ATOM     16  C   UNL A   1      33.867  19.194  24.407  1.00  0.00    -0.048 A 
ATOM     17  C   UNL A   1      34.775  20.173  24.829  1.00  0.00     0.005 A 
ATOM     18  C   UNL A   1      32.664  19.607  23.808  1.00  0.00     0.005 A 
ATOM     19  C   UNL A   1      34.520  21.526  24.607  1.00  0.00     0.020 A 
ATOM     20  C   UNL A   1      32.397  20.961  23.588  1.00  0.00     0.020 A 
BRANCH  16  21
ATOM     21  C   UNL A   1      34.130  17.713  24.565  1.00  0.00     0.032 C 
ATOM     22  C   UNL A   1      33.989  16.892  23.291  1.00  0.00     0.009 C 
ENDBRANCH  16  21
ENDBRANCH  12  15
ENDBRANCH  11  12
ENDBRANCH   7  11
ENDBRANCH   3   6
ENDBRANCH   1   2
BRANCH   1  23
ATOM     23  C   UNL A   1      32.973  29.284  24.903  1.00  0.00     0.042 C 
BRANCH  23  24
ATOM     24  C   UNL A   1      33.758  29.448  26.202  1.00  0.00     0.118 C 
BRANCH  24  25
ATOM     25  N   UNL A   1      33.590  30.763  26.807  1.00  0.00    -0.352 N 
ATOM     26  C   UNL A   1      34.306  31.462  27.748  1.00  0.00     0.251 C 
ATOM     27  H   UNL A   1      32.803  31.250  26.473  1.00  0.00     0.163 HD
ATOM     28  O   UNL A   1      33.826  32.522  28.155  1.00  0.00    -0.269 OA
BRANCH  26  29
ATOM     29  C   UNL A   1      35.593  30.985  28.321  1.00  0.00     0.039 A 
ATOM     30  C   UNL A   1      35.569  29.836  29.127  1.00  0.00     0.014 A 
ATOM     31  C   UNL A   1      36.804  31.654  28.146  1.00  0.00     0.014 A 
ATOM     32  C   UNL A   1      36.745  29.326  29.686  1.00  0.00     0.010 A 
ATOM     33  C   UNL A   1      37.992  31.110  28.643  1.00  0.00     0.010 A 
ATOM     34  C   UNL A   1      37.969  29.955  29.440  1.00  0.00    -0.014 A 
BRANCH  34  35
ATOM     35  C   UNL A   1      39.206  29.511  30.129  1.00  0.00     0.031 A 
ATOM     36  C   UNL A   1      39.622  30.213  31.395  1.00  0.00     0.074 A 
ATOM     37  C   UNL A   1      39.954  28.507  29.631  1.00  0.00     0.049 A 
ATOM     38  N   UNL A   1      40.664  30.000  32.156  1.00  0.00    -0.248 NA
ATOM     39  C   UNL A   1      38.760  31.316  31.855  1.00  0.00     0.031 C 
ATOM     40  C   UNL A   1      39.669  27.760  28.404  1.00  0.00     0.029 A 
ATOM     41  N   UNL A   1      41.119  27.947  30.097  1.00  0.00    -0.354 N 
ATOM     42  C   UNL A   1      40.587  30.946  33.171  1.00  0.00     0.074 A 
ATOM     43  C   UNL A   1      39.431  31.770  32.901  1.00  0.00     0.031 C 
ATOM     44  C   UNL A   1      40.627  26.834  28.222  1.00  0.00     0.029 A 
ATOM     45  C   UNL A   1      41.605  26.935  29.302  1.00  0.00     0.049 A 
ATOM     46  H   UNL A   1      41.563  28.241  30.924  1.00  0.00     0.167 HD
ATOM     47  C   UNL A   1      41.394  31.105  34.246  1.00  0.00     0.031 A 
ATOM     48  C   UNL A   1      42.715  26.179  29.431  1.00  0.00     0.031 A 
ATOM     49  C   UNL A   1      42.539  30.280  34.519  1.00  0.00     0.049 A 
ATOM     50  C   UNL A   1      43.604  26.384  30.632  1.00  0.00     0.074 A 
ATOM     51  C   UNL A   1      43.393  30.327  35.606  1.00  0.00     0.029 A 
ATOM     52  N   UNL A   1      42.992  29.261  33.696  1.00  0.00    -0.354 N 
ATOM     53  N   UNL A   1      43.475  27.239  31.621  1.00  0.00    -0.248 NA
ATOM     54  C   UNL A   1      44.775  25.503  30.748  1.00  0.00     0.031 C 
ATOM     55  C   UNL A   1      44.399  29.376  35.411  1.00  0.00     0.029 A 
ATOM     56  C   UNL A   1      44.131  28.689  34.238  1.00  0.00     0.049 A 
ATOM     57  H   UNL A   1      42.568  28.985  32.852  1.00  0.00     0.167 HD
ATOM     58  C   UNL A   1      44.530  26.974  32.490  1.00  0.00     0.074 A 
ATOM     59  C   UNL A   1      45.271  25.868  31.922  1.00  0.00     0.031 C 
ATOM     60  C   UNL A   1      44.858  27.589  33.655  1.00  0.00     0.031 A 
BRANCH  47  61
ATOM     61  C   UNL A   1      41.071  32.224  35.200  1.00  0.00    -0.014 A 
ATOM     62  C   UNL A   1      40.174  32.038  36.269  1.00  0.00     0.010 A 
ATOM     63  C   UNL A   1      41.703  33.472  35.048  1.00  0.00     0.010 A 
ATOM     64  C   UNL A   1      39.891  33.087  37.146  1.00  0.00     0.020 A 
ATOM     65  C   UNL A   1      41.447  34.514  35.942  1.00  0.00     0.020 A 
ATOM     66  C   UNL A   1      40.532  34.319  36.979  1.00  0.00     0.054 A 
BRANCH  66  67
ATOM     67  S   UNL A   1      40.178  35.649  38.158  1.00  0.00     0.124 S 
ATOM     68  O   UNL A   1      39.086  35.075  38.941  1.00  0.00    -0.237 OA
ATOM     69  O   UNL A   1      41.448  35.794  38.865  1.00  0.00    -0.237 OA
ATOM     70  O   UNL A   1      39.808  36.778  37.309  1.00  0.00    -0.744 OA
ENDBRANCH  66  67
ENDBRANCH  47  61
BRANCH  48  71
ATOM     71  C   UNL A   1      43.055  25.153  28.403  1.00  0.00    -0.014 A 
ATOM     72  C   UNL A   1      43.827  25.487  27.275  1.00  0.00     0.010 A 
ATOM     73  C   UNL A   1      42.576  23.837  28.533  1.00  0.00     0.010 A 
ATOM     74  C   UNL A   1      44.084  24.535  26.283  1.00  0.00     0.020 A 
ATOM     75  C   UNL A   1      42.859  22.873  27.559  1.00  0.00     0.020 A 
ATOM     76  C   UNL A   1      43.597  23.234  26.431  1.00  0.00     0.054 A 
BRANCH  76  77
ATOM     77  S   UNL A   1      43.967  22.007  25.146  1.00  0.00     0.124 S 
ATOM     78  O   UNL A   1      45.357  21.674  25.434  1.00  0.00    -0.237 OA
ATOM     79  O   UNL A   1      42.991  20.955  25.426  1.00  0.00    -0.237 OA
ATOM     80  O   UNL A   1      43.741  22.738  23.901  1.00  0.00    -0.744 OA
ENDBRANCH  76  77
ENDBRANCH  48  71
BRANCH  60  81
ATOM     81  C   UNL A   1      46.043  27.050  34.415  1.00  0.00    -0.014 A 
ATOM     82  C   UNL A   1      47.331  27.590  34.249  1.00  0.00     0.010 A 
ATOM     83  C   UNL A   1      45.855  25.999  35.332  1.00  0.00     0.010 A 
ATOM     84  C   UNL A   1      48.418  27.050  34.942  1.00  0.00     0.020 A 
ATOM     85  C   UNL A   1      46.932  25.481  36.053  1.00  0.00     0.020 A 
ATOM     86  C   UNL A   1      48.212  25.994  35.835  1.00  0.00     0.054 A 
BRANCH  86  87
ATOM     87  S   UNL A   1      49.637  25.311  36.725  1.00  0.00     0.124 S 
ATOM     88  O   UNL A   1      49.594  23.906  36.331  1.00  0.00    -0.237 OA
ATOM     89  O   UNL A   1      50.754  26.082  36.181  1.00  0.00    -0.237 OA
ATOM     90  O   UNL A   1      49.330  25.576  38.128  1.00  0.00    -0.744 OA
ENDBRANCH  86  87
ENDBRANCH  60  81
ENDBRANCH  34  35
ENDBRANCH  26  29
ENDBRANCH  24  25
ENDBRANCH  23  24
ENDBRANCH   1  23
TORSDOF 17
ENDMDL
