MODEL 1
REMARK VINA RESULT:     -12.5      0.000      0.000
REMARK SMILES C[N@@H+]1CC2(CC[NH+](Cc3cccc(O)c3)CC2)C[C@H]1C(=O)NCCCNC(=O)c1ccc(-c2c3nc(c(-c4ccc(S(=O)(=O)[O-])cc4)c4ccc([nH]4)c(-c4ccc(S(=O)(=O)[O-])cc4)c4nc(c(-c5ccc(S(=O)(=O)[O-])cc5)c5ccc2[nH]5)C=C4)C=C3)cc1
REMARK SMILES IDX 24 1 23 2 22 3 20 4 21 5 19 7 1 8 2 9 3 10 4 12 18 13 5 14
REMARK SMILES IDX 17 15 6 16 16 17 7 18 8 20 9 21 10 22 15 23 11 24 13 25
REMARK SMILES IDX 12 26 14 27 25 29 26 30 27 31 28 33 29 34 30 35 88 36 31 37
REMARK SMILES IDX 87 38 32 39 33 40 34 41 81 42 35 43 86 44 80 45 82 46 36 47
REMARK SMILES IDX 85 48 79 49 78 50 37 52 67 53 48 54 66 55 49 56 52 57 65 58
REMARK SMILES IDX 83 59 50 60 51 61 64 63 84 64 53 65 38 66 39 67 47 68 40 69
REMARK SMILES IDX 46 70 41 71 42 72 43 73 44 74 45 75 68 76 69 77 77 78 70 79
REMARK SMILES IDX 76 80 71 81 72 82 73 83 74 84 75 85 54 86 55 87 63 88 56 89
REMARK SMILES IDX 62 90 57 91 58 92 59 93 60 94 61 95
REMARK H PARENT 22 6 2 11 7 19 14 28 26 32 82 51 52 62
REMARK Flexibility Score: inf
ROOT
ATOM      1  C   UNL A   1      31.922  28.047  27.344  1.00  0.00     0.042 C 
ENDROOT
BRANCH   1   2
ATOM      2  C   UNL A   1      31.704  26.996  26.264  1.00  0.00     0.118 C 
BRANCH   2   3
ATOM      3  N   UNL A   1      30.850  27.447  25.189  1.00  0.00    -0.351 N 
ATOM      4  C   UNL A   1      30.593  26.930  23.958  1.00  0.00     0.278 C 
ATOM      5  O   UNL A   1      29.686  27.491  23.325  1.00  0.00    -0.268 OA
ATOM      6  H   UNL A   1      30.366  28.282  25.384  1.00  0.00     0.163 HD
BRANCH   4   7
ATOM      7  C   UNL A   1      31.340  25.733  23.317  1.00  0.00     0.274 C 
ATOM      8  C   UNL A   1      33.068  25.940  21.645  1.00  0.00     0.333 C 
ATOM      9  N   UNL A   1      32.763  26.050  23.073  1.00  0.00    -0.327 N 
ATOM     10  C   UNL A   1      33.586  25.145  23.888  1.00  0.00     0.270 C 
ATOM     11  H   UNL A   1      32.971  27.012  23.343  1.00  0.00     0.348 HD
ATOM     12  C   UNL A   1      32.739  23.917  24.268  1.00  0.00     0.036 C 
ATOM     13  C   UNL A   1      31.279  24.376  23.996  1.00  0.00     0.089 C 
ATOM     14  C   UNL A   1      32.887  23.542  25.763  1.00  0.00     0.075 C 
ATOM     15  C   UNL A   1      33.115  22.728  23.346  1.00  0.00     0.075 C 
ATOM     16  C   UNL A   1      34.040  22.619  26.126  1.00  0.00     0.263 C 
ATOM     17  C   UNL A   1      34.250  21.837  23.865  1.00  0.00     0.263 C 
ATOM     18  N   UNL A   1      34.156  21.456  25.266  1.00  0.00    -0.331 N 
ATOM     19  H   UNL A   1      35.060  21.031  25.474  1.00  0.00     0.348 HD
BRANCH  18  20
ATOM     20  C   UNL A   1      33.333  20.291  25.616  1.00  0.00     0.299 C 
BRANCH  20  21
ATOM     21  C   UNL A   1      33.429  19.063  24.736  1.00  0.00     0.010 A 
ATOM     22  C   UNL A   1      34.509  18.178  24.864  1.00  0.00     0.010 A 
ATOM     23  C   UNL A   1      32.474  18.811  23.740  1.00  0.00     0.055 A 
ATOM     24  C   UNL A   1      34.705  17.149  23.939  1.00  0.00     0.004 A 
ATOM     25  C   UNL A   1      32.676  17.785  22.821  1.00  0.00     0.116 A 
ATOM     26  C   UNL A   1      33.795  16.964  22.900  1.00  0.00     0.046 A 
BRANCH  25  27
ATOM     27  O   UNL A   1      31.763  17.642  21.818  1.00  0.00    -0.508 OA
ATOM     28  H   UNL A   1      30.908  17.307  22.006  1.00  0.00     0.293 HD
ENDBRANCH  25  27
ENDBRANCH  20  21
ENDBRANCH  18  20
ENDBRANCH   4   7
ENDBRANCH   2   3
ENDBRANCH   1   2
BRANCH   1  29
ATOM     29  C   UNL A   1      33.347  28.570  27.383  1.00  0.00     0.118 C 
BRANCH  29  30
ATOM     30  N   UNL A   1      33.402  30.015  27.606  1.00  0.00    -0.352 N 
ATOM     31  C   UNL A   1      34.433  30.787  28.091  1.00  0.00     0.251 C 
ATOM     32  H   UNL A   1      32.581  30.507  27.376  1.00  0.00     0.163 HD
ATOM     33  O   UNL A   1      34.236  31.971  28.357  1.00  0.00    -0.269 OA
BRANCH  31  34
ATOM     34  C   UNL A   1      35.763  30.183  28.324  1.00  0.00     0.039 A 
ATOM     35  C   UNL A   1      36.700  30.157  27.287  1.00  0.00     0.014 A 
ATOM     36  C   UNL A   1      36.097  29.673  29.579  1.00  0.00     0.014 A 
ATOM     37  C   UNL A   1      38.002  29.708  27.538  1.00  0.00     0.010 A 
ATOM     38  C   UNL A   1      37.413  29.329  29.854  1.00  0.00     0.010 A 
ATOM     39  C   UNL A   1      38.382  29.340  28.838  1.00  0.00    -0.014 A 
BRANCH  39  40
ATOM     40  C   UNL A   1      39.768  28.937  29.186  1.00  0.00     0.031 A 
ATOM     41  C   UNL A   1      40.707  29.966  29.761  1.00  0.00     0.074 A 
ATOM     42  C   UNL A   1      40.221  27.706  28.875  1.00  0.00     0.049 A 
ATOM     43  N   UNL A   1      42.004  29.912  29.911  1.00  0.00    -0.248 NA
ATOM     44  C   UNL A   1      40.107  31.246  30.178  1.00  0.00     0.031 C 
ATOM     45  C   UNL A   1      39.425  26.628  28.283  1.00  0.00     0.029 A 
ATOM     46  N   UNL A   1      41.477  27.162  28.989  1.00  0.00    -0.354 N 
ATOM     47  C   UNL A   1      42.378  31.159  30.398  1.00  0.00     0.074 A 
ATOM     48  C   UNL A   1      41.179  31.965  30.472  1.00  0.00     0.031 C 
ATOM     49  C   UNL A   1      40.208  25.552  28.096  1.00  0.00     0.029 A 
ATOM     50  C   UNL A   1      41.570  25.878  28.504  1.00  0.00     0.049 A 
ATOM     51  H   UNL A   1      42.239  27.646  29.383  1.00  0.00     0.167 HD
ATOM     52  C   UNL A   1      43.606  31.590  30.771  1.00  0.00     0.031 A 
ATOM     53  C   UNL A   1      42.636  25.064  28.377  1.00  0.00     0.031 A 
ATOM     54  C   UNL A   1      44.787  30.773  30.734  1.00  0.00     0.049 A 
ATOM     55  C   UNL A   1      43.989  25.557  28.816  1.00  0.00     0.074 A 
ATOM     56  C   UNL A   1      46.073  31.099  31.128  1.00  0.00     0.029 A 
ATOM     57  N   UNL A   1      44.820  29.459  30.295  1.00  0.00    -0.354 N 
ATOM     58  N   UNL A   1      44.320  26.733  29.297  1.00  0.00    -0.248 NA
ATOM     59  C   UNL A   1      45.111  24.615  28.704  1.00  0.00     0.031 C 
ATOM     60  C   UNL A   1      46.891  29.987  30.904  1.00  0.00     0.029 A 
ATOM     61  C   UNL A   1      46.103  28.956  30.412  1.00  0.00     0.049 A 
ATOM     62  H   UNL A   1      44.046  28.957  29.951  1.00  0.00     0.167 HD
ATOM     63  C   UNL A   1      45.681  26.660  29.570  1.00  0.00     0.074 A 
ATOM     64  C   UNL A   1      46.111  25.325  29.212  1.00  0.00     0.031 C 
ATOM     65  C   UNL A   1      46.502  27.614  30.074  1.00  0.00     0.031 A 
BRANCH  52  66
ATOM     66  C   UNL A   1      43.723  33.007  31.267  1.00  0.00    -0.014 A 
ATOM     67  C   UNL A   1      43.642  33.299  32.641  1.00  0.00     0.010 A 
ATOM     68  C   UNL A   1      43.942  34.056  30.356  1.00  0.00     0.010 A 
ATOM     69  C   UNL A   1      43.729  34.617  33.091  1.00  0.00     0.020 A 
ATOM     70  C   UNL A   1      44.059  35.375  30.806  1.00  0.00     0.020 A 
ATOM     71  C   UNL A   1      43.934  35.649  32.170  1.00  0.00     0.054 A 
BRANCH  71  72
ATOM     72  S   UNL A   1      44.061  37.350  32.785  1.00  0.00     0.124 S 
ATOM     73  O   UNL A   1      43.949  38.123  31.552  1.00  0.00    -0.237 OA
ATOM     74  O   UNL A   1      42.920  37.448  33.693  1.00  0.00    -0.237 OA
ATOM     75  O   UNL A   1      45.371  37.388  33.429  1.00  0.00    -0.744 OA
ENDBRANCH  71  72
ENDBRANCH  52  66
BRANCH  53  76
ATOM     76  C   UNL A   1      42.474  23.698  27.809  1.00  0.00    -0.014 A 
ATOM     77  C   UNL A   1      42.239  22.598  28.653  1.00  0.00     0.010 A 
ATOM     78  C   UNL A   1      42.553  23.487  26.421  1.00  0.00     0.010 A 
ATOM     79  C   UNL A   1      42.117  21.310  28.125  1.00  0.00     0.020 A 
ATOM     80  C   UNL A   1      42.405  22.203  25.885  1.00  0.00     0.020 A 
ATOM     81  C   UNL A   1      42.203  21.120  26.743  1.00  0.00     0.054 A 
BRANCH  81  82
ATOM     82  S   UNL A   1      42.008  19.444  26.073  1.00  0.00     0.124 S 
ATOM     83  O   UNL A   1      40.570  19.380  25.833  1.00  0.00    -0.237 OA
ATOM     84  O   UNL A   1      42.849  19.478  24.880  1.00  0.00    -0.237 OA
ATOM     85  O   UNL A   1      42.503  18.589  27.150  1.00  0.00    -0.744 OA
ENDBRANCH  81  82
ENDBRANCH  53  76
BRANCH  65  86
ATOM     86  C   UNL A   1      47.936  27.241  30.322  1.00  0.00    -0.014 A 
ATOM     87  C   UNL A   1      48.910  27.385  29.321  1.00  0.00     0.010 A 
ATOM     88  C   UNL A   1      48.327  26.836  31.613  1.00  0.00     0.010 A 
ATOM     89  C   UNL A   1      50.252  27.121  29.603  1.00  0.00     0.020 A 
ATOM     90  C   UNL A   1      49.671  26.593  31.903  1.00  0.00     0.020 A 
ATOM     91  C   UNL A   1      50.625  26.733  30.893  1.00  0.00     0.054 A 
BRANCH  91  92
ATOM     92  S   UNL A   1      52.385  26.481  31.257  1.00  0.00     0.124 S 
ATOM     93  O   UNL A   1      52.997  26.681  29.946  1.00  0.00    -0.237 OA
ATOM     94  O   UNL A   1      52.661  27.520  32.246  1.00  0.00    -0.237 OA
ATOM     95  O   UNL A   1      52.440  25.113  31.768  1.00  0.00    -0.744 OA
ENDBRANCH  91  92
ENDBRANCH  65  86
ENDBRANCH  39  40
ENDBRANCH  31  34
ENDBRANCH  29  30
ENDBRANCH   1  29
TORSDOF 16
ENDMDL
MODEL 2
REMARK VINA RESULT:     -12.4      4.634     10.719
REMARK SMILES C[N@@H+]1CC2(CC[NH+](Cc3cccc(O)c3)CC2)C[C@H]1C(=O)NCCCNC(=O)c1ccc(-c2c3nc(c(-c4ccc(S(=O)(=O)[O-])cc4)c4ccc([nH]4)c(-c4ccc(S(=O)(=O)[O-])cc4)c4nc(c(-c5ccc(S(=O)(=O)[O-])cc5)c5ccc2[nH]5)C=C4)C=C3)cc1
REMARK SMILES IDX 24 1 23 2 22 3 20 4 21 5 19 7 1 8 2 9 3 10 4 12 18 13 5 14
REMARK SMILES IDX 17 15 6 16 16 17 7 18 8 20 9 21 10 22 15 23 11 24 13 25
REMARK SMILES IDX 12 26 14 27 25 29 26 30 27 31 28 33 29 34 30 35 88 36 31 37
REMARK SMILES IDX 87 38 32 39 33 40 34 41 81 42 35 43 86 44 80 45 82 46 36 47
REMARK SMILES IDX 85 48 79 49 78 50 37 52 67 53 48 54 66 55 49 56 52 57 65 58
REMARK SMILES IDX 83 59 50 60 51 61 64 63 84 64 53 65 38 66 39 67 47 68 40 69
REMARK SMILES IDX 46 70 41 71 42 72 43 73 44 74 45 75 68 76 69 77 77 78 70 79
REMARK SMILES IDX 76 80 71 81 72 82 73 83 74 84 75 85 54 86 55 87 63 88 56 89
REMARK SMILES IDX 62 90 57 91 58 92 59 93 60 94 61 95
REMARK H PARENT 22 6 2 11 7 19 14 28 26 32 82 51 52 62
REMARK Flexibility Score: inf
ROOT
ATOM      1  C   UNL A   1      37.467  23.583  25.275  1.00  0.00     0.042 C 
ENDROOT
BRANCH   1   2
ATOM      2  C   UNL A   1      37.185  22.099  25.466  1.00  0.00     0.118 C 
BRANCH   2   3
ATOM      3  N   UNL A   1      36.212  21.829  26.499  1.00  0.00    -0.351 N 
ATOM      4  C   UNL A   1      34.855  21.751  26.468  1.00  0.00     0.278 C 
ATOM      5  O   UNL A   1      34.322  21.352  27.514  1.00  0.00    -0.268 OA
ATOM      6  H   UNL A   1      36.604  21.674  27.389  1.00  0.00     0.163 HD
BRANCH   4   7
ATOM      7  C   UNL A   1      33.965  22.123  25.254  1.00  0.00     0.274 C 
ATOM      8  C   UNL A   1      32.549  20.566  24.073  1.00  0.00     0.333 C 
ATOM      9  N   UNL A   1      32.683  21.388  25.278  1.00  0.00    -0.327 N 
ATOM     10  C   UNL A   1      31.592  22.364  25.408  1.00  0.00     0.270 C 
ATOM     11  H   UNL A   1      32.645  20.750  26.074  1.00  0.00     0.348 HD
ATOM     12  C   UNL A   1      32.109  23.743  24.962  1.00  0.00     0.036 C 
ATOM     13  C   UNL A   1      33.655  23.585  24.987  1.00  0.00     0.089 C 
ATOM     14  C   UNL A   1      31.694  24.870  25.940  1.00  0.00     0.075 C 
ATOM     15  C   UNL A   1      31.616  24.035  23.521  1.00  0.00     0.075 C 
ATOM     16  C   UNL A   1      30.338  25.516  25.703  1.00  0.00     0.263 C 
ATOM     17  C   UNL A   1      30.264  24.751  23.428  1.00  0.00     0.263 C 
ATOM     18  N   UNL A   1      30.095  25.887  24.322  1.00  0.00    -0.331 N 
ATOM     19  H   UNL A   1      29.103  26.117  24.255  1.00  0.00     0.348 HD
BRANCH  18  20
ATOM     20  C   UNL A   1      30.605  27.195  23.890  1.00  0.00     0.299 C 
BRANCH  20  21
ATOM     21  C   UNL A   1      29.604  28.230  23.425  1.00  0.00     0.010 A 
ATOM     22  C   UNL A   1      30.006  29.552  23.184  1.00  0.00     0.010 A 
ATOM     23  C   UNL A   1      28.247  27.908  23.278  1.00  0.00     0.055 A 
ATOM     24  C   UNL A   1      29.063  30.553  22.936  1.00  0.00     0.004 A 
ATOM     25  C   UNL A   1      27.313  28.911  23.032  1.00  0.00     0.116 A 
ATOM     26  C   UNL A   1      27.708  30.235  22.880  1.00  0.00     0.046 A 
BRANCH  25  27
ATOM     27  O   UNL A   1      25.996  28.556  22.989  1.00  0.00    -0.508 OA
ATOM     28  H   UNL A   1      25.396  29.045  22.460  1.00  0.00     0.293 HD
ENDBRANCH  25  27
ENDBRANCH  20  21
ENDBRANCH  18  20
ENDBRANCH   4   7
ENDBRANCH   2   3
ENDBRANCH   1   2
BRANCH   1  29
ATOM     29  C   UNL A   1      38.308  24.175  26.392  1.00  0.00     0.118 C 
BRANCH  29  30
ATOM     30  N   UNL A   1      39.738  23.941  26.195  1.00  0.00    -0.352 N 
ATOM     31  C   UNL A   1      40.815  24.677  26.635  1.00  0.00     0.251 C 
ATOM     32  H   UNL A   1      39.964  23.138  25.672  1.00  0.00     0.163 HD
ATOM     33  O   UNL A   1      41.945  24.405  26.233  1.00  0.00    -0.269 OA
BRANCH  31  34
ATOM     34  C   UNL A   1      40.606  25.814  27.557  1.00  0.00     0.039 A 
ATOM     35  C   UNL A   1      39.695  25.688  28.611  1.00  0.00     0.014 A 
ATOM     36  C   UNL A   1      41.336  26.992  27.404  1.00  0.00     0.014 A 
ATOM     37  C   UNL A   1      39.591  26.709  29.563  1.00  0.00     0.010 A 
ATOM     38  C   UNL A   1      41.310  27.954  28.404  1.00  0.00     0.010 A 
ATOM     39  C   UNL A   1      40.436  27.827  29.495  1.00  0.00    -0.014 A 
BRANCH  39  40
ATOM     40  C   UNL A   1      40.433  28.901  30.521  1.00  0.00     0.031 A 
ATOM     41  C   UNL A   1      41.351  28.779  31.710  1.00  0.00     0.074 A 
ATOM     42  C   UNL A   1      39.535  29.903  30.458  1.00  0.00     0.049 A 
ATOM     43  N   UNL A   1      41.348  29.453  32.830  1.00  0.00    -0.248 NA
ATOM     44  C   UNL A   1      42.377  27.723  31.646  1.00  0.00     0.031 C 
ATOM     45  C   UNL A   1      38.567  30.117  29.379  1.00  0.00     0.029 A 
ATOM     46  N   UNL A   1      39.271  30.921  31.342  1.00  0.00    -0.354 N 
ATOM     47  C   UNL A   1      42.340  28.877  33.616  1.00  0.00     0.074 A 
ATOM     48  C   UNL A   1      42.889  27.769  32.866  1.00  0.00     0.031 C 
ATOM     49  C   UNL A   1      37.824  31.201  29.659  1.00  0.00     0.029 A 
ATOM     50  C   UNL A   1      38.225  31.729  30.959  1.00  0.00     0.049 A 
ATOM     51  H   UNL A   1      39.783  31.060  32.171  1.00  0.00     0.167 HD
ATOM     52  C   UNL A   1      42.771  29.249  34.844  1.00  0.00     0.031 A 
ATOM     53  C   UNL A   1      37.636  32.762  31.594  1.00  0.00     0.031 A 
ATOM     54  C   UNL A   1      42.250  30.375  35.569  1.00  0.00     0.049 A 
ATOM     55  C   UNL A   1      38.144  33.170  32.951  1.00  0.00     0.074 A 
ATOM     56  C   UNL A   1      42.643  30.864  36.802  1.00  0.00     0.029 A 
ATOM     57  N   UNL A   1      41.234  31.202  35.113  1.00  0.00    -0.354 N 
ATOM     58  N   UNL A   1      39.099  32.628  33.669  1.00  0.00    -0.248 NA
ATOM     59  C   UNL A   1      37.503  34.333  33.581  1.00  0.00     0.031 C 
ATOM     60  C   UNL A   1      41.848  31.973  37.104  1.00  0.00     0.029 A 
ATOM     61  C   UNL A   1      40.990  32.201  36.038  1.00  0.00     0.049 A 
ATOM     62  H   UNL A   1      40.758  31.095  34.258  1.00  0.00     0.167 HD
ATOM     63  C   UNL A   1      39.191  33.401  34.821  1.00  0.00     0.074 A 
ATOM     64  C   UNL A   1      38.204  34.453  34.702  1.00  0.00     0.031 C 
ATOM     65  C   UNL A   1      40.020  33.253  35.884  1.00  0.00     0.031 A 
BRANCH  52  66
ATOM     66  C   UNL A   1      43.871  28.435  35.470  1.00  0.00    -0.014 A 
ATOM     67  C   UNL A   1      45.223  28.734  35.215  1.00  0.00     0.010 A 
ATOM     68  C   UNL A   1      43.558  27.377  36.342  1.00  0.00     0.010 A 
ATOM     69  C   UNL A   1      46.238  27.960  35.780  1.00  0.00     0.020 A 
ATOM     70  C   UNL A   1      44.573  26.619  36.934  1.00  0.00     0.020 A 
ATOM     71  C   UNL A   1      45.907  26.905  36.634  1.00  0.00     0.054 A 
BRANCH  71  72
ATOM     72  S   UNL A   1      47.247  25.928  37.368  1.00  0.00     0.124 S 
ATOM     73  O   UNL A   1      48.339  26.897  37.405  1.00  0.00    -0.237 OA
ATOM     74  O   UNL A   1      46.695  25.554  38.669  1.00  0.00    -0.237 OA
ATOM     75  O   UNL A   1      47.425  24.823  36.430  1.00  0.00    -0.744 OA
ENDBRANCH  71  72
ENDBRANCH  52  66
BRANCH  53  76
ATOM     76  C   UNL A   1      36.500  33.483  30.960  1.00  0.00    -0.014 A 
ATOM     77  C   UNL A   1      35.287  33.651  31.651  1.00  0.00     0.010 A 
ATOM     78  C   UNL A   1      36.621  34.005  29.659  1.00  0.00     0.010 A 
ATOM     79  C   UNL A   1      34.208  34.301  31.046  1.00  0.00     0.020 A 
ATOM     80  C   UNL A   1      35.552  34.679  29.059  1.00  0.00     0.020 A 
ATOM     81  C   UNL A   1      34.346  34.810  29.751  1.00  0.00     0.054 A 
BRANCH  81  82
ATOM     82  S   UNL A   1      32.945  35.680  28.995  1.00  0.00     0.124 S 
ATOM     83  O   UNL A   1      32.141  36.030  30.162  1.00  0.00    -0.237 OA
ATOM     84  O   UNL A   1      33.593  36.797  28.313  1.00  0.00    -0.237 OA
ATOM     85  O   UNL A   1      32.359  34.676  28.109  1.00  0.00    -0.744 OA
ENDBRANCH  81  82
ENDBRANCH  53  76
BRANCH  65  86
ATOM     86  C   UNL A   1      39.940  34.279  36.979  1.00  0.00    -0.014 A 
ATOM     87  C   UNL A   1      40.608  35.510  36.875  1.00  0.00     0.010 A 
ATOM     88  C   UNL A   1      39.099  34.041  38.083  1.00  0.00     0.010 A 
ATOM     89  C   UNL A   1      40.443  36.485  37.861  1.00  0.00     0.020 A 
ATOM     90  C   UNL A   1      38.915  35.023  39.059  1.00  0.00     0.020 A 
ATOM     91  C   UNL A   1      39.594  36.238  38.944  1.00  0.00     0.054 A 
BRANCH  91  92
ATOM     92  S   UNL A   1      39.329  37.552  40.166  1.00  0.00     0.124 S 
ATOM     93  O   UNL A   1      38.936  36.792  41.349  1.00  0.00    -0.237 OA
ATOM     94  O   UNL A   1      40.639  38.194  40.237  1.00  0.00    -0.237 OA
ATOM     95  O   UNL A   1      38.274  38.370  39.572  1.00  0.00    -0.744 OA
ENDBRANCH  91  92
ENDBRANCH  65  86
ENDBRANCH  39  40
ENDBRANCH  31  34
ENDBRANCH  29  30
ENDBRANCH   1  29
TORSDOF 16
ENDMDL
MODEL 3
REMARK VINA RESULT:     -12.2      2.542      3.236
REMARK SMILES C[N@@H+]1CC2(CC[NH+](Cc3cccc(O)c3)CC2)C[C@H]1C(=O)NCCCNC(=O)c1ccc(-c2c3nc(c(-c4ccc(S(=O)(=O)[O-])cc4)c4ccc([nH]4)c(-c4ccc(S(=O)(=O)[O-])cc4)c4nc(c(-c5ccc(S(=O)(=O)[O-])cc5)c5ccc2[nH]5)C=C4)C=C3)cc1
REMARK SMILES IDX 24 1 23 2 22 3 20 4 21 5 19 7 1 8 2 9 3 10 4 12 18 13 5 14
REMARK SMILES IDX 17 15 6 16 16 17 7 18 8 20 9 21 10 22 15 23 11 24 13 25
REMARK SMILES IDX 12 26 14 27 25 29 26 30 27 31 28 33 29 34 30 35 88 36 31 37
REMARK SMILES IDX 87 38 32 39 33 40 34 41 81 42 35 43 86 44 80 45 82 46 36 47
REMARK SMILES IDX 85 48 79 49 78 50 37 52 67 53 48 54 66 55 49 56 52 57 65 58
REMARK SMILES IDX 83 59 50 60 51 61 64 63 84 64 53 65 38 66 39 67 47 68 40 69
REMARK SMILES IDX 46 70 41 71 42 72 43 73 44 74 45 75 68 76 69 77 77 78 70 79
REMARK SMILES IDX 76 80 71 81 72 82 73 83 74 84 75 85 54 86 55 87 63 88 56 89
REMARK SMILES IDX 62 90 57 91 58 92 59 93 60 94 61 95
REMARK H PARENT 22 6 2 11 7 19 14 28 26 32 82 51 52 62
REMARK Flexibility Score: inf
ROOT
ATOM      1  C   UNL A   1      33.715  28.953  27.248  1.00  0.00     0.042 C 
ENDROOT
BRANCH   1   2
ATOM      2  C   UNL A   1      32.957  29.811  26.245  1.00  0.00     0.118 C 
BRANCH   2   3
ATOM      3  N   UNL A   1      33.464  29.701  24.897  1.00  0.00    -0.351 N 
ATOM      4  C   UNL A   1      33.096  28.913  23.852  1.00  0.00     0.278 C 
ATOM      5  O   UNL A   1      33.646  29.172  22.771  1.00  0.00    -0.268 OA
ATOM      6  H   UNL A   1      34.214  30.307  24.699  1.00  0.00     0.163 HD
BRANCH   4   7
ATOM      7  C   UNL A   1      32.074  27.749  23.925  1.00  0.00     0.274 C 
ATOM      8  C   UNL A   1      29.968  27.707  22.749  1.00  0.00     0.333 C 
ATOM      9  N   UNL A   1      31.415  27.524  22.622  1.00  0.00    -0.327 N 
ATOM     10  C   UNL A   1      31.766  26.176  22.152  1.00  0.00     0.270 C 
ATOM     11  H   UNL A   1      31.736  28.203  21.931  1.00  0.00     0.348 HD
ATOM     12  C   UNL A   1      32.226  25.339  23.359  1.00  0.00     0.036 C 
ATOM     13  C   UNL A   1      32.529  26.400  24.453  1.00  0.00     0.089 C 
ATOM     14  C   UNL A   1      33.513  24.532  23.056  1.00  0.00     0.075 C 
ATOM     15  C   UNL A   1      31.069  24.409  23.810  1.00  0.00     0.075 C 
ATOM     16  C   UNL A   1      33.329  23.163  22.420  1.00  0.00     0.263 C 
ATOM     17  C   UNL A   1      31.041  23.032  23.137  1.00  0.00     0.263 C 
ATOM     18  N   UNL A   1      32.321  22.344  23.066  1.00  0.00    -0.331 N 
ATOM     19  H   UNL A   1      32.150  21.553  22.445  1.00  0.00     0.348 HD
BRANCH  18  20
ATOM     20  C   UNL A   1      32.754  21.559  24.229  1.00  0.00     0.299 C 
BRANCH  20  21
ATOM     21  C   UNL A   1      32.994  20.077  24.037  1.00  0.00     0.010 A 
ATOM     22  C   UNL A   1      34.062  19.439  24.683  1.00  0.00     0.010 A 
ATOM     23  C   UNL A   1      32.191  19.321  23.171  1.00  0.00     0.055 A 
ATOM     24  C   UNL A   1      34.403  18.121  24.370  1.00  0.00     0.004 A 
ATOM     25  C   UNL A   1      32.537  18.009  22.863  1.00  0.00     0.116 A 
ATOM     26  C   UNL A   1      33.650  17.408  23.440  1.00  0.00     0.046 A 
BRANCH  25  27
ATOM     27  O   UNL A   1      31.774  17.349  21.944  1.00  0.00    -0.508 OA
ATOM     28  H   UNL A   1      31.788  16.412  21.908  1.00  0.00     0.293 HD
ENDBRANCH  25  27
ENDBRANCH  20  21
ENDBRANCH  18  20
ENDBRANCH   4   7
ENDBRANCH   2   3
ENDBRANCH   1   2
BRANCH   1  29
ATOM     29  C   UNL A   1      35.128  29.448  27.503  1.00  0.00     0.118 C 
BRANCH  29  30
ATOM     30  N   UNL A   1      35.217  30.283  28.700  1.00  0.00    -0.352 N 
ATOM     31  C   UNL A   1      36.261  30.440  29.584  1.00  0.00     0.251 C 
ATOM     32  H   UNL A   1      34.412  30.811  28.904  1.00  0.00     0.163 HD
ATOM     33  O   UNL A   1      36.090  31.071  30.624  1.00  0.00    -0.269 OA
BRANCH  31  34
ATOM     34  C   UNL A   1      37.572  29.819  29.295  1.00  0.00     0.039 A 
ATOM     35  C   UNL A   1      38.065  29.824  27.987  1.00  0.00     0.014 A 
ATOM     36  C   UNL A   1      38.332  29.263  30.324  1.00  0.00     0.014 A 
ATOM     37  C   UNL A   1      39.360  29.359  27.731  1.00  0.00     0.010 A 
ATOM     38  C   UNL A   1      39.651  28.901  30.088  1.00  0.00     0.010 A 
ATOM     39  C   UNL A   1      40.182  28.942  28.789  1.00  0.00    -0.014 A 
BRANCH  39  40
ATOM     40  C   UNL A   1      41.592  28.517  28.594  1.00  0.00     0.031 A 
ATOM     41  C   UNL A   1      42.678  29.562  28.603  1.00  0.00     0.074 A 
ATOM     42  C   UNL A   1      41.884  27.239  28.284  1.00  0.00     0.049 A 
ATOM     43  N   UNL A   1      43.924  29.465  28.220  1.00  0.00    -0.248 NA
ATOM     44  C   UNL A   1      42.293  30.909  29.062  1.00  0.00     0.031 C 
ATOM     45  C   UNL A   1      40.921  26.137  28.207  1.00  0.00     0.029 A 
ATOM     46  N   UNL A   1      43.080  26.654  27.948  1.00  0.00    -0.354 N 
ATOM     47  C   UNL A   1      44.457  30.741  28.351  1.00  0.00     0.074 A 
ATOM     48  C   UNL A   1      43.389  31.606  28.802  1.00  0.00     0.031 C 
ATOM     49  C   UNL A   1      41.565  25.011  27.857  1.00  0.00     0.029 A 
ATOM     50  C   UNL A   1      42.973  25.318  27.633  1.00  0.00     0.049 A 
ATOM     51  H   UNL A   1      43.934  27.144  27.933  1.00  0.00     0.167 HD
ATOM     52  C   UNL A   1      45.728  31.155  28.137  1.00  0.00     0.031 A 
ATOM     53  C   UNL A   1      43.900  24.445  27.189  1.00  0.00     0.031 A 
ATOM     54  C   UNL A   1      46.796  30.285  27.728  1.00  0.00     0.049 A 
ATOM     55  C   UNL A   1      45.311  24.923  26.976  1.00  0.00     0.074 A 
ATOM     56  C   UNL A   1      48.128  30.593  27.521  1.00  0.00     0.029 A 
ATOM     57  N   UNL A   1      46.654  28.928  27.483  1.00  0.00    -0.354 N 
ATOM     58  N   UNL A   1      45.803  26.131  27.128  1.00  0.00    -0.248 NA
ATOM     59  C   UNL A   1      46.295  23.922  26.538  1.00  0.00     0.031 C 
ATOM     60  C   UNL A   1      48.789  29.426  27.128  1.00  0.00     0.029 A 
ATOM     61  C   UNL A   1      47.875  28.382  27.132  1.00  0.00     0.049 A 
ATOM     62  H   UNL A   1      45.809  28.426  27.550  1.00  0.00     0.167 HD
ATOM     63  C   UNL A   1      47.158  26.026  26.833  1.00  0.00     0.074 A 
ATOM     64  C   UNL A   1      47.411  24.640  26.503  1.00  0.00     0.031 C 
ATOM     65  C   UNL A   1      48.108  26.993  26.835  1.00  0.00     0.031 A 
BRANCH  52  66
ATOM     66  C   UNL A   1      46.030  32.613  28.358  1.00  0.00    -0.014 A 
ATOM     67  C   UNL A   1      46.248  33.115  29.655  1.00  0.00     0.010 A 
ATOM     68  C   UNL A   1      46.124  33.488  27.261  1.00  0.00     0.010 A 
ATOM     69  C   UNL A   1      46.505  34.473  29.854  1.00  0.00     0.020 A 
ATOM     70  C   UNL A   1      46.411  34.844  27.455  1.00  0.00     0.020 A 
ATOM     71  C   UNL A   1      46.581  35.330  28.753  1.00  0.00     0.054 A 
BRANCH  71  72
ATOM     72  S   UNL A   1      46.935  37.085  29.041  1.00  0.00     0.124 S 
ATOM     73  O   UNL A   1      46.830  37.178  30.494  1.00  0.00    -0.237 OA
ATOM     74  O   UNL A   1      48.283  37.234  28.498  1.00  0.00    -0.237 OA
ATOM     75  O   UNL A   1      45.886  37.776  28.295  1.00  0.00    -0.744 OA
ENDBRANCH  71  72
ENDBRANCH  52  66
BRANCH  53  76
ATOM     76  C   UNL A   1      43.526  23.032  26.914  1.00  0.00    -0.014 A 
ATOM     77  C   UNL A   1      42.882  22.260  27.898  1.00  0.00     0.010 A 
ATOM     78  C   UNL A   1      43.812  22.446  25.668  1.00  0.00     0.010 A 
ATOM     79  C   UNL A   1      42.558  20.923  27.653  1.00  0.00     0.020 A 
ATOM     80  C   UNL A   1      43.466  21.116  25.408  1.00  0.00     0.020 A 
ATOM     81  C   UNL A   1      42.855  20.357  26.409  1.00  0.00     0.054 A 
BRANCH  81  82
ATOM     82  S   UNL A   1      42.396  18.629  26.099  1.00  0.00     0.124 S 
ATOM     83  O   UNL A   1      42.688  18.003  27.384  1.00  0.00    -0.237 OA
ATOM     84  O   UNL A   1      40.981  18.733  25.751  1.00  0.00    -0.237 OA
ATOM     85  O   UNL A   1      43.272  18.237  24.996  1.00  0.00    -0.744 OA
ENDBRANCH  81  82
ENDBRANCH  53  76
BRANCH  65  86
ATOM     86  C   UNL A   1      49.521  26.584  26.526  1.00  0.00    -0.014 A 
ATOM     87  C   UNL A   1      50.018  26.618  25.212  1.00  0.00     0.010 A 
ATOM     88  C   UNL A   1      50.389  26.259  27.585  1.00  0.00     0.010 A 
ATOM     89  C   UNL A   1      51.360  26.325  24.962  1.00  0.00     0.020 A 
ATOM     90  C   UNL A   1      51.737  25.988  27.339  1.00  0.00     0.020 A 
ATOM     91  C   UNL A   1      52.212  26.017  26.026  1.00  0.00     0.054 A 
BRANCH  91  92
ATOM     92  S   UNL A   1      53.970  25.725  25.684  1.00  0.00     0.124 S 
ATOM     93  O   UNL A   1      53.910  24.720  24.626  1.00  0.00    -0.237 OA
ATOM     94  O   UNL A   1      54.441  27.045  25.271  1.00  0.00    -0.237 OA
ATOM     95  O   UNL A   1      54.498  25.255  26.963  1.00  0.00    -0.744 OA
ENDBRANCH  91  92
ENDBRANCH  65  86
ENDBRANCH  39  40
ENDBRANCH  31  34
ENDBRANCH  29  30
ENDBRANCH   1  29
TORSDOF 16
ENDMDL
