MODEL 1
REMARK VINA RESULT:     -14.1      0.000      0.000
REMARK SMILES Cc1ccc(-c2cc(OCC(=O)NCCCNC(=O)c3ccc(-c4c5nc(c(-c6ccc(S(=O)(=O)[O-])cc6)c6ccc([nH]6)c(-c6ccc(S(=O)(=O)[O-])cc6)c6nc(c(-c7ccc(S(=O)(=O)[O-])cc7)c7ccc4[nH]7)C=C6)C=C5)cc3)nc(NCc3ccc4c(c3)OCO4)n2)cc1
REMARK SMILES IDX 14 1 13 2 11 3 12 4 10 6 9 7 8 8 6 9 7 10 93 11 81 12 80 13
REMARK SMILES IDX 5 14 1 15 2 16 3 17 95 18 4 19 94 20 82 21 83 23 84 24 85 25
REMARK SMILES IDX 89 26 86 27 88 28 87 29 90 30 92 31 91 32 15 33 16 34 17 35
REMARK SMILES IDX 18 36 19 38 20 39 21 40 79 41 22 42 78 43 23 44 24 45 25 46
REMARK SMILES IDX 72 47 26 48 77 49 71 50 73 51 27 52 76 53 70 54 69 55 28 57
REMARK SMILES IDX 58 58 39 59 57 60 40 61 43 62 56 63 74 64 41 65 42 66 55 68
REMARK SMILES IDX 75 69 44 70 29 71 30 72 38 73 31 74 37 75 32 76 33 77 34 78
REMARK SMILES IDX 35 79 36 80 59 81 60 82 68 83 61 84 67 85 62 86 63 87 64 88
REMARK SMILES IDX 65 89 66 90 45 91 46 92 54 93 47 94 53 95 48 96 49 97 50 98
REMARK SMILES IDX 51 99 52 100
REMARK H PARENT 13 5 82 22 17 37 73 56 43 67
REMARK Flexibility Score: inf
ROOT
ATOM      1  C   UNL A   1      32.066  29.301  25.662  1.00  0.00     0.117 C 
ENDROOT
BRANCH   1   2
ATOM      2  N   UNL A   1      32.840  29.474  24.441  1.00  0.00    -0.353 N 
ATOM      3  C   UNL A   1      33.654  28.586  23.800  1.00  0.00     0.258 C 
ATOM      4  O   UNL A   1      34.175  28.907  22.728  1.00  0.00    -0.271 OA
ATOM      5  H   UNL A   1      32.766  30.359  24.018  1.00  0.00     0.163 HD
BRANCH   3   6
ATOM      6  C   UNL A   1      33.911  27.203  24.405  1.00  0.00     0.331 C 
BRANCH   6   7
ATOM      7  O   UNL A   1      34.127  26.153  23.481  1.00  0.00    -0.467 OA
BRANCH   7   8
ATOM      8  C   UNL A   1      33.299  25.068  23.530  1.00  0.00     0.219 A 
ATOM      9  C   UNL A   1      32.701  22.812  23.620  1.00  0.00     0.080 A 
ATOM     10  C   UNL A   1      33.704  23.759  23.587  1.00  0.00     0.097 A 
ATOM     11  N   UNL A   1      31.394  23.134  23.541  1.00  0.00    -0.213 NA
ATOM     12  C   UNL A   1      31.094  24.435  23.511  1.00  0.00     0.226 A 
ATOM     13  N   UNL A   1      32.004  25.415  23.500  1.00  0.00    -0.177 NA
BRANCH   9  14
ATOM     14  C   UNL A   1      33.018  21.389  23.800  1.00  0.00     0.000 A 
ATOM     15  C   UNL A   1      33.795  17.176  24.428  1.00  0.00     0.044 C 
ATOM     16  C   UNL A   1      33.533  18.634  24.196  1.00  0.00    -0.051 A 
ATOM     17  C   UNL A   1      34.325  19.605  24.821  1.00  0.00     0.004 A 
ATOM     18  C   UNL A   1      32.490  19.047  23.363  1.00  0.00     0.004 A 
ATOM     19  C   UNL A   1      34.076  20.969  24.618  1.00  0.00     0.010 A 
ATOM     20  C   UNL A   1      32.236  20.406  23.170  1.00  0.00     0.010 A 
ENDBRANCH   9  14
BRANCH  12  21
ATOM     21  N   UNL A   1      29.793  24.856  23.505  1.00  0.00    -0.350 N 
ATOM     22  H   UNL A   1      29.169  24.461  22.853  1.00  0.00     0.164 HD
BRANCH  21  23
ATOM     23  C   UNL A   1      29.304  25.854  24.416  1.00  0.00     0.152 C 
BRANCH  23  24
ATOM     24  C   UNL A   1      28.867  27.133  23.718  1.00  0.00    -0.025 A 
ATOM     25  C   UNL A   1      27.505  27.515  23.799  1.00  0.00     0.009 A 
ATOM     26  C   UNL A   1      29.765  27.965  23.024  1.00  0.00     0.056 A 
ATOM     27  C   UNL A   1      27.036  28.678  23.175  1.00  0.00     0.051 A 
ATOM     28  C   UNL A   1      29.272  29.095  22.406  1.00  0.00     0.166 A 
ATOM     29  C   UNL A   1      27.944  29.439  22.475  1.00  0.00     0.165 A 
ATOM     30  O   UNL A   1      30.000  29.975  21.667  1.00  0.00    -0.454 OA
ATOM     31  O   UNL A   1      27.668  30.578  21.783  1.00  0.00    -0.454 OA
ATOM     32  C   UNL A   1      28.957  30.849  21.194  1.00  0.00     0.468 C 
ENDBRANCH  23  24
ENDBRANCH  21  23
ENDBRANCH  12  21
ENDBRANCH   7   8
ENDBRANCH   6   7
ENDBRANCH   3   6
ENDBRANCH   1   2
BRANCH   1  33
ATOM     33  C   UNL A   1      32.605  30.103  26.841  1.00  0.00     0.042 C 
BRANCH  33  34
ATOM     34  C   UNL A   1      34.087  29.869  27.097  1.00  0.00     0.118 C 
BRANCH  34  35
ATOM     35  N   UNL A   1      34.868  31.086  27.209  1.00  0.00    -0.352 N 
ATOM     36  C   UNL A   1      35.958  31.273  28.063  1.00  0.00     0.251 C 
ATOM     37  H   UNL A   1      34.609  31.844  26.636  1.00  0.00     0.163 HD
ATOM     38  O   UNL A   1      36.188  32.301  28.621  1.00  0.00    -0.269 OA
BRANCH  36  39
ATOM     39  C   UNL A   1      36.933  30.148  28.082  1.00  0.00     0.039 A 
ATOM     40  C   UNL A   1      37.001  29.366  29.242  1.00  0.00     0.014 A 
ATOM     41  C   UNL A   1      37.885  30.019  27.079  1.00  0.00     0.014 A 
ATOM     42  C   UNL A   1      38.112  28.546  29.456  1.00  0.00     0.010 A 
ATOM     43  C   UNL A   1      39.023  29.275  27.332  1.00  0.00     0.010 A 
ATOM     44  C   UNL A   1      39.159  28.559  28.532  1.00  0.00    -0.014 A 
BRANCH  44  45
ATOM     45  C   UNL A   1      40.471  27.956  28.759  1.00  0.00     0.031 A 
ATOM     46  C   UNL A   1      40.732  26.528  28.440  1.00  0.00     0.074 A 
ATOM     47  C   UNL A   1      41.526  28.719  29.127  1.00  0.00     0.049 A 
ATOM     48  N   UNL A   1      41.720  25.844  28.925  1.00  0.00    -0.248 NA
ATOM     49  C   UNL A   1      39.869  25.741  27.567  1.00  0.00     0.031 C 
ATOM     50  C   UNL A   1      42.936  28.368  28.980  1.00  0.00     0.029 A 
ATOM     51  N   UNL A   1      41.550  29.875  29.907  1.00  0.00    -0.354 N 
ATOM     52  C   UNL A   1      41.813  24.680  28.195  1.00  0.00     0.074 A 
ATOM     53  C   UNL A   1      40.584  24.620  27.434  1.00  0.00     0.031 C 
ATOM     54  C   UNL A   1      43.647  29.068  29.874  1.00  0.00     0.029 A 
ATOM     55  C   UNL A   1      42.702  29.788  30.709  1.00  0.00     0.049 A 
ATOM     56  H   UNL A   1      40.890  30.606  29.897  1.00  0.00     0.167 HD
ATOM     57  C   UNL A   1      42.971  23.958  28.191  1.00  0.00     0.031 A 
ATOM     58  C   UNL A   1      42.710  29.826  32.073  1.00  0.00     0.031 A 
ATOM     59  C   UNL A   1      44.004  24.523  29.063  1.00  0.00     0.049 A 
ATOM     60  C   UNL A   1      43.391  28.641  32.724  1.00  0.00     0.074 A 
ATOM     61  C   UNL A   1      45.213  25.164  28.841  1.00  0.00     0.029 A 
ATOM     62  N   UNL A   1      43.758  24.642  30.420  1.00  0.00    -0.354 N 
ATOM     63  N   UNL A   1      43.953  27.665  32.067  1.00  0.00    -0.248 NA
ATOM     64  C   UNL A   1      43.387  28.398  34.169  1.00  0.00     0.031 C 
ATOM     65  C   UNL A   1      45.718  25.617  30.090  1.00  0.00     0.029 A 
ATOM     66  C   UNL A   1      44.806  25.267  31.066  1.00  0.00     0.049 A 
ATOM     67  H   UNL A   1      42.940  24.321  30.867  1.00  0.00     0.167 HD
ATOM     68  C   UNL A   1      44.276  26.657  32.935  1.00  0.00     0.074 A 
ATOM     69  C   UNL A   1      43.935  27.172  34.246  1.00  0.00     0.031 C 
ATOM     70  C   UNL A   1      44.735  25.448  32.505  1.00  0.00     0.031 A 
BRANCH  57  71
ATOM     71  C   UNL A   1      43.265  22.849  27.197  1.00  0.00    -0.014 A 
ATOM     72  C   UNL A   1      42.407  21.732  27.120  1.00  0.00     0.010 A 
ATOM     73  C   UNL A   1      44.379  22.826  26.339  1.00  0.00     0.010 A 
ATOM     74  C   UNL A   1      42.711  20.606  26.340  1.00  0.00     0.020 A 
ATOM     75  C   UNL A   1      44.720  21.693  25.582  1.00  0.00     0.020 A 
ATOM     76  C   UNL A   1      43.891  20.579  25.605  1.00  0.00     0.054 A 
BRANCH  76  77
ATOM     77  S   UNL A   1      44.329  19.075  24.696  1.00  0.00     0.124 S 
ATOM     78  O   UNL A   1      44.235  19.509  23.305  1.00  0.00    -0.237 OA
ATOM     79  O   UNL A   1      45.678  18.797  25.179  1.00  0.00    -0.237 OA
ATOM     80  O   UNL A   1      43.311  18.111  25.110  1.00  0.00    -0.744 OA
ENDBRANCH  76  77
ENDBRANCH  57  71
BRANCH  58  81
ATOM     81  C   UNL A   1      41.570  30.581  32.658  1.00  0.00    -0.014 A 
ATOM     82  C   UNL A   1      40.360  29.879  32.834  1.00  0.00     0.010 A 
ATOM     83  C   UNL A   1      41.811  31.739  33.418  1.00  0.00     0.010 A 
ATOM     84  C   UNL A   1      39.504  30.205  33.886  1.00  0.00     0.020 A 
ATOM     85  C   UNL A   1      40.946  32.073  34.468  1.00  0.00     0.020 A 
ATOM     86  C   UNL A   1      39.846  31.254  34.740  1.00  0.00     0.054 A 
BRANCH  86  87
ATOM     87  S   UNL A   1      38.954  31.393  36.318  1.00  0.00     0.124 S 
ATOM     88  O   UNL A   1      37.878  32.325  35.992  1.00  0.00    -0.237 OA
ATOM     89  O   UNL A   1      38.539  30.010  36.554  1.00  0.00    -0.237 OA
ATOM     90  O   UNL A   1      39.971  31.899  37.233  1.00  0.00    -0.744 OA
ENDBRANCH  86  87
ENDBRANCH  58  81
BRANCH  70  91
ATOM     91  C   UNL A   1      45.112  24.305  33.407  1.00  0.00    -0.014 A 
ATOM     92  C   UNL A   1      44.259  23.219  33.656  1.00  0.00     0.010 A 
ATOM     93  C   UNL A   1      46.313  24.371  34.150  1.00  0.00     0.010 A 
ATOM     94  C   UNL A   1      44.615  22.214  34.567  1.00  0.00     0.020 A 
ATOM     95  C   UNL A   1      46.670  23.386  35.073  1.00  0.00     0.020 A 
ATOM     96  C   UNL A   1      45.823  22.301  35.266  1.00  0.00     0.054 A 
BRANCH  96  97
ATOM     97  S   UNL A   1      46.242  21.018  36.474  1.00  0.00     0.124 S 
ATOM     98  O   UNL A   1      45.612  19.827  35.908  1.00  0.00    -0.237 OA
ATOM     99  O   UNL A   1      47.703  21.032  36.435  1.00  0.00    -0.237 OA
ATOM    100  O   UNL A   1      45.648  21.499  37.718  1.00  0.00    -0.744 OA
ENDBRANCH  96  97
ENDBRANCH  70  91
ENDBRANCH  44  45
ENDBRANCH  36  39
ENDBRANCH  34  35
ENDBRANCH  33  34
ENDBRANCH   1  33
TORSDOF 19
ENDMDL
MODEL 2
REMARK VINA RESULT:     -14.0      4.163     10.930
REMARK SMILES Cc1ccc(-c2cc(OCC(=O)NCCCNC(=O)c3ccc(-c4c5nc(c(-c6ccc(S(=O)(=O)[O-])cc6)c6ccc([nH]6)c(-c6ccc(S(=O)(=O)[O-])cc6)c6nc(c(-c7ccc(S(=O)(=O)[O-])cc7)c7ccc4[nH]7)C=C6)C=C5)cc3)nc(NCc3ccc4c(c3)OCO4)n2)cc1
REMARK SMILES IDX 14 1 13 2 11 3 12 4 10 6 9 7 8 8 6 9 7 10 93 11 81 12 80 13
REMARK SMILES IDX 5 14 1 15 2 16 3 17 95 18 4 19 94 20 82 21 83 23 84 24 85 25
REMARK SMILES IDX 89 26 86 27 88 28 87 29 90 30 92 31 91 32 15 33 16 34 17 35
REMARK SMILES IDX 18 36 19 38 20 39 21 40 79 41 22 42 78 43 23 44 24 45 25 46
REMARK SMILES IDX 72 47 26 48 77 49 71 50 73 51 27 52 76 53 70 54 69 55 28 57
REMARK SMILES IDX 58 58 39 59 57 60 40 61 43 62 56 63 74 64 41 65 42 66 55 68
REMARK SMILES IDX 75 69 44 70 29 71 30 72 38 73 31 74 37 75 32 76 33 77 34 78
REMARK SMILES IDX 35 79 36 80 59 81 60 82 68 83 61 84 67 85 62 86 63 87 64 88
REMARK SMILES IDX 65 89 66 90 45 91 46 92 54 93 47 94 53 95 48 96 49 97 50 98
REMARK SMILES IDX 51 99 52 100
REMARK H PARENT 13 5 82 22 17 37 73 56 43 67
REMARK Flexibility Score: inf
ROOT
ATOM      1  C   UNL A   1      34.604  23.941  25.878  1.00  0.00     0.117 C 
ENDROOT
BRANCH   1   2
ATOM      2  N   UNL A   1      34.629  24.823  24.719  1.00  0.00    -0.353 N 
ATOM      3  C   UNL A   1      33.594  25.429  24.071  1.00  0.00     0.258 C 
ATOM      4  O   UNL A   1      33.832  26.201  23.139  1.00  0.00    -0.271 OA
ATOM      5  H   UNL A   1      35.523  25.008  24.351  1.00  0.00     0.163 HD
BRANCH   3   6
ATOM      6  C   UNL A   1      32.150  25.154  24.502  1.00  0.00     0.331 C 
BRANCH   6   7
ATOM      7  O   UNL A   1      31.689  25.884  25.624  1.00  0.00    -0.467 OA
BRANCH   7   8
ATOM      8  C   UNL A   1      31.565  27.240  25.507  1.00  0.00     0.219 A 
ATOM      9  C   UNL A   1      30.874  29.273  24.589  1.00  0.00     0.080 A 
ATOM     10  C   UNL A   1      30.863  27.894  24.529  1.00  0.00     0.097 A 
ATOM     11  N   UNL A   1      31.579  29.954  25.514  1.00  0.00    -0.213 NA
ATOM     12  C   UNL A   1      32.215  29.232  26.440  1.00  0.00     0.226 A 
ATOM     13  N   UNL A   1      32.235  27.896  26.467  1.00  0.00    -0.177 NA
BRANCH   9  14
ATOM     14  C   UNL A   1      30.059  30.070  23.663  1.00  0.00     0.000 A 
ATOM     15  C   UNL A   1      27.815  32.471  20.844  1.00  0.00     0.044 C 
ATOM     16  C   UNL A   1      28.579  31.629  21.821  1.00  0.00    -0.051 A 
ATOM     17  C   UNL A   1      28.680  32.015  23.163  1.00  0.00     0.004 A 
ATOM     18  C   UNL A   1      29.212  30.455  21.406  1.00  0.00     0.004 A 
ATOM     19  C   UNL A   1      29.405  31.239  24.077  1.00  0.00     0.010 A 
ATOM     20  C   UNL A   1      29.943  29.688  22.315  1.00  0.00     0.010 A 
ENDBRANCH   9  14
BRANCH  12  21
ATOM     21  N   UNL A   1      32.895  29.840  27.459  1.00  0.00    -0.350 N 
ATOM     22  H   UNL A   1      32.592  29.695  28.385  1.00  0.00     0.164 HD
BRANCH  21  23
ATOM     23  C   UNL A   1      34.037  30.681  27.226  1.00  0.00     0.152 C 
BRANCH  23  24
ATOM     24  C   UNL A   1      34.066  31.906  28.128  1.00  0.00    -0.025 A 
ATOM     25  C   UNL A   1      34.929  31.898  29.252  1.00  0.00     0.009 A 
ATOM     26  C   UNL A   1      33.295  33.056  27.872  1.00  0.00     0.056 A 
ATOM     27  C   UNL A   1      35.000  32.991  30.124  1.00  0.00     0.051 A 
ATOM     28  C   UNL A   1      33.374  34.111  28.757  1.00  0.00     0.166 A 
ATOM     29  C   UNL A   1      34.199  34.077  29.855  1.00  0.00     0.165 A 
ATOM     30  O   UNL A   1      32.667  35.269  28.673  1.00  0.00    -0.454 OA
ATOM     31  O   UNL A   1      34.111  35.210  30.603  1.00  0.00    -0.454 OA
ATOM     32  C   UNL A   1      33.064  35.911  29.899  1.00  0.00     0.468 C 
ENDBRANCH  23  24
ENDBRANCH  21  23
ENDBRANCH  12  21
ENDBRANCH   7   8
ENDBRANCH   6   7
ENDBRANCH   3   6
ENDBRANCH   1   2
BRANCH   1  33
ATOM     33  C   UNL A   1      35.463  22.693  25.709  1.00  0.00     0.042 C 
BRANCH  33  34
ATOM     34  C   UNL A   1      36.912  23.005  25.359  1.00  0.00     0.118 C 
BRANCH  34  35
ATOM     35  N   UNL A   1      37.882  22.273  26.151  1.00  0.00    -0.352 N 
ATOM     36  C   UNL A   1      39.178  22.705  26.444  1.00  0.00     0.251 C 
ATOM     37  H   UNL A   1      37.604  21.400  26.512  1.00  0.00     0.163 HD
ATOM     38  O   UNL A   1      40.118  21.974  26.503  1.00  0.00    -0.269 OA
BRANCH  36  39
ATOM     39  C   UNL A   1      39.278  24.128  26.871  1.00  0.00     0.039 A 
ATOM     40  C   UNL A   1      39.994  25.005  26.047  1.00  0.00     0.014 A 
ATOM     41  C   UNL A   1      38.867  24.518  28.139  1.00  0.00     0.014 A 
ATOM     42  C   UNL A   1      40.420  26.236  26.555  1.00  0.00     0.010 A 
ATOM     43  C   UNL A   1      39.363  25.696  28.667  1.00  0.00     0.010 A 
ATOM     44  C   UNL A   1      40.166  26.547  27.891  1.00  0.00    -0.014 A 
BRANCH  44  45
ATOM     45  C   UNL A   1      40.769  27.668  28.609  1.00  0.00     0.031 A 
ATOM     46  C   UNL A   1      39.965  28.850  29.016  1.00  0.00     0.074 A 
ATOM     47  C   UNL A   1      42.045  27.595  29.054  1.00  0.00     0.049 A 
ATOM     48  N   UNL A   1      40.471  30.002  29.323  1.00  0.00    -0.248 NA
ATOM     49  C   UNL A   1      38.508  28.834  29.072  1.00  0.00     0.031 C 
ATOM     50  C   UNL A   1      42.636  28.408  30.114  1.00  0.00     0.029 A 
ATOM     51  N   UNL A   1      43.136  26.927  28.500  1.00  0.00    -0.354 N 
ATOM     52  C   UNL A   1      39.476  30.743  29.919  1.00  0.00     0.074 A 
ATOM     53  C   UNL A   1      38.257  30.013  29.649  1.00  0.00     0.031 C 
ATOM     54  C   UNL A   1      43.963  28.442  29.939  1.00  0.00     0.029 A 
ATOM     55  C   UNL A   1      44.251  27.764  28.687  1.00  0.00     0.049 A 
ATOM     56  H   UNL A   1      43.127  26.044  28.064  1.00  0.00     0.167 HD
ATOM     57  C   UNL A   1      39.789  31.817  30.702  1.00  0.00     0.031 A 
ATOM     58  C   UNL A   1      45.049  28.238  27.687  1.00  0.00     0.031 A 
ATOM     59  C   UNL A   1      41.227  32.086  30.760  1.00  0.00     0.049 A 
ATOM     60  C   UNL A   1      45.186  29.747  27.664  1.00  0.00     0.074 A 
ATOM     61  C   UNL A   1      42.196  31.961  31.744  1.00  0.00     0.029 A 
ATOM     62  N   UNL A   1      41.910  32.388  29.595  1.00  0.00    -0.354 N 
ATOM     63  N   UNL A   1      44.623  30.548  28.524  1.00  0.00    -0.248 NA
ATOM     64  C   UNL A   1      45.869  30.481  26.595  1.00  0.00     0.031 C 
ATOM     65  C   UNL A   1      43.463  32.249  31.166  1.00  0.00     0.029 A 
ATOM     66  C   UNL A   1      43.263  32.530  29.829  1.00  0.00     0.049 A 
ATOM     67  H   UNL A   1      41.484  32.488  28.711  1.00  0.00     0.167 HD
ATOM     68  C   UNL A   1      44.760  31.843  28.099  1.00  0.00     0.074 A 
ATOM     69  C   UNL A   1      45.576  31.757  26.905  1.00  0.00     0.031 C 
ATOM     70  C   UNL A   1      44.134  32.881  28.722  1.00  0.00     0.031 A 
BRANCH  57  71
ATOM     71  C   UNL A   1      38.797  32.496  31.630  1.00  0.00    -0.014 A 
ATOM     72  C   UNL A   1      38.086  31.730  32.577  1.00  0.00     0.010 A 
ATOM     73  C   UNL A   1      38.493  33.869  31.600  1.00  0.00     0.010 A 
ATOM     74  C   UNL A   1      37.045  32.269  33.348  1.00  0.00     0.020 A 
ATOM     75  C   UNL A   1      37.429  34.418  32.335  1.00  0.00     0.020 A 
ATOM     76  C   UNL A   1      36.697  33.606  33.191  1.00  0.00     0.054 A 
BRANCH  76  77
ATOM     77  S   UNL A   1      35.277  34.260  34.105  1.00  0.00     0.124 S 
ATOM     78  O   UNL A   1      35.273  35.668  33.717  1.00  0.00    -0.237 OA
ATOM     79  O   UNL A   1      34.172  33.460  33.585  1.00  0.00    -0.237 OA
ATOM     80  O   UNL A   1      35.620  34.009  35.504  1.00  0.00    -0.744 OA
ENDBRANCH  76  77
ENDBRANCH  57  71
BRANCH  58  81
ATOM     81  C   UNL A   1      45.095  27.360  26.489  1.00  0.00    -0.014 A 
ATOM     82  C   UNL A   1      46.188  26.475  26.386  1.00  0.00     0.010 A 
ATOM     83  C   UNL A   1      43.917  27.085  25.773  1.00  0.00     0.010 A 
ATOM     84  C   UNL A   1      46.038  25.242  25.750  1.00  0.00     0.020 A 
ATOM     85  C   UNL A   1      43.769  25.851  25.127  1.00  0.00     0.020 A 
ATOM     86  C   UNL A   1      44.802  24.912  25.192  1.00  0.00     0.054 A 
BRANCH  86  87
ATOM     87  S   UNL A   1      44.506  23.174  24.748  1.00  0.00     0.124 S 
ATOM     88  O   UNL A   1      45.077  22.455  25.883  1.00  0.00    -0.237 OA
ATOM     89  O   UNL A   1      43.047  23.133  24.646  1.00  0.00    -0.237 OA
ATOM     90  O   UNL A   1      45.219  23.026  23.484  1.00  0.00    -0.744 OA
ENDBRANCH  86  87
ENDBRANCH  58  81
BRANCH  70  91
ATOM     91  C   UNL A   1      44.249  34.322  28.308  1.00  0.00    -0.014 A 
ATOM     92  C   UNL A   1      45.286  35.159  28.747  1.00  0.00     0.010 A 
ATOM     93  C   UNL A   1      43.210  34.916  27.554  1.00  0.00     0.010 A 
ATOM     94  C   UNL A   1      45.312  36.519  28.403  1.00  0.00     0.020 A 
ATOM     95  C   UNL A   1      43.216  36.272  27.222  1.00  0.00     0.020 A 
ATOM     96  C   UNL A   1      44.279  37.065  27.637  1.00  0.00     0.054 A 
BRANCH  96  97
ATOM     97  S   UNL A   1      44.307  38.834  27.245  1.00  0.00     0.124 S 
ATOM     98  O   UNL A   1      43.035  39.029  26.554  1.00  0.00    -0.237 OA
ATOM     99  O   UNL A   1      44.396  39.437  28.573  1.00  0.00    -0.237 OA
ATOM    100  O   UNL A   1      45.494  38.990  26.409  1.00  0.00    -0.744 OA
ENDBRANCH  96  97
ENDBRANCH  70  91
ENDBRANCH  44  45
ENDBRANCH  36  39
ENDBRANCH  34  35
ENDBRANCH  33  34
ENDBRANCH   1  33
TORSDOF 19
ENDMDL
MODEL 3
REMARK VINA RESULT:     -13.8      4.008     10.423
REMARK SMILES Cc1ccc(-c2cc(OCC(=O)NCCCNC(=O)c3ccc(-c4c5nc(c(-c6ccc(S(=O)(=O)[O-])cc6)c6ccc([nH]6)c(-c6ccc(S(=O)(=O)[O-])cc6)c6nc(c(-c7ccc(S(=O)(=O)[O-])cc7)c7ccc4[nH]7)C=C6)C=C5)cc3)nc(NCc3ccc4c(c3)OCO4)n2)cc1
REMARK SMILES IDX 14 1 13 2 11 3 12 4 10 6 9 7 8 8 6 9 7 10 93 11 81 12 80 13
REMARK SMILES IDX 5 14 1 15 2 16 3 17 95 18 4 19 94 20 82 21 83 23 84 24 85 25
REMARK SMILES IDX 89 26 86 27 88 28 87 29 90 30 92 31 91 32 15 33 16 34 17 35
REMARK SMILES IDX 18 36 19 38 20 39 21 40 79 41 22 42 78 43 23 44 24 45 25 46
REMARK SMILES IDX 72 47 26 48 77 49 71 50 73 51 27 52 76 53 70 54 69 55 28 57
REMARK SMILES IDX 58 58 39 59 57 60 40 61 43 62 56 63 74 64 41 65 42 66 55 68
REMARK SMILES IDX 75 69 44 70 29 71 30 72 38 73 31 74 37 75 32 76 33 77 34 78
REMARK SMILES IDX 35 79 36 80 59 81 60 82 68 83 61 84 67 85 62 86 63 87 64 88
REMARK SMILES IDX 65 89 66 90 45 91 46 92 54 93 47 94 53 95 48 96 49 97 50 98
REMARK SMILES IDX 51 99 52 100
REMARK H PARENT 13 5 82 22 17 37 73 56 43 67
REMARK Flexibility Score: inf
ROOT
ATOM      1  C   UNL A   1      35.218  22.323  24.288  1.00  0.00     0.117 C 
ENDROOT
BRANCH   1   2
ATOM      2  N   UNL A   1      34.773  22.936  23.044  1.00  0.00    -0.353 N 
ATOM      3  C   UNL A   1      33.655  23.677  22.796  1.00  0.00     0.258 C 
ATOM      4  O   UNL A   1      33.490  24.169  21.677  1.00  0.00    -0.271 OA
ATOM      5  H   UNL A   1      35.365  22.796  22.271  1.00  0.00     0.163 HD
BRANCH   3   6
ATOM      6  C   UNL A   1      32.618  23.897  23.901  1.00  0.00     0.331 C 
BRANCH   6   7
ATOM      7  O   UNL A   1      33.057  24.639  25.024  1.00  0.00    -0.467 OA
BRANCH   7   8
ATOM      8  C   UNL A   1      32.813  25.983  25.047  1.00  0.00     0.219 A 
ATOM      9  C   UNL A   1      32.982  28.195  25.777  1.00  0.00     0.080 A 
ATOM     10  C   UNL A   1      33.373  26.879  25.920  1.00  0.00     0.097 A 
ATOM     11  N   UNL A   1      32.058  28.584  24.876  1.00  0.00    -0.213 NA
ATOM     12  C   UNL A   1      31.583  27.645  24.054  1.00  0.00     0.226 A 
ATOM     13  N   UNL A   1      31.928  26.355  24.111  1.00  0.00    -0.177 NA
BRANCH   9  14
ATOM     14  C   UNL A   1      33.608  29.254  26.579  1.00  0.00     0.000 A 
ATOM     15  C   UNL A   1      35.461  32.483  28.790  1.00  0.00     0.044 C 
ATOM     16  C   UNL A   1      34.811  31.361  28.037  1.00  0.00    -0.051 A 
ATOM     17  C   UNL A   1      35.500  30.163  27.815  1.00  0.00     0.004 A 
ATOM     18  C   UNL A   1      33.513  31.497  27.537  1.00  0.00     0.004 A 
ATOM     19  C   UNL A   1      34.901  29.116  27.101  1.00  0.00     0.010 A 
ATOM     20  C   UNL A   1      32.921  30.458  26.817  1.00  0.00     0.010 A 
ENDBRANCH   9  14
BRANCH  12  21
ATOM     21  N   UNL A   1      30.697  27.963  23.062  1.00  0.00    -0.350 N 
ATOM     22  H   UNL A   1      31.007  27.952  22.127  1.00  0.00     0.164 HD
BRANCH  21  23
ATOM     23  C   UNL A   1      29.330  28.311  23.336  1.00  0.00     0.152 C 
BRANCH  23  24
ATOM     24  C   UNL A   1      28.967  29.710  22.861  1.00  0.00    -0.025 A 
ATOM     25  C   UNL A   1      29.151  30.796  23.752  1.00  0.00     0.009 A 
ATOM     26  C   UNL A   1      28.486  29.970  21.564  1.00  0.00     0.056 A 
ATOM     27  C   UNL A   1      28.832  32.107  23.379  1.00  0.00     0.051 A 
ATOM     28  C   UNL A   1      28.165  31.269  21.230  1.00  0.00     0.166 A 
ATOM     29  C   UNL A   1      28.328  32.307  22.114  1.00  0.00     0.165 A 
ATOM     30  O   UNL A   1      27.654  31.677  20.037  1.00  0.00    -0.454 OA
ATOM     31  O   UNL A   1      27.935  33.500  21.589  1.00  0.00    -0.454 OA
ATOM     32  C   UNL A   1      27.416  33.070  20.313  1.00  0.00     0.468 C 
ENDBRANCH  23  24
ENDBRANCH  21  23
ENDBRANCH  12  21
ENDBRANCH   7   8
ENDBRANCH   6   7
ENDBRANCH   3   6
ENDBRANCH   1   2
BRANCH   1  33
ATOM     33  C   UNL A   1      36.729  22.144  24.368  1.00  0.00     0.042 C 
BRANCH  33  34
ATOM     34  C   UNL A   1      37.377  22.993  25.453  1.00  0.00     0.118 C 
BRANCH  34  35
ATOM     35  N   UNL A   1      38.419  22.309  26.197  1.00  0.00    -0.352 N 
ATOM     36  C   UNL A   1      39.694  22.817  26.457  1.00  0.00     0.251 C 
ATOM     37  H   UNL A   1      38.209  21.413  26.547  1.00  0.00     0.163 HD
ATOM     38  O   UNL A   1      40.680  22.147  26.468  1.00  0.00    -0.269 OA
BRANCH  36  39
ATOM     39  C   UNL A   1      39.717  24.235  26.911  1.00  0.00     0.039 A 
ATOM     40  C   UNL A   1      40.373  25.168  26.098  1.00  0.00     0.014 A 
ATOM     41  C   UNL A   1      39.300  24.575  28.192  1.00  0.00     0.014 A 
ATOM     42  C   UNL A   1      40.733  26.410  26.627  1.00  0.00     0.010 A 
ATOM     43  C   UNL A   1      39.733  25.768  28.739  1.00  0.00     0.010 A 
ATOM     44  C   UNL A   1      40.478  26.679  27.972  1.00  0.00    -0.014 A 
BRANCH  44  45
ATOM     45  C   UNL A   1      41.024  27.819  28.707  1.00  0.00     0.031 A 
ATOM     46  C   UNL A   1      40.176  28.984  29.071  1.00  0.00     0.074 A 
ATOM     47  C   UNL A   1      42.281  27.779  29.205  1.00  0.00     0.049 A 
ATOM     48  N   UNL A   1      40.642  30.150  29.391  1.00  0.00    -0.248 NA
ATOM     49  C   UNL A   1      38.719  28.935  29.066  1.00  0.00     0.031 C 
ATOM     50  C   UNL A   1      42.808  28.612  30.284  1.00  0.00     0.029 A 
ATOM     51  N   UNL A   1      43.410  27.133  28.702  1.00  0.00    -0.354 N 
ATOM     52  C   UNL A   1      39.605  30.871  29.940  1.00  0.00     0.074 A 
ATOM     53  C   UNL A   1      38.416  30.111  29.625  1.00  0.00     0.031 C 
ATOM     54  C   UNL A   1      44.140  28.676  30.163  1.00  0.00     0.029 A 
ATOM     55  C   UNL A   1      44.496  27.997  28.930  1.00  0.00     0.049 A 
ATOM     56  H   UNL A   1      43.439  26.248  28.272  1.00  0.00     0.167 HD
ATOM     57  C   UNL A   1      39.861  31.956  30.728  1.00  0.00     0.031 A 
ATOM     58  C   UNL A   1      45.324  28.484  27.961  1.00  0.00     0.031 A 
ATOM     59  C   UNL A   1      41.288  32.260  30.844  1.00  0.00     0.049 A 
ATOM     60  C   UNL A   1      45.427  29.995  27.933  1.00  0.00     0.074 A 
ATOM     61  C   UNL A   1      42.218  32.163  31.868  1.00  0.00     0.029 A 
ATOM     62  N   UNL A   1      42.013  32.570  29.706  1.00  0.00    -0.354 N 
ATOM     63  N   UNL A   1      44.810  30.788  28.763  1.00  0.00    -0.248 NA
ATOM     64  C   UNL A   1      46.137  30.738  26.888  1.00  0.00     0.031 C 
ATOM     65  C   UNL A   1      43.501  32.477  31.342  1.00  0.00     0.029 A 
ATOM     66  C   UNL A   1      43.351  32.745  29.996  1.00  0.00     0.049 A 
ATOM     67  H   UNL A   1      41.622  32.655  28.805  1.00  0.00     0.167 HD
ATOM     68  C   UNL A   1      44.935  32.083  28.335  1.00  0.00     0.074 A 
ATOM     69  C   UNL A   1      45.802  32.009  27.176  1.00  0.00     0.031 C 
ATOM     70  C   UNL A   1      44.259  33.110  28.923  1.00  0.00     0.031 A 
BRANCH  57  71
ATOM     71  C   UNL A   1      38.815  32.618  31.608  1.00  0.00    -0.014 A 
ATOM     72  C   UNL A   1      38.363  31.961  32.772  1.00  0.00     0.010 A 
ATOM     73  C   UNL A   1      38.215  33.860  31.333  1.00  0.00     0.010 A 
ATOM     74  C   UNL A   1      37.289  32.444  33.535  1.00  0.00     0.020 A 
ATOM     75  C   UNL A   1      37.114  34.338  32.062  1.00  0.00     0.020 A 
ATOM     76  C   UNL A   1      36.644  33.613  33.150  1.00  0.00     0.054 A 
BRANCH  76  77
ATOM     77  S   UNL A   1      35.188  34.163  34.074  1.00  0.00     0.124 S 
ATOM     78  O   UNL A   1      35.577  33.907  35.458  1.00  0.00    -0.237 OA
ATOM     79  O   UNL A   1      35.088  35.571  33.698  1.00  0.00    -0.237 OA
ATOM     80  O   UNL A   1      34.114  33.309  33.569  1.00  0.00    -0.744 OA
ENDBRANCH  76  77
ENDBRANCH  57  71
BRANCH  58  81
ATOM     81  C   UNL A   1      45.441  27.599  26.771  1.00  0.00    -0.014 A 
ATOM     82  C   UNL A   1      46.443  26.607  26.808  1.00  0.00     0.010 A 
ATOM     83  C   UNL A   1      44.347  27.442  25.903  1.00  0.00     0.010 A 
ATOM     84  C   UNL A   1      46.254  25.393  26.147  1.00  0.00     0.020 A 
ATOM     85  C   UNL A   1      44.163  26.227  25.232  1.00  0.00     0.020 A 
ATOM     86  C   UNL A   1      45.077  25.187  25.426  1.00  0.00     0.054 A 
BRANCH  86  87
ATOM     87  S   UNL A   1      44.668  23.487  24.931  1.00  0.00     0.124 S 
ATOM     88  O   UNL A   1      45.124  22.705  26.076  1.00  0.00    -0.237 OA
ATOM     89  O   UNL A   1      43.218  23.563  24.757  1.00  0.00    -0.237 OA
ATOM     90  O   UNL A   1      45.430  23.305  23.700  1.00  0.00    -0.744 OA
ENDBRANCH  86  87
ENDBRANCH  58  81
BRANCH  70  91
ATOM     91  C   UNL A   1      44.358  34.550  28.504  1.00  0.00    -0.014 A 
ATOM     92  C   UNL A   1      43.515  35.122  27.538  1.00  0.00     0.010 A 
ATOM     93  C   UNL A   1      45.421  35.346  28.991  1.00  0.00     0.010 A 
ATOM     94  C   UNL A   1      43.694  36.448  27.117  1.00  0.00     0.020 A 
ATOM     95  C   UNL A   1      45.619  36.661  28.565  1.00  0.00     0.020 A 
ATOM     96  C   UNL A   1      44.742  37.211  27.638  1.00  0.00     0.054 A 
BRANCH  96  97
ATOM     97  S   UNL A   1      44.984  38.906  27.044  1.00  0.00     0.124 S 
ATOM     98  O   UNL A   1      46.089  38.759  26.099  1.00  0.00    -0.237 OA
ATOM     99  O   UNL A   1      43.684  39.205  26.446  1.00  0.00    -0.237 OA
ATOM    100  O   UNL A   1      45.301  39.659  28.253  1.00  0.00    -0.744 OA
ENDBRANCH  96  97
ENDBRANCH  70  91
ENDBRANCH  44  45
ENDBRANCH  36  39
ENDBRANCH  34  35
ENDBRANCH  33  34
ENDBRANCH   1  33
TORSDOF 19
ENDMDL
