MODEL 1
REMARK VINA RESULT:     -10.1      0.000      0.000
REMARK SMILES Nc1ccc(Cl)c(SC[C@H]2CC[C@H](C(=O)NCCCNC(=O)c3ccc(-c4c5nc(c(-c6ccc(S(=O)(=O)[O-])cc6)c6ccc([nH]6)c(-c6ccc(S(=O)(=O)[O-])cc6)c6nc(c(-c7ccc(S(=O)(=O)[O-])cc7)c7ccc4[nH]7)C=C6)C=C5)cc3)O2)c1
REMARK SMILES IDX 17 1 16 2 14 3 15 4 13 6 10 7 11 8 83 9 12 10 9 11 8 12 7 13
REMARK SMILES IDX 2 14 3 15 84 16 4 17 5 18 6 19 1 20 18 23 19 24 20 25 21 26
REMARK SMILES IDX 22 28 23 29 24 30 82 31 25 32 81 33 26 34 27 35 28 36 75 37
REMARK SMILES IDX 29 38 80 39 74 40 76 41 30 42 79 43 73 44 72 45 31 47 61 48
REMARK SMILES IDX 42 49 60 50 43 51 46 52 59 53 77 54 44 55 45 56 58 58 78 59
REMARK SMILES IDX 47 60 32 61 33 62 41 63 34 64 40 65 35 66 36 67 37 68 38 69
REMARK SMILES IDX 39 70 62 71 63 72 71 73 64 74 70 75 65 76 66 77 67 78 68 79
REMARK SMILES IDX 69 80 48 81 49 82 57 83 50 84 56 85 51 86 52 87 53 88 54 89
REMARK SMILES IDX 55 90
REMARK H PARENT 16 5 1 21 1 22 20 27 76 46 46 57
REMARK Flexibility Score: inf
ROOT
ATOM      1  C   UNL A   1      34.214  35.159  28.461  1.00  0.00     0.117 C 
ENDROOT
BRANCH   1   2
ATOM      2  N   UNL A   1      33.249  35.812  29.321  1.00  0.00    -0.354 N 
ATOM      3  C   UNL A   1      33.228  35.943  30.678  1.00  0.00     0.249 C 
ATOM      4  O   UNL A   1      32.267  36.542  31.174  1.00  0.00    -0.272 OA
ATOM      5  H   UNL A   1      32.488  36.225  28.852  1.00  0.00     0.163 HD
BRANCH   3   6
ATOM      6  C   UNL A   1      34.317  35.322  31.575  1.00  0.00     0.207 C 
ATOM      7  C   UNL A   1      34.342  33.839  33.388  1.00  0.00     0.129 C 
ATOM      8  C   UNL A   1      34.342  35.237  33.978  1.00  0.00     0.036 C 
ATOM      9  O   UNL A   1      34.093  33.975  31.986  1.00  0.00    -0.364 OA
ATOM     10  C   UNL A   1      34.595  36.159  32.813  1.00  0.00     0.045 C 
BRANCH   7  11
ATOM     11  C   UNL A   1      35.578  32.975  33.688  1.00  0.00     0.107 C 
BRANCH  11  12
ATOM     12  S   UNL A   1      36.436  32.217  32.260  1.00  0.00    -0.122 SA
BRANCH  12  13
ATOM     13  C   UNL A   1      37.956  31.495  32.934  1.00  0.00     0.028 A 
ATOM     14  C   UNL A   1      39.418  29.569  33.396  1.00  0.00     0.033 A 
ATOM     15  C   UNL A   1      40.371  30.421  33.943  1.00  0.00     0.027 A 
ATOM     16  C   UNL A   1      38.203  30.110  32.953  1.00  0.00     0.042 A 
ATOM     17  C   UNL A   1      40.148  31.797  33.969  1.00  0.00     0.024 A 
ATOM     18  C   UNL A   1      38.959  32.334  33.461  1.00  0.00     0.054 A 
ATOM     19  Cl  UNL A   1      38.804  34.060  33.535  1.00  0.00    -0.083 Cl
BRANCH  14  20
ATOM     20  N   UNL A   1      39.610  28.194  33.415  1.00  0.00    -0.399 N 
ATOM     21  H   UNL A   1      40.116  27.778  34.150  1.00  0.00     0.156 HD
ATOM     22  H   UNL A   1      39.239  27.635  32.694  1.00  0.00     0.156 HD
ENDBRANCH  14  20
ENDBRANCH  12  13
ENDBRANCH  11  12
ENDBRANCH   7  11
ENDBRANCH   3   6
ENDBRANCH   1   2
BRANCH   1  23
ATOM     23  C   UNL A   1      33.685  33.840  27.914  1.00  0.00     0.042 C 
BRANCH  23  24
ATOM     24  C   UNL A   1      34.453  32.639  28.449  1.00  0.00     0.118 C 
BRANCH  24  25
ATOM     25  N   UNL A   1      33.783  31.384  28.128  1.00  0.00    -0.352 N 
ATOM     26  C   UNL A   1      34.308  30.143  27.879  1.00  0.00     0.251 C 
ATOM     27  H   UNL A   1      32.801  31.436  28.083  1.00  0.00     0.163 HD
ATOM     28  O   UNL A   1      33.588  29.272  27.389  1.00  0.00    -0.269 OA
BRANCH  26  29
ATOM     29  C   UNL A   1      35.722  29.850  28.188  1.00  0.00     0.039 A 
ATOM     30  C   UNL A   1      36.060  29.415  29.471  1.00  0.00     0.014 A 
ATOM     31  C   UNL A   1      36.719  30.037  27.226  1.00  0.00     0.014 A 
ATOM     32  C   UNL A   1      37.390  29.118  29.774  1.00  0.00     0.010 A 
ATOM     33  C   UNL A   1      38.029  29.662  27.503  1.00  0.00     0.010 A 
ATOM     34  C   UNL A   1      38.380  29.212  28.783  1.00  0.00    -0.014 A 
BRANCH  34  35
ATOM     35  C   UNL A   1      39.796  28.870  29.068  1.00  0.00     0.031 A 
ATOM     36  C   UNL A   1      40.708  29.902  29.676  1.00  0.00     0.074 A 
ATOM     37  C   UNL A   1      40.272  27.658  28.724  1.00  0.00     0.049 A 
ATOM     38  N   UNL A   1      41.990  29.827  29.922  1.00  0.00    -0.248 NA
ATOM     39  C   UNL A   1      40.105  31.199  30.032  1.00  0.00     0.031 C 
ATOM     40  C   UNL A   1      39.493  26.586  28.098  1.00  0.00     0.029 A 
ATOM     41  N   UNL A   1      41.529  27.123  28.847  1.00  0.00    -0.354 N 
ATOM     42  C   UNL A   1      42.349  31.065  30.443  1.00  0.00     0.074 A 
ATOM     43  C   UNL A   1      41.162  31.891  30.430  1.00  0.00     0.031 C 
ATOM     44  C   UNL A   1      40.282  25.515  27.918  1.00  0.00     0.029 A 
ATOM     45  C   UNL A   1      41.631  25.836  28.374  1.00  0.00     0.049 A 
ATOM     46  H   UNL A   1      42.287  27.615  29.238  1.00  0.00     0.167 HD
ATOM     47  C   UNL A   1      43.553  31.470  30.914  1.00  0.00     0.031 A 
ATOM     48  C   UNL A   1      42.694  25.011  28.307  1.00  0.00     0.031 A 
ATOM     49  C   UNL A   1      44.725  30.638  30.941  1.00  0.00     0.049 A 
ATOM     50  C   UNL A   1      44.022  25.491  28.823  1.00  0.00     0.074 A 
ATOM     51  C   UNL A   1      45.983  30.939  31.435  1.00  0.00     0.029 A 
ATOM     52  N   UNL A   1      44.783  29.337  30.464  1.00  0.00    -0.354 N 
ATOM     53  N   UNL A   1      44.330  26.650  29.355  1.00  0.00    -0.248 NA
ATOM     54  C   UNL A   1      45.146  24.547  28.741  1.00  0.00     0.031 C 
ATOM     55  C   UNL A   1      46.813  29.834  31.217  1.00  0.00     0.029 A 
ATOM     56  C   UNL A   1      46.057  28.827  30.638  1.00  0.00     0.049 A 
ATOM     57  H   UNL A   1      44.028  28.849  30.061  1.00  0.00     0.167 HD
ATOM     58  C   UNL A   1      45.674  26.563  29.699  1.00  0.00     0.074 A 
ATOM     59  C   UNL A   1      46.116  25.234  29.328  1.00  0.00     0.031 C 
ATOM     60  C   UNL A   1      46.473  27.498  30.270  1.00  0.00     0.031 A 
BRANCH  47  61
ATOM     61  C   UNL A   1      43.658  32.874  31.447  1.00  0.00    -0.014 A 
ATOM     62  C   UNL A   1      44.305  33.880  30.708  1.00  0.00     0.010 A 
ATOM     63  C   UNL A   1      43.060  33.206  32.677  1.00  0.00     0.010 A 
ATOM     64  C   UNL A   1      44.382  35.184  31.203  1.00  0.00     0.020 A 
ATOM     65  C   UNL A   1      43.110  34.516  33.162  1.00  0.00     0.020 A 
ATOM     66  C   UNL A   1      43.784  35.494  32.428  1.00  0.00     0.054 A 
BRANCH  66  67
ATOM     67  S   UNL A   1      43.868  37.205  33.025  1.00  0.00     0.124 S 
ATOM     68  O   UNL A   1      43.498  37.958  31.829  1.00  0.00    -0.237 OA
ATOM     69  O   UNL A   1      42.883  37.217  34.104  1.00  0.00    -0.237 OA
ATOM     70  O   UNL A   1      45.257  37.355  33.452  1.00  0.00    -0.744 OA
ENDBRANCH  66  67
ENDBRANCH  47  61
BRANCH  48  71
ATOM     71  C   UNL A   1      42.546  23.642  27.742  1.00  0.00    -0.014 A 
ATOM     72  C   UNL A   1      41.967  22.614  28.507  1.00  0.00     0.010 A 
ATOM     73  C   UNL A   1      42.994  23.354  26.440  1.00  0.00     0.010 A 
ATOM     74  C   UNL A   1      41.868  21.317  27.993  1.00  0.00     0.020 A 
ATOM     75  C   UNL A   1      42.871  22.067  25.912  1.00  0.00     0.020 A 
ATOM     76  C   UNL A   1      42.324  21.052  26.700  1.00  0.00     0.054 A 
BRANCH  76  77
ATOM     77  S   UNL A   1      42.163  19.368  26.042  1.00  0.00     0.124 S 
ATOM     78  O   UNL A   1      40.723  19.267  25.822  1.00  0.00    -0.237 OA
ATOM     79  O   UNL A   1      42.986  19.420  24.835  1.00  0.00    -0.237 OA
ATOM     80  O   UNL A   1      42.695  18.531  27.115  1.00  0.00    -0.744 OA
ENDBRANCH  76  77
ENDBRANCH  48  71
BRANCH  60  81
ATOM     81  C   UNL A   1      47.893  27.102  30.572  1.00  0.00    -0.014 A 
ATOM     82  C   UNL A   1      48.913  27.268  29.619  1.00  0.00     0.010 A 
ATOM     83  C   UNL A   1      48.217  26.609  31.849  1.00  0.00     0.010 A 
ATOM     84  C   UNL A   1      50.230  26.917  29.929  1.00  0.00     0.020 A 
ATOM     85  C   UNL A   1      49.536  26.284  32.171  1.00  0.00     0.020 A 
ATOM     86  C   UNL A   1      50.532  26.426  31.204  1.00  0.00     0.054 A 
BRANCH  86  87
ATOM     87  S   UNL A   1      52.256  26.021  31.596  1.00  0.00     0.124 S 
ATOM     88  O   UNL A   1      52.166  24.601  31.926  1.00  0.00    -0.237 OA
ATOM     89  O   UNL A   1      52.951  26.336  30.351  1.00  0.00    -0.237 OA
ATOM     90  O   UNL A   1      52.572  26.903  32.719  1.00  0.00    -0.744 OA
ENDBRANCH  86  87
ENDBRANCH  60  81
ENDBRANCH  34  35
ENDBRANCH  26  29
ENDBRANCH  24  25
ENDBRANCH  23  24
ENDBRANCH   1  23
TORSDOF 17
ENDMDL
MODEL 2
REMARK VINA RESULT:      -9.9      4.264     12.424
REMARK SMILES Nc1ccc(Cl)c(SC[C@H]2CC[C@H](C(=O)NCCCNC(=O)c3ccc(-c4c5nc(c(-c6ccc(S(=O)(=O)[O-])cc6)c6ccc([nH]6)c(-c6ccc(S(=O)(=O)[O-])cc6)c6nc(c(-c7ccc(S(=O)(=O)[O-])cc7)c7ccc4[nH]7)C=C6)C=C5)cc3)O2)c1
REMARK SMILES IDX 17 1 16 2 14 3 15 4 13 6 10 7 11 8 83 9 12 10 9 11 8 12 7 13
REMARK SMILES IDX 2 14 3 15 84 16 4 17 5 18 6 19 1 20 18 23 19 24 20 25 21 26
REMARK SMILES IDX 22 28 23 29 24 30 82 31 25 32 81 33 26 34 27 35 28 36 75 37
REMARK SMILES IDX 29 38 80 39 74 40 76 41 30 42 79 43 73 44 72 45 31 47 61 48
REMARK SMILES IDX 42 49 60 50 43 51 46 52 59 53 77 54 44 55 45 56 58 58 78 59
REMARK SMILES IDX 47 60 32 61 33 62 41 63 34 64 40 65 35 66 36 67 37 68 38 69
REMARK SMILES IDX 39 70 62 71 63 72 71 73 64 74 70 75 65 76 66 77 67 78 68 79
REMARK SMILES IDX 69 80 48 81 49 82 57 83 50 84 56 85 51 86 52 87 53 88 54 89
REMARK SMILES IDX 55 90
REMARK H PARENT 16 5 1 21 1 22 20 27 76 46 46 57
REMARK Flexibility Score: inf
ROOT
ATOM      1  C   UNL A   1      41.255  20.551  27.535  1.00  0.00     0.117 C 
ENDROOT
BRANCH   1   2
ATOM      2  N   UNL A   1      41.760  19.679  26.495  1.00  0.00    -0.354 N 
ATOM      3  C   UNL A   1      42.845  19.818  25.681  1.00  0.00     0.249 C 
ATOM      4  O   UNL A   1      43.049  18.924  24.852  1.00  0.00    -0.272 OA
ATOM      5  H   UNL A   1      41.237  18.858  26.352  1.00  0.00     0.163 HD
BRANCH   3   6
ATOM      6  C   UNL A   1      43.753  21.063  25.737  1.00  0.00     0.207 C 
ATOM      7  C   UNL A   1      44.406  22.723  24.219  1.00  0.00     0.129 C 
ATOM      8  C   UNL A   1      45.490  21.661  24.185  1.00  0.00     0.036 C 
ATOM      9  O   UNL A   1      43.316  22.187  24.976  1.00  0.00    -0.364 OA
ATOM     10  C   UNL A   1      45.189  20.750  25.348  1.00  0.00     0.045 C 
BRANCH   7  11
ATOM     11  C   UNL A   1      44.835  24.117  24.705  1.00  0.00     0.107 C 
BRANCH  11  12
ATOM     12  S   UNL A   1      46.206  24.196  25.916  1.00  0.00    -0.122 SA
BRANCH  12  13
ATOM     13  C   UNL A   1      45.417  24.445  27.528  1.00  0.00     0.028 A 
ATOM     14  C   UNL A   1      43.977  23.683  29.374  1.00  0.00     0.033 A 
ATOM     15  C   UNL A   1      44.257  24.850  30.076  1.00  0.00     0.027 A 
ATOM     16  C   UNL A   1      44.514  23.523  28.088  1.00  0.00     0.042 A 
ATOM     17  C   UNL A   1      45.124  25.801  29.539  1.00  0.00     0.024 A 
ATOM     18  C   UNL A   1      45.709  25.599  28.283  1.00  0.00     0.054 A 
ATOM     19  Cl  UNL A   1      46.782  26.844  27.728  1.00  0.00    -0.083 Cl
BRANCH  14  20
ATOM     20  N   UNL A   1      43.074  22.757  29.878  1.00  0.00    -0.399 N 
ATOM     21  H   UNL A   1      42.109  22.955  29.868  1.00  0.00     0.156 HD
ATOM     22  H   UNL A   1      43.398  21.903  30.246  1.00  0.00     0.156 HD
ENDBRANCH  14  20
ENDBRANCH  12  13
ENDBRANCH  11  12
ENDBRANCH   7  11
ENDBRANCH   3   6
ENDBRANCH   1   2
BRANCH   1  23
ATOM     23  C   UNL A   1      40.315  21.612  26.979  1.00  0.00     0.042 C 
BRANCH  23  24
ATOM     24  C   UNL A   1      40.706  23.019  27.411  1.00  0.00     0.118 C 
BRANCH  24  25
ATOM     25  N   UNL A   1      41.331  23.763  26.323  1.00  0.00    -0.352 N 
ATOM     26  C   UNL A   1      41.552  25.107  26.188  1.00  0.00     0.251 C 
ATOM     27  H   UNL A   1      41.643  23.212  25.568  1.00  0.00     0.163 HD
ATOM     28  O   UNL A   1      41.873  25.558  25.087  1.00  0.00    -0.269 OA
BRANCH  26  29
ATOM     29  C   UNL A   1      41.402  26.013  27.344  1.00  0.00     0.039 A 
ATOM     30  C   UNL A   1      42.332  27.039  27.528  1.00  0.00     0.014 A 
ATOM     31  C   UNL A   1      40.368  25.832  28.268  1.00  0.00     0.014 A 
ATOM     32  C   UNL A   1      42.196  27.913  28.608  1.00  0.00     0.010 A 
ATOM     33  C   UNL A   1      40.184  26.752  29.293  1.00  0.00     0.010 A 
ATOM     34  C   UNL A   1      41.104  27.793  29.482  1.00  0.00    -0.014 A 
BRANCH  34  35
ATOM     35  C   UNL A   1      40.915  28.730  30.617  1.00  0.00     0.031 A 
ATOM     36  C   UNL A   1      41.761  28.588  31.854  1.00  0.00     0.074 A 
ATOM     37  C   UNL A   1      39.945  29.663  30.559  1.00  0.00     0.049 A 
ATOM     38  N   UNL A   1      41.693  29.249  32.981  1.00  0.00    -0.248 NA
ATOM     39  C   UNL A   1      42.806  27.549  31.832  1.00  0.00     0.031 C 
ATOM     40  C   UNL A   1      39.038  29.876  29.427  1.00  0.00     0.029 A 
ATOM     41  N   UNL A   1      39.554  30.605  31.476  1.00  0.00    -0.354 N 
ATOM     42  C   UNL A   1      42.670  28.698  33.802  1.00  0.00     0.074 A 
ATOM     43  C   UNL A   1      43.282  27.614  33.067  1.00  0.00     0.031 C 
ATOM     44  C   UNL A   1      38.217  30.901  29.707  1.00  0.00     0.029 A 
ATOM     45  C   UNL A   1      38.507  31.390  31.050  1.00  0.00     0.049 A 
ATOM     46  H   UNL A   1      39.982  30.710  32.356  1.00  0.00     0.167 HD
ATOM     47  C   UNL A   1      43.041  29.077  35.049  1.00  0.00     0.031 A 
ATOM     48  C   UNL A   1      37.851  32.386  31.677  1.00  0.00     0.031 A 
ATOM     49  C   UNL A   1      42.440  30.167  35.769  1.00  0.00     0.049 A 
ATOM     50  C   UNL A   1      38.274  32.776  33.066  1.00  0.00     0.074 A 
ATOM     51  C   UNL A   1      42.771  30.657  37.021  1.00  0.00     0.029 A 
ATOM     52  N   UNL A   1      41.393  30.944  35.298  1.00  0.00    -0.354 N 
ATOM     53  N   UNL A   1      39.231  32.273  33.809  1.00  0.00    -0.248 NA
ATOM     54  C   UNL A   1      37.535  33.878  33.699  1.00  0.00     0.031 C 
ATOM     55  C   UNL A   1      41.894  31.704  37.324  1.00  0.00     0.029 A 
ATOM     56  C   UNL A   1      41.054  31.900  36.239  1.00  0.00     0.049 A 
ATOM     57  H   UNL A   1      40.954  30.831  34.423  1.00  0.00     0.167 HD
ATOM     58  C   UNL A   1      39.229  33.016  34.983  1.00  0.00     0.074 A 
ATOM     59  C   UNL A   1      38.185  34.013  34.846  1.00  0.00     0.031 C 
ATOM     60  C   UNL A   1      40.019  32.888  36.078  1.00  0.00     0.031 A 
BRANCH  47  61
ATOM     61  C   UNL A   1      44.155  28.310  35.709  1.00  0.00    -0.014 A 
ATOM     62  C   UNL A   1      45.494  28.714  35.566  1.00  0.00     0.010 A 
ATOM     63  C   UNL A   1      43.859  27.200  36.523  1.00  0.00     0.010 A 
ATOM     64  C   UNL A   1      46.520  28.006  36.196  1.00  0.00     0.020 A 
ATOM     65  C   UNL A   1      44.880  26.506  37.178  1.00  0.00     0.020 A 
ATOM     66  C   UNL A   1      46.206  26.905  36.998  1.00  0.00     0.054 A 
BRANCH  66  67
ATOM     67  S   UNL A   1      47.557  26.029  37.834  1.00  0.00     0.124 S 
ATOM     68  O   UNL A   1      47.111  26.049  39.225  1.00  0.00    -0.237 OA
ATOM     69  O   UNL A   1      47.539  24.719  37.188  1.00  0.00    -0.237 OA
ATOM     70  O   UNL A   1      48.733  26.847  37.545  1.00  0.00    -0.744 OA
ENDBRANCH  66  67
ENDBRANCH  47  61
BRANCH  48  71
ATOM     71  C   UNL A   1      36.734  33.093  30.994  1.00  0.00    -0.014 A 
ATOM     72  C   UNL A   1      35.416  32.963  31.462  1.00  0.00     0.010 A 
ATOM     73  C   UNL A   1      36.981  33.893  29.863  1.00  0.00     0.010 A 
ATOM     74  C   UNL A   1      34.360  33.592  30.794  1.00  0.00     0.020 A 
ATOM     75  C   UNL A   1      35.933  34.547  29.209  1.00  0.00     0.020 A 
ATOM     76  C   UNL A   1      34.626  34.377  29.670  1.00  0.00     0.054 A 
BRANCH  76  77
ATOM     77  S   UNL A   1      33.245  35.206  28.834  1.00  0.00     0.124 S 
ATOM     78  O   UNL A   1      32.673  34.119  28.046  1.00  0.00    -0.237 OA
ATOM     79  O   UNL A   1      32.432  35.674  29.954  1.00  0.00    -0.237 OA
ATOM     80  O   UNL A   1      33.899  36.263  28.064  1.00  0.00    -0.744 OA
ENDBRANCH  76  77
ENDBRANCH  48  71
BRANCH  60  81
ATOM     81  C   UNL A   1      39.817  33.876  37.195  1.00  0.00    -0.014 A 
ATOM     82  C   UNL A   1      39.032  33.557  38.317  1.00  0.00     0.010 A 
ATOM     83  C   UNL A   1      40.470  35.121  37.143  1.00  0.00     0.010 A 
ATOM     84  C   UNL A   1      38.879  34.481  39.354  1.00  0.00     0.020 A 
ATOM     85  C   UNL A   1      40.342  36.035  38.190  1.00  0.00     0.020 A 
ATOM     86  C   UNL A   1      39.535  35.715  39.283  1.00  0.00     0.054 A 
BRANCH  86  87
ATOM     87  S   UNL A   1      39.356  36.878  40.663  1.00  0.00     0.124 S 
ATOM     88  O   UNL A   1      40.613  36.690  41.383  1.00  0.00    -0.237 OA
ATOM     89  O   UNL A   1      39.204  38.162  39.984  1.00  0.00    -0.237 OA
ATOM     90  O   UNL A   1      38.162  36.406  41.362  1.00  0.00    -0.744 OA
ENDBRANCH  86  87
ENDBRANCH  60  81
ENDBRANCH  34  35
ENDBRANCH  26  29
ENDBRANCH  24  25
ENDBRANCH  23  24
ENDBRANCH   1  23
TORSDOF 17
ENDMDL
MODEL 3
REMARK VINA RESULT:      -9.7      3.543      6.109
REMARK SMILES Nc1ccc(Cl)c(SC[C@H]2CC[C@H](C(=O)NCCCNC(=O)c3ccc(-c4c5nc(c(-c6ccc(S(=O)(=O)[O-])cc6)c6ccc([nH]6)c(-c6ccc(S(=O)(=O)[O-])cc6)c6nc(c(-c7ccc(S(=O)(=O)[O-])cc7)c7ccc4[nH]7)C=C6)C=C5)cc3)O2)c1
REMARK SMILES IDX 17 1 16 2 14 3 15 4 13 6 10 7 11 8 83 9 12 10 9 11 8 12 7 13
REMARK SMILES IDX 2 14 3 15 84 16 4 17 5 18 6 19 1 20 18 23 19 24 20 25 21 26
REMARK SMILES IDX 22 28 23 29 24 30 82 31 25 32 81 33 26 34 27 35 28 36 75 37
REMARK SMILES IDX 29 38 80 39 74 40 76 41 30 42 79 43 73 44 72 45 31 47 61 48
REMARK SMILES IDX 42 49 60 50 43 51 46 52 59 53 77 54 44 55 45 56 58 58 78 59
REMARK SMILES IDX 47 60 32 61 33 62 41 63 34 64 40 65 35 66 36 67 37 68 38 69
REMARK SMILES IDX 39 70 62 71 63 72 71 73 64 74 70 75 65 76 66 77 67 78 68 79
REMARK SMILES IDX 69 80 48 81 49 82 57 83 50 84 56 85 51 86 52 87 53 88 54 89
REMARK SMILES IDX 55 90
REMARK H PARENT 16 5 1 21 1 22 20 27 76 46 46 57
REMARK Flexibility Score: inf
ROOT
ATOM      1  C   UNL A   1      33.167  28.914  24.878  1.00  0.00     0.117 C 
ENDROOT
BRANCH   1   2
ATOM      2  N   UNL A   1      33.830  28.892  23.591  1.00  0.00    -0.354 N 
ATOM      3  C   UNL A   1      33.696  28.025  22.547  1.00  0.00     0.249 C 
ATOM      4  O   UNL A   1      34.402  28.223  21.553  1.00  0.00    -0.272 OA
ATOM      5  H   UNL A   1      34.481  29.616  23.448  1.00  0.00     0.163 HD
BRANCH   3   6
ATOM      6  C   UNL A   1      32.753  26.807  22.614  1.00  0.00     0.207 C 
ATOM      7  C   UNL A   1      33.010  24.485  22.448  1.00  0.00     0.129 C 
ATOM      8  C   UNL A   1      32.639  24.974  21.061  1.00  0.00     0.036 C 
ATOM      9  O   UNL A   1      33.283  25.642  23.244  1.00  0.00    -0.364 OA
ATOM     10  C   UNL A   1      32.220  26.411  21.247  1.00  0.00     0.045 C 
BRANCH   7  11
ATOM     11  C   UNL A   1      32.013  23.526  23.120  1.00  0.00     0.107 C 
BRANCH  11  12
ATOM     12  S   UNL A   1      32.695  22.011  23.888  1.00  0.00    -0.122 SA
BRANCH  12  13
ATOM     13  C   UNL A   1      34.197  22.538  24.753  1.00  0.00     0.028 A 
ATOM     14  C   UNL A   1      36.647  22.613  24.990  1.00  0.00     0.033 A 
ATOM     15  C   UNL A   1      36.516  23.439  26.101  1.00  0.00     0.027 A 
ATOM     16  C   UNL A   1      35.487  22.129  24.367  1.00  0.00     0.042 A 
ATOM     17  C   UNL A   1      35.253  23.841  26.531  1.00  0.00     0.024 A 
ATOM     18  C   UNL A   1      34.103  23.406  25.860  1.00  0.00     0.054 A 
ATOM     19  Cl  UNL A   1      32.589  23.987  26.478  1.00  0.00    -0.083 Cl
BRANCH  14  20
ATOM     20  N   UNL A   1      37.898  22.166  24.588  1.00  0.00    -0.399 N 
ATOM     21  H   UNL A   1      38.645  22.153  25.230  1.00  0.00     0.156 HD
ATOM     22  H   UNL A   1      38.039  21.860  23.663  1.00  0.00     0.156 HD
ENDBRANCH  14  20
ENDBRANCH  12  13
ENDBRANCH  11  12
ENDBRANCH   7  11
ENDBRANCH   3   6
ENDBRANCH   1   2
BRANCH   1  23
ATOM     23  C   UNL A   1      33.758  27.890  25.838  1.00  0.00     0.042 C 
BRANCH  23  24
ATOM     24  C   UNL A   1      33.534  28.264  27.297  1.00  0.00     0.118 C 
BRANCH  24  25
ATOM     25  N   UNL A   1      33.458  29.708  27.479  1.00  0.00    -0.352 N 
ATOM     26  C   UNL A   1      34.358  30.575  28.039  1.00  0.00     0.251 C 
ATOM     27  H   UNL A   1      32.630  30.127  27.146  1.00  0.00     0.163 HD
ATOM     28  O   UNL A   1      34.000  31.721  28.316  1.00  0.00    -0.269 OA
BRANCH  26  29
ATOM     29  C   UNL A   1      35.743  30.144  28.316  1.00  0.00     0.039 A 
ATOM     30  C   UNL A   1      36.684  30.179  27.284  1.00  0.00     0.014 A 
ATOM     31  C   UNL A   1      36.108  29.673  29.580  1.00  0.00     0.014 A 
ATOM     32  C   UNL A   1      38.001  29.790  27.533  1.00  0.00     0.010 A 
ATOM     33  C   UNL A   1      37.437  29.366  29.850  1.00  0.00     0.010 A 
ATOM     34  C   UNL A   1      38.394  29.408  28.826  1.00  0.00    -0.014 A 
BRANCH  34  35
ATOM     35  C   UNL A   1      39.795  29.022  29.127  1.00  0.00     0.031 A 
ATOM     36  C   UNL A   1      40.729  30.023  29.752  1.00  0.00     0.074 A 
ATOM     37  C   UNL A   1      40.239  27.798  28.783  1.00  0.00     0.049 A 
ATOM     38  N   UNL A   1      42.006  29.909  30.012  1.00  0.00    -0.248 NA
ATOM     39  C   UNL A   1      40.161  31.336  30.107  1.00  0.00     0.031 C 
ATOM     40  C   UNL A   1      39.436  26.752  28.142  1.00  0.00     0.029 A 
ATOM     41  N   UNL A   1      41.478  27.225  28.919  1.00  0.00    -0.354 N 
ATOM     42  C   UNL A   1      42.394  31.133  30.545  1.00  0.00     0.074 A 
ATOM     43  C   UNL A   1      41.233  31.995  30.521  1.00  0.00     0.031 C 
ATOM     44  C   UNL A   1      40.196  25.659  27.965  1.00  0.00     0.029 A 
ATOM     45  C   UNL A   1      41.547  25.938  28.439  1.00  0.00     0.049 A 
ATOM     46  H   UNL A   1      42.246  27.692  29.321  1.00  0.00     0.167 HD
ATOM     47  C   UNL A   1      43.604  31.500  31.033  1.00  0.00     0.031 A 
ATOM     48  C   UNL A   1      42.586  25.082  28.382  1.00  0.00     0.031 A 
ATOM     49  C   UNL A   1      44.750  30.634  31.070  1.00  0.00     0.049 A 
ATOM     50  C   UNL A   1      43.922  25.520  28.917  1.00  0.00     0.074 A 
ATOM     51  C   UNL A   1      46.010  30.895  31.580  1.00  0.00     0.029 A 
ATOM     52  N   UNL A   1      44.776  29.334  30.586  1.00  0.00    -0.354 N 
ATOM     53  N   UNL A   1      44.257  26.667  29.458  1.00  0.00    -0.248 NA
ATOM     54  C   UNL A   1      45.018  24.544  28.843  1.00  0.00     0.031 C 
ATOM     55  C   UNL A   1      46.810  29.767  31.367  1.00  0.00     0.029 A 
ATOM     56  C   UNL A   1      46.032  28.785  30.773  1.00  0.00     0.049 A 
ATOM     57  H   UNL A   1      44.012  28.870  30.171  1.00  0.00     0.167 HD
ATOM     58  C   UNL A   1      45.594  26.538  29.818  1.00  0.00     0.074 A 
ATOM     59  C   UNL A   1      46.001  25.198  29.445  1.00  0.00     0.031 C 
ATOM     60  C   UNL A   1      46.413  27.447  30.404  1.00  0.00     0.031 A 
BRANCH  47  61
ATOM     61  C   UNL A   1      43.744  32.898  31.574  1.00  0.00    -0.014 A 
ATOM     62  C   UNL A   1      44.130  33.961  30.738  1.00  0.00     0.010 A 
ATOM     63  C   UNL A   1      43.437  33.164  32.921  1.00  0.00     0.010 A 
ATOM     64  C   UNL A   1      44.241  35.257  31.245  1.00  0.00     0.020 A 
ATOM     65  C   UNL A   1      43.519  34.465  33.426  1.00  0.00     0.020 A 
ATOM     66  C   UNL A   1      43.934  35.501  32.587  1.00  0.00     0.054 A 
BRANCH  66  67
ATOM     67  S   UNL A   1      44.050  37.203  33.207  1.00  0.00     0.124 S 
ATOM     68  O   UNL A   1      42.933  37.255  34.148  1.00  0.00    -0.237 OA
ATOM     69  O   UNL A   1      45.380  37.236  33.809  1.00  0.00    -0.237 OA
ATOM     70  O   UNL A   1      43.891  38.020  32.007  1.00  0.00    -0.744 OA
ENDBRANCH  66  67
ENDBRANCH  47  61
BRANCH  48  71
ATOM     71  C   UNL A   1      42.405  23.721  27.808  1.00  0.00    -0.014 A 
ATOM     72  C   UNL A   1      42.017  22.647  28.628  1.00  0.00     0.010 A 
ATOM     73  C   UNL A   1      42.631  23.487  26.439  1.00  0.00     0.010 A 
ATOM     74  C   UNL A   1      41.889  21.360  28.099  1.00  0.00     0.020 A 
ATOM     75  C   UNL A   1      42.476  22.207  25.899  1.00  0.00     0.020 A 
ATOM     76  C   UNL A   1      42.123  21.148  26.738  1.00  0.00     0.054 A 
BRANCH  76  77
ATOM     77  S   UNL A   1      41.927  19.474  26.065  1.00  0.00     0.124 S 
ATOM     78  O   UNL A   1      40.495  19.427  25.786  1.00  0.00    -0.237 OA
ATOM     79  O   UNL A   1      42.800  19.499  24.894  1.00  0.00    -0.237 OA
ATOM     80  O   UNL A   1      42.383  18.614  27.155  1.00  0.00    -0.744 OA
ENDBRANCH  76  77
ENDBRANCH  48  71
BRANCH  60  81
ATOM     81  C   UNL A   1      47.817  27.007  30.721  1.00  0.00    -0.014 A 
ATOM     82  C   UNL A   1      48.871  27.233  29.819  1.00  0.00     0.010 A 
ATOM     83  C   UNL A   1      48.090  26.410  31.965  1.00  0.00     0.010 A 
ATOM     84  C   UNL A   1      50.172  26.839  30.145  1.00  0.00     0.020 A 
ATOM     85  C   UNL A   1      49.393  26.040  32.305  1.00  0.00     0.020 A 
ATOM     86  C   UNL A   1      50.424  26.245  31.386  1.00  0.00     0.054 A 
BRANCH  86  87
ATOM     87  S   UNL A   1      52.128  25.784  31.803  1.00  0.00     0.124 S 
ATOM     88  O   UNL A   1      51.978  24.382  32.183  1.00  0.00    -0.237 OA
ATOM     89  O   UNL A   1      52.841  26.025  30.551  1.00  0.00    -0.237 OA
ATOM     90  O   UNL A   1      52.475  26.692  32.895  1.00  0.00    -0.744 OA
ENDBRANCH  86  87
ENDBRANCH  60  81
ENDBRANCH  34  35
ENDBRANCH  26  29
ENDBRANCH  24  25
ENDBRANCH  23  24
ENDBRANCH   1  23
TORSDOF 17
ENDMDL
