MODEL 1
REMARK VINA RESULT:      -9.6      0.000      0.000
REMARK SMILES Cc1cnccc1N[C@@H]1C=C[C@@H](C(=O)NCCCNC(=O)c2ccc(-c3c4nc(c(-c5ccc(S(=O)(=O)[O-])cc5)c5ccc([nH]5)c(-c5ccc(S(=O)(=O)[O-])cc5)c5nc(c(-c6ccc(S(=O)(=O)[O-])cc6)c6ccc3[nH]6)C=C5)C=C4)cc2)C1
REMARK SMILES IDX 17 1 16 2 15 3 13 4 14 5 12 7 9 8 10 9 82 10 11 11 8 12 7 14
REMARK SMILES IDX 1 15 2 16 3 17 4 18 6 19 5 20 18 21 19 22 20 23 21 25 22 26
REMARK SMILES IDX 23 27 81 28 24 29 80 30 25 31 26 32 27 33 74 34 28 35 79 36
REMARK SMILES IDX 73 37 75 38 29 39 78 40 72 41 71 42 30 44 60 45 41 46 59 47
REMARK SMILES IDX 42 48 45 49 58 50 76 51 43 52 44 53 57 55 77 56 46 57 31 58
REMARK SMILES IDX 32 59 40 60 33 61 39 62 34 63 35 64 36 65 37 66 38 67 61 68
REMARK SMILES IDX 62 69 70 70 63 71 69 72 64 73 65 74 66 75 67 76 68 77 47 78
REMARK SMILES IDX 48 79 56 80 49 81 55 82 50 83 51 84 52 85 53 86 54 87
REMARK H PARENT 15 6 8 13 19 24 75 43 45 54
REMARK Flexibility Score: inf
ROOT
ATOM      1  C   UNL A   1      34.334  34.075  29.003  1.00  0.00     0.042 C 
ENDROOT
BRANCH   1   2
ATOM      2  C   UNL A   1      34.435  33.636  30.456  1.00  0.00     0.117 C 
BRANCH   2   3
ATOM      3  N   UNL A   1      34.526  34.765  31.360  1.00  0.00    -0.356 N 
ATOM      4  C   UNL A   1      35.303  34.976  32.452  1.00  0.00     0.227 C 
ATOM      5  O   UNL A   1      35.165  36.054  33.041  1.00  0.00    -0.274 OA
ATOM      6  H   UNL A   1      33.917  35.508  31.145  1.00  0.00     0.163 HD
BRANCH   4   7
ATOM      7  C   UNL A   1      36.332  33.963  32.944  1.00  0.00     0.103 C 
ATOM      8  C   UNL A   1      36.674  31.536  32.862  1.00  0.00     0.103 C 
ATOM      9  C   UNL A   1      37.542  32.251  31.879  1.00  0.00    -0.006 C 
ATOM     10  C   UNL A   1      35.772  32.629  33.455  1.00  0.00     0.046 C 
ATOM     11  C   UNL A   1      37.341  33.574  31.899  1.00  0.00    -0.016 C 
BRANCH   8  12
ATOM     12  N   UNL A   1      37.473  30.791  33.823  1.00  0.00    -0.379 N 
ATOM     13  H   UNL A   1      37.017  30.566  34.666  1.00  0.00     0.161 HD
BRANCH  12  14
ATOM     14  C   UNL A   1      38.781  30.357  33.718  1.00  0.00     0.040 A 
ATOM     15  C   UNL A   1      38.069  28.174  32.564  1.00  0.00     0.048 C 
ATOM     16  C   UNL A   1      39.081  29.087  33.193  1.00  0.00    -0.010 A 
ATOM     17  C   UNL A   1      40.413  28.658  33.214  1.00  0.00     0.116 A 
ATOM     18  N   UNL A   1      41.448  29.368  33.707  1.00  0.00    -0.264 NA
ATOM     19  C   UNL A   1      39.858  31.106  34.197  1.00  0.00     0.046 A 
ATOM     20  C   UNL A   1      41.143  30.584  34.185  1.00  0.00     0.113 A 
ENDBRANCH  12  14
ENDBRANCH   8  12
ENDBRANCH   4   7
ENDBRANCH   2   3
ENDBRANCH   1   2
BRANCH   1  21
ATOM     21  C   UNL A   1      34.923  33.079  28.014  1.00  0.00     0.118 C 
BRANCH  21  22
ATOM     22  N   UNL A   1      34.079  31.905  27.841  1.00  0.00    -0.352 N 
ATOM     23  C   UNL A   1      34.428  30.583  27.770  1.00  0.00     0.251 C 
ATOM     24  H   UNL A   1      33.115  32.089  27.765  1.00  0.00     0.163 HD
ATOM     25  O   UNL A   1      33.588  29.755  27.404  1.00  0.00    -0.269 OA
BRANCH  23  26
ATOM     26  C   UNL A   1      35.797  30.147  28.112  1.00  0.00     0.039 A 
ATOM     27  C   UNL A   1      36.771  30.124  27.112  1.00  0.00     0.014 A 
ATOM     28  C   UNL A   1      36.117  29.738  29.410  1.00  0.00     0.014 A 
ATOM     29  C   UNL A   1      38.076  29.738  27.425  1.00  0.00     0.010 A 
ATOM     30  C   UNL A   1      37.435  29.441  29.740  1.00  0.00     0.010 A 
ATOM     31  C   UNL A   1      38.425  29.418  28.747  1.00  0.00    -0.014 A 
BRANCH  31  32
ATOM     32  C   UNL A   1      39.810  29.025  29.106  1.00  0.00     0.031 A 
ATOM     33  C   UNL A   1      40.715  30.007  29.801  1.00  0.00     0.074 A 
ATOM     34  C   UNL A   1      40.268  27.805  28.761  1.00  0.00     0.049 A 
ATOM     35  N   UNL A   1      41.965  29.866  30.158  1.00  0.00    -0.248 NA
ATOM     36  C   UNL A   1      40.150  31.332  30.111  1.00  0.00     0.031 C 
ATOM     37  C   UNL A   1      39.503  26.782  28.045  1.00  0.00     0.029 A 
ATOM     38  N   UNL A   1      41.492  27.220  28.966  1.00  0.00    -0.354 N 
ATOM     39  C   UNL A   1      42.341  31.085  30.713  1.00  0.00     0.074 A 
ATOM     40  C   UNL A   1      41.204  31.971  30.596  1.00  0.00     0.031 C 
ATOM     41  C   UNL A   1      40.263  25.685  27.901  1.00  0.00     0.029 A 
ATOM     42  C   UNL A   1      41.580  25.938  28.477  1.00  0.00     0.049 A 
ATOM     43  H   UNL A   1      42.238  27.675  29.420  1.00  0.00     0.167 HD
ATOM     44  C   UNL A   1      43.517  31.430  31.289  1.00  0.00     0.031 A 
ATOM     45  C   UNL A   1      42.604  25.063  28.492  1.00  0.00     0.031 A 
ATOM     46  C   UNL A   1      44.637  30.538  31.421  1.00  0.00     0.049 A 
ATOM     47  C   UNL A   1      43.898  25.465  29.146  1.00  0.00     0.074 A 
ATOM     48  C   UNL A   1      45.854  30.770  32.040  1.00  0.00     0.029 A 
ATOM     49  N   UNL A   1      44.677  29.242  30.929  1.00  0.00    -0.354 N 
ATOM     50  N   UNL A   1      44.212  26.601  29.721  1.00  0.00    -0.248 NA
ATOM     51  C   UNL A   1      44.970  24.461  29.166  1.00  0.00     0.031 C 
ATOM     52  C   UNL A   1      46.647  29.629  31.880  1.00  0.00     0.029 A 
ATOM     53  C   UNL A   1      45.904  28.667  31.213  1.00  0.00     0.049 A 
ATOM     54  H   UNL A   1      43.942  28.797  30.448  1.00  0.00     0.167 HD
ATOM     55  C   UNL A   1      45.507  26.438  30.199  1.00  0.00     0.074 A 
ATOM     56  C   UNL A   1      45.912  25.090  29.856  1.00  0.00     0.031 C 
ATOM     57  C   UNL A   1      46.289  27.323  30.866  1.00  0.00     0.031 A 
BRANCH  44  58
ATOM     58  C   UNL A   1      43.647  32.833  31.821  1.00  0.00    -0.014 A 
ATOM     59  C   UNL A   1      43.415  33.121  33.179  1.00  0.00     0.010 A 
ATOM     60  C   UNL A   1      44.035  33.876  30.959  1.00  0.00     0.010 A 
ATOM     61  C   UNL A   1      43.525  34.430  33.655  1.00  0.00     0.020 A 
ATOM     62  C   UNL A   1      44.176  35.182  31.438  1.00  0.00     0.020 A 
ATOM     63  C   UNL A   1      43.902  35.454  32.780  1.00  0.00     0.054 A 
BRANCH  63  64
ATOM     64  S   UNL A   1      44.056  37.140  33.430  1.00  0.00     0.124 S 
ATOM     65  O   UNL A   1      44.403  37.893  32.228  1.00  0.00    -0.237 OA
ATOM     66  O   UNL A   1      42.724  37.398  33.969  1.00  0.00    -0.237 OA
ATOM     67  O   UNL A   1      45.119  37.032  34.426  1.00  0.00    -0.744 OA
ENDBRANCH  63  64
ENDBRANCH  44  58
BRANCH  45  68
ATOM     68  C   UNL A   1      42.436  23.713  27.890  1.00  0.00    -0.014 A 
ATOM     69  C   UNL A   1      42.851  23.464  26.570  1.00  0.00     0.010 A 
ATOM     70  C   UNL A   1      41.880  22.662  28.641  1.00  0.00     0.010 A 
ATOM     71  C   UNL A   1      42.696  22.194  26.006  1.00  0.00     0.020 A 
ATOM     72  C   UNL A   1      41.749  21.383  28.090  1.00  0.00     0.020 A 
ATOM     73  C   UNL A   1      42.149  21.161  26.771  1.00  0.00     0.054 A 
BRANCH  73  74
ATOM     74  S   UNL A   1      42.009  19.506  26.039  1.00  0.00     0.124 S 
ATOM     75  O   UNL A   1      42.531  18.658  27.106  1.00  0.00    -0.237 OA
ATOM     76  O   UNL A   1      40.576  19.393  25.785  1.00  0.00    -0.237 OA
ATOM     77  O   UNL A   1      42.840  19.592  24.841  1.00  0.00    -0.744 OA
ENDBRANCH  73  74
ENDBRANCH  45  68
BRANCH  57  78
ATOM     78  C   UNL A   1      47.649  26.851  31.305  1.00  0.00    -0.014 A 
ATOM     79  C   UNL A   1      47.816  26.090  32.475  1.00  0.00     0.010 A 
ATOM     80  C   UNL A   1      48.769  27.128  30.498  1.00  0.00     0.010 A 
ATOM     81  C   UNL A   1      49.086  25.641  32.847  1.00  0.00     0.020 A 
ATOM     82  C   UNL A   1      50.034  26.656  30.853  1.00  0.00     0.020 A 
ATOM     83  C   UNL A   1      50.187  25.927  32.034  1.00  0.00     0.054 A 
BRANCH  83  84
ATOM     84  S   UNL A   1      51.817  25.296  32.517  1.00  0.00     0.124 S 
ATOM     85  O   UNL A   1      52.530  25.289  31.242  1.00  0.00    -0.237 OA
ATOM     86  O   UNL A   1      52.272  26.291  33.486  1.00  0.00    -0.237 OA
ATOM     87  O   UNL A   1      51.526  23.978  33.076  1.00  0.00    -0.744 OA
ENDBRANCH  83  84
ENDBRANCH  57  78
ENDBRANCH  31  32
ENDBRANCH  23  26
ENDBRANCH  21  22
ENDBRANCH   1  21
TORSDOF 15
ENDMDL
MODEL 2
REMARK VINA RESULT:      -9.5      3.719     10.756
REMARK SMILES Cc1cnccc1N[C@@H]1C=C[C@@H](C(=O)NCCCNC(=O)c2ccc(-c3c4nc(c(-c5ccc(S(=O)(=O)[O-])cc5)c5ccc([nH]5)c(-c5ccc(S(=O)(=O)[O-])cc5)c5nc(c(-c6ccc(S(=O)(=O)[O-])cc6)c6ccc3[nH]6)C=C5)C=C4)cc2)C1
REMARK SMILES IDX 17 1 16 2 15 3 13 4 14 5 12 7 9 8 10 9 82 10 11 11 8 12 7 14
REMARK SMILES IDX 1 15 2 16 3 17 4 18 6 19 5 20 18 21 19 22 20 23 21 25 22 26
REMARK SMILES IDX 23 27 81 28 24 29 80 30 25 31 26 32 27 33 74 34 28 35 79 36
REMARK SMILES IDX 73 37 75 38 29 39 78 40 72 41 71 42 30 44 60 45 41 46 59 47
REMARK SMILES IDX 42 48 45 49 58 50 76 51 43 52 44 53 57 55 77 56 46 57 31 58
REMARK SMILES IDX 32 59 40 60 33 61 39 62 34 63 35 64 36 65 37 66 38 67 61 68
REMARK SMILES IDX 62 69 70 70 63 71 69 72 64 73 65 74 66 75 67 76 68 77 47 78
REMARK SMILES IDX 48 79 56 80 49 81 55 82 50 83 51 84 52 85 53 86 54 87
REMARK H PARENT 15 6 8 13 19 24 75 43 45 54
REMARK Flexibility Score: inf
ROOT
ATOM      1  C   UNL A   1      35.557  23.809  26.001  1.00  0.00     0.042 C 
ENDROOT
BRANCH   1   2
ATOM      2  C   UNL A   1      34.255  23.844  25.214  1.00  0.00     0.117 C 
BRANCH   2   3
ATOM      3  N   UNL A   1      33.103  24.008  26.078  1.00  0.00    -0.356 N 
ATOM      4  C   UNL A   1      32.252  25.052  26.244  1.00  0.00     0.227 C 
ATOM      5  O   UNL A   1      31.341  24.910  27.067  1.00  0.00    -0.274 OA
ATOM      6  H   UNL A   1      32.904  23.228  26.644  1.00  0.00     0.163 HD
BRANCH   4   7
ATOM      7  C   UNL A   1      32.367  26.349  25.448  1.00  0.00     0.103 C 
ATOM      8  C   UNL A   1      31.609  28.673  25.644  1.00  0.00     0.103 C 
ATOM      9  C   UNL A   1      33.049  28.528  26.011  1.00  0.00    -0.006 C 
ATOM     10  C   UNL A   1      31.114  27.235  25.422  1.00  0.00     0.046 C 
ATOM     11  C   UNL A   1      33.462  27.257  25.933  1.00  0.00    -0.016 C 
BRANCH   8  12
ATOM     12  N   UNL A   1      31.444  29.575  24.515  1.00  0.00    -0.379 N 
ATOM     13  H   UNL A   1      32.274  29.976  24.169  1.00  0.00     0.161 HD
BRANCH  12  14
ATOM     14  C   UNL A   1      30.285  29.949  23.861  1.00  0.00     0.040 A 
ATOM     15  C   UNL A   1      30.427  27.947  22.255  1.00  0.00     0.048 C 
ATOM     16  C   UNL A   1      29.825  29.234  22.740  1.00  0.00    -0.010 A 
ATOM     17  C   UNL A   1      28.708  29.724  22.053  1.00  0.00     0.116 A 
ATOM     18  N   UNL A   1      28.028  30.843  22.377  1.00  0.00    -0.264 NA
ATOM     19  C   UNL A   1      29.560  31.088  24.216  1.00  0.00     0.046 A 
ATOM     20  C   UNL A   1      28.472  31.498  23.460  1.00  0.00     0.113 A 
ENDBRANCH  12  14
ENDBRANCH   8  12
ENDBRANCH   4   7
ENDBRANCH   2   3
ENDBRANCH   1   2
BRANCH   1  21
ATOM     21  C   UNL A   1      36.805  23.894  25.133  1.00  0.00     0.118 C 
BRANCH  21  22
ATOM     22  N   UNL A   1      37.778  22.861  25.459  1.00  0.00    -0.352 N 
ATOM     23  C   UNL A   1      38.988  22.972  26.092  1.00  0.00     0.251 C 
ATOM     24  H   UNL A   1      37.531  21.949  25.185  1.00  0.00     0.163 HD
ATOM     25  O   UNL A   1      39.765  22.013  26.082  1.00  0.00    -0.269 OA
BRANCH  23  26
ATOM     26  C   UNL A   1      39.371  24.228  26.769  1.00  0.00     0.039 A 
ATOM     27  C   UNL A   1      38.963  24.439  28.087  1.00  0.00     0.014 A 
ATOM     28  C   UNL A   1      40.109  25.208  26.099  1.00  0.00     0.014 A 
ATOM     29  C   UNL A   1      39.337  25.611  28.749  1.00  0.00     0.010 A 
ATOM     30  C   UNL A   1      40.557  26.331  26.786  1.00  0.00     0.010 A 
ATOM     31  C   UNL A   1      40.159  26.555  28.111  1.00  0.00    -0.014 A 
BRANCH  31  32
ATOM     32  C   UNL A   1      40.585  27.797  28.803  1.00  0.00     0.031 A 
ATOM     33  C   UNL A   1      41.962  27.887  29.407  1.00  0.00     0.074 A 
ATOM     34  C   UNL A   1      39.719  28.821  28.931  1.00  0.00     0.049 A 
ATOM     35  N   UNL A   1      42.502  28.867  30.084  1.00  0.00    -0.248 NA
ATOM     36  C   UNL A   1      42.836  26.711  29.256  1.00  0.00     0.031 C 
ATOM     37  C   UNL A   1      38.343  28.836  28.428  1.00  0.00     0.029 A 
ATOM     38  N   UNL A   1      39.868  30.048  29.526  1.00  0.00    -0.354 N 
ATOM     39  C   UNL A   1      43.766  28.420  30.454  1.00  0.00     0.074 A 
ATOM     40  C   UNL A   1      43.891  27.061  29.976  1.00  0.00     0.031 C 
ATOM     41  C   UNL A   1      37.787  30.026  28.707  1.00  0.00     0.029 A 
ATOM     42  C   UNL A   1      38.749  30.842  29.440  1.00  0.00     0.049 A 
ATOM     43  H   UNL A   1      40.697  30.334  29.972  1.00  0.00     0.167 HD
ATOM     44  C   UNL A   1      44.743  29.086  31.113  1.00  0.00     0.031 A 
ATOM     45  C   UNL A   1      38.522  32.089  29.898  1.00  0.00     0.031 A 
ATOM     46  C   UNL A   1      44.620  30.444  31.570  1.00  0.00     0.049 A 
ATOM     47  C   UNL A   1      39.626  32.813  30.619  1.00  0.00     0.074 A 
ATOM     48  C   UNL A   1      45.572  31.232  32.196  1.00  0.00     0.029 A 
ATOM     49  N   UNL A   1      43.477  31.219  31.446  1.00  0.00    -0.354 N 
ATOM     50  N   UNL A   1      40.836  32.396  30.904  1.00  0.00    -0.248 NA
ATOM     51  C   UNL A   1      39.338  34.183  31.066  1.00  0.00     0.031 C 
ATOM     52  C   UNL A   1      44.987  32.467  32.493  1.00  0.00     0.029 A 
ATOM     53  C   UNL A   1      43.692  32.470  32.001  1.00  0.00     0.049 A 
ATOM     54  H   UNL A   1      42.637  30.924  31.026  1.00  0.00     0.167 HD
ATOM     55  C   UNL A   1      41.465  33.461  31.537  1.00  0.00     0.074 A 
ATOM     56  C   UNL A   1      40.506  34.546  31.581  1.00  0.00     0.031 C 
ATOM     57  C   UNL A   1      42.725  33.538  32.033  1.00  0.00     0.031 A 
BRANCH  44  58
ATOM     58  C   UNL A   1      46.031  28.352  31.378  1.00  0.00    -0.014 A 
ATOM     59  C   UNL A   1      47.075  28.350  30.433  1.00  0.00     0.010 A 
ATOM     60  C   UNL A   1      46.216  27.678  32.599  1.00  0.00     0.010 A 
ATOM     61  C   UNL A   1      48.258  27.652  30.685  1.00  0.00     0.020 A 
ATOM     62  C   UNL A   1      47.410  27.002  32.868  1.00  0.00     0.020 A 
ATOM     63  C   UNL A   1      48.417  26.979  31.901  1.00  0.00     0.054 A 
BRANCH  63  64
ATOM     64  S   UNL A   1      49.972  26.097  32.209  1.00  0.00     0.124 S 
ATOM     65  O   UNL A   1      50.926  26.896  31.445  1.00  0.00    -0.237 OA
ATOM     66  O   UNL A   1      50.105  26.181  33.661  1.00  0.00    -0.237 OA
ATOM     67  O   UNL A   1      49.720  24.757  31.685  1.00  0.00    -0.744 OA
ENDBRANCH  63  64
ENDBRANCH  44  58
BRANCH  45  68
ATOM     68  C   UNL A   1      37.204  32.738  29.664  1.00  0.00    -0.014 A 
ATOM     69  C   UNL A   1      36.235  32.772  30.682  1.00  0.00     0.010 A 
ATOM     70  C   UNL A   1      36.918  33.345  28.428  1.00  0.00     0.010 A 
ATOM     71  C   UNL A   1      34.998  33.385  30.463  1.00  0.00     0.020 A 
ATOM     72  C   UNL A   1      35.692  33.984  28.214  1.00  0.00     0.020 A 
ATOM     73  C   UNL A   1      34.735  33.990  29.231  1.00  0.00     0.054 A 
BRANCH  73  74
ATOM     74  S   UNL A   1      33.145  34.830  28.987  1.00  0.00     0.124 S 
ATOM     75  O   UNL A   1      32.564  34.771  30.324  1.00  0.00    -0.237 OA
ATOM     76  O   UNL A   1      33.555  36.155  28.532  1.00  0.00    -0.237 OA
ATOM     77  O   UNL A   1      32.479  34.013  27.976  1.00  0.00    -0.744 OA
ENDBRANCH  73  74
ENDBRANCH  45  68
BRANCH  57  78
ATOM     78  C   UNL A   1      43.155  34.850  32.633  1.00  0.00    -0.014 A 
ATOM     79  C   UNL A   1      43.683  35.879  31.834  1.00  0.00     0.010 A 
ATOM     80  C   UNL A   1      42.971  35.072  34.010  1.00  0.00     0.010 A 
ATOM     81  C   UNL A   1      44.050  37.098  32.411  1.00  0.00     0.020 A 
ATOM     82  C   UNL A   1      43.311  36.299  34.583  1.00  0.00     0.020 A 
ATOM     83  C   UNL A   1      43.862  37.300  33.781  1.00  0.00     0.054 A 
BRANCH  83  84
ATOM     84  S   UNL A   1      44.307  38.906  34.497  1.00  0.00     0.124 S 
ATOM     85  O   UNL A   1      45.696  39.054  34.071  1.00  0.00    -0.237 OA
ATOM     86  O   UNL A   1      43.354  39.814  33.863  1.00  0.00    -0.237 OA
ATOM     87  O   UNL A   1      44.112  38.711  35.932  1.00  0.00    -0.744 OA
ENDBRANCH  83  84
ENDBRANCH  57  78
ENDBRANCH  31  32
ENDBRANCH  23  26
ENDBRANCH  21  22
ENDBRANCH   1  21
TORSDOF 15
ENDMDL
MODEL 3
REMARK VINA RESULT:      -9.5      4.420      7.318
REMARK SMILES Cc1cnccc1N[C@@H]1C=C[C@@H](C(=O)NCCCNC(=O)c2ccc(-c3c4nc(c(-c5ccc(S(=O)(=O)[O-])cc5)c5ccc([nH]5)c(-c5ccc(S(=O)(=O)[O-])cc5)c5nc(c(-c6ccc(S(=O)(=O)[O-])cc6)c6ccc3[nH]6)C=C5)C=C4)cc2)C1
REMARK SMILES IDX 17 1 16 2 15 3 13 4 14 5 12 7 9 8 10 9 82 10 11 11 8 12 7 14
REMARK SMILES IDX 1 15 2 16 3 17 4 18 6 19 5 20 18 21 19 22 20 23 21 25 22 26
REMARK SMILES IDX 23 27 81 28 24 29 80 30 25 31 26 32 27 33 74 34 28 35 79 36
REMARK SMILES IDX 73 37 75 38 29 39 78 40 72 41 71 42 30 44 60 45 41 46 59 47
REMARK SMILES IDX 42 48 45 49 58 50 76 51 43 52 44 53 57 55 77 56 46 57 31 58
REMARK SMILES IDX 32 59 40 60 33 61 39 62 34 63 35 64 36 65 37 66 38 67 61 68
REMARK SMILES IDX 62 69 70 70 63 71 69 72 64 73 65 74 66 75 67 76 68 77 47 78
REMARK SMILES IDX 48 79 56 80 49 81 55 82 50 83 51 84 52 85 53 86 54 87
REMARK H PARENT 15 6 8 13 19 24 75 43 45 54
REMARK Flexibility Score: inf
ROOT
ATOM      1  C   UNL A   1      34.349  30.842  27.460  1.00  0.00     0.042 C 
ENDROOT
BRANCH   1   2
ATOM      2  C   UNL A   1      33.198  29.936  27.049  1.00  0.00     0.117 C 
BRANCH   2   3
ATOM      3  N   UNL A   1      33.645  28.832  26.223  1.00  0.00    -0.356 N 
ATOM      4  C   UNL A   1      32.992  28.088  25.294  1.00  0.00     0.227 C 
ATOM      5  O   UNL A   1      33.636  27.194  24.736  1.00  0.00    -0.274 OA
ATOM      6  H   UNL A   1      34.585  28.576  26.360  1.00  0.00     0.163 HD
BRANCH   4   7
ATOM      7  C   UNL A   1      31.535  28.334  24.912  1.00  0.00     0.103 C 
ATOM      8  C   UNL A   1      30.215  28.597  22.862  1.00  0.00     0.103 C 
ATOM      9  C   UNL A   1      30.045  27.239  23.459  1.00  0.00    -0.006 C 
ATOM     10  C   UNL A   1      31.302  29.268  23.717  1.00  0.00     0.046 C 
ATOM     11  C   UNL A   1      30.784  27.080  24.564  1.00  0.00    -0.016 C 
BRANCH   8  12
ATOM     12  N   UNL A   1      28.945  29.303  22.794  1.00  0.00    -0.379 N 
ATOM     13  H   UNL A   1      28.179  28.834  23.195  1.00  0.00     0.161 HD
BRANCH  12  14
ATOM     14  C   UNL A   1      28.664  30.540  22.244  1.00  0.00     0.040 A 
ATOM     15  C   UNL A   1      29.251  31.756  24.431  1.00  0.00     0.048 C 
ATOM     16  C   UNL A   1      28.731  31.709  23.023  1.00  0.00    -0.010 A 
ATOM     17  C   UNL A   1      28.330  32.918  22.442  1.00  0.00     0.116 A 
ATOM     18  N   UNL A   1      27.873  33.057  21.181  1.00  0.00    -0.264 NA
ATOM     19  C   UNL A   1      28.224  30.690  20.927  1.00  0.00     0.046 A 
ATOM     20  C   UNL A   1      27.836  31.933  20.449  1.00  0.00     0.113 A 
ENDBRANCH  12  14
ENDBRANCH   8  12
ENDBRANCH   4   7
ENDBRANCH   2   3
ENDBRANCH   1   2
BRANCH   1  21
ATOM     21  C   UNL A   1      35.506  30.109  28.123  1.00  0.00     0.118 C 
BRANCH  21  22
ATOM     22  N   UNL A   1      35.519  30.285  29.568  1.00  0.00    -0.352 N 
ATOM     23  C   UNL A   1      36.511  30.011  30.472  1.00  0.00     0.251 C 
ATOM     24  H   UNL A   1      34.693  30.658  29.954  1.00  0.00     0.163 HD
ATOM     25  O   UNL A   1      36.251  30.028  31.679  1.00  0.00    -0.269 OA
BRANCH  23  26
ATOM     26  C   UNL A   1      37.876  29.683  30.013  1.00  0.00     0.039 A 
ATOM     27  C   UNL A   1      38.818  29.244  30.945  1.00  0.00     0.014 A 
ATOM     28  C   UNL A   1      38.236  29.831  28.670  1.00  0.00     0.014 A 
ATOM     29  C   UNL A   1      40.106  28.908  30.523  1.00  0.00     0.010 A 
ATOM     30  C   UNL A   1      39.490  29.409  28.237  1.00  0.00     0.010 A 
ATOM     31  C   UNL A   1      40.444  28.963  29.162  1.00  0.00    -0.014 A 
BRANCH  31  32
ATOM     32  C   UNL A   1      41.800  28.589  28.689  1.00  0.00     0.031 A 
ATOM     33  C   UNL A   1      42.883  29.632  28.608  1.00  0.00     0.074 A 
ATOM     34  C   UNL A   1      42.042  27.326  28.286  1.00  0.00     0.049 A 
ATOM     35  N   UNL A   1      44.115  29.511  28.184  1.00  0.00    -0.248 NA
ATOM     36  C   UNL A   1      42.529  30.998  29.033  1.00  0.00     0.031 C 
ATOM     37  C   UNL A   1      41.063  26.237  28.274  1.00  0.00     0.029 A 
ATOM     38  N   UNL A   1      43.189  26.746  27.807  1.00  0.00    -0.354 N 
ATOM     39  C   UNL A   1      44.672  30.782  28.271  1.00  0.00     0.074 A 
ATOM     40  C   UNL A   1      43.630  31.670  28.736  1.00  0.00     0.031 C 
ATOM     41  C   UNL A   1      41.660  25.114  27.843  1.00  0.00     0.029 A 
ATOM     42  C   UNL A   1      43.050  25.410  27.511  1.00  0.00     0.049 A 
ATOM     43  H   UNL A   1      44.033  27.238  27.685  1.00  0.00     0.167 HD
ATOM     44  C   UNL A   1      45.943  31.172  28.011  1.00  0.00     0.031 A 
ATOM     45  C   UNL A   1      43.940  24.523  27.027  1.00  0.00     0.031 A 
ATOM     46  C   UNL A   1      46.980  30.280  27.568  1.00  0.00     0.049 A 
ATOM     47  C   UNL A   1      45.348  24.976  26.754  1.00  0.00     0.074 A 
ATOM     48  C   UNL A   1      48.315  30.562  27.331  1.00  0.00     0.029 A 
ATOM     49  N   UNL A   1      46.802  28.932  27.299  1.00  0.00    -0.354 N 
ATOM     50  N   UNL A   1      45.873  26.169  26.903  1.00  0.00    -0.248 NA
ATOM     51  C   UNL A   1      46.288  23.960  26.263  1.00  0.00     0.031 C 
ATOM     52  C   UNL A   1      48.932  29.394  26.873  1.00  0.00     0.029 A 
ATOM     53  C   UNL A   1      47.996  28.371  26.880  1.00  0.00     0.049 A 
ATOM     54  H   UNL A   1      45.951  28.445  27.391  1.00  0.00     0.167 HD
ATOM     55  C   UNL A   1      47.211  26.040  26.553  1.00  0.00     0.074 A 
ATOM     56  C   UNL A   1      47.419  24.652  26.197  1.00  0.00     0.031 C 
ATOM     57  C   UNL A   1      48.184  26.985  26.532  1.00  0.00     0.031 A 
BRANCH  44  58
ATOM     58  C   UNL A   1      46.277  32.628  28.200  1.00  0.00    -0.014 A 
ATOM     59  C   UNL A   1      46.127  33.552  27.148  1.00  0.00     0.010 A 
ATOM     60  C   UNL A   1      46.720  33.089  29.453  1.00  0.00     0.010 A 
ATOM     61  C   UNL A   1      46.455  34.897  27.333  1.00  0.00     0.020 A 
ATOM     62  C   UNL A   1      47.021  34.440  29.652  1.00  0.00     0.020 A 
ATOM     63  C   UNL A   1      46.904  35.332  28.584  1.00  0.00     0.054 A 
BRANCH  63  64
ATOM     64  S   UNL A   1      47.304  37.087  28.801  1.00  0.00     0.124 S 
ATOM     65  O   UNL A   1      47.874  37.101  30.146  1.00  0.00    -0.237 OA
ATOM     66  O   UNL A   1      48.250  37.337  27.717  1.00  0.00    -0.237 OA
ATOM     67  O   UNL A   1      46.013  37.757  28.666  1.00  0.00    -0.744 OA
ENDBRANCH  63  64
ENDBRANCH  44  58
BRANCH  45  68
ATOM     68  C   UNL A   1      43.531  23.110  26.797  1.00  0.00    -0.014 A 
ATOM     69  C   UNL A   1      43.698  22.516  25.534  1.00  0.00     0.010 A 
ATOM     70  C   UNL A   1      42.991  22.345  27.847  1.00  0.00     0.010 A 
ATOM     71  C   UNL A   1      43.317  21.188  25.319  1.00  0.00     0.020 A 
ATOM     72  C   UNL A   1      42.635  21.008  27.643  1.00  0.00     0.020 A 
ATOM     73  C   UNL A   1      42.790  20.442  26.376  1.00  0.00     0.054 A 
BRANCH  73  74
ATOM     74  S   UNL A   1      42.355  18.703  26.091  1.00  0.00     0.124 S 
ATOM     75  O   UNL A   1      42.591  18.112  27.404  1.00  0.00    -0.237 OA
ATOM     76  O   UNL A   1      40.957  18.792  25.677  1.00  0.00    -0.237 OA
ATOM     77  O   UNL A   1      43.281  18.288  25.040  1.00  0.00    -0.744 OA
ENDBRANCH  73  74
ENDBRANCH  45  68
BRANCH  57  78
ATOM     78  C   UNL A   1      49.571  26.544  26.148  1.00  0.00    -0.014 A 
ATOM     79  C   UNL A   1      50.111  26.849  24.888  1.00  0.00     0.010 A 
ATOM     80  C   UNL A   1      50.363  25.863  27.091  1.00  0.00     0.010 A 
ATOM     81  C   UNL A   1      51.411  26.451  24.564  1.00  0.00     0.020 A 
ATOM     82  C   UNL A   1      51.673  25.490  26.781  1.00  0.00     0.020 A 
ATOM     83  C   UNL A   1      52.184  25.774  25.513  1.00  0.00     0.054 A 
BRANCH  83  84
ATOM     84  S   UNL A   1      53.883  25.307  25.085  1.00  0.00     0.124 S 
ATOM     85  O   UNL A   1      54.104  26.063  23.854  1.00  0.00    -0.237 OA
ATOM     86  O   UNL A   1      54.643  25.761  26.247  1.00  0.00    -0.237 OA
ATOM     87  O   UNL A   1      53.813  23.857  24.922  1.00  0.00    -0.744 OA
ENDBRANCH  83  84
ENDBRANCH  57  78
ENDBRANCH  31  32
ENDBRANCH  23  26
ENDBRANCH  21  22
ENDBRANCH   1  21
TORSDOF 15
ENDMDL
