MODEL 1
REMARK VINA RESULT:     -12.2      0.000      0.000
REMARK SMILES CC(C)(C)c1ccc(NS(=O)(=O)c2cccc(C(=O)NCCCNC(=O)c3ccc(-c4c5nc(c(-c6ccc(S(=O)(=O)[O-])cc6)c6ccc([nH]6)c(-c6ccc(S(=O)(=O)[O-])cc6)c6nc(c(-c7ccc(S(=O)(=O)[O-])cc7)c7ccc4[nH]7)C=C6)C=C5)cc3)c2)cc1
REMARK SMILES IDX 21 1 20 2 18 3 19 4 17 6 13 7 14 8 87 9 15 10 16 11 10 12
REMARK SMILES IDX 11 13 12 14 9 15 8 17 5 18 6 19 89 20 7 21 88 22 2 23 1 24
REMARK SMILES IDX 3 25 4 26 22 27 23 28 24 29 25 30 26 32 27 33 28 34 86 35
REMARK SMILES IDX 29 36 85 37 30 38 31 39 32 40 79 41 33 42 84 43 78 44 80 45
REMARK SMILES IDX 34 46 83 47 77 48 76 49 35 51 65 52 46 53 64 54 47 55 50 56
REMARK SMILES IDX 63 57 81 58 48 59 49 60 62 62 82 63 51 64 36 65 37 66 45 67
REMARK SMILES IDX 38 68 44 69 39 70 40 71 41 72 42 73 43 74 66 75 67 76 75 77
REMARK SMILES IDX 68 78 74 79 69 80 70 81 71 82 72 83 73 84 52 85 53 86 61 87
REMARK SMILES IDX 54 88 60 89 55 90 56 91 57 92 58 93 59 94
REMARK H PARENT 20 5 9 16 24 31 80 50 50 61
REMARK Flexibility Score: inf
ROOT
ATOM      1  C   UNL A   1      38.091  23.746  26.021  1.00  0.00     0.118 C 
ENDROOT
BRANCH   1   2
ATOM      2  N   UNL A   1      37.459  23.527  24.731  1.00  0.00    -0.352 N 
ATOM      3  C   UNL A   1      36.164  23.250  24.381  1.00  0.00     0.251 C 
ATOM      4  O   UNL A   1      35.899  23.118  23.187  1.00  0.00    -0.269 OA
ATOM      5  H   UNL A   1      38.077  23.589  23.966  1.00  0.00     0.163 HD
BRANCH   3   6
ATOM      6  C   UNL A   1      35.061  23.217  25.378  1.00  0.00     0.041 A 
ATOM      7  C   UNL A   1      32.882  23.821  26.233  1.00  0.00     0.088 A 
ATOM      8  C   UNL A   1      32.932  22.751  27.134  1.00  0.00     0.022 A 
ATOM      9  C   UNL A   1      33.953  24.070  25.365  1.00  0.00     0.036 A 
ATOM     10  C   UNL A   1      34.097  21.998  27.248  1.00  0.00     0.002 A 
ATOM     11  C   UNL A   1      35.154  22.228  26.370  1.00  0.00     0.014 A 
BRANCH   7  12
ATOM     12  S   UNL A   1      31.383  24.778  26.109  1.00  0.00     0.261 S 
ATOM     13  O   UNL A   1      31.702  26.130  26.512  1.00  0.00    -0.201 OA
ATOM     14  O   UNL A   1      30.342  24.040  26.800  1.00  0.00    -0.201 OA
BRANCH  12  15
ATOM     15  N   UNL A   1      30.924  24.829  24.463  1.00  0.00    -0.280 N 
ATOM     16  H   UNL A   1      31.046  24.046  23.879  1.00  0.00     0.180 HD
BRANCH  15  17
ATOM     17  C   UNL A   1      30.356  26.043  23.956  1.00  0.00     0.049 A 
ATOM     18  C   UNL A   1      29.357  28.591  23.229  1.00  0.00    -0.042 A 
ATOM     19  C   UNL A   1      30.724  28.283  23.134  1.00  0.00     0.006 A 
ATOM     20  C   UNL A   1      28.493  27.557  23.637  1.00  0.00     0.006 A 
ATOM     21  C   UNL A   1      31.208  27.014  23.447  1.00  0.00     0.027 A 
ATOM     22  C   UNL A   1      28.989  26.299  24.019  1.00  0.00     0.027 A 
BRANCH  18  23
ATOM     23  C   UNL A   1      28.878  30.030  22.962  1.00  0.00    -0.013 C 
ATOM     24  C   UNL A   1      29.516  31.082  23.893  1.00  0.00     0.016 C 
ATOM     25  C   UNL A   1      27.347  30.152  23.132  1.00  0.00     0.016 C 
ATOM     26  C   UNL A   1      29.250  30.394  21.509  1.00  0.00     0.016 C 
ENDBRANCH  18  23
ENDBRANCH  15  17
ENDBRANCH  12  15
ENDBRANCH   7  12
ENDBRANCH   3   6
ENDBRANCH   1   2
BRANCH   1  27
ATOM     27  C   UNL A   1      39.079  22.623  26.324  1.00  0.00     0.042 C 
BRANCH  27  28
ATOM     28  C   UNL A   1      40.340  23.124  27.022  1.00  0.00     0.118 C 
BRANCH  28  29
ATOM     29  N   UNL A   1      41.266  23.741  26.080  1.00  0.00    -0.352 N 
ATOM     30  C   UNL A   1      41.730  25.030  26.019  1.00  0.00     0.251 C 
ATOM     31  H   UNL A   1      41.613  23.140  25.381  1.00  0.00     0.163 HD
ATOM     32  O   UNL A   1      42.277  25.427  24.994  1.00  0.00    -0.269 OA
BRANCH  30  33
ATOM     33  C   UNL A   1      41.576  25.932  27.179  1.00  0.00     0.039 A 
ATOM     34  C   UNL A   1      42.497  26.967  27.360  1.00  0.00     0.014 A 
ATOM     35  C   UNL A   1      40.554  25.730  28.110  1.00  0.00     0.014 A 
ATOM     36  C   UNL A   1      42.361  27.828  28.450  1.00  0.00     0.010 A 
ATOM     37  C   UNL A   1      40.367  26.641  29.143  1.00  0.00     0.010 A 
ATOM     38  C   UNL A   1      41.277  27.689  29.334  1.00  0.00    -0.014 A 
BRANCH  38  39
ATOM     39  C   UNL A   1      41.081  28.634  30.461  1.00  0.00     0.031 A 
ATOM     40  C   UNL A   1      41.925  28.525  31.701  1.00  0.00     0.074 A 
ATOM     41  C   UNL A   1      40.091  29.545  30.392  1.00  0.00     0.049 A 
ATOM     42  N   UNL A   1      41.874  29.235  32.799  1.00  0.00    -0.248 NA
ATOM     43  C   UNL A   1      42.938  27.457  31.726  1.00  0.00     0.031 C 
ATOM     44  C   UNL A   1      39.165  29.703  29.267  1.00  0.00     0.029 A 
ATOM     45  N   UNL A   1      39.689  30.502  31.288  1.00  0.00    -0.354 N 
ATOM     46  C   UNL A   1      42.824  28.684  33.651  1.00  0.00     0.074 A 
ATOM     47  C   UNL A   1      43.400  27.549  32.964  1.00  0.00     0.031 C 
ATOM     48  C   UNL A   1      38.323  30.713  29.529  1.00  0.00     0.029 A 
ATOM     49  C   UNL A   1      38.617  31.244  30.856  1.00  0.00     0.049 A 
ATOM     50  H   UNL A   1      40.127  30.642  32.159  1.00  0.00     0.167 HD
ATOM     51  C   UNL A   1      43.193  29.094  34.888  1.00  0.00     0.031 A 
ATOM     52  C   UNL A   1      37.936  32.237  31.462  1.00  0.00     0.031 A 
ATOM     53  C   UNL A   1      42.615  30.229  35.559  1.00  0.00     0.049 A 
ATOM     54  C   UNL A   1      38.373  32.691  32.825  1.00  0.00     0.074 A 
ATOM     55  C   UNL A   1      42.969  30.782  36.777  1.00  0.00     0.029 A 
ATOM     56  N   UNL A   1      41.548  30.975  35.078  1.00  0.00    -0.354 N 
ATOM     57  N   UNL A   1      39.341  32.223  33.577  1.00  0.00    -0.248 NA
ATOM     58  C   UNL A   1      37.640  33.818  33.415  1.00  0.00     0.031 C 
ATOM     59  C   UNL A   1      42.073  31.817  37.063  1.00  0.00     0.029 A 
ATOM     60  C   UNL A   1      41.206  31.958  35.991  1.00  0.00     0.049 A 
ATOM     61  H   UNL A   1      41.099  30.827  34.213  1.00  0.00     0.167 HD
ATOM     62  C   UNL A   1      39.345  33.008  34.724  1.00  0.00     0.074 A 
ATOM     63  C   UNL A   1      38.296  33.995  34.554  1.00  0.00     0.031 C 
ATOM     64  C   UNL A   1      40.145  32.921  35.816  1.00  0.00     0.031 A 
BRANCH  51  65
ATOM     65  C   UNL A   1      44.253  28.291  35.601  1.00  0.00    -0.014 A 
ATOM     66  C   UNL A   1      43.923  27.179  36.400  1.00  0.00     0.010 A 
ATOM     67  C   UNL A   1      45.606  28.651  35.463  1.00  0.00     0.010 A 
ATOM     68  C   UNL A   1      44.917  26.486  37.095  1.00  0.00     0.020 A 
ATOM     69  C   UNL A   1      46.608  27.937  36.129  1.00  0.00     0.020 A 
ATOM     70  C   UNL A   1      46.253  26.874  36.962  1.00  0.00     0.054 A 
BRANCH  70  71
ATOM     71  S   UNL A   1      47.521  25.961  37.883  1.00  0.00     0.124 S 
ATOM     72  O   UNL A   1      48.088  27.007  38.731  1.00  0.00    -0.237 OA
ATOM     73  O   UNL A   1      46.741  24.944  38.581  1.00  0.00    -0.237 OA
ATOM     74  O   UNL A   1      48.412  25.455  36.842  1.00  0.00    -0.744 OA
ENDBRANCH  70  71
ENDBRANCH  51  65
BRANCH  52  75
ATOM     75  C   UNL A   1      36.780  32.861  30.761  1.00  0.00    -0.014 A 
ATOM     76  C   UNL A   1      35.469  32.417  30.999  1.00  0.00     0.010 A 
ATOM     77  C   UNL A   1      36.986  33.956  29.901  1.00  0.00     0.010 A 
ATOM     78  C   UNL A   1      34.384  33.059  30.393  1.00  0.00     0.020 A 
ATOM     79  C   UNL A   1      35.903  34.619  29.317  1.00  0.00     0.020 A 
ATOM     80  C   UNL A   1      34.607  34.162  29.565  1.00  0.00     0.054 A 
BRANCH  80  81
ATOM     81  S   UNL A   1      33.178  35.035  28.865  1.00  0.00     0.124 S 
ATOM     82  O   UNL A   1      32.371  35.300  30.051  1.00  0.00    -0.237 OA
ATOM     83  O   UNL A   1      33.797  36.204  28.245  1.00  0.00    -0.237 OA
ATOM     84  O   UNL A   1      32.612  34.068  27.926  1.00  0.00    -0.744 OA
ENDBRANCH  80  81
ENDBRANCH  52  75
BRANCH  64  85
ATOM     85  C   UNL A   1      39.930  33.933  36.912  1.00  0.00    -0.014 A 
ATOM     86  C   UNL A   1      40.437  35.240  36.810  1.00  0.00     0.010 A 
ATOM     87  C   UNL A   1      39.163  33.581  38.039  1.00  0.00     0.010 A 
ATOM     88  C   UNL A   1      40.211  36.166  37.833  1.00  0.00     0.020 A 
ATOM     89  C   UNL A   1      38.908  34.513  39.046  1.00  0.00     0.020 A 
ATOM     90  C   UNL A   1      39.448  35.796  38.944  1.00  0.00     0.054 A 
BRANCH  90  91
ATOM     91  S   UNL A   1      39.138  37.028  40.238  1.00  0.00     0.124 S 
ATOM     92  O   UNL A   1      38.508  38.108  39.484  1.00  0.00    -0.237 OA
ATOM     93  O   UNL A   1      38.261  36.311  41.161  1.00  0.00    -0.237 OA
ATOM     94  O   UNL A   1      40.470  37.327  40.759  1.00  0.00    -0.744 OA
ENDBRANCH  90  91
ENDBRANCH  64  85
ENDBRANCH  38  39
ENDBRANCH  30  33
ENDBRANCH  28  29
ENDBRANCH  27  28
ENDBRANCH   1  27
TORSDOF 17
ENDMDL
MODEL 2
REMARK VINA RESULT:     -12.1      3.604      4.597
REMARK SMILES CC(C)(C)c1ccc(NS(=O)(=O)c2cccc(C(=O)NCCCNC(=O)c3ccc(-c4c5nc(c(-c6ccc(S(=O)(=O)[O-])cc6)c6ccc([nH]6)c(-c6ccc(S(=O)(=O)[O-])cc6)c6nc(c(-c7ccc(S(=O)(=O)[O-])cc7)c7ccc4[nH]7)C=C6)C=C5)cc3)c2)cc1
REMARK SMILES IDX 21 1 20 2 18 3 19 4 17 6 13 7 14 8 87 9 15 10 16 11 10 12
REMARK SMILES IDX 11 13 12 14 9 15 8 17 5 18 6 19 89 20 7 21 88 22 2 23 1 24
REMARK SMILES IDX 3 25 4 26 22 27 23 28 24 29 25 30 26 32 27 33 28 34 86 35
REMARK SMILES IDX 29 36 85 37 30 38 31 39 32 40 79 41 33 42 84 43 78 44 80 45
REMARK SMILES IDX 34 46 83 47 77 48 76 49 35 51 65 52 46 53 64 54 47 55 50 56
REMARK SMILES IDX 63 57 81 58 48 59 49 60 62 62 82 63 51 64 36 65 37 66 45 67
REMARK SMILES IDX 38 68 44 69 39 70 40 71 41 72 42 73 43 74 66 75 67 76 75 77
REMARK SMILES IDX 68 78 74 79 69 80 70 81 71 82 72 83 73 84 52 85 53 86 61 87
REMARK SMILES IDX 54 88 60 89 55 90 56 91 57 92 58 93 59 94
REMARK H PARENT 20 5 9 16 24 31 80 50 50 61
REMARK Flexibility Score: inf
ROOT
ATOM      1  C   UNL A   1      34.132  24.099  26.536  1.00  0.00     0.118 C 
ENDROOT
BRANCH   1   2
ATOM      2  N   UNL A   1      32.815  23.505  26.697  1.00  0.00    -0.352 N 
ATOM      3  C   UNL A   1      31.858  23.141  25.787  1.00  0.00     0.251 C 
ATOM      4  O   UNL A   1      30.815  22.642  26.208  1.00  0.00    -0.269 OA
ATOM      5  H   UNL A   1      32.565  23.334  27.634  1.00  0.00     0.163 HD
BRANCH   3   6
ATOM      6  C   UNL A   1      32.083  23.222  24.320  1.00  0.00     0.041 A 
ATOM      7  C   UNL A   1      32.321  24.390  22.216  1.00  0.00     0.088 A 
ATOM      8  C   UNL A   1      32.906  23.253  21.645  1.00  0.00     0.022 A 
ATOM      9  C   UNL A   1      31.890  24.373  23.549  1.00  0.00     0.036 A 
ATOM     10  C   UNL A   1      32.959  22.066  22.368  1.00  0.00     0.002 A 
ATOM     11  C   UNL A   1      32.554  22.052  23.701  1.00  0.00     0.014 A 
BRANCH   7  12
ATOM     12  S   UNL A   1      32.256  25.898  21.269  1.00  0.00     0.261 S 
ATOM     13  O   UNL A   1      31.043  26.590  21.647  1.00  0.00    -0.201 OA
ATOM     14  O   UNL A   1      32.490  25.546  19.881  1.00  0.00    -0.201 OA
BRANCH  12  15
ATOM     15  N   UNL A   1      33.573  26.877  21.746  1.00  0.00    -0.280 N 
ATOM     16  H   UNL A   1      34.383  26.943  21.190  1.00  0.00     0.180 HD
BRANCH  15  17
ATOM     17  C   UNL A   1      33.466  27.602  22.978  1.00  0.00     0.049 A 
ATOM     18  C   UNL A   1      33.020  28.812  25.499  1.00  0.00    -0.042 A 
ATOM     19  C   UNL A   1      33.716  27.597  25.379  1.00  0.00     0.006 A 
ATOM     20  C   UNL A   1      32.613  29.438  24.306  1.00  0.00     0.006 A 
ATOM     21  C   UNL A   1      33.976  27.027  24.134  1.00  0.00     0.027 A 
ATOM     22  C   UNL A   1      32.814  28.829  23.056  1.00  0.00     0.027 A 
BRANCH  18  23
ATOM     23  C   UNL A   1      32.675  29.358  26.896  1.00  0.00    -0.013 C 
ATOM     24  C   UNL A   1      33.911  29.724  27.745  1.00  0.00     0.016 C 
ATOM     25  C   UNL A   1      31.859  28.332  27.715  1.00  0.00     0.016 C 
ATOM     26  C   UNL A   1      31.830  30.637  26.714  1.00  0.00     0.016 C 
ENDBRANCH  18  23
ENDBRANCH  15  17
ENDBRANCH  12  15
ENDBRANCH   7  12
ENDBRANCH   3   6
ENDBRANCH   1   2
BRANCH   1  27
ATOM     27  C   UNL A   1      35.180  23.011  26.319  1.00  0.00     0.042 C 
BRANCH  27  28
ATOM     28  C   UNL A   1      36.483  23.558  25.744  1.00  0.00     0.118 C 
BRANCH  28  29
ATOM     29  N   UNL A   1      37.582  22.615  25.912  1.00  0.00    -0.352 N 
ATOM     30  C   UNL A   1      38.887  22.840  26.272  1.00  0.00     0.251 C 
ATOM     31  H   UNL A   1      37.353  21.672  25.742  1.00  0.00     0.163 HD
ATOM     32  O   UNL A   1      39.724  21.962  26.084  1.00  0.00    -0.269 OA
BRANCH  30  33
ATOM     33  C   UNL A   1      39.278  24.125  26.885  1.00  0.00     0.039 A 
ATOM     34  C   UNL A   1      38.899  24.392  28.203  1.00  0.00     0.014 A 
ATOM     35  C   UNL A   1      39.981  25.083  26.149  1.00  0.00     0.014 A 
ATOM     36  C   UNL A   1      39.266  25.602  28.794  1.00  0.00     0.010 A 
ATOM     37  C   UNL A   1      40.423  26.246  26.768  1.00  0.00     0.010 A 
ATOM     38  C   UNL A   1      40.057  26.526  28.091  1.00  0.00    -0.014 A 
BRANCH  38  39
ATOM     39  C   UNL A   1      40.510  27.788  28.726  1.00  0.00     0.031 A 
ATOM     40  C   UNL A   1      41.887  27.885  29.325  1.00  0.00     0.074 A 
ATOM     41  C   UNL A   1      39.652  28.821  28.825  1.00  0.00     0.049 A 
ATOM     42  N   UNL A   1      42.443  28.889  29.953  1.00  0.00    -0.248 NA
ATOM     43  C   UNL A   1      42.738  26.686  29.239  1.00  0.00     0.031 C 
ATOM     44  C   UNL A   1      38.270  28.821  28.338  1.00  0.00     0.029 A 
ATOM     45  N   UNL A   1      39.810  30.067  29.376  1.00  0.00    -0.354 N 
ATOM     46  C   UNL A   1      43.693  28.436  30.358  1.00  0.00     0.074 A 
ATOM     47  C   UNL A   1      43.793  27.051  29.951  1.00  0.00     0.031 C 
ATOM     48  C   UNL A   1      37.716  30.017  28.588  1.00  0.00     0.029 A 
ATOM     49  C   UNL A   1      38.684  30.851  29.292  1.00  0.00     0.049 A 
ATOM     50  H   UNL A   1      40.648  30.370  29.793  1.00  0.00     0.167 HD
ATOM     51  C   UNL A   1      44.676  29.115  30.998  1.00  0.00     0.031 A 
ATOM     52  C   UNL A   1      38.450  32.100  29.738  1.00  0.00     0.031 A 
ATOM     53  C   UNL A   1      44.565  30.494  31.394  1.00  0.00     0.049 A 
ATOM     54  C   UNL A   1      39.558  32.845  30.428  1.00  0.00     0.074 A 
ATOM     55  C   UNL A   1      45.527  31.304  31.973  1.00  0.00     0.029 A 
ATOM     56  N   UNL A   1      43.418  31.266  31.267  1.00  0.00    -0.354 N 
ATOM     57  N   UNL A   1      40.771  32.435  30.715  1.00  0.00    -0.248 NA
ATOM     58  C   UNL A   1      39.273  34.225  30.839  1.00  0.00     0.031 C 
ATOM     59  C   UNL A   1      44.940  32.541  32.259  1.00  0.00     0.029 A 
ATOM     60  C   UNL A   1      43.635  32.529  31.791  1.00  0.00     0.049 A 
ATOM     61  H   UNL A   1      42.574  30.960  30.862  1.00  0.00     0.167 HD
ATOM     62  C   UNL A   1      41.402  33.511  31.326  1.00  0.00     0.074 A 
ATOM     63  C   UNL A   1      40.441  34.598  31.346  1.00  0.00     0.031 C 
ATOM     64  C   UNL A   1      42.661  33.594  31.822  1.00  0.00     0.031 A 
BRANCH  51  65
ATOM     65  C   UNL A   1      45.940  28.362  31.332  1.00  0.00    -0.014 A 
ATOM     66  C   UNL A   1      46.081  27.659  32.544  1.00  0.00     0.010 A 
ATOM     67  C   UNL A   1      47.004  28.351  30.413  1.00  0.00     0.010 A 
ATOM     68  C   UNL A   1      47.282  27.017  32.856  1.00  0.00     0.020 A 
ATOM     69  C   UNL A   1      48.196  27.679  30.705  1.00  0.00     0.020 A 
ATOM     70  C   UNL A   1      48.335  27.038  31.937  1.00  0.00     0.054 A 
BRANCH  70  71
ATOM     71  S   UNL A   1      49.886  26.203  32.371  1.00  0.00     0.124 S 
ATOM     72  O   UNL A   1      50.885  27.137  31.856  1.00  0.00    -0.237 OA
ATOM     73  O   UNL A   1      49.805  26.111  33.826  1.00  0.00    -0.237 OA
ATOM     74  O   UNL A   1      49.805  24.927  31.664  1.00  0.00    -0.744 OA
ENDBRANCH  70  71
ENDBRANCH  51  65
BRANCH  52  75
ATOM     75  C   UNL A   1      37.109  32.711  29.527  1.00  0.00    -0.014 A 
ATOM     76  C   UNL A   1      36.096  32.574  30.491  1.00  0.00     0.010 A 
ATOM     77  C   UNL A   1      36.865  33.496  28.385  1.00  0.00     0.010 A 
ATOM     78  C   UNL A   1      34.864  33.213  30.318  1.00  0.00     0.020 A 
ATOM     79  C   UNL A   1      35.646  34.160  28.223  1.00  0.00     0.020 A 
ATOM     80  C   UNL A   1      34.651  34.011  29.191  1.00  0.00     0.054 A 
BRANCH  80  81
ATOM     81  S   UNL A   1      33.078  34.904  29.036  1.00  0.00     0.124 S 
ATOM     82  O   UNL A   1      33.514  36.204  28.538  1.00  0.00    -0.237 OA
ATOM     83  O   UNL A   1      32.340  34.076  28.085  1.00  0.00    -0.237 OA
ATOM     84  O   UNL A   1      32.546  34.901  30.397  1.00  0.00    -0.744 OA
ENDBRANCH  80  81
ENDBRANCH  52  75
BRANCH  64  85
ATOM     85  C   UNL A   1      43.084  34.912  32.418  1.00  0.00    -0.014 A 
ATOM     86  C   UNL A   1      42.846  35.213  33.771  1.00  0.00     0.010 A 
ATOM     87  C   UNL A   1      43.778  35.842  31.621  1.00  0.00     0.010 A 
ATOM     88  C   UNL A   1      43.262  36.435  34.306  1.00  0.00     0.020 A 
ATOM     89  C   UNL A   1      44.224  37.050  32.161  1.00  0.00     0.020 A 
ATOM     90  C   UNL A   1      43.948  37.345  33.497  1.00  0.00     0.054 A 
BRANCH  90  91
ATOM     91  S   UNL A   1      44.510  38.908  34.226  1.00  0.00     0.124 S 
ATOM     92  O   UNL A   1      43.338  39.762  34.054  1.00  0.00    -0.237 OA
ATOM     93  O   UNL A   1      44.814  38.528  35.604  1.00  0.00    -0.237 OA
ATOM     94  O   UNL A   1      45.671  39.272  33.416  1.00  0.00    -0.744 OA
ENDBRANCH  90  91
ENDBRANCH  64  85
ENDBRANCH  38  39
ENDBRANCH  30  33
ENDBRANCH  28  29
ENDBRANCH  27  28
ENDBRANCH   1  27
TORSDOF 17
ENDMDL
MODEL 3
REMARK VINA RESULT:     -11.9      3.013      9.608
REMARK SMILES CC(C)(C)c1ccc(NS(=O)(=O)c2cccc(C(=O)NCCCNC(=O)c3ccc(-c4c5nc(c(-c6ccc(S(=O)(=O)[O-])cc6)c6ccc([nH]6)c(-c6ccc(S(=O)(=O)[O-])cc6)c6nc(c(-c7ccc(S(=O)(=O)[O-])cc7)c7ccc4[nH]7)C=C6)C=C5)cc3)c2)cc1
REMARK SMILES IDX 21 1 20 2 18 3 19 4 17 6 13 7 14 8 87 9 15 10 16 11 10 12
REMARK SMILES IDX 11 13 12 14 9 15 8 17 5 18 6 19 89 20 7 21 88 22 2 23 1 24
REMARK SMILES IDX 3 25 4 26 22 27 23 28 24 29 25 30 26 32 27 33 28 34 86 35
REMARK SMILES IDX 29 36 85 37 30 38 31 39 32 40 79 41 33 42 84 43 78 44 80 45
REMARK SMILES IDX 34 46 83 47 77 48 76 49 35 51 65 52 46 53 64 54 47 55 50 56
REMARK SMILES IDX 63 57 81 58 48 59 49 60 62 62 82 63 51 64 36 65 37 66 45 67
REMARK SMILES IDX 38 68 44 69 39 70 40 71 41 72 42 73 43 74 66 75 67 76 75 77
REMARK SMILES IDX 68 78 74 79 69 80 70 81 71 82 72 83 73 84 52 85 53 86 61 87
REMARK SMILES IDX 54 88 60 89 55 90 56 91 57 92 58 93 59 94
REMARK H PARENT 20 5 9 16 24 31 80 50 50 61
REMARK Flexibility Score: inf
ROOT
ATOM      1  C   UNL A   1      31.740  29.446  25.069  1.00  0.00     0.118 C 
ENDROOT
BRANCH   1   2
ATOM      2  N   UNL A   1      31.184  29.674  23.746  1.00  0.00    -0.352 N 
ATOM      3  C   UNL A   1      30.779  28.810  22.763  1.00  0.00     0.251 C 
ATOM      4  O   UNL A   1      30.329  29.285  21.721  1.00  0.00    -0.269 OA
ATOM      5  H   UNL A   1      31.079  30.625  23.513  1.00  0.00     0.163 HD
BRANCH   3   6
ATOM      6  C   UNL A   1      30.760  27.337  22.957  1.00  0.00     0.041 A 
ATOM      7  C   UNL A   1      31.772  25.145  23.086  1.00  0.00     0.088 A 
ATOM      8  C   UNL A   1      30.632  24.649  23.730  1.00  0.00     0.022 A 
ATOM      9  C   UNL A   1      31.833  26.485  22.681  1.00  0.00     0.036 A 
ATOM     10  C   UNL A   1      29.509  25.460  23.867  1.00  0.00     0.002 A 
ATOM     11  C   UNL A   1      29.575  26.798  23.487  1.00  0.00     0.014 A 
BRANCH   7  12
ATOM     12  S   UNL A   1      33.196  24.087  22.913  1.00  0.00     0.261 S 
ATOM     13  O   UNL A   1      34.304  24.922  22.502  1.00  0.00    -0.201 OA
ATOM     14  O   UNL A   1      32.796  22.956  22.097  1.00  0.00    -0.201 OA
BRANCH  12  15
ATOM     15  N   UNL A   1      33.575  23.456  24.456  1.00  0.00    -0.280 N 
ATOM     16  H   UNL A   1      33.811  24.053  25.202  1.00  0.00     0.180 HD
BRANCH  15  17
ATOM     17  C   UNL A   1      33.539  22.035  24.634  1.00  0.00     0.049 A 
ATOM     18  C   UNL A   1      33.564  19.203  24.664  1.00  0.00    -0.042 A 
ATOM     19  C   UNL A   1      34.755  19.949  24.667  1.00  0.00     0.006 A 
ATOM     20  C   UNL A   1      32.356  19.923  24.715  1.00  0.00     0.006 A 
ATOM     21  C   UNL A   1      34.741  21.343  24.700  1.00  0.00     0.027 A 
ATOM     22  C   UNL A   1      32.341  21.328  24.677  1.00  0.00     0.027 A 
BRANCH  18  23
ATOM     23  C   UNL A   1      33.625  17.670  24.534  1.00  0.00    -0.013 C 
ATOM     24  C   UNL A   1      32.737  16.923  25.552  1.00  0.00     0.016 C 
ATOM     25  C   UNL A   1      35.066  17.147  24.730  1.00  0.00     0.016 C 
ATOM     26  C   UNL A   1      33.144  17.291  23.117  1.00  0.00     0.016 C 
ENDBRANCH  18  23
ENDBRANCH  15  17
ENDBRANCH  12  15
ENDBRANCH   7  12
ENDBRANCH   3   6
ENDBRANCH   1   2
BRANCH   1  27
ATOM     27  C   UNL A   1      33.205  29.034  24.964  1.00  0.00     0.042 C 
BRANCH  27  28
ATOM     28  C   UNL A   1      34.003  29.381  26.217  1.00  0.00     0.118 C 
BRANCH  28  29
ATOM     29  N   UNL A   1      33.720  30.736  26.677  1.00  0.00    -0.352 N 
ATOM     30  C   UNL A   1      34.248  31.434  27.733  1.00  0.00     0.251 C 
ATOM     31  H   UNL A   1      33.048  31.224  26.148  1.00  0.00     0.163 HD
ATOM     32  O   UNL A   1      33.681  32.450  28.128  1.00  0.00    -0.269 OA
BRANCH  30  33
ATOM     33  C   UNL A   1      35.490  30.972  28.385  1.00  0.00     0.039 A 
ATOM     34  C   UNL A   1      36.676  31.675  28.160  1.00  0.00     0.014 A 
ATOM     35  C   UNL A   1      35.493  29.825  29.182  1.00  0.00     0.014 A 
ATOM     36  C   UNL A   1      37.855  31.250  28.773  1.00  0.00     0.010 A 
ATOM     37  C   UNL A   1      36.648  29.457  29.863  1.00  0.00     0.010 A 
ATOM     38  C   UNL A   1      37.845  30.154  29.653  1.00  0.00    -0.014 A 
BRANCH  38  39
ATOM     39  C   UNL A   1      39.075  29.729  30.364  1.00  0.00     0.031 A 
ATOM     40  C   UNL A   1      39.480  30.397  31.650  1.00  0.00     0.074 A 
ATOM     41  C   UNL A   1      39.865  28.789  29.809  1.00  0.00     0.049 A 
ATOM     42  N   UNL A   1      40.538  30.186  32.391  1.00  0.00    -0.248 NA
ATOM     43  C   UNL A   1      38.600  31.465  32.153  1.00  0.00     0.031 C 
ATOM     44  C   UNL A   1      39.608  28.117  28.533  1.00  0.00     0.029 A 
ATOM     45  N   UNL A   1      41.046  28.243  30.240  1.00  0.00    -0.354 N 
ATOM     46  C   UNL A   1      40.464  31.109  33.427  1.00  0.00     0.074 A 
ATOM     47  C   UNL A   1      39.287  31.915  33.191  1.00  0.00     0.031 C 
ATOM     48  C   UNL A   1      40.588  27.231  28.298  1.00  0.00     0.029 A 
ATOM     49  C   UNL A   1      41.563  27.304  29.381  1.00  0.00     0.049 A 
ATOM     50  H   UNL A   1      41.483  28.501  31.084  1.00  0.00     0.167 HD
ATOM     51  C   UNL A   1      41.293  31.262  34.488  1.00  0.00     0.031 A 
ATOM     52  C   UNL A   1      42.701  26.586  29.447  1.00  0.00     0.031 A 
ATOM     53  C   UNL A   1      42.460  30.449  34.713  1.00  0.00     0.049 A 
ATOM     54  C   UNL A   1      43.598  26.755  30.640  1.00  0.00     0.074 A 
ATOM     55  C   UNL A   1      43.324  30.463  35.794  1.00  0.00     0.029 A 
ATOM     56  N   UNL A   1      42.938  29.487  33.833  1.00  0.00    -0.354 N 
ATOM     57  N   UNL A   1      43.461  27.564  31.664  1.00  0.00    -0.248 NA
ATOM     58  C   UNL A   1      44.793  25.904  30.697  1.00  0.00     0.031 C 
ATOM     59  C   UNL A   1      44.360  29.560  35.536  1.00  0.00     0.029 A 
ATOM     60  C   UNL A   1      44.104  28.929  34.328  1.00  0.00     0.049 A 
ATOM     61  H   UNL A   1      42.509  29.238  32.982  1.00  0.00     0.167 HD
ATOM     62  C   UNL A   1      44.544  27.309  32.497  1.00  0.00     0.074 A 
ATOM     63  C   UNL A   1      45.314  26.254  31.867  1.00  0.00     0.031 C 
ATOM     64  C   UNL A   1      44.870  27.893  33.677  1.00  0.00     0.031 A 
BRANCH  51  65
ATOM     65  C   UNL A   1      40.979  32.369  35.464  1.00  0.00    -0.014 A 
ATOM     66  C   UNL A   1      41.407  33.692  35.242  1.00  0.00     0.010 A 
ATOM     67  C   UNL A   1      40.235  32.081  36.622  1.00  0.00     0.010 A 
ATOM     68  C   UNL A   1      41.153  34.688  36.188  1.00  0.00     0.020 A 
ATOM     69  C   UNL A   1      39.947  33.082  37.555  1.00  0.00     0.020 A 
ATOM     70  C   UNL A   1      40.431  34.375  37.344  1.00  0.00     0.054 A 
BRANCH  70  71
ATOM     71  S   UNL A   1      40.122  35.685  38.559  1.00  0.00     0.124 S 
ATOM     72  O   UNL A   1      41.350  35.656  39.351  1.00  0.00    -0.237 OA
ATOM     73  O   UNL A   1      39.946  36.867  37.720  1.00  0.00    -0.237 OA
ATOM     74  O   UNL A   1      38.921  35.236  39.259  1.00  0.00    -0.744 OA
ENDBRANCH  70  71
ENDBRANCH  51  65
BRANCH  52  75
ATOM     75  C   UNL A   1      43.032  25.639  28.347  1.00  0.00    -0.014 A 
ATOM     76  C   UNL A   1      43.817  26.050  27.256  1.00  0.00     0.010 A 
ATOM     77  C   UNL A   1      42.617  24.296  28.424  1.00  0.00     0.010 A 
ATOM     78  C   UNL A   1      44.184  25.134  26.264  1.00  0.00     0.020 A 
ATOM     79  C   UNL A   1      43.007  23.372  27.451  1.00  0.00     0.020 A 
ATOM     80  C   UNL A   1      43.786  23.799  26.374  1.00  0.00     0.054 A 
BRANCH  80  81
ATOM     81  S   UNL A   1      44.353  22.611  25.125  1.00  0.00     0.124 S 
ATOM     82  O   UNL A   1      43.138  21.853  24.850  1.00  0.00    -0.237 OA
ATOM     83  O   UNL A   1      44.813  23.484  24.048  1.00  0.00    -0.237 OA
ATOM     84  O   UNL A   1      45.411  21.870  25.810  1.00  0.00    -0.744 OA
ENDBRANCH  80  81
ENDBRANCH  52  75
BRANCH  64  85
ATOM     85  C   UNL A   1      46.107  27.393  34.377  1.00  0.00    -0.014 A 
ATOM     86  C   UNL A   1      47.360  27.997  34.169  1.00  0.00     0.010 A 
ATOM     87  C   UNL A   1      46.002  26.333  35.298  1.00  0.00     0.010 A 
ATOM     88  C   UNL A   1      48.491  27.526  34.842  1.00  0.00     0.020 A 
ATOM     89  C   UNL A   1      47.124  25.883  35.997  1.00  0.00     0.020 A 
ATOM     90  C   UNL A   1      48.365  26.472  35.752  1.00  0.00     0.054 A 
BRANCH  90  91
ATOM     91  S   UNL A   1      49.841  25.906  36.640  1.00  0.00     0.124 S 
ATOM     92  O   UNL A   1      50.764  25.622  35.544  1.00  0.00    -0.237 OA
ATOM     93  O   UNL A   1      50.183  27.063  37.465  1.00  0.00    -0.237 OA
ATOM     94  O   UNL A   1      49.374  24.736  37.380  1.00  0.00    -0.744 OA
ENDBRANCH  90  91
ENDBRANCH  64  85
ENDBRANCH  38  39
ENDBRANCH  30  33
ENDBRANCH  28  29
ENDBRANCH  27  28
ENDBRANCH   1  27
TORSDOF 17
ENDMDL
