MODEL 1
REMARK VINA RESULT:     -11.5      0.000      0.000
REMARK SMILES CCc1c(C(=O)NCCCNC(=O)c2ccc(-c3c4nc(c(-c5ccc(S(=O)(=O)[O-])cc5)c5ccc([nH]5)c(-c5ccc(S(=O)(=O)[O-])cc5)c5nc(c(-c6ccc(S(=O)(=O)[O-])cc6)c6ccc3[nH]6)C=C5)C=C4)cc2)nnn1-c1ccc(OC)cc1
REMARK SMILES IDX 9 1 8 2 7 3 5 4 6 5 4 7 3 8 76 9 74 10 75 11 2 12 1 13 77 14
REMARK SMILES IDX 78 15 84 16 79 17 83 18 80 19 81 20 82 21 10 22 11 23 12 24
REMARK SMILES IDX 13 26 14 27 15 28 73 29 16 30 72 31 17 32 18 33 19 34 66 35
REMARK SMILES IDX 20 36 71 37 65 38 67 39 21 40 70 41 64 42 63 43 22 45 52 46
REMARK SMILES IDX 33 47 51 48 34 49 37 50 50 51 68 52 35 53 36 54 49 56 69 57
REMARK SMILES IDX 38 58 23 59 24 60 32 61 25 62 31 63 26 64 27 65 28 66 29 67
REMARK SMILES IDX 30 68 53 69 54 70 62 71 55 72 61 73 56 74 57 75 58 76 59 77
REMARK SMILES IDX 60 78 39 79 40 80 48 81 41 82 47 83 42 84 43 85 44 86 45 87
REMARK SMILES IDX 46 88
REMARK H PARENT 7 6 11 25 67 44 37 55
REMARK Flexibility Score: inf
ROOT
ATOM      1  C   UNL A   1      41.331  20.116  27.486  1.00  0.00     0.042 C 
ENDROOT
BRANCH   1   2
ATOM      2  C   UNL A   1      41.438  19.787  25.992  1.00  0.00     0.118 C 
BRANCH   2   3
ATOM      3  N   UNL A   1      42.733  19.262  25.679  1.00  0.00    -0.351 N 
ATOM      4  C   UNL A   1      43.906  19.846  25.300  1.00  0.00     0.273 C 
ATOM      5  O   UNL A   1      44.806  19.021  25.098  1.00  0.00    -0.267 OA
ATOM      6  H   UNL A   1      42.788  18.282  25.753  1.00  0.00     0.163 HD
BRANCH   4   7
ATOM      7  C   UNL A   1      44.176  21.287  25.140  1.00  0.00     0.174 A 
ATOM      8  C   UNL A   1      44.109  22.497  25.857  1.00  0.00     0.077 A 
ATOM      9  N   UNL A   1      44.742  23.398  24.975  1.00  0.00    -0.217 N 
ATOM     10  N   UNL A   1      44.655  21.588  23.865  1.00  0.00    -0.124 NA
ATOM     11  N   UNL A   1      44.889  22.873  23.760  1.00  0.00    -0.061 NA
BRANCH   8  12
ATOM     12  C   UNL A   1      43.658  23.087  27.174  1.00  0.00     0.055 C 
ATOM     13  C   UNL A   1      44.561  23.256  28.360  1.00  0.00     0.011 C 
ENDBRANCH   8  12
BRANCH   9  14
ATOM     14  C   UNL A   1      45.058  24.757  25.208  1.00  0.00     0.067 A 
ATOM     15  C   UNL A   1      46.398  25.143  25.165  1.00  0.00     0.032 A 
ATOM     16  C   UNL A   1      44.038  25.717  25.270  1.00  0.00     0.032 A 
ATOM     17  C   UNL A   1      46.701  26.499  25.048  1.00  0.00     0.048 A 
ATOM     18  C   UNL A   1      44.354  27.069  25.150  1.00  0.00     0.048 A 
ATOM     19  C   UNL A   1      45.685  27.462  25.004  1.00  0.00     0.119 A 
BRANCH  19  20
ATOM     20  O   UNL A   1      46.117  28.744  24.806  1.00  0.00    -0.497 OA
ATOM     21  C   UNL A   1      46.767  29.370  25.905  1.00  0.00     0.278 C 
ENDBRANCH  19  20
ENDBRANCH   9  14
ENDBRANCH   4   7
ENDBRANCH   2   3
ENDBRANCH   1   2
BRANCH   1  22
ATOM     22  C   UNL A   1      40.789  21.499  27.717  1.00  0.00     0.118 C 
BRANCH  22  23
ATOM     23  N   UNL A   1      39.730  21.834  26.743  1.00  0.00    -0.352 N 
ATOM     24  C   UNL A   1      39.184  23.079  26.478  1.00  0.00     0.251 C 
ATOM     25  H   UNL A   1      39.369  21.082  26.219  1.00  0.00     0.163 HD
ATOM     26  O   UNL A   1      38.121  23.192  25.879  1.00  0.00    -0.269 OA
BRANCH  24  27
ATOM     27  C   UNL A   1      39.926  24.251  26.966  1.00  0.00     0.039 A 
ATOM     28  C   UNL A   1      40.370  25.271  26.126  1.00  0.00     0.014 A 
ATOM     29  C   UNL A   1      39.969  24.391  28.343  1.00  0.00     0.014 A 
ATOM     30  C   UNL A   1      40.735  26.484  26.708  1.00  0.00     0.010 A 
ATOM     31  C   UNL A   1      39.998  25.652  28.854  1.00  0.00     0.010 A 
ATOM     32  C   UNL A   1      40.495  26.685  28.078  1.00  0.00    -0.014 A 
BRANCH  32  33
ATOM     33  C   UNL A   1      40.662  27.979  28.728  1.00  0.00     0.031 A 
ATOM     34  C   UNL A   1      41.806  28.774  28.226  1.00  0.00     0.074 A 
ATOM     35  C   UNL A   1      39.739  28.516  29.560  1.00  0.00     0.049 A 
ATOM     36  N   UNL A   1      42.975  28.874  28.763  1.00  0.00    -0.248 NA
ATOM     37  C   UNL A   1      41.714  29.370  26.883  1.00  0.00     0.031 C 
ATOM     38  C   UNL A   1      38.401  27.997  29.897  1.00  0.00     0.029 A 
ATOM     39  N   UNL A   1      39.754  29.713  30.204  1.00  0.00    -0.354 N 
ATOM     40  C   UNL A   1      43.663  29.789  27.976  1.00  0.00     0.074 A 
ATOM     41  C   UNL A   1      42.951  29.849  26.725  1.00  0.00     0.031 C 
ATOM     42  C   UNL A   1      37.654  28.973  30.453  1.00  0.00     0.029 A 
ATOM     43  C   UNL A   1      38.524  30.097  30.727  1.00  0.00     0.049 A 
ATOM     44  H   UNL A   1      40.566  30.262  30.291  1.00  0.00     0.167 HD
ATOM     45  C   UNL A   1      44.543  30.666  28.538  1.00  0.00     0.031 A 
ATOM     46  C   UNL A   1      38.232  31.244  31.380  1.00  0.00     0.031 A 
ATOM     47  C   UNL A   1      44.772  30.342  29.927  1.00  0.00     0.049 A 
ATOM     48  C   UNL A   1      39.507  31.752  31.932  1.00  0.00     0.074 A 
ATOM     49  C   UNL A   1      45.366  29.316  30.628  1.00  0.00     0.029 A 
ATOM     50  N   UNL A   1      43.941  31.006  30.800  1.00  0.00    -0.354 N 
ATOM     51  N   UNL A   1      40.199  31.106  32.831  1.00  0.00    -0.248 NA
ATOM     52  C   UNL A   1      40.236  32.787  31.214  1.00  0.00     0.031 C 
ATOM     53  C   UNL A   1      44.644  29.220  31.855  1.00  0.00     0.029 A 
ATOM     54  C   UNL A   1      43.675  30.225  31.893  1.00  0.00     0.049 A 
ATOM     55  H   UNL A   1      43.588  31.914  30.658  1.00  0.00     0.167 HD
ATOM     56  C   UNL A   1      41.519  31.335  32.486  1.00  0.00     0.074 A 
ATOM     57  C   UNL A   1      41.480  32.498  31.607  1.00  0.00     0.031 C 
ATOM     58  C   UNL A   1      42.476  30.384  32.698  1.00  0.00     0.031 A 
BRANCH  45  59
ATOM     59  C   UNL A   1      44.792  32.071  28.033  1.00  0.00    -0.014 A 
ATOM     60  C   UNL A   1      46.128  32.511  27.911  1.00  0.00     0.010 A 
ATOM     61  C   UNL A   1      43.789  33.058  27.951  1.00  0.00     0.010 A 
ATOM     62  C   UNL A   1      46.442  33.871  27.787  1.00  0.00     0.020 A 
ATOM     63  C   UNL A   1      44.089  34.412  27.787  1.00  0.00     0.020 A 
ATOM     64  C   UNL A   1      45.416  34.815  27.738  1.00  0.00     0.054 A 
BRANCH  64  65
ATOM     65  S   UNL A   1      45.828  36.574  27.673  1.00  0.00     0.124 S 
ATOM     66  O   UNL A   1      46.191  36.746  26.270  1.00  0.00    -0.237 OA
ATOM     67  O   UNL A   1      44.576  37.200  28.087  1.00  0.00    -0.237 OA
ATOM     68  O   UNL A   1      46.927  36.701  28.627  1.00  0.00    -0.744 OA
ENDBRANCH  64  65
ENDBRANCH  45  59
BRANCH  46  69
ATOM     69  C   UNL A   1      36.974  32.021  31.349  1.00  0.00    -0.014 A 
ATOM     70  C   UNL A   1      36.080  32.002  32.434  1.00  0.00     0.010 A 
ATOM     71  C   UNL A   1      36.792  33.012  30.361  1.00  0.00     0.010 A 
ATOM     72  C   UNL A   1      35.083  32.984  32.561  1.00  0.00     0.020 A 
ATOM     73  C   UNL A   1      35.800  33.991  30.481  1.00  0.00     0.020 A 
ATOM     74  C   UNL A   1      34.965  33.987  31.596  1.00  0.00     0.054 A 
BRANCH  74  75
ATOM     75  S   UNL A   1      33.796  35.353  31.868  1.00  0.00     0.124 S 
ATOM     76  O   UNL A   1      34.582  36.275  32.684  1.00  0.00    -0.237 OA
ATOM     77  O   UNL A   1      33.509  35.800  30.507  1.00  0.00    -0.237 OA
ATOM     78  O   UNL A   1      32.676  34.716  32.558  1.00  0.00    -0.744 OA
ENDBRANCH  74  75
ENDBRANCH  46  69
BRANCH  58  79
ATOM     79  C   UNL A   1      42.201  29.325  33.737  1.00  0.00    -0.014 A 
ATOM     80  C   UNL A   1      41.676  28.048  33.463  1.00  0.00     0.010 A 
ATOM     81  C   UNL A   1      42.594  29.619  35.056  1.00  0.00     0.010 A 
ATOM     82  C   UNL A   1      41.528  27.101  34.490  1.00  0.00     0.020 A 
ATOM     83  C   UNL A   1      42.468  28.677  36.077  1.00  0.00     0.020 A 
ATOM     84  C   UNL A   1      41.925  27.425  35.792  1.00  0.00     0.054 A 
BRANCH  84  85
ATOM     85  S   UNL A   1      41.763  26.190  37.114  1.00  0.00     0.124 S 
ATOM     86  O   UNL A   1      41.819  24.929  36.380  1.00  0.00    -0.237 OA
ATOM     87  O   UNL A   1      42.914  26.476  37.967  1.00  0.00    -0.237 OA
ATOM     88  O   UNL A   1      40.466  26.495  37.717  1.00  0.00    -0.744 OA
ENDBRANCH  84  85
ENDBRANCH  58  79
ENDBRANCH  32  33
ENDBRANCH  24  27
ENDBRANCH  22  23
ENDBRANCH   1  22
TORSDOF 16
ENDMDL
MODEL 2
REMARK VINA RESULT:     -11.4      3.231     12.029
REMARK SMILES CCc1c(C(=O)NCCCNC(=O)c2ccc(-c3c4nc(c(-c5ccc(S(=O)(=O)[O-])cc5)c5ccc([nH]5)c(-c5ccc(S(=O)(=O)[O-])cc5)c5nc(c(-c6ccc(S(=O)(=O)[O-])cc6)c6ccc3[nH]6)C=C5)C=C4)cc2)nnn1-c1ccc(OC)cc1
REMARK SMILES IDX 9 1 8 2 7 3 5 4 6 5 4 7 3 8 76 9 74 10 75 11 2 12 1 13 77 14
REMARK SMILES IDX 78 15 84 16 79 17 83 18 80 19 81 20 82 21 10 22 11 23 12 24
REMARK SMILES IDX 13 26 14 27 15 28 73 29 16 30 72 31 17 32 18 33 19 34 66 35
REMARK SMILES IDX 20 36 71 37 65 38 67 39 21 40 70 41 64 42 63 43 22 45 52 46
REMARK SMILES IDX 33 47 51 48 34 49 37 50 50 51 68 52 35 53 36 54 49 56 69 57
REMARK SMILES IDX 38 58 23 59 24 60 32 61 25 62 31 63 26 64 27 65 28 66 29 67
REMARK SMILES IDX 30 68 53 69 54 70 62 71 55 72 61 73 56 74 57 75 58 76 59 77
REMARK SMILES IDX 60 78 39 79 40 80 48 81 41 82 47 83 42 84 43 85 44 86 45 87
REMARK SMILES IDX 46 88
REMARK H PARENT 7 6 11 25 67 44 37 55
REMARK Flexibility Score: inf
ROOT
ATOM      1  C   UNL A   1      33.440  33.991  28.028  1.00  0.00     0.042 C 
ENDROOT
BRANCH   1   2
ATOM      2  C   UNL A   1      34.080  35.359  28.294  1.00  0.00     0.118 C 
BRANCH   2   3
ATOM      3  N   UNL A   1      33.356  36.071  29.305  1.00  0.00    -0.351 N 
ATOM      4  C   UNL A   1      33.233  35.903  30.653  1.00  0.00     0.273 C 
ATOM      5  O   UNL A   1      32.478  36.736  31.170  1.00  0.00    -0.267 OA
ATOM      6  H   UNL A   1      32.844  36.837  28.955  1.00  0.00     0.163 HD
BRANCH   4   7
ATOM      7  C   UNL A   1      33.899  34.889  31.492  1.00  0.00     0.174 A 
ATOM      8  C   UNL A   1      35.129  34.216  31.623  1.00  0.00     0.077 A 
ATOM      9  N   UNL A   1      34.955  33.518  32.836  1.00  0.00    -0.217 N 
ATOM     10  N   UNL A   1      33.057  34.412  32.497  1.00  0.00    -0.124 NA
ATOM     11  N   UNL A   1      33.681  33.518  33.224  1.00  0.00    -0.061 NA
BRANCH   8  12
ATOM     12  C   UNL A   1      36.480  34.048  30.964  1.00  0.00     0.055 C 
ATOM     13  C   UNL A   1      37.757  34.579  31.545  1.00  0.00     0.011 C 
ENDBRANCH   8  12
BRANCH   9  14
ATOM     14  C   UNL A   1      35.912  32.743  33.532  1.00  0.00     0.067 A 
ATOM     15  C   UNL A   1      36.357  31.558  32.945  1.00  0.00     0.032 A 
ATOM     16  C   UNL A   1      36.545  33.259  34.672  1.00  0.00     0.032 A 
ATOM     17  C   UNL A   1      37.524  30.967  33.429  1.00  0.00     0.048 A 
ATOM     18  C   UNL A   1      37.711  32.661  35.145  1.00  0.00     0.048 A 
ATOM     19  C   UNL A   1      38.224  31.533  34.503  1.00  0.00     0.119 A 
BRANCH  19  20
ATOM     20  O   UNL A   1      39.393  30.900  34.824  1.00  0.00    -0.497 OA
ATOM     21  C   UNL A   1      40.402  31.703  35.424  1.00  0.00     0.278 C 
ENDBRANCH  19  20
ENDBRANCH   9  14
ENDBRANCH   4   7
ENDBRANCH   2   3
ENDBRANCH   1   2
BRANCH   1  22
ATOM     22  C   UNL A   1      34.396  32.864  28.304  1.00  0.00     0.118 C 
BRANCH  22  23
ATOM     23  N   UNL A   1      33.857  31.571  27.833  1.00  0.00    -0.352 N 
ATOM     24  C   UNL A   1      34.542  30.380  27.658  1.00  0.00     0.251 C 
ATOM     25  H   UNL A   1      32.896  31.555  27.618  1.00  0.00     0.163 HD
ATOM     26  O   UNL A   1      34.070  29.469  26.986  1.00  0.00    -0.269 OA
BRANCH  24  27
ATOM     27  C   UNL A   1      35.863  30.270  28.293  1.00  0.00     0.039 A 
ATOM     28  C   UNL A   1      36.040  29.827  29.603  1.00  0.00     0.014 A 
ATOM     29  C   UNL A   1      36.943  30.425  27.440  1.00  0.00     0.014 A 
ATOM     30  C   UNL A   1      37.316  29.419  29.988  1.00  0.00     0.010 A 
ATOM     31  C   UNL A   1      38.076  29.723  27.714  1.00  0.00     0.010 A 
ATOM     32  C   UNL A   1      38.325  29.322  29.015  1.00  0.00    -0.014 A 
BRANCH  32  33
ATOM     33  C   UNL A   1      39.627  28.724  29.284  1.00  0.00     0.031 A 
ATOM     34  C   UNL A   1      39.954  28.590  30.722  1.00  0.00     0.074 A 
ATOM     35  C   UNL A   1      40.387  28.138  28.329  1.00  0.00     0.049 A 
ATOM     36  N   UNL A   1      40.689  29.383  31.427  1.00  0.00    -0.248 NA
ATOM     37  C   UNL A   1      39.237  27.580  31.517  1.00  0.00     0.031 C 
ATOM     38  C   UNL A   1      40.050  27.897  26.915  1.00  0.00     0.029 A 
ATOM     39  N   UNL A   1      41.593  27.523  28.447  1.00  0.00    -0.354 N 
ATOM     40  C   UNL A   1      40.765  28.795  32.683  1.00  0.00     0.074 A 
ATOM     41  C   UNL A   1      39.667  27.864  32.750  1.00  0.00     0.031 C 
ATOM     42  C   UNL A   1      40.890  26.982  26.390  1.00  0.00     0.029 A 
ATOM     43  C   UNL A   1      41.954  26.756  27.345  1.00  0.00     0.049 A 
ATOM     44  H   UNL A   1      42.163  27.612  29.244  1.00  0.00     0.167 HD
ATOM     45  C   UNL A   1      41.911  28.868  33.417  1.00  0.00     0.031 A 
ATOM     46  C   UNL A   1      43.071  26.009  27.195  1.00  0.00     0.031 A 
ATOM     47  C   UNL A   1      42.855  29.774  32.805  1.00  0.00     0.049 A 
ATOM     48  C   UNL A   1      44.081  26.570  28.120  1.00  0.00     0.074 A 
ATOM     49  C   UNL A   1      42.931  31.129  32.574  1.00  0.00     0.029 A 
ATOM     50  N   UNL A   1      43.741  29.162  31.948  1.00  0.00    -0.354 N 
ATOM     51  N   UNL A   1      44.556  27.780  28.003  1.00  0.00    -0.248 NA
ATOM     52  C   UNL A   1      44.288  25.944  29.417  1.00  0.00     0.031 C 
ATOM     53  C   UNL A   1      43.672  31.273  31.363  1.00  0.00     0.029 A 
ATOM     54  C   UNL A   1      44.077  30.009  30.925  1.00  0.00     0.049 A 
ATOM     55  H   UNL A   1      44.084  28.246  32.055  1.00  0.00     0.167 HD
ATOM     56  C   UNL A   1      44.713  28.219  29.305  1.00  0.00     0.074 A 
ATOM     57  C   UNL A   1      44.701  27.006  30.115  1.00  0.00     0.031 C 
ATOM     58  C   UNL A   1      44.532  29.533  29.631  1.00  0.00     0.031 A 
BRANCH  45  59
ATOM     59  C   UNL A   1      42.396  27.785  34.358  1.00  0.00    -0.014 A 
ATOM     60  C   UNL A   1      42.521  28.097  35.729  1.00  0.00     0.010 A 
ATOM     61  C   UNL A   1      42.999  26.588  33.922  1.00  0.00     0.010 A 
ATOM     62  C   UNL A   1      43.269  27.290  36.597  1.00  0.00     0.020 A 
ATOM     63  C   UNL A   1      43.713  25.756  34.787  1.00  0.00     0.020 A 
ATOM     64  C   UNL A   1      43.872  26.129  36.114  1.00  0.00     0.054 A 
BRANCH  64  65
ATOM     65  S   UNL A   1      44.914  25.143  37.215  1.00  0.00     0.124 S 
ATOM     66  O   UNL A   1      44.672  23.790  36.726  1.00  0.00    -0.237 OA
ATOM     67  O   UNL A   1      46.242  25.687  36.951  1.00  0.00    -0.237 OA
ATOM     68  O   UNL A   1      44.379  25.437  38.543  1.00  0.00    -0.744 OA
ENDBRANCH  64  65
ENDBRANCH  45  59
BRANCH  46  69
ATOM     69  C   UNL A   1      43.225  24.724  26.480  1.00  0.00    -0.014 A 
ATOM     70  C   UNL A   1      43.997  24.629  25.308  1.00  0.00     0.010 A 
ATOM     71  C   UNL A   1      42.841  23.524  27.116  1.00  0.00     0.010 A 
ATOM     72  C   UNL A   1      44.429  23.381  24.830  1.00  0.00     0.020 A 
ATOM     73  C   UNL A   1      43.267  22.278  26.643  1.00  0.00     0.020 A 
ATOM     74  C   UNL A   1      44.081  22.214  25.515  1.00  0.00     0.054 A 
BRANCH  74  75
ATOM     75  S   UNL A   1      44.799  20.627  24.994  1.00  0.00     0.124 S 
ATOM     76  O   UNL A   1      43.914  19.660  25.639  1.00  0.00    -0.237 OA
ATOM     77  O   UNL A   1      44.703  20.698  23.538  1.00  0.00    -0.237 OA
ATOM     78  O   UNL A   1      46.160  20.673  25.526  1.00  0.00    -0.744 OA
ENDBRANCH  74  75
ENDBRANCH  46  69
BRANCH  58  79
ATOM     79  C   UNL A   1      44.662  30.558  28.529  1.00  0.00    -0.014 A 
ATOM     80  C   UNL A   1      43.676  30.822  27.560  1.00  0.00     0.010 A 
ATOM     81  C   UNL A   1      45.816  31.361  28.548  1.00  0.00     0.010 A 
ATOM     82  C   UNL A   1      43.857  31.850  26.620  1.00  0.00     0.020 A 
ATOM     83  C   UNL A   1      45.993  32.396  27.630  1.00  0.00     0.020 A 
ATOM     84  C   UNL A   1      45.017  32.630  26.662  1.00  0.00     0.054 A 
BRANCH  84  85
ATOM     85  S   UNL A   1      45.237  33.980  25.467  1.00  0.00     0.124 S 
ATOM     86  O   UNL A   1      44.503  35.077  26.090  1.00  0.00    -0.237 OA
ATOM     87  O   UNL A   1      46.689  34.139  25.421  1.00  0.00    -0.237 OA
ATOM     88  O   UNL A   1      44.642  33.457  24.238  1.00  0.00    -0.744 OA
ENDBRANCH  84  85
ENDBRANCH  58  79
ENDBRANCH  32  33
ENDBRANCH  24  27
ENDBRANCH  22  23
ENDBRANCH   1  22
TORSDOF 16
ENDMDL
MODEL 3
REMARK VINA RESULT:     -11.4      3.754      6.186
REMARK SMILES CCc1c(C(=O)NCCCNC(=O)c2ccc(-c3c4nc(c(-c5ccc(S(=O)(=O)[O-])cc5)c5ccc([nH]5)c(-c5ccc(S(=O)(=O)[O-])cc5)c5nc(c(-c6ccc(S(=O)(=O)[O-])cc6)c6ccc3[nH]6)C=C5)C=C4)cc2)nnn1-c1ccc(OC)cc1
REMARK SMILES IDX 9 1 8 2 7 3 5 4 6 5 4 7 3 8 76 9 74 10 75 11 2 12 1 13 77 14
REMARK SMILES IDX 78 15 84 16 79 17 83 18 80 19 81 20 82 21 10 22 11 23 12 24
REMARK SMILES IDX 13 26 14 27 15 28 73 29 16 30 72 31 17 32 18 33 19 34 66 35
REMARK SMILES IDX 20 36 71 37 65 38 67 39 21 40 70 41 64 42 63 43 22 45 52 46
REMARK SMILES IDX 33 47 51 48 34 49 37 50 50 51 68 52 35 53 36 54 49 56 69 57
REMARK SMILES IDX 38 58 23 59 24 60 32 61 25 62 31 63 26 64 27 65 28 66 29 67
REMARK SMILES IDX 30 68 53 69 54 70 62 71 55 72 61 73 56 74 57 75 58 76 59 77
REMARK SMILES IDX 60 78 39 79 40 80 48 81 41 82 47 83 42 84 43 85 44 86 45 87
REMARK SMILES IDX 46 88
REMARK H PARENT 7 6 11 25 67 44 37 55
REMARK Flexibility Score: inf
ROOT
ATOM      1  C   UNL A   1      37.265  21.381  25.031  1.00  0.00     0.042 C 
ENDROOT
BRANCH   1   2
ATOM      2  C   UNL A   1      36.020  21.326  25.926  1.00  0.00     0.118 C 
BRANCH   2   3
ATOM      3  N   UNL A   1      35.066  20.389  25.414  1.00  0.00    -0.351 N 
ATOM      4  C   UNL A   1      33.749  20.494  25.077  1.00  0.00     0.273 C 
ATOM      5  O   UNL A   1      33.270  19.422  24.687  1.00  0.00    -0.267 OA
ATOM      6  H   UNL A   1      35.437  19.487  25.277  1.00  0.00     0.163 HD
BRANCH   4   7
ATOM      7  C   UNL A   1      32.909  21.707  25.119  1.00  0.00     0.174 A 
ATOM      8  C   UNL A   1      32.968  23.086  24.841  1.00  0.00     0.077 A 
ATOM      9  N   UNL A   1      31.623  23.477  25.006  1.00  0.00    -0.217 N 
ATOM     10  N   UNL A   1      31.624  21.433  25.588  1.00  0.00    -0.124 NA
ATOM     11  N   UNL A   1      30.906  22.529  25.608  1.00  0.00    -0.061 NA
BRANCH   8  12
ATOM     12  C   UNL A   1      33.917  24.184  24.416  1.00  0.00     0.055 C 
ATOM     13  C   UNL A   1      34.661  25.057  25.383  1.00  0.00     0.011 C 
ENDBRANCH   8  12
BRANCH   9  14
ATOM     14  C   UNL A   1      31.057  24.749  24.757  1.00  0.00     0.067 A 
ATOM     15  C   UNL A   1      30.971  25.655  25.814  1.00  0.00     0.032 A 
ATOM     16  C   UNL A   1      30.785  25.155  23.442  1.00  0.00     0.032 A 
ATOM     17  C   UNL A   1      30.745  27.001  25.526  1.00  0.00     0.048 A 
ATOM     18  C   UNL A   1      30.563  26.502  23.168  1.00  0.00     0.048 A 
ATOM     19  C   UNL A   1      30.577  27.435  24.205  1.00  0.00     0.119 A 
BRANCH  19  20
ATOM     20  O   UNL A   1      30.444  28.788  24.058  1.00  0.00    -0.497 OA
ATOM     21  C   UNL A   1      31.293  29.598  24.863  1.00  0.00     0.278 C 
ENDBRANCH  19  20
ENDBRANCH   9  14
ENDBRANCH   4   7
ENDBRANCH   2   3
ENDBRANCH   1   2
BRANCH   1  22
ATOM     22  C   UNL A   1      38.300  22.328  25.570  1.00  0.00     0.118 C 
BRANCH  22  23
ATOM     23  N   UNL A   1      39.136  21.683  26.604  1.00  0.00    -0.352 N 
ATOM     24  C   UNL A   1      40.146  22.258  27.358  1.00  0.00     0.251 C 
ATOM     25  H   UNL A   1      38.954  20.731  26.777  1.00  0.00     0.163 HD
ATOM     26  O   UNL A   1      40.961  21.568  27.958  1.00  0.00    -0.269 OA
BRANCH  24  27
ATOM     27  C   UNL A   1      40.205  23.727  27.386  1.00  0.00     0.039 A 
ATOM     28  C   UNL A   1      39.066  24.531  27.403  1.00  0.00     0.014 A 
ATOM     29  C   UNL A   1      41.461  24.263  27.613  1.00  0.00     0.014 A 
ATOM     30  C   UNL A   1      39.213  25.863  27.786  1.00  0.00     0.010 A 
ATOM     31  C   UNL A   1      41.537  25.438  28.296  1.00  0.00     0.010 A 
ATOM     32  C   UNL A   1      40.453  26.299  28.284  1.00  0.00    -0.014 A 
BRANCH  32  33
ATOM     33  C   UNL A   1      40.646  27.612  28.886  1.00  0.00     0.031 A 
ATOM     34  C   UNL A   1      41.763  28.393  28.307  1.00  0.00     0.074 A 
ATOM     35  C   UNL A   1      39.761  28.173  29.743  1.00  0.00     0.049 A 
ATOM     36  N   UNL A   1      42.956  28.512  28.785  1.00  0.00    -0.248 NA
ATOM     37  C   UNL A   1      41.606  28.948  26.952  1.00  0.00     0.031 C 
ATOM     38  C   UNL A   1      38.442  27.662  30.158  1.00  0.00     0.029 A 
ATOM     39  N   UNL A   1      39.802  29.390  30.348  1.00  0.00    -0.354 N 
ATOM     40  C   UNL A   1      43.604  29.403  27.940  1.00  0.00     0.074 A 
ATOM     41  C   UNL A   1      42.834  29.424  26.722  1.00  0.00     0.031 C 
ATOM     42  C   UNL A   1      37.719  28.654  30.717  1.00  0.00     0.029 A 
ATOM     43  C   UNL A   1      38.597  29.787  30.916  1.00  0.00     0.049 A 
ATOM     44  H   UNL A   1      40.615  29.943  30.381  1.00  0.00     0.167 HD
ATOM     45  C   UNL A   1      44.506  30.298  28.433  1.00  0.00     0.031 A 
ATOM     46  C   UNL A   1      38.332  30.954  31.547  1.00  0.00     0.031 A 
ATOM     47  C   UNL A   1      44.800  30.018  29.820  1.00  0.00     0.049 A 
ATOM     48  C   UNL A   1      39.630  31.480  32.023  1.00  0.00     0.074 A 
ATOM     49  C   UNL A   1      45.429  29.015  30.522  1.00  0.00     0.029 A 
ATOM     50  N   UNL A   1      44.009  30.707  30.709  1.00  0.00    -0.354 N 
ATOM     51  N   UNL A   1      40.364  30.864  32.908  1.00  0.00    -0.248 NA
ATOM     52  C   UNL A   1      40.321  32.494  31.240  1.00  0.00     0.031 C 
ATOM     53  C   UNL A   1      44.766  28.955  31.784  1.00  0.00     0.029 A 
ATOM     54  C   UNL A   1      43.796  29.960  31.837  1.00  0.00     0.049 A 
ATOM     55  H   UNL A   1      43.646  31.610  30.556  1.00  0.00     0.167 HD
ATOM     56  C   UNL A   1      41.666  31.084  32.495  1.00  0.00     0.074 A 
ATOM     57  C   UNL A   1      41.584  32.219  31.584  1.00  0.00     0.031 C 
ATOM     58  C   UNL A   1      42.635  30.142  32.691  1.00  0.00     0.031 A 
BRANCH  45  59
ATOM     59  C   UNL A   1      44.727  31.688  27.874  1.00  0.00    -0.014 A 
ATOM     60  C   UNL A   1      46.031  32.046  27.467  1.00  0.00     0.010 A 
ATOM     61  C   UNL A   1      43.791  32.735  27.999  1.00  0.00     0.010 A 
ATOM     62  C   UNL A   1      46.393  33.385  27.267  1.00  0.00     0.020 A 
ATOM     63  C   UNL A   1      44.131  34.069  27.763  1.00  0.00     0.020 A 
ATOM     64  C   UNL A   1      45.439  34.390  27.429  1.00  0.00     0.054 A 
BRANCH  64  65
ATOM     65  S   UNL A   1      45.935  36.121  27.262  1.00  0.00     0.124 S 
ATOM     66  O   UNL A   1      46.716  36.092  26.030  1.00  0.00    -0.237 OA
ATOM     67  O   UNL A   1      44.647  36.804  27.184  1.00  0.00    -0.237 OA
ATOM     68  O   UNL A   1      46.696  36.376  28.483  1.00  0.00    -0.744 OA
ENDBRANCH  64  65
ENDBRANCH  45  59
BRANCH  46  69
ATOM     69  C   UNL A   1      37.072  31.728  31.551  1.00  0.00    -0.014 A 
ATOM     70  C   UNL A   1      36.319  31.887  32.728  1.00  0.00     0.010 A 
ATOM     71  C   UNL A   1      36.758  32.552  30.450  1.00  0.00     0.010 A 
ATOM     72  C   UNL A   1      35.335  32.885  32.822  1.00  0.00     0.020 A 
ATOM     73  C   UNL A   1      35.778  33.547  30.537  1.00  0.00     0.020 A 
ATOM     74  C   UNL A   1      35.087  33.725  31.734  1.00  0.00     0.054 A 
BRANCH  74  75
ATOM     75  S   UNL A   1      33.947  35.127  31.931  1.00  0.00     0.124 S 
ATOM     76  O   UNL A   1      33.740  35.555  30.550  1.00  0.00    -0.237 OA
ATOM     77  O   UNL A   1      32.794  34.509  32.580  1.00  0.00    -0.237 OA
ATOM     78  O   UNL A   1      34.695  36.066  32.765  1.00  0.00    -0.744 OA
ENDBRANCH  74  75
ENDBRANCH  46  69
BRANCH  58  79
ATOM     79  C   UNL A   1      42.413  29.114  33.775  1.00  0.00    -0.014 A 
ATOM     80  C   UNL A   1      41.783  27.870  33.583  1.00  0.00     0.010 A 
ATOM     81  C   UNL A   1      42.965  29.399  35.036  1.00  0.00     0.010 A 
ATOM     82  C   UNL A   1      41.691  26.947  34.638  1.00  0.00     0.020 A 
ATOM     83  C   UNL A   1      42.895  28.479  36.083  1.00  0.00     0.020 A 
ATOM     84  C   UNL A   1      42.248  27.260  35.882  1.00  0.00     0.054 A 
BRANCH  84  85
ATOM     85  S   UNL A   1      42.158  26.054  37.237  1.00  0.00     0.124 S 
ATOM     86  O   UNL A   1      42.619  24.825  36.599  1.00  0.00    -0.237 OA
ATOM     87  O   UNL A   1      43.058  26.622  38.237  1.00  0.00    -0.237 OA
ATOM     88  O   UNL A   1      40.745  26.061  37.615  1.00  0.00    -0.744 OA
ENDBRANCH  84  85
ENDBRANCH  58  79
ENDBRANCH  32  33
ENDBRANCH  24  27
ENDBRANCH  22  23
ENDBRANCH   1  22
TORSDOF 16
ENDMDL
