MODEL 1
REMARK VINA RESULT:     -11.0      0.000      0.000
REMARK SMILES O=C(NCCCNC(=O)c1cc(OC[C@@H]2Cc3cc(F)ccc3O2)cs1)c1ccc(-c2c3nc(c(-c4ccc(S(=O)(=O)[O-])cc4)c4ccc([nH]4)c(-c4ccc(S(=O)(=O)[O-])cc4)c4nc(c(-c5ccc(S(=O)(=O)[O-])cc5)c5ccc2[nH]5)C=C4)C=C3)cc1
REMARK SMILES IDX 5 1 4 2 3 3 1 4 2 5 27 7 28 8 86 9 29 10 85 11 30 12 31 13
REMARK SMILES IDX 32 14 79 15 33 16 84 17 78 18 80 19 34 20 83 21 77 22 76 23
REMARK SMILES IDX 35 25 65 26 46 27 64 28 47 29 50 30 63 31 81 32 48 33 49 34
REMARK SMILES IDX 62 36 82 37 51 38 36 39 37 40 45 41 38 42 44 43 39 44 40 45
REMARK SMILES IDX 41 46 42 47 43 48 66 49 67 50 75 51 68 52 74 53 69 54 70 55
REMARK SMILES IDX 71 56 72 57 73 58 52 59 53 60 61 61 54 62 60 63 55 64 56 65
REMARK SMILES IDX 57 66 58 67 59 68 6 69 7 70 8 71 9 73 10 74 11 75 26 76
REMARK SMILES IDX 12 77 25 78 13 79 14 80 15 81 16 82 24 83 17 84 23 85 18 86
REMARK SMILES IDX 22 87 19 88 21 89 20 90
REMARK H PARENT 3 6 80 24 50 35 7 72
REMARK Flexibility Score: inf
ROOT
ATOM      1  C   UNL A   1      33.080  29.320  25.202  1.00  0.00     0.042 C 
ENDROOT
BRANCH   1   2
ATOM      2  C   UNL A   1      33.799  29.188  26.539  1.00  0.00     0.118 C 
BRANCH   2   3
ATOM      3  N   UNL A   1      33.816  30.436  27.282  1.00  0.00    -0.352 N 
ATOM      4  O   UNL A   1      34.395  31.901  28.871  1.00  0.00    -0.269 OA
ATOM      5  C   UNL A   1      34.710  30.917  28.205  1.00  0.00     0.251 C 
ATOM      6  H   UNL A   1      33.060  31.037  27.091  1.00  0.00     0.163 HD
BRANCH   5   7
ATOM      7  C   UNL A   1      36.039  30.289  28.402  1.00  0.00     0.039 A 
ATOM      8  C   UNL A   1      36.343  29.747  29.657  1.00  0.00     0.014 A 
ATOM      9  C   UNL A   1      37.023  30.330  27.412  1.00  0.00     0.014 A 
ATOM     10  C   UNL A   1      37.621  29.238  29.914  1.00  0.00     0.010 A 
ATOM     11  C   UNL A   1      38.275  29.760  27.645  1.00  0.00     0.010 A 
ATOM     12  C   UNL A   1      38.597  29.240  28.908  1.00  0.00    -0.014 A 
BRANCH  12  13
ATOM     13  C   UNL A   1      39.995  28.812  29.171  1.00  0.00     0.031 A 
ATOM     14  C   UNL A   1      40.965  29.803  29.756  1.00  0.00     0.074 A 
ATOM     15  C   UNL A   1      40.408  27.571  28.849  1.00  0.00     0.049 A 
ATOM     16  N   UNL A   1      42.259  29.698  29.908  1.00  0.00    -0.248 NA
ATOM     17  C   UNL A   1      40.412  31.093  30.210  1.00  0.00     0.031 C 
ATOM     18  C   UNL A   1      39.564  26.515  28.290  1.00  0.00     0.029 A 
ATOM     19  N   UNL A   1      41.653  26.995  28.930  1.00  0.00    -0.354 N 
ATOM     20  C   UNL A   1      42.675  30.909  30.448  1.00  0.00     0.074 A 
ATOM     21  C   UNL A   1      41.507  31.749  30.569  1.00  0.00     0.031 C 
ATOM     22  C   UNL A   1      40.313  25.420  28.081  1.00  0.00     0.029 A 
ATOM     23  C   UNL A   1      41.700  25.709  28.442  1.00  0.00     0.049 A 
ATOM     24  H   UNL A   1      42.438  27.459  29.301  1.00  0.00     0.167 HD
ATOM     25  C   UNL A   1      43.918  31.278  30.829  1.00  0.00     0.031 A 
ATOM     26  C   UNL A   1      42.741  24.866  28.279  1.00  0.00     0.031 A 
ATOM     27  C   UNL A   1      45.070  30.420  30.755  1.00  0.00     0.049 A 
ATOM     28  C   UNL A   1      44.121  25.305  28.690  1.00  0.00     0.074 A 
ATOM     29  C   UNL A   1      46.363  30.697  31.158  1.00  0.00     0.029 A 
ATOM     30  N   UNL A   1      45.066  29.124  30.266  1.00  0.00    -0.354 N 
ATOM     31  N   UNL A   1      44.493  26.450  29.210  1.00  0.00    -0.248 NA
ATOM     32  C   UNL A   1      45.220  24.347  28.498  1.00  0.00     0.031 C 
ATOM     33  C   UNL A   1      47.155  29.585  30.868  1.00  0.00     0.029 A 
ATOM     34  C   UNL A   1      46.341  28.594  30.342  1.00  0.00     0.049 A 
ATOM     35  H   UNL A   1      44.275  28.651  29.919  1.00  0.00     0.167 HD
ATOM     36  C   UNL A   1      45.864  26.343  29.422  1.00  0.00     0.074 A 
ATOM     37  C   UNL A   1      46.256  25.021  28.986  1.00  0.00     0.031 C 
ATOM     38  C   UNL A   1      46.717  27.267  29.927  1.00  0.00     0.031 A 
BRANCH  25  39
ATOM     39  C   UNL A   1      44.124  32.656  31.393  1.00  0.00    -0.014 A 
ATOM     40  C   UNL A   1      44.512  33.707  30.540  1.00  0.00     0.010 A 
ATOM     41  C   UNL A   1      44.095  32.873  32.781  1.00  0.00     0.010 A 
ATOM     42  C   UNL A   1      44.914  34.935  31.069  1.00  0.00     0.020 A 
ATOM     43  C   UNL A   1      44.472  34.109  33.313  1.00  0.00     0.020 A 
ATOM     44  C   UNL A   1      44.908  35.122  32.454  1.00  0.00     0.054 A 
BRANCH  44  45
ATOM     45  S   UNL A   1      45.499  36.700  33.127  1.00  0.00     0.124 S 
ATOM     46  O   UNL A   1      44.350  37.152  33.906  1.00  0.00    -0.237 OA
ATOM     47  O   UNL A   1      46.670  36.297  33.902  1.00  0.00    -0.237 OA
ATOM     48  O   UNL A   1      45.795  37.489  31.932  1.00  0.00    -0.744 OA
ENDBRANCH  44  45
ENDBRANCH  25  39
BRANCH  26  49
ATOM     49  C   UNL A   1      42.501  23.520  27.688  1.00  0.00    -0.014 A 
ATOM     50  C   UNL A   1      42.124  22.441  28.509  1.00  0.00     0.010 A 
ATOM     51  C   UNL A   1      42.709  23.294  26.316  1.00  0.00     0.010 A 
ATOM     52  C   UNL A   1      42.006  21.153  27.982  1.00  0.00     0.020 A 
ATOM     53  C   UNL A   1      42.563  22.009  25.778  1.00  0.00     0.020 A 
ATOM     54  C   UNL A   1      42.241  20.943  26.621  1.00  0.00     0.054 A 
BRANCH  54  55
ATOM     55  S   UNL A   1      42.118  19.256  25.962  1.00  0.00     0.124 S 
ATOM     56  O   UNL A   1      42.636  18.463  27.072  1.00  0.00    -0.237 OA
ATOM     57  O   UNL A   1      40.687  19.116  25.703  1.00  0.00    -0.237 OA
ATOM     58  O   UNL A   1      42.962  19.295  24.771  1.00  0.00    -0.744 OA
ENDBRANCH  54  55
ENDBRANCH  26  49
BRANCH  38  59
ATOM     59  C   UNL A   1      48.174  26.915  30.064  1.00  0.00    -0.014 A 
ATOM     60  C   UNL A   1      48.663  26.470  31.308  1.00  0.00     0.010 A 
ATOM     61  C   UNL A   1      49.082  27.231  29.040  1.00  0.00     0.010 A 
ATOM     62  C   UNL A   1      50.038  26.410  31.545  1.00  0.00     0.020 A 
ATOM     63  C   UNL A   1      50.458  27.148  29.268  1.00  0.00     0.020 A 
ATOM     64  C   UNL A   1      50.926  26.771  30.529  1.00  0.00     0.054 A 
BRANCH  64  65
ATOM     65  S   UNL A   1      52.705  26.781  30.887  1.00  0.00     0.124 S 
ATOM     66  O   UNL A   1      52.825  27.903  31.814  1.00  0.00    -0.237 OA
ATOM     67  O   UNL A   1      52.924  25.459  31.467  1.00  0.00    -0.237 OA
ATOM     68  O   UNL A   1      53.317  26.986  29.576  1.00  0.00    -0.744 OA
ENDBRANCH  64  65
ENDBRANCH  38  59
ENDBRANCH  12  13
ENDBRANCH   5   7
ENDBRANCH   2   3
ENDBRANCH   1   2
BRANCH   1  69
ATOM     69  C   UNL A   1      31.559  29.261  25.288  1.00  0.00     0.118 C 
BRANCH  69  70
ATOM     70  N   UNL A   1      30.905  29.496  24.010  1.00  0.00    -0.351 N 
ATOM     71  C   UNL A   1      30.801  28.663  22.921  1.00  0.00     0.261 C 
ATOM     72  H   UNL A   1      30.475  30.376  23.910  1.00  0.00     0.163 HD
ATOM     73  O   UNL A   1      30.324  29.133  21.883  1.00  0.00    -0.268 OA
BRANCH  71  74
ATOM     74  C   UNL A   1      31.253  27.295  23.050  1.00  0.00     0.096 A 
ATOM     75  C   UNL A   1      30.782  26.294  23.881  1.00  0.00     0.072 A 
ATOM     76  S   UNL A   1      32.541  26.742  22.069  1.00  0.00    -0.135 S 
ATOM     77  C   UNL A   1      31.613  25.142  23.848  1.00  0.00     0.131 A 
ATOM     78  C   UNL A   1      32.577  25.232  22.870  1.00  0.00     0.112 A 
BRANCH  77  79
ATOM     79  O   UNL A   1      31.568  24.031  24.618  1.00  0.00    -0.489 OA
BRANCH  79  80
ATOM     80  C   UNL A   1      32.495  22.995  24.288  1.00  0.00     0.275 C 
BRANCH  80  81
ATOM     81  C   UNL A   1      33.516  22.638  25.383  1.00  0.00     0.215 C 
ATOM     82  C   UNL A   1      34.487  23.773  25.747  1.00  0.00     0.088 C 
ATOM     83  O   UNL A   1      34.262  21.462  24.958  1.00  0.00    -0.486 OA
ATOM     84  C   UNL A   1      35.770  23.044  25.703  1.00  0.00     0.001 A 
ATOM     85  C   UNL A   1      35.569  21.757  25.234  1.00  0.00     0.123 A 
ATOM     86  C   UNL A   1      37.040  23.499  26.009  1.00  0.00     0.047 A 
ATOM     87  C   UNL A   1      36.617  20.876  25.047  1.00  0.00     0.050 A 
ATOM     88  C   UNL A   1      38.106  22.622  25.824  1.00  0.00     0.123 A 
ATOM     89  C   UNL A   1      37.906  21.322  25.348  1.00  0.00     0.043 A 
ATOM     90  F   UNL A   1      39.350  23.038  26.091  1.00  0.00    -0.207 F 
ENDBRANCH  80  81
ENDBRANCH  79  80
ENDBRANCH  77  79
ENDBRANCH  71  74
ENDBRANCH  69  70
ENDBRANCH   1  69
TORSDOF 16
ENDMDL
MODEL 2
REMARK VINA RESULT:     -10.8      1.806      2.209
REMARK SMILES O=C(NCCCNC(=O)c1cc(OC[C@@H]2Cc3cc(F)ccc3O2)cs1)c1ccc(-c2c3nc(c(-c4ccc(S(=O)(=O)[O-])cc4)c4ccc([nH]4)c(-c4ccc(S(=O)(=O)[O-])cc4)c4nc(c(-c5ccc(S(=O)(=O)[O-])cc5)c5ccc2[nH]5)C=C4)C=C3)cc1
REMARK SMILES IDX 5 1 4 2 3 3 1 4 2 5 27 7 28 8 86 9 29 10 85 11 30 12 31 13
REMARK SMILES IDX 32 14 79 15 33 16 84 17 78 18 80 19 34 20 83 21 77 22 76 23
REMARK SMILES IDX 35 25 65 26 46 27 64 28 47 29 50 30 63 31 81 32 48 33 49 34
REMARK SMILES IDX 62 36 82 37 51 38 36 39 37 40 45 41 38 42 44 43 39 44 40 45
REMARK SMILES IDX 41 46 42 47 43 48 66 49 67 50 75 51 68 52 74 53 69 54 70 55
REMARK SMILES IDX 71 56 72 57 73 58 52 59 53 60 61 61 54 62 60 63 55 64 56 65
REMARK SMILES IDX 57 66 58 67 59 68 6 69 7 70 8 71 9 73 10 74 11 75 26 76
REMARK SMILES IDX 12 77 25 78 13 79 14 80 15 81 16 82 24 83 17 84 23 85 18 86
REMARK SMILES IDX 22 87 19 88 21 89 20 90
REMARK H PARENT 3 6 80 24 50 35 7 72
REMARK Flexibility Score: inf
ROOT
ATOM      1  C   UNL A   1      32.836  28.558  25.807  1.00  0.00     0.042 C 
ENDROOT
BRANCH   1   2
ATOM      2  C   UNL A   1      33.435  28.698  27.201  1.00  0.00     0.118 C 
BRANCH   2   3
ATOM      3  N   UNL A   1      33.538  30.085  27.619  1.00  0.00    -0.352 N 
ATOM      4  O   UNL A   1      34.309  31.869  28.728  1.00  0.00    -0.269 OA
ATOM      5  C   UNL A   1      34.543  30.750  28.277  1.00  0.00     0.251 C 
ATOM      6  H   UNL A   1      32.758  30.641  27.393  1.00  0.00     0.163 HD
BRANCH   5   7
ATOM      7  C   UNL A   1      35.892  30.158  28.439  1.00  0.00     0.039 A 
ATOM      8  C   UNL A   1      36.254  29.651  29.693  1.00  0.00     0.014 A 
ATOM      9  C   UNL A   1      36.839  30.198  27.413  1.00  0.00     0.014 A 
ATOM     10  C   UNL A   1      37.551  29.177  29.914  1.00  0.00     0.010 A 
ATOM     11  C   UNL A   1      38.111  29.663  27.612  1.00  0.00     0.010 A 
ATOM     12  C   UNL A   1      38.490  29.179  28.874  1.00  0.00    -0.014 A 
BRANCH  12  13
ATOM     13  C   UNL A   1      39.907  28.789  29.096  1.00  0.00     0.031 A 
ATOM     14  C   UNL A   1      40.872  29.813  29.629  1.00  0.00     0.074 A 
ATOM     15  C   UNL A   1      40.339  27.553  28.780  1.00  0.00     0.049 A 
ATOM     16  N   UNL A   1      42.173  29.742  29.738  1.00  0.00    -0.248 NA
ATOM     17  C   UNL A   1      40.303  31.097  30.081  1.00  0.00     0.031 C 
ATOM     18  C   UNL A   1      39.502  26.468  28.268  1.00  0.00     0.029 A 
ATOM     19  N   UNL A   1      41.600  27.008  28.827  1.00  0.00    -0.354 N 
ATOM     20  C   UNL A   1      42.577  30.971  30.243  1.00  0.00     0.074 A 
ATOM     21  C   UNL A   1      41.394  31.785  30.390  1.00  0.00     0.031 C 
ATOM     22  C   UNL A   1      40.270  25.387  28.052  1.00  0.00     0.029 A 
ATOM     23  C   UNL A   1      41.661  25.715  28.360  1.00  0.00     0.049 A 
ATOM     24  H   UNL A   1      42.385  27.497  29.163  1.00  0.00     0.167 HD
ATOM     25  C   UNL A   1      43.824  31.376  30.574  1.00  0.00     0.031 A 
ATOM     26  C   UNL A   1      42.716  24.895  28.175  1.00  0.00     0.031 A 
ATOM     27  C   UNL A   1      44.992  30.545  30.474  1.00  0.00     0.049 A 
ATOM     28  C   UNL A   1      44.098  25.373  28.530  1.00  0.00     0.074 A 
ATOM     29  C   UNL A   1      46.292  30.860  30.827  1.00  0.00     0.029 A 
ATOM     30  N   UNL A   1      45.003  29.241  30.008  1.00  0.00    -0.354 N 
ATOM     31  N   UNL A   1      44.460  26.536  29.017  1.00  0.00    -0.248 NA
ATOM     32  C   UNL A   1      45.213  24.439  28.316  1.00  0.00     0.031 C 
ATOM     33  C   UNL A   1      47.100  29.763  30.529  1.00  0.00     0.029 A 
ATOM     34  C   UNL A   1      46.293  28.743  30.048  1.00  0.00     0.049 A 
ATOM     35  H   UNL A   1      44.213  28.743  29.696  1.00  0.00     0.167 HD
ATOM     36  C   UNL A   1      45.840  26.466  29.183  1.00  0.00     0.074 A 
ATOM     37  C   UNL A   1      46.248  25.145  28.756  1.00  0.00     0.031 C 
ATOM     38  C   UNL A   1      46.687  27.418  29.642  1.00  0.00     0.031 A 
BRANCH  25  39
ATOM     39  C   UNL A   1      44.015  32.769  31.108  1.00  0.00    -0.014 A 
ATOM     40  C   UNL A   1      44.396  33.804  30.232  1.00  0.00     0.010 A 
ATOM     41  C   UNL A   1      43.979  33.017  32.490  1.00  0.00     0.010 A 
ATOM     42  C   UNL A   1      44.785  35.047  30.735  1.00  0.00     0.020 A 
ATOM     43  C   UNL A   1      44.343  34.268  32.995  1.00  0.00     0.020 A 
ATOM     44  C   UNL A   1      44.773  35.265  32.115  1.00  0.00     0.054 A 
BRANCH  44  45
ATOM     45  S   UNL A   1      45.347  36.863  32.754  1.00  0.00     0.124 S 
ATOM     46  O   UNL A   1      44.099  37.494  33.171  1.00  0.00    -0.237 OA
ATOM     47  O   UNL A   1      46.248  36.470  33.834  1.00  0.00    -0.237 OA
ATOM     48  O   UNL A   1      46.003  37.475  31.599  1.00  0.00    -0.744 OA
ENDBRANCH  44  45
ENDBRANCH  25  39
BRANCH  26  49
ATOM     49  C   UNL A   1      42.489  23.533  27.615  1.00  0.00    -0.014 A 
ATOM     50  C   UNL A   1      42.191  22.455  28.469  1.00  0.00     0.010 A 
ATOM     51  C   UNL A   1      42.632  23.293  26.237  1.00  0.00     0.010 A 
ATOM     52  C   UNL A   1      42.087  21.156  27.965  1.00  0.00     0.020 A 
ATOM     53  C   UNL A   1      42.499  21.997  25.724  1.00  0.00     0.020 A 
ATOM     54  C   UNL A   1      42.256  20.934  26.597  1.00  0.00     0.054 A 
BRANCH  54  55
ATOM     55  S   UNL A   1      42.153  19.234  25.967  1.00  0.00     0.124 S 
ATOM     56  O   UNL A   1      40.725  19.104  25.694  1.00  0.00    -0.237 OA
ATOM     57  O   UNL A   1      43.017  19.274  24.790  1.00  0.00    -0.237 OA
ATOM     58  O   UNL A   1      42.655  18.429  27.077  1.00  0.00    -0.744 OA
ENDBRANCH  54  55
ENDBRANCH  26  49
BRANCH  38  59
ATOM     59  C   UNL A   1      48.156  27.104  29.735  1.00  0.00    -0.014 A 
ATOM     60  C   UNL A   1      48.700  26.704  30.970  1.00  0.00     0.010 A 
ATOM     61  C   UNL A   1      49.018  27.412  28.669  1.00  0.00     0.010 A 
ATOM     62  C   UNL A   1      50.084  26.682  31.158  1.00  0.00     0.020 A 
ATOM     63  C   UNL A   1      50.403  27.367  28.848  1.00  0.00     0.020 A 
ATOM     64  C   UNL A   1      50.925  27.035  30.101  1.00  0.00     0.054 A 
BRANCH  64  65
ATOM     65  S   UNL A   1      52.716  27.096  30.392  1.00  0.00     0.124 S 
ATOM     66  O   UNL A   1      52.980  25.777  30.959  1.00  0.00    -0.237 OA
ATOM     67  O   UNL A   1      53.251  27.324  29.052  1.00  0.00    -0.237 OA
ATOM     68  O   UNL A   1      52.874  28.217  31.316  1.00  0.00    -0.744 OA
ENDBRANCH  64  65
ENDBRANCH  38  59
ENDBRANCH  12  13
ENDBRANCH   5   7
ENDBRANCH   2   3
ENDBRANCH   1   2
BRANCH   1  69
ATOM     69  C   UNL A   1      31.710  27.536  25.697  1.00  0.00     0.118 C 
BRANCH  69  70
ATOM     70  N   UNL A   1      30.774  27.829  24.622  1.00  0.00    -0.351 N 
ATOM     71  C   UNL A   1      30.740  27.331  23.340  1.00  0.00     0.261 C 
ATOM     72  H   UNL A   1      30.065  28.475  24.843  1.00  0.00     0.163 HD
ATOM     73  O   UNL A   1      29.937  27.838  22.550  1.00  0.00    -0.268 OA
BRANCH  71  74
ATOM     74  C   UNL A   1      31.638  26.253  22.991  1.00  0.00     0.096 A 
ATOM     75  C   UNL A   1      31.431  24.886  23.062  1.00  0.00     0.072 A 
ATOM     76  S   UNL A   1      33.195  26.622  22.386  1.00  0.00    -0.135 S 
ATOM     77  C   UNL A   1      32.623  24.156  22.809  1.00  0.00     0.131 A 
ATOM     78  C   UNL A   1      33.645  24.972  22.381  1.00  0.00     0.112 A 
BRANCH  77  79
ATOM     79  O   UNL A   1      32.856  22.829  22.929  1.00  0.00    -0.489 OA
BRANCH  79  80
ATOM     80  C   UNL A   1      32.864  22.307  24.260  1.00  0.00     0.275 C 
BRANCH  80  81
ATOM     81  C   UNL A   1      32.165  20.949  24.450  1.00  0.00     0.215 C 
ATOM     82  C   UNL A   1      32.621  20.162  25.690  1.00  0.00     0.088 C 
ATOM     83  O   UNL A   1      32.368  20.149  23.250  1.00  0.00    -0.486 OA
ATOM     84  C   UNL A   1      32.857  18.835  25.086  1.00  0.00     0.001 A 
ATOM     85  C   UNL A   1      32.714  18.908  23.710  1.00  0.00     0.123 A 
ATOM     86  C   UNL A   1      33.221  17.651  25.702  1.00  0.00     0.047 A 
ATOM     87  C   UNL A   1      32.931  17.813  22.895  1.00  0.00     0.050 A 
ATOM     88  C   UNL A   1      33.445  16.541  24.892  1.00  0.00     0.123 A 
ATOM     89  C   UNL A   1      33.304  16.611  23.502  1.00  0.00     0.043 A 
ATOM     90  F   UNL A   1      33.820  15.386  25.455  1.00  0.00    -0.207 F 
ENDBRANCH  80  81
ENDBRANCH  79  80
ENDBRANCH  77  79
ENDBRANCH  71  74
ENDBRANCH  69  70
ENDBRANCH   1  69
TORSDOF 16
ENDMDL
MODEL 3
REMARK VINA RESULT:     -10.8      1.424      8.333
REMARK SMILES O=C(NCCCNC(=O)c1cc(OC[C@@H]2Cc3cc(F)ccc3O2)cs1)c1ccc(-c2c3nc(c(-c4ccc(S(=O)(=O)[O-])cc4)c4ccc([nH]4)c(-c4ccc(S(=O)(=O)[O-])cc4)c4nc(c(-c5ccc(S(=O)(=O)[O-])cc5)c5ccc2[nH]5)C=C4)C=C3)cc1
REMARK SMILES IDX 5 1 4 2 3 3 1 4 2 5 27 7 28 8 86 9 29 10 85 11 30 12 31 13
REMARK SMILES IDX 32 14 79 15 33 16 84 17 78 18 80 19 34 20 83 21 77 22 76 23
REMARK SMILES IDX 35 25 65 26 46 27 64 28 47 29 50 30 63 31 81 32 48 33 49 34
REMARK SMILES IDX 62 36 82 37 51 38 36 39 37 40 45 41 38 42 44 43 39 44 40 45
REMARK SMILES IDX 41 46 42 47 43 48 66 49 67 50 75 51 68 52 74 53 69 54 70 55
REMARK SMILES IDX 71 56 72 57 73 58 52 59 53 60 61 61 54 62 60 63 55 64 56 65
REMARK SMILES IDX 57 66 58 67 59 68 6 69 7 70 8 71 9 73 10 74 11 75 26 76
REMARK SMILES IDX 12 77 25 78 13 79 14 80 15 81 16 82 24 83 17 84 23 85 18 86
REMARK SMILES IDX 22 87 19 88 21 89 20 90
REMARK H PARENT 3 6 80 24 50 35 7 72
REMARK Flexibility Score: inf
ROOT
ATOM      1  C   UNL A   1      32.258  27.943  27.244  1.00  0.00     0.042 C 
ENDROOT
BRANCH   1   2
ATOM      2  C   UNL A   1      33.502  28.643  26.712  1.00  0.00     0.118 C 
BRANCH   2   3
ATOM      3  N   UNL A   1      33.544  30.048  27.081  1.00  0.00    -0.352 N 
ATOM      4  O   UNL A   1      34.175  31.888  28.188  1.00  0.00    -0.269 OA
ATOM      5  C   UNL A   1      34.467  30.756  27.809  1.00  0.00     0.251 C 
ATOM      6  H   UNL A   1      32.784  30.581  26.754  1.00  0.00     0.163 HD
BRANCH   5   7
ATOM      7  C   UNL A   1      35.801  30.194  28.132  1.00  0.00     0.039 A 
ATOM      8  C   UNL A   1      36.022  29.695  29.422  1.00  0.00     0.014 A 
ATOM      9  C   UNL A   1      36.862  30.256  27.226  1.00  0.00     0.014 A 
ATOM     10  C   UNL A   1      37.294  29.250  29.797  1.00  0.00     0.010 A 
ATOM     11  C   UNL A   1      38.113  29.749  27.576  1.00  0.00     0.010 A 
ATOM     12  C   UNL A   1      38.350  29.274  28.875  1.00  0.00    -0.014 A 
BRANCH  12  13
ATOM     13  C   UNL A   1      39.738  28.915  29.265  1.00  0.00     0.031 A 
ATOM     14  C   UNL A   1      40.281  27.566  28.873  1.00  0.00     0.074 A 
ATOM     15  C   UNL A   1      40.488  29.758  30.001  1.00  0.00     0.049 A 
ATOM     16  N   UNL A   1      41.391  26.985  29.248  1.00  0.00    -0.248 NA
ATOM     17  C   UNL A   1      39.460  26.755  27.955  1.00  0.00     0.031 C 
ATOM     18  C   UNL A   1      40.082  31.096  30.432  1.00  0.00     0.029 A 
ATOM     19  N   UNL A   1      41.746  29.604  30.531  1.00  0.00    -0.354 N 
ATOM     20  C   UNL A   1      41.387  25.737  28.636  1.00  0.00     0.074 A 
ATOM     21  C   UNL A   1      40.155  25.627  27.892  1.00  0.00     0.031 C 
ATOM     22  C   UNL A   1      41.072  31.641  31.158  1.00  0.00     0.029 A 
ATOM     23  C   UNL A   1      42.163  30.675  31.287  1.00  0.00     0.049 A 
ATOM     24  H   UNL A   1      42.298  28.801  30.384  1.00  0.00     0.167 HD
ATOM     25  C   UNL A   1      42.339  24.778  28.675  1.00  0.00     0.031 A 
ATOM     26  C   UNL A   1      43.280  30.853  32.022  1.00  0.00     0.031 A 
ATOM     27  C   UNL A   1      43.587  24.912  29.376  1.00  0.00     0.049 A 
ATOM     28  C   UNL A   1      44.317  29.763  32.069  1.00  0.00     0.074 A 
ATOM     29  C   UNL A   1      44.630  24.005  29.436  1.00  0.00     0.029 A 
ATOM     30  N   UNL A   1      43.969  26.019  30.116  1.00  0.00    -0.354 N 
ATOM     31  N   UNL A   1      44.302  28.595  31.475  1.00  0.00    -0.248 NA
ATOM     32  C   UNL A   1      45.519  30.009  32.879  1.00  0.00     0.031 C 
ATOM     33  C   UNL A   1      45.624  24.542  30.254  1.00  0.00     0.029 A 
ATOM     34  C   UNL A   1      45.226  25.809  30.652  1.00  0.00     0.049 A 
ATOM     35  H   UNL A   1      43.428  26.831  30.242  1.00  0.00     0.167 HD
ATOM     36  C   UNL A   1      45.497  27.974  31.825  1.00  0.00     0.074 A 
ATOM     37  C   UNL A   1      46.218  28.898  32.673  1.00  0.00     0.031 C 
ATOM     38  C   UNL A   1      45.947  26.745  31.477  1.00  0.00     0.031 A 
BRANCH  25  39
ATOM     39  C   UNL A   1      42.107  23.496  27.924  1.00  0.00    -0.014 A 
ATOM     40  C   UNL A   1      41.521  22.399  28.583  1.00  0.00     0.010 A 
ATOM     41  C   UNL A   1      42.616  23.327  26.625  1.00  0.00     0.010 A 
ATOM     42  C   UNL A   1      41.493  21.142  27.975  1.00  0.00     0.020 A 
ATOM     43  C   UNL A   1      42.566  22.076  26.003  1.00  0.00     0.020 A 
ATOM     44  C   UNL A   1      42.032  20.986  26.694  1.00  0.00     0.054 A 
BRANCH  44  45
ATOM     45  S   UNL A   1      42.048  19.333  25.948  1.00  0.00     0.124 S 
ATOM     46  O   UNL A   1      42.576  18.510  27.032  1.00  0.00    -0.237 OA
ATOM     47  O   UNL A   1      40.640  19.117  25.620  1.00  0.00    -0.237 OA
ATOM     48  O   UNL A   1      42.930  19.489  24.792  1.00  0.00    -0.744 OA
ENDBRANCH  44  45
ENDBRANCH  25  39
BRANCH  26  49
ATOM     49  C   UNL A   1      43.459  32.124  32.778  1.00  0.00    -0.014 A 
ATOM     50  C   UNL A   1      44.162  33.199  32.202  1.00  0.00     0.010 A 
ATOM     51  C   UNL A   1      42.984  32.246  34.096  1.00  0.00     0.010 A 
ATOM     52  C   UNL A   1      44.430  34.353  32.944  1.00  0.00     0.020 A 
ATOM     53  C   UNL A   1      43.226  33.412  34.832  1.00  0.00     0.020 A 
ATOM     54  C   UNL A   1      43.972  34.445  34.260  1.00  0.00     0.054 A 
BRANCH  54  55
ATOM     55  S   UNL A   1      44.362  35.936  35.219  1.00  0.00     0.124 S 
ATOM     56  O   UNL A   1      45.460  35.471  36.062  1.00  0.00    -0.237 OA
ATOM     57  O   UNL A   1      44.729  36.899  34.183  1.00  0.00    -0.237 OA
ATOM     58  O   UNL A   1      43.113  36.226  35.919  1.00  0.00    -0.744 OA
ENDBRANCH  54  55
ENDBRANCH  26  49
BRANCH  38  59
ATOM     59  C   UNL A   1      47.289  26.288  31.984  1.00  0.00    -0.014 A 
ATOM     60  C   UNL A   1      48.416  26.397  31.147  1.00  0.00     0.010 A 
ATOM     61  C   UNL A   1      47.387  25.564  33.183  1.00  0.00     0.010 A 
ATOM     62  C   UNL A   1      49.602  25.733  31.470  1.00  0.00     0.020 A 
ATOM     63  C   UNL A   1      48.580  24.919  33.520  1.00  0.00     0.020 A 
ATOM     64  C   UNL A   1      49.668  24.980  32.645  1.00  0.00     0.054 A 
BRANCH  64  65
ATOM     65  S   UNL A   1      51.181  24.043  32.999  1.00  0.00     0.124 S 
ATOM     66  O   UNL A   1      50.886  23.466  34.307  1.00  0.00    -0.237 OA
ATOM     67  O   UNL A   1      51.239  23.094  31.890  1.00  0.00    -0.237 OA
ATOM     68  O   UNL A   1      52.226  25.065  32.988  1.00  0.00    -0.744 OA
ENDBRANCH  64  65
ENDBRANCH  38  59
ENDBRANCH  12  13
ENDBRANCH   5   7
ENDBRANCH   2   3
ENDBRANCH   1   2
BRANCH   1  69
ATOM     69  C   UNL A   1      31.225  27.586  26.181  1.00  0.00     0.118 C 
BRANCH  69  70
ATOM     70  N   UNL A   1      31.538  28.138  24.872  1.00  0.00    -0.351 N 
ATOM     71  C   UNL A   1      31.852  27.482  23.704  1.00  0.00     0.261 C 
ATOM     72  H   UNL A   1      31.523  29.120  24.811  1.00  0.00     0.163 HD
ATOM     73  O   UNL A   1      32.228  28.165  22.746  1.00  0.00    -0.268 OA
BRANCH  71  74
ATOM     74  C   UNL A   1      31.727  26.041  23.664  1.00  0.00     0.096 A 
ATOM     75  C   UNL A   1      32.713  25.076  23.760  1.00  0.00     0.072 A 
ATOM     76  S   UNL A   1      30.177  25.339  23.487  1.00  0.00    -0.135 S 
ATOM     77  C   UNL A   1      32.211  23.775  23.487  1.00  0.00     0.131 A 
ATOM     78  C   UNL A   1      30.840  23.768  23.370  1.00  0.00     0.112 A 
BRANCH  77  79
ATOM     79  O   UNL A   1      32.884  22.611  23.339  1.00  0.00    -0.489 OA
BRANCH  79  80
ATOM     80  C   UNL A   1      32.643  21.611  24.330  1.00  0.00     0.275 C 
BRANCH  80  81
ATOM     81  C   UNL A   1      33.738  21.451  25.399  1.00  0.00     0.215 C 
ATOM     82  C   UNL A   1      34.365  22.771  25.876  1.00  0.00     0.088 C 
ATOM     83  O   UNL A   1      34.773  20.569  24.877  1.00  0.00    -0.486 OA
ATOM     84  C   UNL A   1      35.799  22.431  25.780  1.00  0.00     0.001 A 
ATOM     85  C   UNL A   1      35.952  21.186  25.193  1.00  0.00     0.123 A 
ATOM     86  C   UNL A   1      36.899  23.188  26.140  1.00  0.00     0.047 A 
ATOM     87  C   UNL A   1      37.199  20.648  24.938  1.00  0.00     0.050 A 
ATOM     88  C   UNL A   1      38.162  22.659  25.887  1.00  0.00     0.123 A 
ATOM     89  C   UNL A   1      38.321  21.402  25.292  1.00  0.00     0.043 A 
ATOM     90  F   UNL A   1      39.247  23.375  26.204  1.00  0.00    -0.207 F 
ENDBRANCH  80  81
ENDBRANCH  79  80
ENDBRANCH  77  79
ENDBRANCH  71  74
ENDBRANCH  69  70
ENDBRANCH   1  69
TORSDOF 16
ENDMDL
