MODEL 1
REMARK VINA RESULT:     -13.9      0.000      0.000
REMARK SMILES Cc1cccc(-n2ncc(C(=O)Nc3cccc(C(=O)NCCCNC(=O)c4ccc(-c5c6nc(c(-c7ccc(S(=O)(=O)[O-])cc7)c7ccc([nH]7)c(-c7ccc(S(=O)(=O)[O-])cc7)c7nc(c(-c8ccc(S(=O)(=O)[O-])cc8)c8ccc5[nH]8)C=C7)C=C6)cc4)c3C)c2C)c1
REMARK SMILES IDX 23 1 22 2 21 3 19 4 20 5 18 7 14 8 15 9 88 10 16 11 89 12
REMARK SMILES IDX 17 13 13 14 11 15 12 16 10 18 7 19 8 20 90 21 9 22 91 23
REMARK SMILES IDX 6 24 1 25 2 26 3 27 92 28 4 29 5 30 24 31 25 32 26 33 27 35
REMARK SMILES IDX 28 36 29 37 87 38 30 39 86 40 31 41 32 42 33 43 80 44 34 45
REMARK SMILES IDX 85 46 79 47 81 48 35 49 84 50 78 51 77 52 36 54 66 55 47 56
REMARK SMILES IDX 65 57 48 58 51 59 64 60 82 61 49 62 50 63 63 65 83 66 52 67
REMARK SMILES IDX 37 68 38 69 46 70 39 71 45 72 40 73 41 74 42 75 43 76 44 77
REMARK SMILES IDX 67 78 68 79 76 80 69 81 75 82 70 83 71 84 72 85 73 86 74 87
REMARK SMILES IDX 53 88 54 89 62 90 55 91 61 92 56 93 57 94 58 95 59 96 60 97
REMARK H PARENT 21 6 13 17 25 34 81 53 51 64
REMARK Flexibility Score: inf
ROOT
ATOM      1  C   UNL A   1      37.765  22.279  25.084  1.00  0.00     0.042 C 
ENDROOT
BRANCH   1   2
ATOM      2  C   UNL A   1      36.714  21.340  25.677  1.00  0.00     0.118 C 
BRANCH   2   3
ATOM      3  N   UNL A   1      35.761  22.046  26.522  1.00  0.00    -0.352 N 
ATOM      4  C   UNL A   1      34.452  22.444  26.378  1.00  0.00     0.251 C 
ATOM      5  O   UNL A   1      33.946  22.946  27.380  1.00  0.00    -0.269 OA
ATOM      6  H   UNL A   1      36.140  22.294  27.396  1.00  0.00     0.163 HD
BRANCH   4   7
ATOM      7  C   UNL A   1      33.633  22.279  25.116  1.00  0.00     0.044 A 
ATOM      8  C   UNL A   1      32.878  23.037  22.918  1.00  0.00     0.045 A 
ATOM      9  C   UNL A   1      31.919  22.019  22.879  1.00  0.00     0.026 A 
ATOM     10  C   UNL A   1      33.819  23.121  23.979  1.00  0.00    -0.015 A 
ATOM     11  C   UNL A   1      31.827  21.120  23.922  1.00  0.00     0.003 A 
ATOM     12  C   UNL A   1      34.890  24.185  23.914  1.00  0.00     0.047 C 
ATOM     13  C   UNL A   1      32.661  21.268  25.026  1.00  0.00     0.014 A 
BRANCH   8  14
ATOM     14  N   UNL A   1      32.872  23.995  21.892  1.00  0.00    -0.322 N 
ATOM     15  C   UNL A   1      32.322  25.261  21.898  1.00  0.00     0.259 C 
ATOM     16  O   UNL A   1      32.097  25.801  20.813  1.00  0.00    -0.269 OA
ATOM     17  H   UNL A   1      33.321  23.729  21.056  1.00  0.00     0.170 HD
BRANCH  15  18
ATOM     18  C   UNL A   1      32.138  25.972  23.166  1.00  0.00     0.081 A 
ATOM     19  N   UNL A   1      32.359  27.411  24.863  1.00  0.00    -0.237 N 
ATOM     20  N   UNL A   1      31.487  26.474  25.305  1.00  0.00    -0.175 NA
ATOM     21  C   UNL A   1      32.873  27.069  23.617  1.00  0.00     0.054 A 
ATOM     22  C   UNL A   1      31.334  25.644  24.280  1.00  0.00     0.149 A 
ATOM     23  C   UNL A   1      34.076  27.690  22.998  1.00  0.00     0.068 C 
BRANCH  19  24
ATOM     24  C   UNL A   1      32.655  28.521  25.701  1.00  0.00     0.065 A 
ATOM     25  C   UNL A   1      31.164  31.960  26.397  1.00  0.00     0.044 C 
ATOM     26  C   UNL A   1      32.070  30.766  26.449  1.00  0.00    -0.049 A 
ATOM     27  C   UNL A   1      33.116  30.712  27.376  1.00  0.00     0.003 A 
ATOM     28  C   UNL A   1      31.862  29.676  25.595  1.00  0.00     0.031 A 
ATOM     29  C   UNL A   1      33.943  29.588  27.447  1.00  0.00     0.002 A 
ATOM     30  C   UNL A   1      33.713  28.491  26.614  1.00  0.00     0.028 A 
ENDBRANCH  19  24
ENDBRANCH  15  18
ENDBRANCH   8  14
ENDBRANCH   4   7
ENDBRANCH   2   3
ENDBRANCH   1   2
BRANCH   1  31
ATOM     31  C   UNL A   1      38.169  23.420  26.008  1.00  0.00     0.118 C 
BRANCH  31  32
ATOM     32  N   UNL A   1      39.287  23.041  26.867  1.00  0.00    -0.352 N 
ATOM     33  C   UNL A   1      40.105  23.866  27.627  1.00  0.00     0.251 C 
ATOM     34  H   UNL A   1      39.486  22.078  26.914  1.00  0.00     0.163 HD
ATOM     35  O   UNL A   1      41.100  23.475  28.182  1.00  0.00    -0.269 OA
BRANCH  33  36
ATOM     36  C   UNL A   1      39.617  25.248  27.809  1.00  0.00     0.039 A 
ATOM     37  C   UNL A   1      40.103  26.206  26.913  1.00  0.00     0.014 A 
ATOM     38  C   UNL A   1      39.009  25.605  29.008  1.00  0.00     0.014 A 
ATOM     39  C   UNL A   1      40.148  27.538  27.306  1.00  0.00     0.010 A 
ATOM     40  C   UNL A   1      39.140  26.913  29.430  1.00  0.00     0.010 A 
ATOM     41  C   UNL A   1      39.759  27.867  28.602  1.00  0.00    -0.014 A 
BRANCH  41  42
ATOM     42  C   UNL A   1      40.028  29.159  29.222  1.00  0.00     0.031 A 
ATOM     43  C   UNL A   1      39.021  30.241  29.121  1.00  0.00     0.074 A 
ATOM     44  C   UNL A   1      41.134  29.340  29.977  1.00  0.00     0.049 A 
ATOM     45  N   UNL A   1      39.251  31.487  29.371  1.00  0.00    -0.248 NA
ATOM     46  C   UNL A   1      37.667  29.997  28.633  1.00  0.00     0.031 C 
ATOM     47  C   UNL A   1      41.352  30.401  30.958  1.00  0.00     0.029 A 
ATOM     48  N   UNL A   1      42.388  28.739  29.850  1.00  0.00    -0.354 N 
ATOM     49  C   UNL A   1      38.032  32.127  29.411  1.00  0.00     0.074 A 
ATOM     50  C   UNL A   1      37.107  31.194  28.817  1.00  0.00     0.031 C 
ATOM     51  C   UNL A   1      42.672  30.580  31.111  1.00  0.00     0.029 A 
ATOM     52  C   UNL A   1      43.331  29.747  30.120  1.00  0.00     0.049 A 
ATOM     53  H   UNL A   1      42.575  27.800  29.618  1.00  0.00     0.167 HD
ATOM     54  C   UNL A   1      37.916  33.304  30.089  1.00  0.00     0.031 A 
ATOM     55  C   UNL A   1      44.276  30.182  29.235  1.00  0.00     0.031 A 
ATOM     56  C   UNL A   1      39.225  33.842  30.463  1.00  0.00     0.049 A 
ATOM     57  C   UNL A   1      44.213  31.673  28.978  1.00  0.00     0.074 A 
ATOM     58  C   UNL A   1      39.930  33.906  31.654  1.00  0.00     0.029 A 
ATOM     59  N   UNL A   1      40.125  34.185  29.458  1.00  0.00    -0.354 N 
ATOM     60  N   UNL A   1      43.197  32.424  29.300  1.00  0.00    -0.248 NA
ATOM     61  C   UNL A   1      45.264  32.426  28.299  1.00  0.00     0.031 C 
ATOM     62  C   UNL A   1      41.284  34.209  31.347  1.00  0.00     0.029 A 
ATOM     63  C   UNL A   1      41.392  34.361  29.975  1.00  0.00     0.049 A 
ATOM     64  H   UNL A   1      39.888  34.287  28.508  1.00  0.00     0.167 HD
ATOM     65  C   UNL A   1      43.426  33.714  28.896  1.00  0.00     0.074 A 
ATOM     66  C   UNL A   1      44.741  33.667  28.284  1.00  0.00     0.031 C 
ATOM     67  C   UNL A   1      42.502  34.702  29.091  1.00  0.00     0.031 A 
BRANCH  54  68
ATOM     68  C   UNL A   1      36.605  33.817  30.663  1.00  0.00    -0.014 A 
ATOM     69  C   UNL A   1      35.498  34.018  29.810  1.00  0.00     0.010 A 
ATOM     70  C   UNL A   1      36.418  34.216  32.000  1.00  0.00     0.010 A 
ATOM     71  C   UNL A   1      34.323  34.658  30.244  1.00  0.00     0.020 A 
ATOM     72  C   UNL A   1      35.260  34.870  32.446  1.00  0.00     0.020 A 
ATOM     73  C   UNL A   1      34.222  35.105  31.559  1.00  0.00     0.054 A 
BRANCH  73  74
ATOM     74  S   UNL A   1      32.742  36.001  32.096  1.00  0.00     0.124 S 
ATOM     75  O   UNL A   1      33.258  36.839  33.175  1.00  0.00    -0.237 OA
ATOM     76  O   UNL A   1      32.343  36.707  30.882  1.00  0.00    -0.237 OA
ATOM     77  O   UNL A   1      31.831  34.941  32.523  1.00  0.00    -0.744 OA
ENDBRANCH  73  74
ENDBRANCH  54  68
BRANCH  55  78
ATOM     78  C   UNL A   1      44.715  29.158  28.249  1.00  0.00    -0.014 A 
ATOM     79  C   UNL A   1      45.590  28.154  28.714  1.00  0.00     0.010 A 
ATOM     80  C   UNL A   1      43.954  28.920  27.091  1.00  0.00     0.010 A 
ATOM     81  C   UNL A   1      45.561  26.876  28.153  1.00  0.00     0.020 A 
ATOM     82  C   UNL A   1      43.928  27.638  26.524  1.00  0.00     0.020 A 
ATOM     83  C   UNL A   1      44.675  26.610  27.109  1.00  0.00     0.054 A 
BRANCH  83  84
ATOM     84  S   UNL A   1      44.353  24.869  26.694  1.00  0.00     0.124 S 
ATOM     85  O   UNL A   1      44.272  24.242  28.009  1.00  0.00    -0.237 OA
ATOM     86  O   UNL A   1      43.089  24.966  25.964  1.00  0.00    -0.237 OA
ATOM     87  O   UNL A   1      45.510  24.496  25.887  1.00  0.00    -0.744 OA
ENDBRANCH  83  84
ENDBRANCH  55  78
BRANCH  67  88
ATOM     88  C   UNL A   1      42.558  36.108  28.533  1.00  0.00    -0.014 A 
ATOM     89  C   UNL A   1      41.986  36.503  27.314  1.00  0.00     0.010 A 
ATOM     90  C   UNL A   1      43.113  37.134  29.338  1.00  0.00     0.010 A 
ATOM     91  C   UNL A   1      42.016  37.843  26.893  1.00  0.00     0.020 A 
ATOM     92  C   UNL A   1      43.109  38.478  28.948  1.00  0.00     0.020 A 
ATOM     93  C   UNL A   1      42.579  38.822  27.712  1.00  0.00     0.054 A 
BRANCH  93  94
ATOM     94  S   UNL A   1      42.544  40.558  27.199  1.00  0.00     0.124 S 
ATOM     95  O   UNL A   1      42.969  40.468  25.804  1.00  0.00    -0.237 OA
ATOM     96  O   UNL A   1      41.146  40.933  27.404  1.00  0.00    -0.237 OA
ATOM     97  O   UNL A   1      43.491  41.200  28.105  1.00  0.00    -0.744 OA
ENDBRANCH  93  94
ENDBRANCH  67  88
ENDBRANCH  41  42
ENDBRANCH  33  36
ENDBRANCH  31  32
ENDBRANCH   1  31
TORSDOF 16
ENDMDL
MODEL 2
REMARK VINA RESULT:     -13.4      4.079     10.959
REMARK SMILES Cc1cccc(-n2ncc(C(=O)Nc3cccc(C(=O)NCCCNC(=O)c4ccc(-c5c6nc(c(-c7ccc(S(=O)(=O)[O-])cc7)c7ccc([nH]7)c(-c7ccc(S(=O)(=O)[O-])cc7)c7nc(c(-c8ccc(S(=O)(=O)[O-])cc8)c8ccc5[nH]8)C=C7)C=C6)cc4)c3C)c2C)c1
REMARK SMILES IDX 23 1 22 2 21 3 19 4 20 5 18 7 14 8 15 9 88 10 16 11 89 12
REMARK SMILES IDX 17 13 13 14 11 15 12 16 10 18 7 19 8 20 90 21 9 22 91 23
REMARK SMILES IDX 6 24 1 25 2 26 3 27 92 28 4 29 5 30 24 31 25 32 26 33 27 35
REMARK SMILES IDX 28 36 29 37 87 38 30 39 86 40 31 41 32 42 33 43 80 44 34 45
REMARK SMILES IDX 85 46 79 47 81 48 35 49 84 50 78 51 77 52 36 54 66 55 47 56
REMARK SMILES IDX 65 57 48 58 51 59 64 60 82 61 49 62 50 63 63 65 83 66 52 67
REMARK SMILES IDX 37 68 38 69 46 70 39 71 45 72 40 73 41 74 42 75 43 76 44 77
REMARK SMILES IDX 67 78 68 79 76 80 69 81 75 82 70 83 71 84 72 85 73 86 74 87
REMARK SMILES IDX 53 88 54 89 62 90 55 91 61 92 56 93 57 94 58 95 59 96 60 97
REMARK H PARENT 21 6 13 17 25 34 81 53 51 64
REMARK Flexibility Score: inf
ROOT
ATOM      1  C   UNL A   1      33.000  30.366  25.804  1.00  0.00     0.042 C 
ENDROOT
BRANCH   1   2
ATOM      2  C   UNL A   1      31.515  30.342  25.443  1.00  0.00     0.118 C 
BRANCH   2   3
ATOM      3  N   UNL A   1      31.273  29.704  24.155  1.00  0.00    -0.352 N 
ATOM      4  C   UNL A   1      31.452  28.433  23.658  1.00  0.00     0.251 C 
ATOM      5  O   UNL A   1      31.026  28.255  22.518  1.00  0.00    -0.269 OA
ATOM      6  H   UNL A   1      30.896  30.324  23.490  1.00  0.00     0.163 HD
BRANCH   4   7
ATOM      7  C   UNL A   1      32.091  27.290  24.417  1.00  0.00     0.044 A 
ATOM      8  C   UNL A   1      32.001  25.444  26.015  1.00  0.00     0.045 A 
ATOM      9  C   UNL A   1      33.393  25.308  25.960  1.00  0.00     0.026 A 
ATOM     10  C   UNL A   1      31.317  26.358  25.170  1.00  0.00    -0.015 A 
ATOM     11  C   UNL A   1      34.131  26.124  25.127  1.00  0.00     0.003 A 
ATOM     12  C   UNL A   1      29.807  26.388  25.209  1.00  0.00     0.047 C 
ATOM     13  C   UNL A   1      33.483  27.109  24.387  1.00  0.00     0.014 A 
BRANCH   8  14
ATOM     14  N   UNL A   1      31.294  24.670  26.950  1.00  0.00    -0.322 N 
ATOM     15  C   UNL A   1      30.875  23.360  26.842  1.00  0.00     0.259 C 
ATOM     16  O   UNL A   1      29.971  22.977  27.588  1.00  0.00    -0.269 OA
ATOM     17  H   UNL A   1      31.068  25.123  27.795  1.00  0.00     0.170 HD
BRANCH  15  18
ATOM     18  C   UNL A   1      31.581  22.436  25.951  1.00  0.00     0.081 A 
ATOM     19  N   UNL A   1      33.038  20.955  25.124  1.00  0.00    -0.237 N 
ATOM     20  N   UNL A   1      32.309  21.365  24.060  1.00  0.00    -0.175 NA
ATOM     21  C   UNL A   1      32.710  21.679  26.266  1.00  0.00     0.054 A 
ATOM     22  C   UNL A   1      31.424  22.217  24.565  1.00  0.00     0.149 A 
ATOM     23  C   UNL A   1      33.529  21.718  27.509  1.00  0.00     0.068 C 
BRANCH  19  24
ATOM     24  C   UNL A   1      34.018  19.942  24.934  1.00  0.00     0.065 A 
ATOM     25  C   UNL A   1      34.054  16.234  24.047  1.00  0.00     0.044 C 
ATOM     26  C   UNL A   1      34.516  17.614  24.413  1.00  0.00    -0.049 A 
ATOM     27  C   UNL A   1      35.882  17.912  24.461  1.00  0.00     0.003 A 
ATOM     28  C   UNL A   1      33.589  18.629  24.677  1.00  0.00     0.031 A 
ATOM     29  C   UNL A   1      36.314  19.203  24.772  1.00  0.00     0.002 A 
ATOM     30  C   UNL A   1      35.386  20.220  25.005  1.00  0.00     0.028 A 
ENDBRANCH  19  24
ENDBRANCH  15  18
ENDBRANCH   8  14
ENDBRANCH   4   7
ENDBRANCH   2   3
ENDBRANCH   1   2
BRANCH   1  31
ATOM     31  C   UNL A   1      33.277  30.258  27.297  1.00  0.00     0.118 C 
BRANCH  31  32
ATOM     32  N   UNL A   1      33.769  31.521  27.842  1.00  0.00    -0.352 N 
ATOM     33  C   UNL A   1      34.909  31.743  28.603  1.00  0.00     0.251 C 
ATOM     34  H   UNL A   1      33.222  32.316  27.645  1.00  0.00     0.163 HD
ATOM     35  O   UNL A   1      35.147  32.795  29.138  1.00  0.00    -0.269 OA
BRANCH  33  36
ATOM     36  C   UNL A   1      35.880  30.631  28.627  1.00  0.00     0.039 A 
ATOM     37  C   UNL A   1      35.972  29.907  29.820  1.00  0.00     0.014 A 
ATOM     38  C   UNL A   1      36.870  30.567  27.651  1.00  0.00     0.014 A 
ATOM     39  C   UNL A   1      37.159  29.251  30.124  1.00  0.00     0.010 A 
ATOM     40  C   UNL A   1      38.076  29.992  27.996  1.00  0.00     0.010 A 
ATOM     41  C   UNL A   1      38.238  29.384  29.253  1.00  0.00    -0.014 A 
BRANCH  41  42
ATOM     42  C   UNL A   1      39.602  28.993  29.593  1.00  0.00     0.031 A 
ATOM     43  C   UNL A   1      40.113  27.674  29.156  1.00  0.00     0.074 A 
ATOM     44  C   UNL A   1      40.433  29.867  30.203  1.00  0.00     0.049 A 
ATOM     45  N   UNL A   1      41.174  27.103  29.623  1.00  0.00    -0.248 NA
ATOM     46  C   UNL A   1      39.394  26.842  28.195  1.00  0.00     0.031 C 
ATOM     47  C   UNL A   1      41.891  29.786  30.257  1.00  0.00     0.029 A 
ATOM     48  N   UNL A   1      40.120  30.888  31.104  1.00  0.00    -0.354 N 
ATOM     49  C   UNL A   1      41.455  26.031  28.806  1.00  0.00     0.074 A 
ATOM     50  C   UNL A   1      40.255  25.837  28.028  1.00  0.00     0.031 C 
ATOM     51  C   UNL A   1      42.320  30.471  31.327  1.00  0.00     0.029 A 
ATOM     52  C   UNL A   1      41.141  30.876  32.072  1.00  0.00     0.049 A 
ATOM     53  H   UNL A   1      39.344  31.493  31.068  1.00  0.00     0.167 HD
ATOM     54  C   UNL A   1      42.725  25.536  28.765  1.00  0.00     0.031 A 
ATOM     55  C   UNL A   1      40.941  30.655  33.405  1.00  0.00     0.031 A 
ATOM     56  C   UNL A   1      43.554  26.089  29.836  1.00  0.00     0.049 A 
ATOM     57  C   UNL A   1      41.760  29.504  33.949  1.00  0.00     0.074 A 
ATOM     58  C   UNL A   1      44.559  27.043  29.873  1.00  0.00     0.029 A 
ATOM     59  N   UNL A   1      43.200  25.843  31.159  1.00  0.00    -0.354 N 
ATOM     60  N   UNL A   1      42.350  28.614  33.200  1.00  0.00    -0.248 NA
ATOM     61  C   UNL A   1      41.941  29.235  35.372  1.00  0.00     0.031 C 
ATOM     62  C   UNL A   1      44.747  27.428  31.228  1.00  0.00     0.029 A 
ATOM     63  C   UNL A   1      43.880  26.687  32.013  1.00  0.00     0.049 A 
ATOM     64  H   UNL A   1      42.551  25.160  31.445  1.00  0.00     0.167 HD
ATOM     65  C   UNL A   1      42.970  27.680  33.989  1.00  0.00     0.074 A 
ATOM     66  C   UNL A   1      42.695  28.120  35.344  1.00  0.00     0.031 C 
ATOM     67  C   UNL A   1      43.643  26.619  33.451  1.00  0.00     0.031 A 
BRANCH  54  68
ATOM     68  C   UNL A   1      43.289  24.770  27.578  1.00  0.00    -0.014 A 
ATOM     69  C   UNL A   1      44.008  23.574  27.794  1.00  0.00     0.010 A 
ATOM     70  C   UNL A   1      43.241  25.214  26.243  1.00  0.00     0.010 A 
ATOM     71  C   UNL A   1      44.705  22.921  26.762  1.00  0.00     0.020 A 
ATOM     72  C   UNL A   1      43.943  24.585  25.205  1.00  0.00     0.020 A 
ATOM     73  C   UNL A   1      44.690  23.448  25.474  1.00  0.00     0.054 A 
BRANCH  73  74
ATOM     74  S   UNL A   1      45.654  22.654  24.162  1.00  0.00     0.124 S 
ATOM     75  O   UNL A   1      46.299  21.551  24.871  1.00  0.00    -0.237 OA
ATOM     76  O   UNL A   1      44.625  22.272  23.200  1.00  0.00    -0.237 OA
ATOM     77  O   UNL A   1      46.561  23.709  23.712  1.00  0.00    -0.744 OA
ENDBRANCH  73  74
ENDBRANCH  54  68
BRANCH  55  78
ATOM     78  C   UNL A   1      39.604  31.070  33.906  1.00  0.00    -0.014 A 
ATOM     79  C   UNL A   1      39.434  32.432  34.233  1.00  0.00     0.010 A 
ATOM     80  C   UNL A   1      38.469  30.289  33.621  1.00  0.00     0.010 A 
ATOM     81  C   UNL A   1      38.189  33.045  34.088  1.00  0.00     0.020 A 
ATOM     82  C   UNL A   1      37.216  30.903  33.480  1.00  0.00     0.020 A 
ATOM     83  C   UNL A   1      37.105  32.288  33.641  1.00  0.00     0.054 A 
BRANCH  83  84
ATOM     84  S   UNL A   1      35.632  33.181  33.059  1.00  0.00     0.124 S 
ATOM     85  O   UNL A   1      35.002  32.205  32.175  1.00  0.00    -0.237 OA
ATOM     86  O   UNL A   1      34.926  33.441  34.314  1.00  0.00    -0.237 OA
ATOM     87  O   UNL A   1      36.190  34.360  32.404  1.00  0.00    -0.744 OA
ENDBRANCH  83  84
ENDBRANCH  55  78
BRANCH  67  88
ATOM     88  C   UNL A   1      44.205  25.434  34.208  1.00  0.00    -0.014 A 
ATOM     89  C   UNL A   1      43.566  24.191  34.328  1.00  0.00     0.010 A 
ATOM     90  C   UNL A   1      45.519  25.527  34.731  1.00  0.00     0.010 A 
ATOM     91  C   UNL A   1      44.181  23.114  34.986  1.00  0.00     0.020 A 
ATOM     92  C   UNL A   1      46.158  24.447  35.350  1.00  0.00     0.020 A 
ATOM     93  C   UNL A   1      45.473  23.249  35.495  1.00  0.00     0.054 A 
BRANCH  93  94
ATOM     94  S   UNL A   1      46.291  21.832  36.272  1.00  0.00     0.124 S 
ATOM     95  O   UNL A   1      47.682  22.032  35.874  1.00  0.00    -0.237 OA
ATOM     96  O   UNL A   1      46.012  22.030  37.693  1.00  0.00    -0.237 OA
ATOM     97  O   UNL A   1      45.624  20.681  35.669  1.00  0.00    -0.744 OA
ENDBRANCH  93  94
ENDBRANCH  67  88
ENDBRANCH  41  42
ENDBRANCH  33  36
ENDBRANCH  31  32
ENDBRANCH   1  31
TORSDOF 16
ENDMDL
MODEL 3
REMARK VINA RESULT:     -13.4      3.974     10.644
REMARK SMILES Cc1cccc(-n2ncc(C(=O)Nc3cccc(C(=O)NCCCNC(=O)c4ccc(-c5c6nc(c(-c7ccc(S(=O)(=O)[O-])cc7)c7ccc([nH]7)c(-c7ccc(S(=O)(=O)[O-])cc7)c7nc(c(-c8ccc(S(=O)(=O)[O-])cc8)c8ccc5[nH]8)C=C7)C=C6)cc4)c3C)c2C)c1
REMARK SMILES IDX 23 1 22 2 21 3 19 4 20 5 18 7 14 8 15 9 88 10 16 11 89 12
REMARK SMILES IDX 17 13 13 14 11 15 12 16 10 18 7 19 8 20 90 21 9 22 91 23
REMARK SMILES IDX 6 24 1 25 2 26 3 27 92 28 4 29 5 30 24 31 25 32 26 33 27 35
REMARK SMILES IDX 28 36 29 37 87 38 30 39 86 40 31 41 32 42 33 43 80 44 34 45
REMARK SMILES IDX 85 46 79 47 81 48 35 49 84 50 78 51 77 52 36 54 66 55 47 56
REMARK SMILES IDX 65 57 48 58 51 59 64 60 82 61 49 62 50 63 63 65 83 66 52 67
REMARK SMILES IDX 37 68 38 69 46 70 39 71 45 72 40 73 41 74 42 75 43 76 44 77
REMARK SMILES IDX 67 78 68 79 76 80 69 81 75 82 70 83 71 84 72 85 73 86 74 87
REMARK SMILES IDX 53 88 54 89 62 90 55 91 61 92 56 93 57 94 58 95 59 96 60 97
REMARK H PARENT 21 6 13 17 25 34 81 53 51 64
REMARK Flexibility Score: inf
ROOT
ATOM      1  C   UNL A   1      32.364  30.137  25.939  1.00  0.00     0.042 C 
ENDROOT
BRANCH   1   2
ATOM      2  C   UNL A   1      33.008  29.337  24.806  1.00  0.00     0.118 C 
BRANCH   2   3
ATOM      3  N   UNL A   1      32.106  29.160  23.676  1.00  0.00    -0.352 N 
ATOM      4  C   UNL A   1      31.285  28.143  23.246  1.00  0.00     0.251 C 
ATOM      5  O   UNL A   1      30.586  28.414  22.271  1.00  0.00    -0.269 OA
ATOM      6  H   UNL A   1      32.077  29.948  23.086  1.00  0.00     0.163 HD
BRANCH   4   7
ATOM      7  C   UNL A   1      31.184  26.780  23.898  1.00  0.00     0.044 A 
ATOM      8  C   UNL A   1      31.068  24.342  23.794  1.00  0.00     0.045 A 
ATOM      9  C   UNL A   1      30.779  24.281  25.161  1.00  0.00     0.026 A 
ATOM     10  C   UNL A   1      31.381  25.574  23.161  1.00  0.00    -0.015 A 
ATOM     11  C   UNL A   1      30.720  25.443  25.904  1.00  0.00     0.003 A 
ATOM     12  C   UNL A   1      31.779  25.560  21.703  1.00  0.00     0.047 C 
ATOM     13  C   UNL A   1      30.901  26.668  25.269  1.00  0.00     0.014 A 
BRANCH   8  14
ATOM     14  N   UNL A   1      31.016  23.151  23.049  1.00  0.00    -0.322 N 
ATOM     15  C   UNL A   1      31.995  22.194  22.886  1.00  0.00     0.259 C 
ATOM     16  O   UNL A   1      31.902  21.426  21.926  1.00  0.00    -0.269 OA
ATOM     17  H   UNL A   1      30.166  22.977  22.582  1.00  0.00     0.170 HD
BRANCH  15  18
ATOM     18  C   UNL A   1      33.036  22.030  23.905  1.00  0.00     0.081 A 
ATOM     19  N   UNL A   1      34.970  22.133  25.022  1.00  0.00    -0.237 N 
ATOM     20  N   UNL A   1      34.211  21.248  25.710  1.00  0.00    -0.175 NA
ATOM     21  C   UNL A   1      34.337  22.531  23.850  1.00  0.00     0.054 A 
ATOM     22  C   UNL A   1      33.053  21.219  25.061  1.00  0.00     0.149 A 
ATOM     23  C   UNL A   1      35.011  23.225  22.718  1.00  0.00     0.068 C 
BRANCH  19  24
ATOM     24  C   UNL A   1      36.254  22.475  25.531  1.00  0.00     0.065 A 
ATOM     25  C   UNL A   1      39.660  20.792  25.852  1.00  0.00     0.044 C 
ATOM     26  C   UNL A   1      38.561  21.809  25.947  1.00  0.00    -0.049 A 
ATOM     27  C   UNL A   1      38.828  23.095  26.429  1.00  0.00     0.003 A 
ATOM     28  C   UNL A   1      37.263  21.498  25.524  1.00  0.00     0.031 A 
ATOM     29  C   UNL A   1      37.813  24.053  26.490  1.00  0.00     0.002 A 
ATOM     30  C   UNL A   1      36.527  23.748  26.039  1.00  0.00     0.028 A 
ENDBRANCH  19  24
ENDBRANCH  15  18
ENDBRANCH   8  14
ENDBRANCH   4   7
ENDBRANCH   2   3
ENDBRANCH   1   2
BRANCH   1  31
ATOM     31  C   UNL A   1      33.141  30.093  27.248  1.00  0.00     0.118 C 
BRANCH  31  32
ATOM     32  N   UNL A   1      33.656  31.412  27.607  1.00  0.00    -0.352 N 
ATOM     33  C   UNL A   1      34.828  31.720  28.284  1.00  0.00     0.251 C 
ATOM     34  H   UNL A   1      33.103  32.178  27.335  1.00  0.00     0.163 HD
ATOM     35  O   UNL A   1      35.091  32.830  28.672  1.00  0.00    -0.269 OA
BRANCH  33  36
ATOM     36  C   UNL A   1      35.800  30.615  28.406  1.00  0.00     0.039 A 
ATOM     37  C   UNL A   1      35.907  30.013  29.665  1.00  0.00     0.014 A 
ATOM     38  C   UNL A   1      36.775  30.451  27.428  1.00  0.00     0.014 A 
ATOM     39  C   UNL A   1      37.098  29.389  30.016  1.00  0.00     0.010 A 
ATOM     40  C   UNL A   1      37.986  29.911  27.812  1.00  0.00     0.010 A 
ATOM     41  C   UNL A   1      38.165  29.431  29.122  1.00  0.00    -0.014 A 
BRANCH  41  42
ATOM     42  C   UNL A   1      39.532  29.073  29.481  1.00  0.00     0.031 A 
ATOM     43  C   UNL A   1      40.087  27.773  29.038  1.00  0.00     0.074 A 
ATOM     44  C   UNL A   1      40.329  29.962  30.115  1.00  0.00     0.049 A 
ATOM     45  N   UNL A   1      41.155  27.226  29.516  1.00  0.00    -0.248 NA
ATOM     46  C   UNL A   1      39.407  26.934  28.055  1.00  0.00     0.031 C 
ATOM     47  C   UNL A   1      41.788  29.919  30.193  1.00  0.00     0.029 A 
ATOM     48  N   UNL A   1      39.974  30.963  31.021  1.00  0.00    -0.354 N 
ATOM     49  C   UNL A   1      41.478  26.172  28.691  1.00  0.00     0.074 A 
ATOM     50  C   UNL A   1      40.298  25.954  27.891  1.00  0.00     0.031 C 
ATOM     51  C   UNL A   1      42.180  30.603  31.278  1.00  0.00     0.029 A 
ATOM     52  C   UNL A   1      40.978  30.967  32.007  1.00  0.00     0.049 A 
ATOM     53  H   UNL A   1      39.183  31.548  30.980  1.00  0.00     0.167 HD
ATOM     54  C   UNL A   1      42.762  25.711  28.666  1.00  0.00     0.031 A 
ATOM     55  C   UNL A   1      40.762  30.725  33.334  1.00  0.00     0.031 A 
ATOM     56  C   UNL A   1      43.558  26.274  29.758  1.00  0.00     0.049 A 
ATOM     57  C   UNL A   1      41.603  29.590  33.878  1.00  0.00     0.074 A 
ATOM     58  C   UNL A   1      44.535  27.254  29.823  1.00  0.00     0.029 A 
ATOM     59  N   UNL A   1      43.188  26.003  31.071  1.00  0.00    -0.354 N 
ATOM     60  N   UNL A   1      42.229  28.725  33.129  1.00  0.00    -0.248 NA
ATOM     61  C   UNL A   1      41.767  29.309  35.302  1.00  0.00     0.031 C 
ATOM     62  C   UNL A   1      44.690  27.628  31.185  1.00  0.00     0.029 A 
ATOM     63  C   UNL A   1      43.831  26.855  31.947  1.00  0.00     0.049 A 
ATOM     64  H   UNL A   1      42.553  25.299  31.339  1.00  0.00     0.167 HD
ATOM     65  C   UNL A   1      42.861  27.799  33.918  1.00  0.00     0.074 A 
ATOM     66  C   UNL A   1      42.552  28.216  35.273  1.00  0.00     0.031 C 
ATOM     67  C   UNL A   1      43.572  26.763  33.380  1.00  0.00     0.031 A 
BRANCH  54  68
ATOM     68  C   UNL A   1      43.367  24.975  27.481  1.00  0.00    -0.014 A 
ATOM     69  C   UNL A   1      43.096  23.602  27.297  1.00  0.00     0.010 A 
ATOM     70  C   UNL A   1      44.284  25.538  26.573  1.00  0.00     0.010 A 
ATOM     71  C   UNL A   1      43.766  22.827  26.333  1.00  0.00     0.020 A 
ATOM     72  C   UNL A   1      44.972  24.778  25.616  1.00  0.00     0.020 A 
ATOM     73  C   UNL A   1      44.723  23.419  25.513  1.00  0.00     0.054 A 
BRANCH  73  74
ATOM     74  S   UNL A   1      45.644  22.406  24.326  1.00  0.00     0.124 S 
ATOM     75  O   UNL A   1      44.581  21.865  23.483  1.00  0.00    -0.237 OA
ATOM     76  O   UNL A   1      46.521  23.384  23.690  1.00  0.00    -0.237 OA
ATOM     77  O   UNL A   1      46.324  21.420  25.166  1.00  0.00    -0.744 OA
ENDBRANCH  73  74
ENDBRANCH  54  68
BRANCH  55  78
ATOM     78  C   UNL A   1      39.406  31.098  33.816  1.00  0.00    -0.014 A 
ATOM     79  C   UNL A   1      39.234  32.412  34.298  1.00  0.00     0.010 A 
ATOM     80  C   UNL A   1      38.278  30.375  33.384  1.00  0.00     0.010 A 
ATOM     81  C   UNL A   1      38.003  33.058  34.168  1.00  0.00     0.020 A 
ATOM     82  C   UNL A   1      37.041  31.021  33.259  1.00  0.00     0.020 A 
ATOM     83  C   UNL A   1      36.936  32.378  33.582  1.00  0.00     0.054 A 
BRANCH  83  84
ATOM     84  S   UNL A   1      35.502  33.358  33.042  1.00  0.00     0.124 S 
ATOM     85  O   UNL A   1      36.103  34.651  32.732  1.00  0.00    -0.237 OA
ATOM     86  O   UNL A   1      35.033  32.589  31.889  1.00  0.00    -0.237 OA
ATOM     87  O   UNL A   1      34.621  33.334  34.206  1.00  0.00    -0.744 OA
ENDBRANCH  83  84
ENDBRANCH  55  78
BRANCH  67  88
ATOM     88  C   UNL A   1      44.153  25.585  34.132  1.00  0.00    -0.014 A 
ATOM     89  C   UNL A   1      43.405  24.692  34.914  1.00  0.00     0.010 A 
ATOM     90  C   UNL A   1      45.523  25.274  33.947  1.00  0.00     0.010 A 
ATOM     91  C   UNL A   1      44.002  23.579  35.526  1.00  0.00     0.020 A 
ATOM     92  C   UNL A   1      46.120  24.143  34.516  1.00  0.00     0.020 A 
ATOM     93  C   UNL A   1      45.357  23.312  35.325  1.00  0.00     0.054 A 
BRANCH  93  94
ATOM     94  S   UNL A   1      46.103  21.831  36.053  1.00  0.00     0.124 S 
ATOM     95  O   UNL A   1      45.526  20.769  35.233  1.00  0.00    -0.237 OA
ATOM     96  O   UNL A   1      47.535  22.058  35.865  1.00  0.00    -0.237 OA
ATOM     97  O   UNL A   1      45.652  21.869  37.441  1.00  0.00    -0.744 OA
ENDBRANCH  93  94
ENDBRANCH  67  88
ENDBRANCH  41  42
ENDBRANCH  33  36
ENDBRANCH  31  32
ENDBRANCH   1  31
TORSDOF 16
ENDMDL
