MODEL 1
REMARK VINA RESULT:     -13.7      0.000      0.000
REMARK SMILES Cc1c(NC(=O)c2cccc(-c3cc4ccccc4oc3=O)c2)cccc1C(=O)NCCCNC(=O)c1ccc(-c2c3nc(c(-c4ccc(S(=O)(=O)[O-])cc4)c4ccc([nH]4)c(-c4ccc(S(=O)(=O)[O-])cc4)c4nc(c(-c5ccc(S(=O)(=O)[O-])cc5)c5ccc2[nH]5)C=C4)C=C3)cc1
REMARK SMILES IDX 32 1 31 2 30 3 28 4 29 5 27 7 1 8 2 9 3 10 24 11 26 12 25 13
REMARK SMILES IDX 4 14 5 15 6 17 7 18 8 19 23 20 9 21 11 22 10 23 12 24 13 25
REMARK SMILES IDX 21 26 14 27 20 28 22 29 15 30 19 31 16 32 18 33 17 34 33 35
REMARK SMILES IDX 34 36 35 37 36 39 37 40 38 41 96 42 39 43 95 44 40 45 41 46
REMARK SMILES IDX 42 47 89 48 43 49 94 50 88 51 90 52 44 53 93 54 87 55 86 56
REMARK SMILES IDX 45 58 75 59 56 60 74 61 57 62 60 63 73 64 91 65 58 66 59 67
REMARK SMILES IDX 72 69 92 70 61 71 46 72 47 73 55 74 48 75 54 76 49 77 50 78
REMARK SMILES IDX 51 79 52 80 53 81 76 82 77 83 85 84 78 85 84 86 79 87 80 88
REMARK SMILES IDX 81 89 82 90 83 91 62 92 63 93 71 94 64 95 70 96 65 97 66 98
REMARK SMILES IDX 67 99 68 100 69 101
REMARK H PARENT 30 6 4 16 34 38 90 57 60 68
REMARK Flexibility Score: inf
ROOT
ATOM      1  C   UNL A   1      44.130  23.225  25.227  1.00  0.00     0.042 C 
ENDROOT
BRANCH   1   2
ATOM      2  C   UNL A   1      42.618  22.607  25.342  1.00  0.00     0.118 C 
BRANCH   2   3
ATOM      3  N   UNL A   1      42.091  22.227  26.681  1.00  0.00    -0.352 N 
ATOM      4  C   UNL A   1      40.853  21.908  27.224  1.00  0.00     0.251 C 
ATOM      5  O   UNL A   1      40.796  21.291  28.292  1.00  0.00    -0.269 OA
ATOM      6  H   UNL A   1      42.805  22.191  27.358  1.00  0.00     0.163 HD
BRANCH   4   7
ATOM      7  C   UNL A   1      39.535  22.285  26.618  1.00  0.00     0.044 A 
ATOM      8  C   UNL A   1      39.205  20.076  25.398  1.00  0.00     0.047 C 
ATOM      9  C   UNL A   1      38.716  21.404  25.907  1.00  0.00    -0.015 A 
ATOM     10  C   UNL A   1      37.456  21.835  25.447  1.00  0.00     0.045 A 
ATOM     11  C   UNL A   1      37.101  23.183  25.466  1.00  0.00     0.026 A 
ATOM     12  C   UNL A   1      39.174  23.656  26.609  1.00  0.00     0.014 A 
ATOM     13  C   UNL A   1      37.988  24.105  26.008  1.00  0.00     0.003 A 
BRANCH  10  14
ATOM     14  N   UNL A   1      36.603  20.839  24.959  1.00  0.00    -0.322 N 
ATOM     15  C   UNL A   1      35.257  20.652  25.120  1.00  0.00     0.255 C 
ATOM     16  H   UNL A   1      37.047  20.158  24.404  1.00  0.00     0.170 HD
ATOM     17  O   UNL A   1      34.736  19.660  24.609  1.00  0.00    -0.269 OA
BRANCH  15  18
ATOM     18  C   UNL A   1      34.396  21.645  25.805  1.00  0.00     0.040 A 
ATOM     19  C   UNL A   1      34.261  21.518  27.189  1.00  0.00     0.014 A 
ATOM     20  C   UNL A   1      33.637  22.607  25.123  1.00  0.00     0.022 A 
ATOM     21  C   UNL A   1      33.440  22.394  27.892  1.00  0.00     0.001 A 
ATOM     22  C   UNL A   1      32.811  23.501  25.817  1.00  0.00    -0.010 A 
ATOM     23  C   UNL A   1      32.735  23.388  27.213  1.00  0.00     0.009 A 
BRANCH  22  24
ATOM     24  C   UNL A   1      31.886  24.454  25.139  1.00  0.00     0.068 A 
ATOM     25  C   UNL A   1      31.136  25.371  25.791  1.00  0.00     0.028 A 
ATOM     26  C   UNL A   1      32.492  25.072  23.915  1.00  0.00     0.344 A 
ATOM     27  C   UNL A   1      31.875  26.615  26.111  1.00  0.00     0.018 A 
ATOM     28  O   UNL A   1      33.318  26.157  24.202  1.00  0.00    -0.422 OA
ATOM     29  O   UNL A   1      32.372  24.577  22.801  1.00  0.00    -0.246 OA
ATOM     30  C   UNL A   1      31.492  27.476  27.136  1.00  0.00     0.012 A 
ATOM     31  C   UNL A   1      33.028  26.902  25.367  1.00  0.00     0.138 A 
ATOM     32  C   UNL A   1      32.312  28.564  27.453  1.00  0.00     0.001 A 
ATOM     33  C   UNL A   1      33.881  27.940  25.719  1.00  0.00     0.048 A 
ATOM     34  C   UNL A   1      33.521  28.769  26.779  1.00  0.00     0.004 A 
ENDBRANCH  22  24
ENDBRANCH  15  18
ENDBRANCH  10  14
ENDBRANCH   4   7
ENDBRANCH   2   3
ENDBRANCH   1   2
BRANCH   1  35
ATOM     35  C   UNL A   1      44.214  24.810  25.082  1.00  0.00     0.118 C 
BRANCH  35  36
ATOM     36  N   UNL A   1      43.059  25.849  24.878  1.00  0.00    -0.352 N 
ATOM     37  C   UNL A   1      42.434  26.897  25.705  1.00  0.00     0.251 C 
ATOM     38  H   UNL A   1      42.653  25.786  23.984  1.00  0.00     0.163 HD
ATOM     39  O   UNL A   1      42.666  28.047  25.287  1.00  0.00    -0.269 OA
BRANCH  37  40
ATOM     40  C   UNL A   1      41.442  26.881  26.966  1.00  0.00     0.039 A 
ATOM     41  C   UNL A   1      40.079  27.316  26.848  1.00  0.00     0.014 A 
ATOM     42  C   UNL A   1      41.759  26.538  28.279  1.00  0.00     0.014 A 
ATOM     43  C   UNL A   1      39.361  27.907  27.978  1.00  0.00     0.010 A 
ATOM     44  C   UNL A   1      41.065  27.131  29.394  1.00  0.00     0.010 A 
ATOM     45  C   UNL A   1      40.010  28.042  29.223  1.00  0.00    -0.014 A 
BRANCH  45  46
ATOM     46  C   UNL A   1      39.900  29.278  30.146  1.00  0.00     0.031 A 
ATOM     47  C   UNL A   1      38.907  30.313  29.882  1.00  0.00     0.074 A 
ATOM     48  C   UNL A   1      40.515  29.561  31.343  1.00  0.00     0.049 A 
ATOM     49  N   UNL A   1      39.158  31.579  29.766  1.00  0.00    -0.248 NA
ATOM     50  C   UNL A   1      37.502  29.953  29.869  1.00  0.00     0.031 C 
ATOM     51  C   UNL A   1      40.390  30.648  32.338  1.00  0.00     0.029 A 
ATOM     52  N   UNL A   1      41.469  28.824  32.004  1.00  0.00    -0.354 N 
ATOM     53  C   UNL A   1      37.948  32.197  29.996  1.00  0.00     0.074 A 
ATOM     54  C   UNL A   1      36.943  31.162  29.816  1.00  0.00     0.031 C 
ATOM     55  C   UNL A   1      41.476  30.652  33.155  1.00  0.00     0.029 A 
ATOM     56  C   UNL A   1      42.375  29.610  32.699  1.00  0.00     0.049 A 
ATOM     57  H   UNL A   1      41.504  27.841  31.986  1.00  0.00     0.167 HD
ATOM     58  C   UNL A   1      37.853  33.400  30.641  1.00  0.00     0.031 A 
ATOM     59  C   UNL A   1      43.686  29.670  32.284  1.00  0.00     0.031 A 
ATOM     60  C   UNL A   1      39.120  33.819  31.271  1.00  0.00     0.049 A 
ATOM     61  C   UNL A   1      43.987  31.033  31.741  1.00  0.00     0.074 A 
ATOM     62  C   UNL A   1      39.501  33.968  32.600  1.00  0.00     0.029 A 
ATOM     63  N   UNL A   1      40.306  33.856  30.542  1.00  0.00    -0.354 N 
ATOM     64  N   UNL A   1      43.102  31.979  31.694  1.00  0.00    -0.248 NA
ATOM     65  C   UNL A   1      45.253  31.430  31.145  1.00  0.00     0.031 C 
ATOM     66  C   UNL A   1      40.920  34.067  32.660  1.00  0.00     0.029 A 
ATOM     67  C   UNL A   1      41.410  34.018  31.368  1.00  0.00     0.049 A 
ATOM     68  H   UNL A   1      40.355  33.777  29.561  1.00  0.00     0.167 HD
ATOM     69  C   UNL A   1      43.587  33.058  31.031  1.00  0.00     0.074 A 
ATOM     70  C   UNL A   1      44.963  32.681  30.742  1.00  0.00     0.031 C 
ATOM     71  C   UNL A   1      42.760  34.117  30.792  1.00  0.00     0.031 A 
BRANCH  58  72
ATOM     72  C   UNL A   1      36.503  34.022  30.975  1.00  0.00    -0.014 A 
ATOM     73  C   UNL A   1      35.488  34.148  30.007  1.00  0.00     0.010 A 
ATOM     74  C   UNL A   1      36.162  34.459  32.274  1.00  0.00     0.010 A 
ATOM     75  C   UNL A   1      34.251  34.752  30.297  1.00  0.00     0.020 A 
ATOM     76  C   UNL A   1      34.966  35.128  32.565  1.00  0.00     0.020 A 
ATOM     77  C   UNL A   1      34.006  35.260  31.573  1.00  0.00     0.054 A 
BRANCH  77  78
ATOM     78  S   UNL A   1      32.403  36.015  31.951  1.00  0.00     0.124 S 
ATOM     79  O   UNL A   1      31.895  36.372  30.630  1.00  0.00    -0.237 OA
ATOM     80  O   UNL A   1      31.701  34.926  32.626  1.00  0.00    -0.237 OA
ATOM     81  O   UNL A   1      32.746  37.151  32.806  1.00  0.00    -0.744 OA
ENDBRANCH  77  78
ENDBRANCH  58  72
BRANCH  59  82
ATOM     82  C   UNL A   1      44.327  28.388  31.694  1.00  0.00    -0.014 A 
ATOM     83  C   UNL A   1      45.733  28.379  31.703  1.00  0.00     0.010 A 
ATOM     84  C   UNL A   1      43.751  27.240  32.205  1.00  0.00     0.010 A 
ATOM     85  C   UNL A   1      46.406  27.843  32.811  1.00  0.00     0.020 A 
ATOM     86  C   UNL A   1      44.426  26.739  33.331  1.00  0.00     0.020 A 
ATOM     87  C   UNL A   1      45.666  27.161  33.752  1.00  0.00     0.054 A 
BRANCH  87  88
ATOM     88  S   UNL A   1      46.126  27.209  35.735  1.00  0.00     0.124 S 
ATOM     89  O   UNL A   1      45.275  26.121  36.205  1.00  0.00    -0.237 OA
ATOM     90  O   UNL A   1      47.536  26.925  35.829  1.00  0.00    -0.237 OA
ATOM     91  O   UNL A   1      45.742  28.525  36.243  1.00  0.00    -0.744 OA
ENDBRANCH  87  88
ENDBRANCH  59  82
BRANCH  71  92
ATOM     92  C   UNL A   1      43.106  35.371  30.034  1.00  0.00    -0.014 A 
ATOM     93  C   UNL A   1      42.971  35.543  28.652  1.00  0.00     0.010 A 
ATOM     94  C   UNL A   1      43.605  36.479  30.763  1.00  0.00     0.010 A 
ATOM     95  C   UNL A   1      43.300  36.752  28.032  1.00  0.00     0.020 A 
ATOM     96  C   UNL A   1      43.910  37.699  30.165  1.00  0.00     0.020 A 
ATOM     97  C   UNL A   1      43.759  37.824  28.794  1.00  0.00     0.054 A 
BRANCH  97  98
ATOM     98  S   UNL A   1      44.139  39.376  27.962  1.00  0.00     0.124 S 
ATOM     99  O   UNL A   1      43.172  40.289  28.566  1.00  0.00    -0.237 OA
ATOM    100  O   UNL A   1      45.532  39.597  28.340  1.00  0.00    -0.237 OA
ATOM    101  O   UNL A   1      43.920  39.080  26.548  1.00  0.00    -0.744 OA
ENDBRANCH  97  98
ENDBRANCH  71  92
ENDBRANCH  45  46
ENDBRANCH  37  40
ENDBRANCH  35  36
ENDBRANCH   1  35
TORSDOF 16
ENDMDL
MODEL 2
REMARK VINA RESULT:     -13.5      3.487     10.759
REMARK SMILES Cc1c(NC(=O)c2cccc(-c3cc4ccccc4oc3=O)c2)cccc1C(=O)NCCCNC(=O)c1ccc(-c2c3nc(c(-c4ccc(S(=O)(=O)[O-])cc4)c4ccc([nH]4)c(-c4ccc(S(=O)(=O)[O-])cc4)c4nc(c(-c5ccc(S(=O)(=O)[O-])cc5)c5ccc2[nH]5)C=C4)C=C3)cc1
REMARK SMILES IDX 32 1 31 2 30 3 28 4 29 5 27 7 1 8 2 9 3 10 24 11 26 12 25 13
REMARK SMILES IDX 4 14 5 15 6 17 7 18 8 19 23 20 9 21 11 22 10 23 12 24 13 25
REMARK SMILES IDX 21 26 14 27 20 28 22 29 15 30 19 31 16 32 18 33 17 34 33 35
REMARK SMILES IDX 34 36 35 37 36 39 37 40 38 41 96 42 39 43 95 44 40 45 41 46
REMARK SMILES IDX 42 47 89 48 43 49 94 50 88 51 90 52 44 53 93 54 87 55 86 56
REMARK SMILES IDX 45 58 75 59 56 60 74 61 57 62 60 63 73 64 91 65 58 66 59 67
REMARK SMILES IDX 72 69 92 70 61 71 46 72 47 73 55 74 48 75 54 76 49 77 50 78
REMARK SMILES IDX 51 79 52 80 53 81 76 82 77 83 85 84 78 85 84 86 79 87 80 88
REMARK SMILES IDX 81 89 82 90 83 91 62 92 63 93 71 94 64 95 70 96 65 97 66 98
REMARK SMILES IDX 67 99 68 100 69 101
REMARK H PARENT 30 6 4 16 34 38 90 57 60 68
REMARK Flexibility Score: inf
ROOT
ATOM      1  C   UNL A   1      34.860  33.386  28.925  1.00  0.00     0.042 C 
ENDROOT
BRANCH   1   2
ATOM      2  C   UNL A   1      34.381  32.158  27.953  1.00  0.00     0.118 C 
BRANCH   2   3
ATOM      3  N   UNL A   1      32.978  32.133  27.457  1.00  0.00    -0.352 N 
ATOM      4  C   UNL A   1      32.140  31.207  26.851  1.00  0.00     0.251 C 
ATOM      5  O   UNL A   1      30.917  31.377  26.884  1.00  0.00    -0.269 OA
ATOM      6  H   UNL A   1      32.526  32.997  27.595  1.00  0.00     0.163 HD
BRANCH   4   7
ATOM      7  C   UNL A   1      32.608  29.990  26.111  1.00  0.00     0.044 A 
ATOM      8  C   UNL A   1      30.665  29.960  24.468  1.00  0.00     0.047 C 
ATOM      9  C   UNL A   1      32.019  29.508  24.939  1.00  0.00    -0.015 A 
ATOM     10  C   UNL A   1      32.585  28.402  24.274  1.00  0.00     0.045 A 
ATOM     11  C   UNL A   1      33.572  27.623  24.877  1.00  0.00     0.026 A 
ATOM     12  C   UNL A   1      33.594  29.176  26.725  1.00  0.00     0.014 A 
ATOM     13  C   UNL A   1      34.044  27.986  26.133  1.00  0.00     0.003 A 
BRANCH  10  14
ATOM     14  N   UNL A   1      32.088  28.129  22.996  1.00  0.00    -0.322 N 
ATOM     15  C   UNL A   1      31.574  26.981  22.458  1.00  0.00     0.255 C 
ATOM     16  H   UNL A   1      32.112  28.895  22.377  1.00  0.00     0.170 HD
ATOM     17  O   UNL A   1      31.229  26.988  21.275  1.00  0.00    -0.269 OA
BRANCH  15  18
ATOM     18  C   UNL A   1      31.330  25.766  23.272  1.00  0.00     0.040 A 
ATOM     19  C   UNL A   1      30.458  25.895  24.355  1.00  0.00     0.014 A 
ATOM     20  C   UNL A   1      32.012  24.558  23.077  1.00  0.00     0.022 A 
ATOM     21  C   UNL A   1      30.210  24.807  25.184  1.00  0.00     0.001 A 
ATOM     22  C   UNL A   1      31.769  23.449  23.898  1.00  0.00    -0.010 A 
ATOM     23  C   UNL A   1      30.847  23.588  24.946  1.00  0.00     0.009 A 
BRANCH  22  24
ATOM     24  C   UNL A   1      32.557  22.185  23.821  1.00  0.00     0.068 A 
ATOM     25  C   UNL A   1      33.770  22.087  23.231  1.00  0.00     0.028 A 
ATOM     26  C   UNL A   1      32.559  21.428  25.115  1.00  0.00     0.344 A 
ATOM     27  C   UNL A   1      34.887  22.505  24.111  1.00  0.00     0.018 A 
ATOM     28  O   UNL A   1      33.504  21.903  26.024  1.00  0.00    -0.422 OA
ATOM     29  O   UNL A   1      31.720  20.577  25.380  1.00  0.00    -0.246 OA
ATOM     30  C   UNL A   1      36.120  22.923  23.616  1.00  0.00     0.012 A 
ATOM     31  C   UNL A   1      34.665  22.510  25.495  1.00  0.00     0.138 A 
ATOM     32  C   UNL A   1      37.078  23.417  24.506  1.00  0.00     0.001 A 
ATOM     33  C   UNL A   1      35.585  23.060  26.377  1.00  0.00     0.048 A 
ATOM     34  C   UNL A   1      36.797  23.526  25.872  1.00  0.00     0.004 A 
ENDBRANCH  22  24
ENDBRANCH  15  18
ENDBRANCH  10  14
ENDBRANCH   4   7
ENDBRANCH   2   3
ENDBRANCH   1   2
BRANCH   1  35
ATOM     35  C   UNL A   1      35.108  32.997  30.450  1.00  0.00     0.118 C 
BRANCH  35  36
ATOM     36  N   UNL A   1      36.289  32.187  31.087  1.00  0.00    -0.352 N 
ATOM     37  C   UNL A   1      37.507  31.533  30.574  1.00  0.00     0.251 C 
ATOM     38  H   UNL A   1      36.195  32.092  32.062  1.00  0.00     0.163 HD
ATOM     39  O   UNL A   1      38.553  32.099  30.943  1.00  0.00    -0.269 OA
BRANCH  37  40
ATOM     40  C   UNL A   1      37.785  30.198  29.729  1.00  0.00     0.039 A 
ATOM     41  C   UNL A   1      37.755  28.903  30.349  1.00  0.00     0.014 A 
ATOM     42  C   UNL A   1      38.145  30.115  28.386  1.00  0.00     0.014 A 
ATOM     43  C   UNL A   1      38.570  27.795  29.852  1.00  0.00     0.010 A 
ATOM     44  C   UNL A   1      38.962  29.033  27.897  1.00  0.00     0.010 A 
ATOM     45  C   UNL A   1      39.398  27.988  28.726  1.00  0.00    -0.014 A 
BRANCH  45  46
ATOM     46  C   UNL A   1      40.837  27.438  28.586  1.00  0.00     0.031 A 
ATOM     47  C   UNL A   1      41.067  26.032  28.277  1.00  0.00     0.074 A 
ATOM     48  C   UNL A   1      42.047  28.091  28.564  1.00  0.00     0.049 A 
ATOM     49  N   UNL A   1      41.821  25.229  28.959  1.00  0.00    -0.248 NA
ATOM     50  C   UNL A   1      40.528  25.485  27.046  1.00  0.00     0.031 C 
ATOM     51  C   UNL A   1      43.445  27.670  28.325  1.00  0.00     0.029 A 
ATOM     52  N   UNL A   1      42.294  29.432  28.741  1.00  0.00    -0.354 N 
ATOM     53  C   UNL A   1      42.115  24.202  28.089  1.00  0.00     0.074 A 
ATOM     54  C   UNL A   1      41.119  24.290  27.034  1.00  0.00     0.031 C 
ATOM     55  C   UNL A   1      44.298  28.627  28.776  1.00  0.00     0.029 A 
ATOM     56  C   UNL A   1      43.503  29.682  29.372  1.00  0.00     0.049 A 
ATOM     57  H   UNL A   1      41.677  30.140  28.449  1.00  0.00     0.167 HD
ATOM     58  C   UNL A   1      43.328  23.569  28.090  1.00  0.00     0.031 A 
ATOM     59  C   UNL A   1      43.512  30.208  30.645  1.00  0.00     0.031 A 
ATOM     60  C   UNL A   1      44.338  24.256  28.918  1.00  0.00     0.049 A 
ATOM     61  C   UNL A   1      44.016  29.185  31.616  1.00  0.00     0.074 A 
ATOM     62  C   UNL A   1      45.513  24.926  28.598  1.00  0.00     0.029 A 
ATOM     63  N   UNL A   1      44.069  24.595  30.242  1.00  0.00    -0.354 N 
ATOM     64  N   UNL A   1      44.376  27.994  31.253  1.00  0.00    -0.248 NA
ATOM     65  C   UNL A   1      44.089  29.369  33.056  1.00  0.00     0.031 C 
ATOM     66  C   UNL A   1      45.928  25.685  29.729  1.00  0.00     0.029 A 
ATOM     67  C   UNL A   1      45.032  25.453  30.756  1.00  0.00     0.049 A 
ATOM     68  H   UNL A   1      43.293  24.265  30.751  1.00  0.00     0.167 HD
ATOM     69  C   UNL A   1      44.654  27.225  32.335  1.00  0.00     0.074 A 
ATOM     70  C   UNL A   1      44.500  28.149  33.449  1.00  0.00     0.031 C 
ATOM     71  C   UNL A   1      44.953  25.906  32.153  1.00  0.00     0.031 A 
BRANCH  58  72
ATOM     72  C   UNL A   1      43.673  22.504  27.056  1.00  0.00    -0.014 A 
ATOM     73  C   UNL A   1      42.848  21.382  26.846  1.00  0.00     0.010 A 
ATOM     74  C   UNL A   1      44.801  22.595  26.210  1.00  0.00     0.010 A 
ATOM     75  C   UNL A   1      43.176  20.377  25.919  1.00  0.00     0.020 A 
ATOM     76  C   UNL A   1      45.182  21.571  25.334  1.00  0.00     0.020 A 
ATOM     77  C   UNL A   1      44.357  20.468  25.183  1.00  0.00     0.054 A 
BRANCH  77  78
ATOM     78  S   UNL A   1      44.764  19.185  23.971  1.00  0.00     0.124 S 
ATOM     79  O   UNL A   1      46.164  18.896  24.266  1.00  0.00    -0.237 OA
ATOM     80  O   UNL A   1      43.816  18.127  24.309  1.00  0.00    -0.237 OA
ATOM     81  O   UNL A   1      44.529  19.835  22.682  1.00  0.00    -0.744 OA
ENDBRANCH  77  78
ENDBRANCH  58  72
BRANCH  59  82
ATOM     82  C   UNL A   1      42.410  31.230  31.023  1.00  0.00    -0.014 A 
ATOM     83  C   UNL A   1      42.710  32.028  32.142  1.00  0.00     0.010 A 
ATOM     84  C   UNL A   1      41.966  31.941  29.924  1.00  0.00     0.010 A 
ATOM     85  C   UNL A   1      43.362  33.254  31.951  1.00  0.00     0.020 A 
ATOM     86  C   UNL A   1      42.653  33.153  29.738  1.00  0.00     0.020 A 
ATOM     87  C   UNL A   1      43.496  33.725  30.662  1.00  0.00     0.054 A 
BRANCH  87  88
ATOM     88  S   UNL A   1      45.125  34.788  30.061  1.00  0.00     0.124 S 
ATOM     89  O   UNL A   1      44.833  36.062  30.709  1.00  0.00    -0.237 OA
ATOM     90  O   UNL A   1      46.273  34.109  30.607  1.00  0.00    -0.237 OA
ATOM     91  O   UNL A   1      45.098  34.844  28.601  1.00  0.00    -0.744 OA
ENDBRANCH  87  88
ENDBRANCH  59  82
BRANCH  71  92
ATOM     92  C   UNL A   1      45.237  24.895  33.232  1.00  0.00    -0.014 A 
ATOM     93  C   UNL A   1      44.272  24.138  33.905  1.00  0.00     0.010 A 
ATOM     94  C   UNL A   1      46.586  24.674  33.606  1.00  0.00     0.010 A 
ATOM     95  C   UNL A   1      44.627  23.205  34.884  1.00  0.00     0.020 A 
ATOM     96  C   UNL A   1      46.959  23.729  34.557  1.00  0.00     0.020 A 
ATOM     97  C   UNL A   1      45.969  23.000  35.196  1.00  0.00     0.054 A 
BRANCH  97  98
ATOM     98  S   UNL A   1      46.389  21.765  36.438  1.00  0.00     0.124 S 
ATOM     99  O   UNL A   1      47.832  21.950  36.574  1.00  0.00    -0.237 OA
ATOM    100  O   UNL A   1      45.591  22.193  37.584  1.00  0.00    -0.237 OA
ATOM    101  O   UNL A   1      45.976  20.502  35.831  1.00  0.00    -0.744 OA
ENDBRANCH  97  98
ENDBRANCH  71  92
ENDBRANCH  45  46
ENDBRANCH  37  40
ENDBRANCH  35  36
ENDBRANCH   1  35
TORSDOF 16
ENDMDL
MODEL 3
REMARK VINA RESULT:     -13.4      3.574     10.121
REMARK SMILES Cc1c(NC(=O)c2cccc(-c3cc4ccccc4oc3=O)c2)cccc1C(=O)NCCCNC(=O)c1ccc(-c2c3nc(c(-c4ccc(S(=O)(=O)[O-])cc4)c4ccc([nH]4)c(-c4ccc(S(=O)(=O)[O-])cc4)c4nc(c(-c5ccc(S(=O)(=O)[O-])cc5)c5ccc2[nH]5)C=C4)C=C3)cc1
REMARK SMILES IDX 32 1 31 2 30 3 28 4 29 5 27 7 1 8 2 9 3 10 24 11 26 12 25 13
REMARK SMILES IDX 4 14 5 15 6 17 7 18 8 19 23 20 9 21 11 22 10 23 12 24 13 25
REMARK SMILES IDX 21 26 14 27 20 28 22 29 15 30 19 31 16 32 18 33 17 34 33 35
REMARK SMILES IDX 34 36 35 37 36 39 37 40 38 41 96 42 39 43 95 44 40 45 41 46
REMARK SMILES IDX 42 47 89 48 43 49 94 50 88 51 90 52 44 53 93 54 87 55 86 56
REMARK SMILES IDX 45 58 75 59 56 60 74 61 57 62 60 63 73 64 91 65 58 66 59 67
REMARK SMILES IDX 72 69 92 70 61 71 46 72 47 73 55 74 48 75 54 76 49 77 50 78
REMARK SMILES IDX 51 79 52 80 53 81 76 82 77 83 85 84 78 85 84 86 79 87 80 88
REMARK SMILES IDX 81 89 82 90 83 91 62 92 63 93 71 94 64 95 70 96 65 97 66 98
REMARK SMILES IDX 67 99 68 100 69 101
REMARK H PARENT 30 6 4 16 34 38 90 57 60 68
REMARK Flexibility Score: inf
ROOT
ATOM      1  C   UNL A   1      34.057  34.614  28.692  1.00  0.00     0.042 C 
ENDROOT
BRANCH   1   2
ATOM      2  C   UNL A   1      33.871  33.230  27.836  1.00  0.00     0.118 C 
BRANCH   2   3
ATOM      3  N   UNL A   1      32.530  32.896  27.282  1.00  0.00    -0.352 N 
ATOM      4  C   UNL A   1      31.875  31.751  26.848  1.00  0.00     0.251 C 
ATOM      5  O   UNL A   1      30.643  31.742  26.778  1.00  0.00    -0.269 OA
ATOM      6  H   UNL A   1      31.958  33.693  27.205  1.00  0.00     0.163 HD
BRANCH   4   7
ATOM      7  C   UNL A   1      32.561  30.490  26.417  1.00  0.00     0.044 A 
ATOM      8  C   UNL A   1      30.929  29.975  24.534  1.00  0.00     0.047 C 
ATOM      9  C   UNL A   1      32.218  29.759  25.276  1.00  0.00    -0.015 A 
ATOM     10  C   UNL A   1      32.978  28.630  24.912  1.00  0.00     0.045 A 
ATOM     11  C   UNL A   1      33.913  28.075  25.785  1.00  0.00     0.026 A 
ATOM     12  C   UNL A   1      33.496  29.902  27.307  1.00  0.00     0.014 A 
ATOM     13  C   UNL A   1      34.137  28.689  27.011  1.00  0.00     0.003 A 
BRANCH  10  14
ATOM     14  N   UNL A   1      32.725  28.098  23.643  1.00  0.00    -0.322 N 
ATOM     15  C   UNL A   1      32.210  26.889  23.263  1.00  0.00     0.255 C 
ATOM     16  H   UNL A   1      32.956  28.697  22.897  1.00  0.00     0.170 HD
ATOM     17  O   UNL A   1      32.117  26.642  22.059  1.00  0.00    -0.269 OA
BRANCH  15  18
ATOM     18  C   UNL A   1      31.677  25.913  24.242  1.00  0.00     0.040 A 
ATOM     19  C   UNL A   1      30.559  26.305  24.982  1.00  0.00     0.014 A 
ATOM     20  C   UNL A   1      32.303  24.693  24.534  1.00  0.00     0.022 A 
ATOM     21  C   UNL A   1      30.026  25.454  25.944  1.00  0.00     0.001 A 
ATOM     22  C   UNL A   1      31.775  23.820  25.495  1.00  0.00    -0.010 A 
ATOM     23  C   UNL A   1      30.619  24.214  26.185  1.00  0.00     0.009 A 
BRANCH  22  24
ATOM     24  C   UNL A   1      32.467  22.576  25.938  1.00  0.00     0.068 A 
ATOM     25  C   UNL A   1      33.252  21.822  25.135  1.00  0.00     0.028 A 
ATOM     26  C   UNL A   1      33.110  22.724  27.284  1.00  0.00     0.344 A 
ATOM     27  C   UNL A   1      34.641  22.329  25.028  1.00  0.00     0.018 A 
ATOM     28  O   UNL A   1      34.361  23.339  27.227  1.00  0.00    -0.422 OA
ATOM     29  O   UNL A   1      32.527  22.453  28.325  1.00  0.00    -0.246 OA
ATOM     30  C   UNL A   1      35.473  22.023  23.955  1.00  0.00     0.012 A 
ATOM     31  C   UNL A   1      35.108  23.180  26.039  1.00  0.00     0.138 A 
ATOM     32  C   UNL A   1      36.726  22.638  23.868  1.00  0.00     0.001 A 
ATOM     33  C   UNL A   1      36.321  23.846  25.926  1.00  0.00     0.048 A 
ATOM     34  C   UNL A   1      37.129  23.577  24.823  1.00  0.00     0.004 A 
ENDBRANCH  22  24
ENDBRANCH  15  18
ENDBRANCH  10  14
ENDBRANCH   4   7
ENDBRANCH   2   3
ENDBRANCH   1   2
BRANCH   1  35
ATOM     35  C   UNL A   1      34.022  34.450  30.276  1.00  0.00     0.118 C 
BRANCH  35  36
ATOM     36  N   UNL A   1      34.332  33.186  31.149  1.00  0.00    -0.352 N 
ATOM     37  C   UNL A   1      35.484  32.280  31.308  1.00  0.00     0.251 C 
ATOM     38  H   UNL A   1      33.578  32.939  31.730  1.00  0.00     0.163 HD
ATOM     39  O   UNL A   1      36.032  32.382  32.422  1.00  0.00    -0.269 OA
BRANCH  37  40
ATOM     40  C   UNL A   1      36.126  31.121  30.402  1.00  0.00     0.039 A 
ATOM     41  C   UNL A   1      36.323  29.795  30.916  1.00  0.00     0.014 A 
ATOM     42  C   UNL A   1      36.618  31.247  29.105  1.00  0.00     0.014 A 
ATOM     43  C   UNL A   1      37.405  28.938  30.432  1.00  0.00     0.010 A 
ATOM     44  C   UNL A   1      37.694  30.415  28.630  1.00  0.00     0.010 A 
ATOM     45  C   UNL A   1      38.270  29.409  29.423  1.00  0.00    -0.014 A 
BRANCH  45  46
ATOM     46  C   UNL A   1      39.802  29.192  29.403  1.00  0.00     0.031 A 
ATOM     47  C   UNL A   1      40.365  27.921  28.962  1.00  0.00     0.074 A 
ATOM     48  C   UNL A   1      40.835  30.075  29.613  1.00  0.00     0.049 A 
ATOM     49  N   UNL A   1      41.205  27.201  29.635  1.00  0.00    -0.248 NA
ATOM     50  C   UNL A   1      40.084  27.457  27.617  1.00  0.00     0.031 C 
ATOM     51  C   UNL A   1      42.308  29.988  29.506  1.00  0.00     0.029 A 
ATOM     52  N   UNL A   1      40.762  31.399  29.977  1.00  0.00    -0.354 N 
ATOM     53  C   UNL A   1      41.803  26.391  28.694  1.00  0.00     0.074 A 
ATOM     54  C   UNL A   1      40.922  26.423  27.538  1.00  0.00     0.031 C 
ATOM     55  C   UNL A   1      42.881  31.025  30.172  1.00  0.00     0.029 A 
ATOM     56  C   UNL A   1      41.818  31.799  30.782  1.00  0.00     0.049 A 
ATOM     57  H   UNL A   1      40.036  32.000  29.694  1.00  0.00     0.167 HD
ATOM     58  C   UNL A   1      43.120  26.026  28.774  1.00  0.00     0.031 A 
ATOM     59  C   UNL A   1      41.585  32.128  32.099  1.00  0.00     0.031 A 
ATOM     60  C   UNL A   1      43.866  26.780  29.800  1.00  0.00     0.049 A 
ATOM     61  C   UNL A   1      42.203  31.102  32.998  1.00  0.00     0.074 A 
ATOM     62  C   UNL A   1      44.891  27.715  29.714  1.00  0.00     0.029 A 
ATOM     63  N   UNL A   1      43.400  26.864  31.110  1.00  0.00    -0.354 N 
ATOM     64  N   UNL A   1      42.850  30.074  32.545  1.00  0.00    -0.248 NA
ATOM     65  C   UNL A   1      42.090  31.090  34.447  1.00  0.00     0.031 C 
ATOM     66  C   UNL A   1      45.015  28.374  30.970  1.00  0.00     0.029 A 
ATOM     67  C   UNL A   1      44.094  27.820  31.840  1.00  0.00     0.049 A 
ATOM     68  H   UNL A   1      42.669  26.313  31.473  1.00  0.00     0.167 HD
ATOM     69  C   UNL A   1      43.181  29.232  33.556  1.00  0.00     0.074 A 
ATOM     70  C   UNL A   1      42.719  29.937  34.742  1.00  0.00     0.031 C 
ATOM     71  C   UNL A   1      43.780  28.042  33.259  1.00  0.00     0.031 A 
BRANCH  58  72
ATOM     72  C   UNL A   1      43.791  25.213  27.674  1.00  0.00    -0.014 A 
ATOM     73  C   UNL A   1      44.513  25.831  26.635  1.00  0.00     0.010 A 
ATOM     74  C   UNL A   1      43.781  23.801  27.652  1.00  0.00     0.010 A 
ATOM     75  C   UNL A   1      45.107  25.091  25.596  1.00  0.00     0.020 A 
ATOM     76  C   UNL A   1      44.302  23.051  26.590  1.00  0.00     0.020 A 
ATOM     77  C   UNL A   1      44.977  23.702  25.569  1.00  0.00     0.054 A 
BRANCH  77  78
ATOM     78  S   UNL A   1      45.764  22.749  24.244  1.00  0.00     0.124 S 
ATOM     79  O   UNL A   1      46.700  23.710  23.669  1.00  0.00    -0.237 OA
ATOM     80  O   UNL A   1      46.367  21.640  24.978  1.00  0.00    -0.237 OA
ATOM     81  O   UNL A   1      44.650  22.378  23.372  1.00  0.00    -0.744 OA
ENDBRANCH  77  78
ENDBRANCH  58  72
BRANCH  59  82
ATOM     82  C   UNL A   1      40.253  32.838  32.451  1.00  0.00    -0.014 A 
ATOM     83  C   UNL A   1      39.676  32.430  33.667  1.00  0.00     0.010 A 
ATOM     84  C   UNL A   1      40.342  34.209  32.300  1.00  0.00     0.010 A 
ATOM     85  C   UNL A   1      40.005  33.116  34.844  1.00  0.00     0.020 A 
ATOM     86  C   UNL A   1      40.701  34.871  33.486  1.00  0.00     0.020 A 
ATOM     87  C   UNL A   1      40.717  34.291  34.733  1.00  0.00     0.054 A 
BRANCH  87  88
ATOM     88  S   UNL A   1      42.092  34.860  36.123  1.00  0.00     0.124 S 
ATOM     89  O   UNL A   1      41.761  36.277  36.222  1.00  0.00    -0.237 OA
ATOM     90  O   UNL A   1      41.794  34.109  37.316  1.00  0.00    -0.237 OA
ATOM     91  O   UNL A   1      43.417  34.598  35.563  1.00  0.00    -0.744 OA
ENDBRANCH  87  88
ENDBRANCH  59  82
BRANCH  71  92
ATOM     92  C   UNL A   1      44.171  26.967  34.238  1.00  0.00    -0.014 A 
ATOM     93  C   UNL A   1      43.378  25.871  34.595  1.00  0.00     0.010 A 
ATOM     94  C   UNL A   1      45.444  27.052  34.855  1.00  0.00     0.010 A 
ATOM     95  C   UNL A   1      43.829  24.907  35.501  1.00  0.00     0.020 A 
ATOM     96  C   UNL A   1      45.920  26.087  35.737  1.00  0.00     0.020 A 
ATOM     97  C   UNL A   1      45.101  25.017  36.059  1.00  0.00     0.054 A 
BRANCH  97  98
ATOM     98  S   UNL A   1      45.659  23.737  37.196  1.00  0.00     0.124 S 
ATOM     99  O   UNL A   1      45.164  22.522  36.552  1.00  0.00    -0.237 OA
ATOM    100  O   UNL A   1      47.109  23.913  37.174  1.00  0.00    -0.237 OA
ATOM    101  O   UNL A   1      45.012  24.082  38.459  1.00  0.00    -0.744 OA
ENDBRANCH  97  98
ENDBRANCH  71  92
ENDBRANCH  45  46
ENDBRANCH  37  40
ENDBRANCH  35  36
ENDBRANCH   1  35
TORSDOF 16
ENDMDL
