MODEL 1
REMARK VINA RESULT:     -12.8      0.000      0.000
REMARK SMILES NS(=O)(=O)c1ccc(-c2coc(=O)n2-c2ccc(C(=O)NCCCNC(=O)c3ccc(-c4c5nc(c(-c6ccc(S(=O)(=O)[O-])cc6)c6ccc([nH]6)c(-c6ccc(S(=O)(=O)[O-])cc6)c6nc(c(-c7ccc(S(=O)(=O)[O-])cc7)c7ccc4[nH]7)C=C6)C=C5)cc3)cc2)cc1
REMARK SMILES IDX 22 1 21 2 19 3 20 4 18 6 15 7 16 8 89 9 17 10 88 11 14 12
REMARK SMILES IDX 9 13 10 14 11 15 12 16 13 17 8 18 5 19 6 20 91 21 7 22 90 23
REMARK SMILES IDX 2 24 3 25 4 26 1 27 23 30 24 31 25 32 26 33 27 35 28 36
REMARK SMILES IDX 29 37 87 38 30 39 86 40 31 41 32 42 33 43 80 44 34 45 85 46
REMARK SMILES IDX 79 47 81 48 35 49 84 50 78 51 77 52 36 54 66 55 47 56 65 57
REMARK SMILES IDX 48 58 51 59 64 60 82 61 49 62 50 63 63 65 83 66 52 67 37 68
REMARK SMILES IDX 38 69 46 70 39 71 45 72 40 73 41 74 42 75 43 76 44 77 67 78
REMARK SMILES IDX 68 79 76 80 69 81 75 82 70 83 71 84 72 85 73 86 74 87 53 88
REMARK SMILES IDX 54 89 62 90 55 91 61 92 56 93 57 94 58 95 59 96 60 97
REMARK H PARENT 21 5 1 28 1 29 25 34 81 53 51 64
REMARK Flexibility Score: inf
ROOT
ATOM      1  C   UNL A   1      39.012  21.333  25.878  1.00  0.00     0.118 C 
ENDROOT
BRANCH   1   2
ATOM      2  N   UNL A   1      39.059  22.724  26.305  1.00  0.00    -0.352 N 
ATOM      3  C   UNL A   1      38.111  23.720  26.356  1.00  0.00     0.251 C 
ATOM      4  O   UNL A   1      38.437  24.791  26.865  1.00  0.00    -0.269 OA
ATOM      5  H   UNL A   1      39.947  23.009  26.621  1.00  0.00     0.163 HD
BRANCH   3   6
ATOM      6  C   UNL A   1      36.709  23.544  25.881  1.00  0.00     0.039 A 
ATOM      7  C   UNL A   1      34.089  23.429  24.860  1.00  0.00     0.053 A 
ATOM      8  C   UNL A   1      35.173  23.416  23.983  1.00  0.00     0.028 A 
ATOM      9  C   UNL A   1      34.320  23.399  26.235  1.00  0.00     0.028 A 
ATOM     10  C   UNL A   1      36.476  23.504  24.495  1.00  0.00     0.016 A 
ATOM     11  C   UNL A   1      35.616  23.408  26.732  1.00  0.00     0.016 A 
BRANCH   7  12
ATOM     12  N   UNL A   1      32.763  23.514  24.405  1.00  0.00    -0.242 N 
ATOM     13  C   UNL A   1      31.982  22.498  23.928  1.00  0.00     0.095 A 
ATOM     14  C   UNL A   1      30.889  23.075  23.445  1.00  0.00     0.228 A 
ATOM     15  O   UNL A   1      30.868  24.463  23.577  1.00  0.00    -0.415 OA
ATOM     16  C   UNL A   1      32.087  24.714  24.213  1.00  0.00     0.424 A 
ATOM     17  O   UNL A   1      32.463  25.845  24.490  1.00  0.00    -0.223 OA
BRANCH  13  18
ATOM     18  C   UNL A   1      32.274  21.071  24.069  1.00  0.00     0.002 A 
ATOM     19  C   UNL A   1      32.909  18.354  24.368  1.00  0.00     0.082 A 
ATOM     20  C   UNL A   1      32.924  19.194  25.484  1.00  0.00     0.022 A 
ATOM     21  C   UNL A   1      32.591  18.861  23.105  1.00  0.00     0.022 A 
ATOM     22  C   UNL A   1      32.601  20.545  25.332  1.00  0.00     0.012 A 
ATOM     23  C   UNL A   1      32.268  20.217  22.960  1.00  0.00     0.012 A 
BRANCH  19  24
ATOM     24  S   UNL A   1      33.303  16.646  24.598  1.00  0.00     0.238 S 
ATOM     25  O   UNL A   1      33.665  16.090  23.321  1.00  0.00    -0.207 OA
ATOM     26  O   UNL A   1      32.300  16.055  25.459  1.00  0.00    -0.207 OA
BRANCH  24  27
ATOM     27  N   UNL A   1      34.713  16.655  25.516  1.00  0.00    -0.225 NA
ATOM     28  H   UNL A   1      34.677  17.425  26.183  1.00  0.00     0.137 HD
ATOM     29  H   UNL A   1      35.517  16.774  24.900  1.00  0.00     0.137 HD
ENDBRANCH  24  27
ENDBRANCH  19  24
ENDBRANCH  13  18
ENDBRANCH   7  12
ENDBRANCH   3   6
ENDBRANCH   1   2
BRANCH   1  30
ATOM     30  C   UNL A   1      40.369  20.632  26.043  1.00  0.00     0.042 C 
BRANCH  30  31
ATOM     31  C   UNL A   1      41.374  21.499  26.777  1.00  0.00     0.118 C 
BRANCH  31  32
ATOM     32  N   UNL A   1      42.482  21.921  25.918  1.00  0.00    -0.352 N 
ATOM     33  C   UNL A   1      42.832  23.207  25.558  1.00  0.00     0.251 C 
ATOM     34  H   UNL A   1      43.044  21.200  25.554  1.00  0.00     0.163 HD
ATOM     35  O   UNL A   1      43.515  23.403  24.558  1.00  0.00    -0.269 OA
BRANCH  33  36
ATOM     36  C   UNL A   1      42.364  24.331  26.392  1.00  0.00     0.039 A 
ATOM     37  C   UNL A   1      42.711  24.437  27.739  1.00  0.00     0.014 A 
ATOM     38  C   UNL A   1      41.591  25.318  25.785  1.00  0.00     0.014 A 
ATOM     39  C   UNL A   1      42.342  25.590  28.431  1.00  0.00     0.010 A 
ATOM     40  C   UNL A   1      41.402  26.527  26.405  1.00  0.00     0.010 A 
ATOM     41  C   UNL A   1      41.717  26.653  27.746  1.00  0.00    -0.014 A 
BRANCH  41  42
ATOM     42  C   UNL A   1      41.528  27.956  28.382  1.00  0.00     0.031 A 
ATOM     43  C   UNL A   1      42.595  28.926  28.032  1.00  0.00     0.074 A 
ATOM     44  C   UNL A   1      40.437  28.329  29.091  1.00  0.00     0.049 A 
ATOM     45  N   UNL A   1      43.608  29.238  28.768  1.00  0.00    -0.248 NA
ATOM     46  C   UNL A   1      42.682  29.436  26.654  1.00  0.00     0.031 C 
ATOM     47  C   UNL A   1      39.188  27.589  29.314  1.00  0.00     0.029 A 
ATOM     48  N   UNL A   1      40.183  29.514  29.718  1.00  0.00    -0.354 N 
ATOM     49  C   UNL A   1      44.311  30.198  28.057  1.00  0.00     0.074 A 
ATOM     50  C   UNL A   1      43.830  30.120  26.701  1.00  0.00     0.031 C 
ATOM     51  C   UNL A   1      38.242  28.416  29.820  1.00  0.00     0.029 A 
ATOM     52  C   UNL A   1      38.863  29.689  30.135  1.00  0.00     0.049 A 
ATOM     53  H   UNL A   1      40.879  30.194  29.864  1.00  0.00     0.167 HD
ATOM     54  C   UNL A   1      45.010  31.164  28.715  1.00  0.00     0.031 A 
ATOM     55  C   UNL A   1      38.327  30.784  30.737  1.00  0.00     0.031 A 
ATOM     56  C   UNL A   1      45.147  30.843  30.116  1.00  0.00     0.049 A 
ATOM     57  C   UNL A   1      39.454  31.500  31.374  1.00  0.00     0.074 A 
ATOM     58  C   UNL A   1      45.727  29.821  30.839  1.00  0.00     0.029 A 
ATOM     59  N   UNL A   1      44.236  31.442  30.955  1.00  0.00    -0.354 N 
ATOM     60  N   UNL A   1      40.142  31.005  32.363  1.00  0.00    -0.248 NA
ATOM     61  C   UNL A   1      40.104  32.563  30.629  1.00  0.00     0.031 C 
ATOM     62  C   UNL A   1      44.835  29.582  31.927  1.00  0.00     0.029 A 
ATOM     63  C   UNL A   1      43.803  30.521  31.872  1.00  0.00     0.049 A 
ATOM     64  H   UNL A   1      43.942  32.380  30.904  1.00  0.00     0.167 HD
ATOM     65  C   UNL A   1      41.455  31.349  32.079  1.00  0.00     0.074 A 
ATOM     66  C   UNL A   1      41.354  32.405  31.072  1.00  0.00     0.031 C 
ATOM     67  C   UNL A   1      42.488  30.550  32.482  1.00  0.00     0.031 A 
BRANCH  54  68
ATOM     68  C   UNL A   1      45.136  32.584  28.215  1.00  0.00    -0.014 A 
ATOM     69  C   UNL A   1      46.323  33.291  28.497  1.00  0.00     0.010 A 
ATOM     70  C   UNL A   1      44.041  33.336  27.740  1.00  0.00     0.010 A 
ATOM     71  C   UNL A   1      46.388  34.684  28.373  1.00  0.00     0.020 A 
ATOM     72  C   UNL A   1      44.107  34.721  27.576  1.00  0.00     0.020 A 
ATOM     73  C   UNL A   1      45.273  35.391  27.921  1.00  0.00     0.054 A 
BRANCH  73  74
ATOM     74  S   UNL A   1      45.347  37.196  27.830  1.00  0.00     0.124 S 
ATOM     75  O   UNL A   1      43.935  37.557  27.881  1.00  0.00    -0.237 OA
ATOM     76  O   UNL A   1      46.133  37.528  29.016  1.00  0.00    -0.237 OA
ATOM     77  O   UNL A   1      46.016  37.446  26.556  1.00  0.00    -0.744 OA
ENDBRANCH  73  74
ENDBRANCH  54  68
BRANCH  55  78
ATOM     78  C   UNL A   1      36.993  31.419  30.564  1.00  0.00    -0.014 A 
ATOM     79  C   UNL A   1      36.465  32.283  31.548  1.00  0.00     0.010 A 
ATOM     80  C   UNL A   1      36.392  31.443  29.291  1.00  0.00     0.010 A 
ATOM     81  C   UNL A   1      35.431  33.189  31.247  1.00  0.00     0.020 A 
ATOM     82  C   UNL A   1      35.359  32.343  28.984  1.00  0.00     0.020 A 
ATOM     83  C   UNL A   1      34.900  33.231  29.955  1.00  0.00     0.054 A 
BRANCH  83  84
ATOM     84  S   UNL A   1      33.703  34.532  29.517  1.00  0.00     0.124 S 
ATOM     85  O   UNL A   1      33.225  34.971  30.825  1.00  0.00    -0.237 OA
ATOM     86  O   UNL A   1      34.527  35.496  28.792  1.00  0.00    -0.237 OA
ATOM     87  O   UNL A   1      32.715  33.830  28.700  1.00  0.00    -0.744 OA
ENDBRANCH  83  84
ENDBRANCH  55  78
BRANCH  67  88
ATOM     88  C   UNL A   1      42.202  29.497  33.536  1.00  0.00    -0.014 A 
ATOM     89  C   UNL A   1      41.580  28.256  33.286  1.00  0.00     0.010 A 
ATOM     90  C   UNL A   1      42.685  29.750  34.830  1.00  0.00     0.010 A 
ATOM     91  C   UNL A   1      41.418  27.314  34.317  1.00  0.00     0.020 A 
ATOM     92  C   UNL A   1      42.546  28.811  35.854  1.00  0.00     0.020 A 
ATOM     93  C   UNL A   1      41.901  27.603  35.598  1.00  0.00     0.054 A 
BRANCH  93  94
ATOM     94  S   UNL A   1      41.704  26.386  36.932  1.00  0.00     0.124 S 
ATOM     95  O   UNL A   1      41.759  25.115  36.215  1.00  0.00    -0.237 OA
ATOM     96  O   UNL A   1      42.843  26.667  37.801  1.00  0.00    -0.237 OA
ATOM     97  O   UNL A   1      40.400  26.712  37.511  1.00  0.00    -0.744 OA
ENDBRANCH  93  94
ENDBRANCH  67  88
ENDBRANCH  41  42
ENDBRANCH  33  36
ENDBRANCH  31  32
ENDBRANCH  30  31
ENDBRANCH   1  30
TORSDOF 17
ENDMDL
MODEL 2
REMARK VINA RESULT:     -12.5      2.627      9.157
REMARK SMILES NS(=O)(=O)c1ccc(-c2coc(=O)n2-c2ccc(C(=O)NCCCNC(=O)c3ccc(-c4c5nc(c(-c6ccc(S(=O)(=O)[O-])cc6)c6ccc([nH]6)c(-c6ccc(S(=O)(=O)[O-])cc6)c6nc(c(-c7ccc(S(=O)(=O)[O-])cc7)c7ccc4[nH]7)C=C6)C=C5)cc3)cc2)cc1
REMARK SMILES IDX 22 1 21 2 19 3 20 4 18 6 15 7 16 8 89 9 17 10 88 11 14 12
REMARK SMILES IDX 9 13 10 14 11 15 12 16 13 17 8 18 5 19 6 20 91 21 7 22 90 23
REMARK SMILES IDX 2 24 3 25 4 26 1 27 23 30 24 31 25 32 26 33 27 35 28 36
REMARK SMILES IDX 29 37 87 38 30 39 86 40 31 41 32 42 33 43 80 44 34 45 85 46
REMARK SMILES IDX 79 47 81 48 35 49 84 50 78 51 77 52 36 54 66 55 47 56 65 57
REMARK SMILES IDX 48 58 51 59 64 60 82 61 49 62 50 63 63 65 83 66 52 67 37 68
REMARK SMILES IDX 38 69 46 70 39 71 45 72 40 73 41 74 42 75 43 76 44 77 67 78
REMARK SMILES IDX 68 79 76 80 69 81 75 82 70 83 71 84 72 85 73 86 74 87 53 88
REMARK SMILES IDX 54 89 62 90 55 91 61 92 56 93 57 94 58 95 59 96 60 97
REMARK H PARENT 21 5 1 28 1 29 25 34 81 53 51 64
REMARK Flexibility Score: inf
ROOT
ATOM      1  C   UNL A   1      32.889  28.036  26.115  1.00  0.00     0.118 C 
ENDROOT
BRANCH   1   2
ATOM      2  N   UNL A   1      31.830  27.051  26.282  1.00  0.00    -0.352 N 
ATOM      3  C   UNL A   1      31.824  25.676  26.291  1.00  0.00     0.251 C 
ATOM      4  O   UNL A   1      30.763  25.113  26.556  1.00  0.00    -0.269 OA
ATOM      5  H   UNL A   1      30.940  27.450  26.418  1.00  0.00     0.163 HD
BRANCH   3   6
ATOM      6  C   UNL A   1      33.041  24.848  26.054  1.00  0.00     0.039 A 
ATOM      7  C   UNL A   1      35.425  23.371  25.826  1.00  0.00     0.053 A 
ATOM      8  C   UNL A   1      34.567  23.133  26.898  1.00  0.00     0.028 A 
ATOM      9  C   UNL A   1      35.043  24.267  24.828  1.00  0.00     0.028 A 
ATOM     10  C   UNL A   1      33.394  23.893  27.025  1.00  0.00     0.016 A 
ATOM     11  C   UNL A   1      33.843  24.958  24.923  1.00  0.00     0.016 A 
BRANCH   7  12
ATOM     12  N   UNL A   1      36.690  22.767  25.736  1.00  0.00    -0.242 N 
ATOM     13  C   UNL A   1      36.965  21.441  25.548  1.00  0.00     0.095 A 
ATOM     14  C   UNL A   1      38.275  21.313  25.718  1.00  0.00     0.228 A 
ATOM     15  O   UNL A   1      38.934  22.507  26.008  1.00  0.00    -0.415 OA
ATOM     16  C   UNL A   1      37.884  23.429  25.998  1.00  0.00     0.424 A 
ATOM     17  O   UNL A   1      38.051  24.617  26.239  1.00  0.00    -0.223 OA
BRANCH  13  18
ATOM     18  C   UNL A   1      35.998  20.432  25.113  1.00  0.00     0.002 A 
ATOM     19  C   UNL A   1      34.191  18.484  24.213  1.00  0.00     0.082 A 
ATOM     20  C   UNL A   1      35.519  18.132  24.460  1.00  0.00     0.022 A 
ATOM     21  C   UNL A   1      33.761  19.800  24.401  1.00  0.00     0.022 A 
ATOM     22  C   UNL A   1      36.415  19.104  24.915  1.00  0.00     0.012 A 
ATOM     23  C   UNL A   1      34.664  20.769  24.857  1.00  0.00     0.012 A 
BRANCH  19  24
ATOM     24  S   UNL A   1      33.078  17.226  23.658  1.00  0.00     0.238 S 
ATOM     25  O   UNL A   1      33.705  15.947  23.860  1.00  0.00    -0.207 OA
ATOM     26  O   UNL A   1      32.517  17.637  22.388  1.00  0.00    -0.207 OA
BRANCH  24  27
ATOM     27  N   UNL A   1      31.793  17.288  24.741  1.00  0.00    -0.225 NA
ATOM     28  H   UNL A   1      31.983  16.668  25.528  1.00  0.00     0.137 HD
ATOM     29  H   UNL A   1      30.938  16.991  24.271  1.00  0.00     0.137 HD
ENDBRANCH  24  27
ENDBRANCH  19  24
ENDBRANCH  13  18
ENDBRANCH   7  12
ENDBRANCH   3   6
ENDBRANCH   1   2
BRANCH   1  30
ATOM     30  C   UNL A   1      32.487  29.416  26.658  1.00  0.00     0.042 C 
BRANCH  30  31
ATOM     31  C   UNL A   1      33.498  29.954  27.653  1.00  0.00     0.118 C 
BRANCH  31  32
ATOM     32  N   UNL A   1      33.968  31.295  27.304  1.00  0.00    -0.352 N 
ATOM     33  C   UNL A   1      35.137  31.914  27.702  1.00  0.00     0.251 C 
ATOM     34  H   UNL A   1      33.380  31.819  26.713  1.00  0.00     0.163 HD
ATOM     35  O   UNL A   1      35.232  33.136  27.663  1.00  0.00    -0.269 OA
BRANCH  33  36
ATOM     36  C   UNL A   1      36.256  31.078  28.178  1.00  0.00     0.039 A 
ATOM     37  C   UNL A   1      36.336  29.719  27.875  1.00  0.00     0.014 A 
ATOM     38  C   UNL A   1      37.265  31.695  28.913  1.00  0.00     0.014 A 
ATOM     39  C   UNL A   1      37.484  29.021  28.247  1.00  0.00     0.010 A 
ATOM     40  C   UNL A   1      38.468  31.063  29.101  1.00  0.00     0.010 A 
ATOM     41  C   UNL A   1      38.569  29.710  28.830  1.00  0.00    -0.014 A 
BRANCH  41  42
ATOM     42  C   UNL A   1      39.865  29.061  29.017  1.00  0.00     0.031 A 
ATOM     43  C   UNL A   1      40.189  28.828  30.446  1.00  0.00     0.074 A 
ATOM     44  C   UNL A   1      40.643  28.569  28.025  1.00  0.00     0.049 A 
ATOM     45  N   UNL A   1      40.973  29.550  31.174  1.00  0.00    -0.248 NA
ATOM     46  C   UNL A   1      39.410  27.841  31.211  1.00  0.00     0.031 C 
ATOM     47  C   UNL A   1      40.357  28.484  26.587  1.00  0.00     0.029 A 
ATOM     48  N   UNL A   1      41.860  27.958  28.111  1.00  0.00    -0.354 N 
ATOM     49  C   UNL A   1      41.001  28.940  32.419  1.00  0.00     0.074 A 
ATOM     50  C   UNL A   1      39.874  28.043  32.448  1.00  0.00     0.031 C 
ATOM     51  C   UNL A   1      41.253  27.669  25.982  1.00  0.00     0.029 A 
ATOM     52  C   UNL A   1      42.285  27.325  26.941  1.00  0.00     0.049 A 
ATOM     53  H   UNL A   1      42.398  27.963  28.935  1.00  0.00     0.167 HD
ATOM     54  C   UNL A   1      42.119  29.016  33.194  1.00  0.00     0.031 A 
ATOM     55  C   UNL A   1      43.424  26.605  26.761  1.00  0.00     0.031 A 
ATOM     56  C   UNL A   1      43.035  30.011  32.690  1.00  0.00     0.049 A 
ATOM     57  C   UNL A   1      44.377  27.071  27.793  1.00  0.00     0.074 A 
ATOM     58  C   UNL A   1      42.991  31.375  32.485  1.00  0.00     0.029 A 
ATOM     59  N   UNL A   1      44.056  29.534  31.901  1.00  0.00    -0.354 N 
ATOM     60  N   UNL A   1      44.866  28.279  27.814  1.00  0.00    -0.248 NA
ATOM     61  C   UNL A   1      44.441  26.347  29.049  1.00  0.00     0.031 C 
ATOM     62  C   UNL A   1      43.699  31.591  31.264  1.00  0.00     0.029 A 
ATOM     63  C   UNL A   1      44.217  30.370  30.828  1.00  0.00     0.049 A 
ATOM     64  H   UNL A   1      44.585  28.723  32.078  1.00  0.00     0.167 HD
ATOM     65  C   UNL A   1      44.863  28.630  29.155  1.00  0.00     0.074 A 
ATOM     66  C   UNL A   1      44.708  27.364  29.872  1.00  0.00     0.031 C 
ATOM     67  C   UNL A   1      44.705  29.935  29.533  1.00  0.00     0.031 A 
BRANCH  54  68
ATOM     68  C   UNL A   1      42.589  27.890  34.084  1.00  0.00    -0.014 A 
ATOM     69  C   UNL A   1      42.544  28.075  35.481  1.00  0.00     0.010 A 
ATOM     70  C   UNL A   1      43.334  26.789  33.609  1.00  0.00     0.010 A 
ATOM     71  C   UNL A   1      43.259  27.242  36.350  1.00  0.00     0.020 A 
ATOM     72  C   UNL A   1      44.018  25.929  34.469  1.00  0.00     0.020 A 
ATOM     73  C   UNL A   1      44.000  26.178  35.835  1.00  0.00     0.054 A 
BRANCH  73  74
ATOM     74  S   UNL A   1      44.973  25.151  36.961  1.00  0.00     0.124 S 
ATOM     75  O   UNL A   1      44.358  25.450  38.249  1.00  0.00    -0.237 OA
ATOM     76  O   UNL A   1      44.732  23.810  36.436  1.00  0.00    -0.237 OA
ATOM     77  O   UNL A   1      46.335  25.648  36.783  1.00  0.00    -0.744 OA
ENDBRANCH  73  74
ENDBRANCH  54  68
BRANCH  55  78
ATOM     78  C   UNL A   1      43.661  25.360  25.982  1.00  0.00    -0.014 A 
ATOM     79  C   UNL A   1      44.951  25.032  25.509  1.00  0.00     0.010 A 
ATOM     80  C   UNL A   1      42.695  24.336  25.993  1.00  0.00     0.010 A 
ATOM     81  C   UNL A   1      45.280  23.715  25.137  1.00  0.00     0.020 A 
ATOM     82  C   UNL A   1      43.016  23.021  25.621  1.00  0.00     0.020 A 
ATOM     83  C   UNL A   1      44.314  22.709  25.220  1.00  0.00     0.054 A 
BRANCH  83  84
ATOM     84  S   UNL A   1      44.793  20.977  24.926  1.00  0.00     0.124 S 
ATOM     85  O   UNL A   1      43.823  20.243  25.735  1.00  0.00    -0.237 OA
ATOM     86  O   UNL A   1      44.638  20.841  23.480  1.00  0.00    -0.237 OA
ATOM     87  O   UNL A   1      46.173  20.914  25.406  1.00  0.00    -0.744 OA
ENDBRANCH  83  84
ENDBRANCH  55  78
BRANCH  67  88
ATOM     88  C   UNL A   1      44.896  31.008  28.479  1.00  0.00    -0.014 A 
ATOM     89  C   UNL A   1      43.957  31.328  27.477  1.00  0.00     0.010 A 
ATOM     90  C   UNL A   1      46.053  31.798  28.582  1.00  0.00     0.010 A 
ATOM     91  C   UNL A   1      44.193  32.387  26.583  1.00  0.00     0.020 A 
ATOM     92  C   UNL A   1      46.285  32.864  27.712  1.00  0.00     0.020 A 
ATOM     93  C   UNL A   1      45.362  33.146  26.707  1.00  0.00     0.054 A 
BRANCH  93  94
ATOM     94  S   UNL A   1      45.668  34.523  25.562  1.00  0.00     0.124 S 
ATOM     95  O   UNL A   1      44.813  34.190  24.426  1.00  0.00    -0.237 OA
ATOM     96  O   UNL A   1      45.257  35.690  26.338  1.00  0.00    -0.237 OA
ATOM     97  O   UNL A   1      47.105  34.442  25.297  1.00  0.00    -0.744 OA
ENDBRANCH  93  94
ENDBRANCH  67  88
ENDBRANCH  41  42
ENDBRANCH  33  36
ENDBRANCH  31  32
ENDBRANCH  30  31
ENDBRANCH   1  30
TORSDOF 17
ENDMDL
MODEL 3
REMARK VINA RESULT:     -12.4      3.385      9.846
REMARK SMILES NS(=O)(=O)c1ccc(-c2coc(=O)n2-c2ccc(C(=O)NCCCNC(=O)c3ccc(-c4c5nc(c(-c6ccc(S(=O)(=O)[O-])cc6)c6ccc([nH]6)c(-c6ccc(S(=O)(=O)[O-])cc6)c6nc(c(-c7ccc(S(=O)(=O)[O-])cc7)c7ccc4[nH]7)C=C6)C=C5)cc3)cc2)cc1
REMARK SMILES IDX 22 1 21 2 19 3 20 4 18 6 15 7 16 8 89 9 17 10 88 11 14 12
REMARK SMILES IDX 9 13 10 14 11 15 12 16 13 17 8 18 5 19 6 20 91 21 7 22 90 23
REMARK SMILES IDX 2 24 3 25 4 26 1 27 23 30 24 31 25 32 26 33 27 35 28 36
REMARK SMILES IDX 29 37 87 38 30 39 86 40 31 41 32 42 33 43 80 44 34 45 85 46
REMARK SMILES IDX 79 47 81 48 35 49 84 50 78 51 77 52 36 54 66 55 47 56 65 57
REMARK SMILES IDX 48 58 51 59 64 60 82 61 49 62 50 63 63 65 83 66 52 67 37 68
REMARK SMILES IDX 38 69 46 70 39 71 45 72 40 73 41 74 42 75 43 76 44 77 67 78
REMARK SMILES IDX 68 79 76 80 69 81 75 82 70 83 71 84 72 85 73 86 74 87 53 88
REMARK SMILES IDX 54 89 62 90 55 91 61 92 56 93 57 94 58 95 59 96 60 97
REMARK H PARENT 21 5 1 28 1 29 25 34 81 53 51 64
REMARK Flexibility Score: inf
ROOT
ATOM      1  C   UNL A   1      32.300  31.364  27.030  1.00  0.00     0.118 C 
ENDROOT
BRANCH   1   2
ATOM      2  N   UNL A   1      33.464  30.778  27.680  1.00  0.00    -0.352 N 
ATOM      3  C   UNL A   1      34.015  29.519  27.654  1.00  0.00     0.251 C 
ATOM      4  O   UNL A   1      35.080  29.350  28.247  1.00  0.00    -0.269 OA
ATOM      5  H   UNL A   1      33.955  31.412  28.252  1.00  0.00     0.163 HD
BRANCH   3   6
ATOM      6  C   UNL A   1      33.420  28.377  26.902  1.00  0.00     0.039 A 
ATOM      7  C   UNL A   1      32.305  26.367  25.278  1.00  0.00     0.053 A 
ATOM      8  C   UNL A   1      33.581  26.852  24.997  1.00  0.00     0.028 A 
ATOM      9  C   UNL A   1      31.638  26.814  26.419  1.00  0.00     0.028 A 
ATOM     10  C   UNL A   1      34.121  27.875  25.791  1.00  0.00     0.016 A 
ATOM     11  C   UNL A   1      32.214  27.772  27.242  1.00  0.00     0.016 A 
BRANCH   7  12
ATOM     12  N   UNL A   1      31.645  25.469  24.424  1.00  0.00    -0.242 N 
ATOM     13  C   UNL A   1      30.544  25.715  23.652  1.00  0.00     0.095 A 
ATOM     14  C   UNL A   1      30.166  24.537  23.171  1.00  0.00     0.228 A 
ATOM     15  O   UNL A   1      30.972  23.470  23.568  1.00  0.00    -0.415 OA
ATOM     16  C   UNL A   1      31.926  24.108  24.366  1.00  0.00     0.424 A 
ATOM     17  O   UNL A   1      32.819  23.497  24.936  1.00  0.00    -0.223 OA
BRANCH  13  18
ATOM     18  C   UNL A   1      30.010  27.041  23.339  1.00  0.00     0.002 A 
ATOM     19  C   UNL A   1      29.040  29.617  22.795  1.00  0.00     0.082 A 
ATOM     20  C   UNL A   1      30.388  29.327  22.579  1.00  0.00     0.022 A 
ATOM     21  C   UNL A   1      28.176  28.636  23.290  1.00  0.00     0.022 A 
ATOM     22  C   UNL A   1      30.866  28.041  22.845  1.00  0.00     0.012 A 
ATOM     23  C   UNL A   1      28.662  27.349  23.555  1.00  0.00     0.012 A 
BRANCH  19  24
ATOM     24  S   UNL A   1      28.463  31.248  22.429  1.00  0.00     0.238 S 
ATOM     25  O   UNL A   1      27.830  31.224  21.137  1.00  0.00    -0.207 OA
ATOM     26  O   UNL A   1      29.503  32.193  22.781  1.00  0.00    -0.207 OA
BRANCH  24  27
ATOM     27  N   UNL A   1      27.232  31.522  23.542  1.00  0.00    -0.225 NA
ATOM     28  H   UNL A   1      27.152  30.718  24.164  1.00  0.00     0.137 HD
ATOM     29  H   UNL A   1      26.351  31.659  23.047  1.00  0.00     0.137 HD
ENDBRANCH  24  27
ENDBRANCH  19  24
ENDBRANCH  13  18
ENDBRANCH   7  12
ENDBRANCH   3   6
ENDBRANCH   1   2
BRANCH   1  30
ATOM     30  C   UNL A   1      32.260  32.892  27.183  1.00  0.00     0.042 C 
BRANCH  30  31
ATOM     31  C   UNL A   1      33.597  33.456  27.627  1.00  0.00     0.118 C 
BRANCH  31  32
ATOM     32  N   UNL A   1      33.451  34.549  28.589  1.00  0.00    -0.352 N 
ATOM     33  C   UNL A   1      33.926  34.607  29.885  1.00  0.00     0.251 C 
ATOM     34  H   UNL A   1      32.955  35.339  28.274  1.00  0.00     0.163 HD
ATOM     35  O   UNL A   1      33.424  35.382  30.692  1.00  0.00    -0.269 OA
BRANCH  33  36
ATOM     36  C   UNL A   1      35.035  33.716  30.275  1.00  0.00     0.039 A 
ATOM     37  C   UNL A   1      34.804  32.451  30.815  1.00  0.00     0.014 A 
ATOM     38  C   UNL A   1      36.337  34.157  30.051  1.00  0.00     0.014 A 
ATOM     39  C   UNL A   1      35.896  31.614  31.039  1.00  0.00     0.010 A 
ATOM     40  C   UNL A   1      37.383  33.270  30.085  1.00  0.00     0.010 A 
ATOM     41  C   UNL A   1      37.186  32.016  30.636  1.00  0.00    -0.014 A 
BRANCH  41  42
ATOM     42  C   UNL A   1      38.308  31.079  30.642  1.00  0.00     0.031 A 
ATOM     43  C   UNL A   1      38.870  30.865  31.999  1.00  0.00     0.074 A 
ATOM     44  C   UNL A   1      38.721  30.347  29.582  1.00  0.00     0.049 A 
ATOM     45  N   UNL A   1      39.936  31.415  32.474  1.00  0.00    -0.248 NA
ATOM     46  C   UNL A   1      38.068  30.154  33.008  1.00  0.00     0.031 C 
ATOM     47  C   UNL A   1      38.121  30.244  28.245  1.00  0.00     0.029 A 
ATOM     48  N   UNL A   1      39.755  29.460  29.500  1.00  0.00    -0.354 N 
ATOM     49  C   UNL A   1      40.091  30.899  33.752  1.00  0.00     0.074 A 
ATOM     50  C   UNL A   1      38.821  30.313  34.101  1.00  0.00     0.031 C 
ATOM     51  C   UNL A   1      38.654  29.195  27.575  1.00  0.00     0.029 A 
ATOM     52  C   UNL A   1      39.761  28.668  28.351  1.00  0.00     0.049 A 
ATOM     53  H   UNL A   1      40.443  29.384  30.199  1.00  0.00     0.167 HD
ATOM     54  C   UNL A   1      41.335  30.744  34.283  1.00  0.00     0.031 A 
ATOM     55  C   UNL A   1      40.640  27.678  28.037  1.00  0.00     0.031 A 
ATOM     56  C   UNL A   1      42.325  31.447  33.501  1.00  0.00     0.049 A 
ATOM     57  C   UNL A   1      41.872  27.959  28.805  1.00  0.00     0.074 A 
ATOM     58  C   UNL A   1      42.551  32.763  33.154  1.00  0.00     0.029 A 
ATOM     59  N   UNL A   1      43.015  30.682  32.590  1.00  0.00    -0.354 N 
ATOM     60  N   UNL A   1      42.618  29.006  28.594  1.00  0.00    -0.248 NA
ATOM     61  C   UNL A   1      42.037  27.323  30.100  1.00  0.00     0.031 C 
ATOM     62  C   UNL A   1      43.011  32.719  31.803  1.00  0.00     0.029 A 
ATOM     63  C   UNL A   1      43.130  31.382  31.417  1.00  0.00     0.049 A 
ATOM     64  H   UNL A   1      43.370  29.779  32.753  1.00  0.00     0.167 HD
ATOM     65  C   UNL A   1      42.984  29.432  29.861  1.00  0.00     0.074 A 
ATOM     66  C   UNL A   1      42.701  28.293  30.734  1.00  0.00     0.031 C 
ATOM     67  C   UNL A   1      43.215  30.757  30.111  1.00  0.00     0.031 A 
BRANCH  54  68
ATOM     68  C   UNL A   1      41.715  29.596  35.188  1.00  0.00    -0.014 A 
ATOM     69  C   UNL A   1      42.603  29.848  36.254  1.00  0.00     0.010 A 
ATOM     70  C   UNL A   1      41.470  28.245  34.866  1.00  0.00     0.010 A 
ATOM     71  C   UNL A   1      43.260  28.804  36.917  1.00  0.00     0.020 A 
ATOM     72  C   UNL A   1      42.089  27.195  35.546  1.00  0.00     0.020 A 
ATOM     73  C   UNL A   1      43.003  27.482  36.551  1.00  0.00     0.054 A 
BRANCH  73  74
ATOM     74  S   UNL A   1      43.908  26.147  37.368  1.00  0.00     0.124 S 
ATOM     75  O   UNL A   1      43.830  26.544  38.769  1.00  0.00    -0.237 OA
ATOM     76  O   UNL A   1      43.123  24.974  36.993  1.00  0.00    -0.237 OA
ATOM     77  O   UNL A   1      45.237  26.218  36.766  1.00  0.00    -0.744 OA
ENDBRANCH  73  74
ENDBRANCH  54  68
BRANCH  55  78
ATOM     78  C   UNL A   1      40.412  26.366  27.374  1.00  0.00    -0.014 A 
ATOM     79  C   UNL A   1      41.388  25.800  26.525  1.00  0.00     0.010 A 
ATOM     80  C   UNL A   1      39.386  25.520  27.837  1.00  0.00     0.010 A 
ATOM     81  C   UNL A   1      41.382  24.426  26.219  1.00  0.00     0.020 A 
ATOM     82  C   UNL A   1      39.373  24.149  27.533  1.00  0.00     0.020 A 
ATOM     83  C   UNL A   1      40.386  23.602  26.747  1.00  0.00     0.054 A 
BRANCH  83  84
ATOM     84  S   UNL A   1      40.490  21.800  26.509  1.00  0.00     0.124 S 
ATOM     85  O   UNL A   1      39.230  21.499  25.836  1.00  0.00    -0.237 OA
ATOM     86  O   UNL A   1      41.692  21.653  25.691  1.00  0.00    -0.237 OA
ATOM     87  O   UNL A   1      40.606  21.278  27.870  1.00  0.00    -0.744 OA
ENDBRANCH  83  84
ENDBRANCH  55  78
BRANCH  67  88
ATOM     88  C   UNL A   1      43.415  31.679  28.925  1.00  0.00    -0.014 A 
ATOM     89  C   UNL A   1      43.193  33.071  28.941  1.00  0.00     0.010 A 
ATOM     90  C   UNL A   1      43.955  31.106  27.761  1.00  0.00     0.010 A 
ATOM     91  C   UNL A   1      43.471  33.856  27.808  1.00  0.00     0.020 A 
ATOM     92  C   UNL A   1      44.253  31.881  26.640  1.00  0.00     0.020 A 
ATOM     93  C   UNL A   1      43.997  33.251  26.661  1.00  0.00     0.054 A 
BRANCH  93  94
ATOM     94  S   UNL A   1      44.369  34.261  25.198  1.00  0.00     0.124 S 
ATOM     95  O   UNL A   1      43.193  35.120  25.095  1.00  0.00    -0.237 OA
ATOM     96  O   UNL A   1      45.610  34.935  25.574  1.00  0.00    -0.237 OA
ATOM     97  O   UNL A   1      44.511  33.278  24.124  1.00  0.00    -0.744 OA
ENDBRANCH  93  94
ENDBRANCH  67  88
ENDBRANCH  41  42
ENDBRANCH  33  36
ENDBRANCH  31  32
ENDBRANCH  30  31
ENDBRANCH   1  30
TORSDOF 17
ENDMDL
