MODEL 1
REMARK VINA RESULT:     -10.9      0.000      0.000
REMARK SMILES CC(=O)c1ccc(O)c(C(=O)NCCCNC(=O)c2ccc(-c3c4nc(c(-c5ccc(S(=O)(=O)[O-])cc5)c5ccc([nH]5)c(-c5ccc(S(=O)(=O)[O-])cc5)c5nc(c(-c6ccc(S(=O)(=O)[O-])cc6)c6ccc3[nH]6)C=C5)C=C4)cc2)c1
REMARK SMILES IDX 15 1 14 2 13 3 12 4 10 5 11 6 9 8 4 9 5 10 79 11 6 12 7 13
REMARK SMILES IDX 2 14 1 15 3 16 8 17 16 19 17 20 18 22 19 23 20 24 78 25
REMARK SMILES IDX 21 26 77 27 22 28 23 29 24 30 71 31 25 32 76 33 70 34 72 35
REMARK SMILES IDX 26 36 75 37 69 38 68 39 27 41 57 42 38 43 56 44 39 45 42 46
REMARK SMILES IDX 55 47 73 48 40 49 41 50 54 52 74 53 43 54 28 55 29 56 37 57
REMARK SMILES IDX 30 58 36 59 31 60 32 61 33 62 34 63 35 64 58 65 59 66 67 67
REMARK SMILES IDX 60 68 66 69 61 70 62 71 63 72 64 73 65 74 44 75 45 76 53 77
REMARK SMILES IDX 46 78 52 79 47 80 48 81 49 82 50 83 51 84
REMARK H PARENT 12 7 8 18 16 21 72 40 42 51
REMARK Flexibility Score: inf
ROOT
ATOM      1  C   UNL A   1      33.956  32.331  28.515  1.00  0.00     0.118 C 
ENDROOT
BRANCH   1   2
ATOM      2  C   UNL A   1      35.048  33.150  27.835  1.00  0.00     0.042 C 
BRANCH   2   3
ATOM      3  C   UNL A   1      35.227  34.556  28.413  1.00  0.00     0.118 C 
BRANCH   3   4
ATOM      4  N   UNL A   1      33.990  35.308  28.346  1.00  0.00    -0.352 N 
ATOM      5  C   UNL A   1      33.195  35.886  29.299  1.00  0.00     0.255 C 
ATOM      6  O   UNL A   1      32.174  36.444  28.884  1.00  0.00    -0.269 OA
ATOM      7  H   UNL A   1      33.652  35.426  27.429  1.00  0.00     0.163 HD
BRANCH   5   8
ATOM      8  C   UNL A   1      33.502  35.976  30.760  1.00  0.00     0.082 A 
ATOM      9  C   UNL A   1      34.385  34.708  32.672  1.00  0.00     0.018 A 
ATOM     10  C   UNL A   1      34.232  35.824  33.492  1.00  0.00     0.015 A 
ATOM     11  C   UNL A   1      34.017  34.788  31.322  1.00  0.00     0.029 A 
ATOM     12  C   UNL A   1      33.756  37.017  32.950  1.00  0.00     0.048 A 
ATOM     13  C   UNL A   1      33.420  37.101  31.590  1.00  0.00     0.128 A 
BRANCH   9  14
ATOM     14  C   UNL A   1      34.962  33.432  33.180  1.00  0.00     0.159 C 
ATOM     15  C   UNL A   1      35.221  32.317  32.203  1.00  0.00     0.093 C 
ATOM     16  O   UNL A   1      35.245  33.318  34.369  1.00  0.00    -0.295 OA
ENDBRANCH   9  14
BRANCH  13  17
ATOM     17  O   UNL A   1      33.076  38.330  31.116  1.00  0.00    -0.507 OA
ATOM     18  H   UNL A   1      32.875  39.023  31.713  1.00  0.00     0.293 HD
ENDBRANCH  13  17
ENDBRANCH   5   8
ENDBRANCH   3   4
ENDBRANCH   2   3
ENDBRANCH   1   2
BRANCH   1  19
ATOM     19  N   UNL A   1      33.587  31.161  27.736  1.00  0.00    -0.352 N 
ATOM     20  C   UNL A   1      34.332  30.068  27.368  1.00  0.00     0.251 C 
ATOM     21  H   UNL A   1      32.655  31.152  27.419  1.00  0.00     0.163 HD
ATOM     22  O   UNL A   1      33.879  29.307  26.516  1.00  0.00    -0.269 OA
BRANCH  20  23
ATOM     23  C   UNL A   1      35.661  29.792  27.968  1.00  0.00     0.039 A 
ATOM     24  C   UNL A   1      35.716  29.452  29.325  1.00  0.00     0.014 A 
ATOM     25  C   UNL A   1      36.851  29.939  27.248  1.00  0.00     0.014 A 
ATOM     26  C   UNL A   1      36.949  29.235  29.946  1.00  0.00     0.010 A 
ATOM     27  C   UNL A   1      38.079  29.659  27.852  1.00  0.00     0.010 A 
ATOM     28  C   UNL A   1      38.143  29.322  29.212  1.00  0.00    -0.014 A 
BRANCH  28  29
ATOM     29  C   UNL A   1      39.453  29.077  29.870  1.00  0.00     0.031 A 
ATOM     30  C   UNL A   1      39.873  29.889  31.068  1.00  0.00     0.074 A 
ATOM     31  C   UNL A   1      40.276  28.131  29.379  1.00  0.00     0.049 A 
ATOM     32  N   UNL A   1      40.964  29.794  31.788  1.00  0.00    -0.248 NA
ATOM     33  C   UNL A   1      38.961  30.959  31.503  1.00  0.00     0.031 C 
ATOM     34  C   UNL A   1      40.010  27.308  28.197  1.00  0.00     0.029 A 
ATOM     35  N   UNL A   1      41.503  27.696  29.816  1.00  0.00    -0.354 N 
ATOM     36  C   UNL A   1      40.875  30.795  32.748  1.00  0.00     0.074 A 
ATOM     37  C   UNL A   1      39.646  31.515  32.492  1.00  0.00     0.031 C 
ATOM     38  C   UNL A   1      41.025  26.448  28.022  1.00  0.00     0.029 A 
ATOM     39  C   UNL A   1      42.024  26.671  29.064  1.00  0.00     0.049 A 
ATOM     40  H   UNL A   1      41.965  28.081  30.595  1.00  0.00     0.167 HD
ATOM     41  C   UNL A   1      41.728  31.080  33.762  1.00  0.00     0.031 A 
ATOM     42  C   UNL A   1      43.172  25.979  29.200  1.00  0.00     0.031 A 
ATOM     43  C   UNL A   1      42.945  30.358  34.025  1.00  0.00     0.049 A 
ATOM     44  C   UNL A   1      44.084  26.289  30.353  1.00  0.00     0.074 A 
ATOM     45  C   UNL A   1      43.851  30.538  35.056  1.00  0.00     0.029 A 
ATOM     46  N   UNL A   1      43.426  29.311  33.251  1.00  0.00    -0.354 N 
ATOM     47  N   UNL A   1      43.951  27.201  31.286  1.00  0.00    -0.248 NA
ATOM     48  C   UNL A   1      45.290  25.461  30.483  1.00  0.00     0.031 C 
ATOM     49  C   UNL A   1      44.898  29.624  34.886  1.00  0.00     0.029 A 
ATOM     50  C   UNL A   1      44.620  28.844  33.775  1.00  0.00     0.049 A 
ATOM     51  H   UNL A   1      42.984  28.955  32.448  1.00  0.00     0.167 HD
ATOM     52  C   UNL A   1      45.048  27.042  32.126  1.00  0.00     0.074 A 
ATOM     53  C   UNL A   1      45.821  25.934  31.601  1.00  0.00     0.031 C 
ATOM     54  C   UNL A   1      45.383  27.749  33.234  1.00  0.00     0.031 A 
BRANCH  41  55
ATOM     55  C   UNL A   1      41.370  32.233  34.664  1.00  0.00    -0.014 A 
ATOM     56  C   UNL A   1      40.634  32.027  35.844  1.00  0.00     0.010 A 
ATOM     57  C   UNL A   1      41.796  33.534  34.343  1.00  0.00     0.010 A 
ATOM     58  C   UNL A   1      40.291  33.106  36.664  1.00  0.00     0.020 A 
ATOM     59  C   UNL A   1      41.477  34.614  35.173  1.00  0.00     0.020 A 
ATOM     60  C   UNL A   1      40.708  34.395  36.319  1.00  0.00     0.054 A 
BRANCH  60  61
ATOM     61  S   UNL A   1      40.260  35.777  37.405  1.00  0.00     0.124 S 
ATOM     62  O   UNL A   1      41.527  36.056  38.075  1.00  0.00    -0.237 OA
ATOM     63  O   UNL A   1      39.813  36.798  36.460  1.00  0.00    -0.237 OA
ATOM     64  O   UNL A   1      39.212  35.222  38.258  1.00  0.00    -0.744 OA
ENDBRANCH  60  61
ENDBRANCH  41  55
BRANCH  42  65
ATOM     65  C   UNL A   1      43.499  24.894  28.237  1.00  0.00    -0.014 A 
ATOM     66  C   UNL A   1      44.326  25.151  27.129  1.00  0.00     0.010 A 
ATOM     67  C   UNL A   1      43.002  23.593  28.435  1.00  0.00     0.010 A 
ATOM     68  C   UNL A   1      44.641  24.129  26.228  1.00  0.00     0.020 A 
ATOM     69  C   UNL A   1      43.335  22.564  27.549  1.00  0.00     0.020 A 
ATOM     70  C   UNL A   1      44.144  22.841  26.445  1.00  0.00     0.054 A 
BRANCH  70  71
ATOM     71  S   UNL A   1      44.618  21.513  25.303  1.00  0.00     0.124 S 
ATOM     72  O   UNL A   1      44.288  22.095  24.007  1.00  0.00    -0.237 OA
ATOM     73  O   UNL A   1      46.043  21.348  25.580  1.00  0.00    -0.237 OA
ATOM     74  O   UNL A   1      43.779  20.391  25.721  1.00  0.00    -0.744 OA
ENDBRANCH  70  71
ENDBRANCH  42  65
BRANCH  54  75
ATOM     75  C   UNL A   1      46.630  27.323  33.961  1.00  0.00    -0.014 A 
ATOM     76  C   UNL A   1      47.880  27.893  33.658  1.00  0.00     0.010 A 
ATOM     77  C   UNL A   1      46.548  26.344  34.967  1.00  0.00     0.010 A 
ATOM     78  C   UNL A   1      49.033  27.453  34.312  1.00  0.00     0.020 A 
ATOM     79  C   UNL A   1      47.695  25.919  35.640  1.00  0.00     0.020 A 
ATOM     80  C   UNL A   1      48.935  26.460  35.292  1.00  0.00     0.054 A 
BRANCH  80  81
ATOM     81  S   UNL A   1      50.443  25.903  36.132  1.00  0.00     0.124 S 
ATOM     82  O   UNL A   1      51.458  26.120  35.104  1.00  0.00    -0.237 OA
ATOM     83  O   UNL A   1      50.519  26.792  37.288  1.00  0.00    -0.237 OA
ATOM     84  O   UNL A   1      50.164  24.504  36.447  1.00  0.00    -0.744 OA
ENDBRANCH  80  81
ENDBRANCH  54  75
ENDBRANCH  28  29
ENDBRANCH  20  23
ENDBRANCH   1  19
TORSDOF 15
ENDMDL
MODEL 2
REMARK VINA RESULT:     -10.9      3.552     11.623
REMARK SMILES CC(=O)c1ccc(O)c(C(=O)NCCCNC(=O)c2ccc(-c3c4nc(c(-c5ccc(S(=O)(=O)[O-])cc5)c5ccc([nH]5)c(-c5ccc(S(=O)(=O)[O-])cc5)c5nc(c(-c6ccc(S(=O)(=O)[O-])cc6)c6ccc3[nH]6)C=C5)C=C4)cc2)c1
REMARK SMILES IDX 15 1 14 2 13 3 12 4 10 5 11 6 9 8 4 9 5 10 79 11 6 12 7 13
REMARK SMILES IDX 2 14 1 15 3 16 8 17 16 19 17 20 18 22 19 23 20 24 78 25
REMARK SMILES IDX 21 26 77 27 22 28 23 29 24 30 71 31 25 32 76 33 70 34 72 35
REMARK SMILES IDX 26 36 75 37 69 38 68 39 27 41 57 42 38 43 56 44 39 45 42 46
REMARK SMILES IDX 55 47 73 48 40 49 41 50 54 52 74 53 43 54 28 55 29 56 37 57
REMARK SMILES IDX 30 58 36 59 31 60 32 61 33 62 34 63 35 64 58 65 59 66 67 67
REMARK SMILES IDX 60 68 66 69 61 70 62 71 63 72 64 73 65 74 44 75 45 76 53 77
REMARK SMILES IDX 46 78 52 79 47 80 48 81 49 82 50 83 51 84
REMARK H PARENT 12 7 8 18 16 21 72 40 42 51
REMARK Flexibility Score: inf
ROOT
ATOM      1  C   UNL A   1      40.468  21.414  27.195  1.00  0.00     0.118 C 
ENDROOT
BRANCH   1   2
ATOM      2  C   UNL A   1      41.837  21.325  26.529  1.00  0.00     0.042 C 
BRANCH   2   3
ATOM      3  C   UNL A   1      42.448  22.682  26.170  1.00  0.00     0.118 C 
BRANCH   3   4
ATOM      4  N   UNL A   1      43.370  22.560  25.059  1.00  0.00    -0.352 N 
ATOM      5  C   UNL A   1      44.374  23.362  24.585  1.00  0.00     0.255 C 
ATOM      6  O   UNL A   1      44.960  22.955  23.577  1.00  0.00    -0.269 OA
ATOM      7  H   UNL A   1      43.250  21.734  24.538  1.00  0.00     0.163 HD
BRANCH   5   8
ATOM      8  C   UNL A   1      44.870  24.618  25.228  1.00  0.00     0.082 A 
ATOM      9  C   UNL A   1      44.300  26.969  25.664  1.00  0.00     0.018 A 
ATOM     10  C   UNL A   1      45.489  27.135  26.371  1.00  0.00     0.015 A 
ATOM     11  C   UNL A   1      44.002  25.724  25.096  1.00  0.00     0.029 A 
ATOM     12  C   UNL A   1      46.345  26.047  26.541  1.00  0.00     0.048 A 
ATOM     13  C   UNL A   1      46.026  24.793  25.998  1.00  0.00     0.128 A 
BRANCH   9  14
ATOM     14  C   UNL A   1      43.311  28.074  25.519  1.00  0.00     0.159 C 
ATOM     15  C   UNL A   1      43.387  29.241  26.467  1.00  0.00     0.093 C 
ATOM     16  O   UNL A   1      42.476  28.035  24.620  1.00  0.00    -0.295 OA
ENDBRANCH   9  14
BRANCH  13  17
ATOM     17  O   UNL A   1      46.856  23.759  26.309  1.00  0.00    -0.507 OA
ATOM     18  H   UNL A   1      47.144  23.639  27.191  1.00  0.00     0.293 HD
ENDBRANCH  13  17
ENDBRANCH   5   8
ENDBRANCH   3   4
ENDBRANCH   2   3
ENDBRANCH   1   2
BRANCH   1  19
ATOM     19  N   UNL A   1      39.427  21.788  26.253  1.00  0.00    -0.352 N 
ATOM     20  C   UNL A   1      38.733  22.965  26.116  1.00  0.00     0.251 C 
ATOM     21  H   UNL A   1      39.178  21.084  25.610  1.00  0.00     0.163 HD
ATOM     22  O   UNL A   1      37.737  22.980  25.396  1.00  0.00    -0.269 OA
BRANCH  20  23
ATOM     23  C   UNL A   1      39.152  24.203  26.818  1.00  0.00     0.039 A 
ATOM     24  C   UNL A   1      39.928  25.131  26.115  1.00  0.00     0.014 A 
ATOM     25  C   UNL A   1      38.867  24.429  28.169  1.00  0.00     0.014 A 
ATOM     26  C   UNL A   1      40.390  26.287  26.751  1.00  0.00     0.010 A 
ATOM     27  C   UNL A   1      39.274  25.614  28.786  1.00  0.00     0.010 A 
ATOM     28  C   UNL A   1      40.055  26.548  28.089  1.00  0.00    -0.014 A 
BRANCH  28  29
ATOM     29  C   UNL A   1      40.536  27.784  28.760  1.00  0.00     0.031 A 
ATOM     30  C   UNL A   1      41.952  27.882  29.264  1.00  0.00     0.074 A 
ATOM     31  C   UNL A   1      39.689  28.818  28.931  1.00  0.00     0.049 A 
ATOM     32  N   UNL A   1      42.552  28.892  29.845  1.00  0.00    -0.248 NA
ATOM     33  C   UNL A   1      42.798  26.688  29.116  1.00  0.00     0.031 C 
ATOM     34  C   UNL A   1      38.280  28.833  28.533  1.00  0.00     0.029 A 
ATOM     35  N   UNL A   1      39.891  30.060  29.480  1.00  0.00    -0.354 N 
ATOM     36  C   UNL A   1      43.837  28.451  30.141  1.00  0.00     0.074 A 
ATOM     37  C   UNL A   1      43.916  27.069  29.718  1.00  0.00     0.031 C 
ATOM     38  C   UNL A   1      37.755  30.035  28.819  1.00  0.00     0.029 A 
ATOM     39  C   UNL A   1      38.780  30.867  29.442  1.00  0.00     0.049 A 
ATOM     40  H   UNL A   1      40.752  30.346  29.864  1.00  0.00     0.167 HD
ATOM     41  C   UNL A   1      44.865  29.136  30.699  1.00  0.00     0.031 A 
ATOM     42  C   UNL A   1      38.605  32.138  29.852  1.00  0.00     0.031 A 
ATOM     43  C   UNL A   1      44.792  30.514  31.110  1.00  0.00     0.049 A 
ATOM     44  C   UNL A   1      39.769  32.889  30.434  1.00  0.00     0.074 A 
ATOM     45  C   UNL A   1      45.792  31.311  31.640  1.00  0.00     0.029 A 
ATOM     46  N   UNL A   1      43.653  31.302  31.035  1.00  0.00    -0.354 N 
ATOM     47  N   UNL A   1      40.993  32.472  30.650  1.00  0.00    -0.248 NA
ATOM     48  C   UNL A   1      39.531  34.290  30.807  1.00  0.00     0.031 C 
ATOM     49  C   UNL A   1      45.249  32.572  31.917  1.00  0.00     0.029 A 
ATOM     50  C   UNL A   1      43.922  32.572  31.518  1.00  0.00     0.049 A 
ATOM     51  H   UNL A   1      42.782  31.002  30.689  1.00  0.00     0.167 HD
ATOM     52  C   UNL A   1      41.678  33.566  31.166  1.00  0.00     0.074 A 
ATOM     53  C   UNL A   1      40.736  34.667  31.210  1.00  0.00     0.031 C 
ATOM     54  C   UNL A   1      42.971  33.653  31.565  1.00  0.00     0.031 A 
BRANCH  41  55
ATOM     55  C   UNL A   1      46.162  28.396  30.899  1.00  0.00    -0.014 A 
ATOM     56  C   UNL A   1      47.166  28.416  29.914  1.00  0.00     0.010 A 
ATOM     57  C   UNL A   1      46.393  27.695  32.096  1.00  0.00     0.010 A 
ATOM     58  C   UNL A   1      48.359  27.710  30.102  1.00  0.00     0.020 A 
ATOM     59  C   UNL A   1      47.595  27.008  32.299  1.00  0.00     0.020 A 
ATOM     60  C   UNL A   1      48.562  27.004  31.291  1.00  0.00     0.054 A 
BRANCH  60  61
ATOM     61  S   UNL A   1      50.122  26.106  31.517  1.00  0.00     0.124 S 
ATOM     62  O   UNL A   1      49.854  24.857  30.809  1.00  0.00    -0.237 OA
ATOM     63  O   UNL A   1      51.098  26.989  30.883  1.00  0.00    -0.237 OA
ATOM     64  O   UNL A   1      50.246  25.987  32.967  1.00  0.00    -0.744 OA
ENDBRANCH  60  61
ENDBRANCH  41  55
BRANCH  42  65
ATOM     65  C   UNL A   1      37.279  32.792  29.685  1.00  0.00    -0.014 A 
ATOM     66  C   UNL A   1      36.370  32.840  30.757  1.00  0.00     0.010 A 
ATOM     67  C   UNL A   1      36.929  33.389  28.461  1.00  0.00     0.010 A 
ATOM     68  C   UNL A   1      35.127  33.463  30.603  1.00  0.00     0.020 A 
ATOM     69  C   UNL A   1      35.698  34.033  28.312  1.00  0.00     0.020 A 
ATOM     70  C   UNL A   1      34.800  34.057  29.381  1.00  0.00     0.054 A 
BRANCH  70  71
ATOM     71  S   UNL A   1      33.211  34.918  29.221  1.00  0.00     0.124 S 
ATOM     72  O   UNL A   1      32.510  34.084  28.250  1.00  0.00    -0.237 OA
ATOM     73  O   UNL A   1      32.689  34.880  30.585  1.00  0.00    -0.237 OA
ATOM     74  O   UNL A   1      33.592  36.248  28.748  1.00  0.00    -0.744 OA
ENDBRANCH  70  71
ENDBRANCH  42  65
BRANCH  54  75
ATOM     75  C   UNL A   1      43.442  34.993  32.062  1.00  0.00    -0.014 A 
ATOM     76  C   UNL A   1      43.321  35.352  33.416  1.00  0.00     0.010 A 
ATOM     77  C   UNL A   1      44.022  35.903  31.160  1.00  0.00     0.010 A 
ATOM     78  C   UNL A   1      43.722  36.617  33.850  1.00  0.00     0.020 A 
ATOM     79  C   UNL A   1      44.447  37.161  31.595  1.00  0.00     0.020 A 
ATOM     80  C   UNL A   1      44.273  37.519  32.933  1.00  0.00     0.054 A 
BRANCH  80  81
ATOM     81  S   UNL A   1      44.790  39.157  33.515  1.00  0.00     0.124 S 
ATOM     82  O   UNL A   1      45.917  39.449  32.632  1.00  0.00    -0.237 OA
ATOM     83  O   UNL A   1      43.597  39.970  33.299  1.00  0.00    -0.237 OA
ATOM     84  O   UNL A   1      45.136  38.931  34.916  1.00  0.00    -0.744 OA
ENDBRANCH  80  81
ENDBRANCH  54  75
ENDBRANCH  28  29
ENDBRANCH  20  23
ENDBRANCH   1  19
TORSDOF 15
ENDMDL
MODEL 3
REMARK VINA RESULT:     -10.8      2.044      2.690
REMARK SMILES CC(=O)c1ccc(O)c(C(=O)NCCCNC(=O)c2ccc(-c3c4nc(c(-c5ccc(S(=O)(=O)[O-])cc5)c5ccc([nH]5)c(-c5ccc(S(=O)(=O)[O-])cc5)c5nc(c(-c6ccc(S(=O)(=O)[O-])cc6)c6ccc3[nH]6)C=C5)C=C4)cc2)c1
REMARK SMILES IDX 15 1 14 2 13 3 12 4 10 5 11 6 9 8 4 9 5 10 79 11 6 12 7 13
REMARK SMILES IDX 2 14 1 15 3 16 8 17 16 19 17 20 18 22 19 23 20 24 78 25
REMARK SMILES IDX 21 26 77 27 22 28 23 29 24 30 71 31 25 32 76 33 70 34 72 35
REMARK SMILES IDX 26 36 75 37 69 38 68 39 27 41 57 42 38 43 56 44 39 45 42 46
REMARK SMILES IDX 55 47 73 48 40 49 41 50 54 52 74 53 43 54 28 55 29 56 37 57
REMARK SMILES IDX 30 58 36 59 31 60 32 61 33 62 34 63 35 64 58 65 59 66 67 67
REMARK SMILES IDX 60 68 66 69 61 70 62 71 63 72 64 73 65 74 44 75 45 76 53 77
REMARK SMILES IDX 46 78 52 79 47 80 48 81 49 82 50 83 51 84
REMARK H PARENT 12 7 8 18 16 21 72 40 42 51
REMARK Flexibility Score: inf
ROOT
ATOM      1  C   UNL A   1      34.307  32.461  28.926  1.00  0.00     0.118 C 
ENDROOT
BRANCH   1   2
ATOM      2  C   UNL A   1      35.386  33.244  28.185  1.00  0.00     0.042 C 
BRANCH   2   3
ATOM      3  C   UNL A   1      35.451  34.727  28.558  1.00  0.00     0.118 C 
BRANCH   3   4
ATOM      4  N   UNL A   1      34.141  35.342  28.475  1.00  0.00    -0.352 N 
ATOM      5  C   UNL A   1      33.281  35.840  29.416  1.00  0.00     0.255 C 
ATOM      6  O   UNL A   1      32.210  36.282  28.989  1.00  0.00    -0.269 OA
ATOM      7  H   UNL A   1      33.800  35.416  27.554  1.00  0.00     0.163 HD
BRANCH   5   8
ATOM      8  C   UNL A   1      33.565  35.975  30.879  1.00  0.00     0.082 A 
ATOM      9  C   UNL A   1      34.443  34.775  32.837  1.00  0.00     0.018 A 
ATOM     10  C   UNL A   1      34.256  35.909  33.625  1.00  0.00     0.015 A 
ATOM     11  C   UNL A   1      34.093  34.812  31.480  1.00  0.00     0.029 A 
ATOM     12  C   UNL A   1      33.766  37.078  33.044  1.00  0.00     0.048 A 
ATOM     13  C   UNL A   1      33.449  37.119  31.677  1.00  0.00     0.128 A 
BRANCH   9  14
ATOM     14  C   UNL A   1      35.037  33.524  33.386  1.00  0.00     0.159 C 
ATOM     15  C   UNL A   1      35.093  32.304  32.508  1.00  0.00     0.093 C 
ATOM     16  O   UNL A   1      35.496  33.514  34.525  1.00  0.00    -0.295 OA
ENDBRANCH   9  14
BRANCH  13  17
ATOM     17  O   UNL A   1      33.088  38.328  31.166  1.00  0.00    -0.507 OA
ATOM     18  H   UNL A   1      33.602  38.724  30.490  1.00  0.00     0.293 HD
ENDBRANCH  13  17
ENDBRANCH   5   8
ENDBRANCH   3   4
ENDBRANCH   2   3
ENDBRANCH   1   2
BRANCH   1  19
ATOM     19  N   UNL A   1      33.806  31.347  28.140  1.00  0.00    -0.352 N 
ATOM     20  C   UNL A   1      34.460  30.248  27.639  1.00  0.00     0.251 C 
ATOM     21  H   UNL A   1      32.844  31.386  27.932  1.00  0.00     0.163 HD
ATOM     22  O   UNL A   1      33.884  29.549  26.809  1.00  0.00    -0.269 OA
BRANCH  20  23
ATOM     23  C   UNL A   1      35.836  29.897  28.069  1.00  0.00     0.039 A 
ATOM     24  C   UNL A   1      36.874  30.031  27.139  1.00  0.00     0.014 A 
ATOM     25  C   UNL A   1      36.111  29.365  29.334  1.00  0.00     0.014 A 
ATOM     26  C   UNL A   1      38.178  29.663  27.482  1.00  0.00     0.010 A 
ATOM     27  C   UNL A   1      37.424  29.058  29.698  1.00  0.00     0.010 A 
ATOM     28  C   UNL A   1      38.469  29.186  28.771  1.00  0.00    -0.014 A 
BRANCH  28  29
ATOM     29  C   UNL A   1      39.858  28.808  29.139  1.00  0.00     0.031 A 
ATOM     30  C   UNL A   1      40.738  29.765  29.900  1.00  0.00     0.074 A 
ATOM     31  C   UNL A   1      40.337  27.603  28.773  1.00  0.00     0.049 A 
ATOM     32  N   UNL A   1      41.963  29.594  30.332  1.00  0.00    -0.248 NA
ATOM     33  C   UNL A   1      40.179  31.093  30.198  1.00  0.00     0.031 C 
ATOM     34  C   UNL A   1      39.605  26.603  27.992  1.00  0.00     0.029 A 
ATOM     35  N   UNL A   1      41.552  27.011  29.014  1.00  0.00    -0.354 N 
ATOM     36  C   UNL A   1      42.324  30.792  30.939  1.00  0.00     0.074 A 
ATOM     37  C   UNL A   1      41.206  31.697  30.780  1.00  0.00     0.031 C 
ATOM     38  C   UNL A   1      40.372  25.511  27.848  1.00  0.00     0.029 A 
ATOM     39  C   UNL A   1      41.657  25.739  28.503  1.00  0.00     0.049 A 
ATOM     40  H   UNL A   1      42.280  27.455  29.507  1.00  0.00     0.167 HD
ATOM     41  C   UNL A   1      43.473  31.107  31.585  1.00  0.00     0.031 A 
ATOM     42  C   UNL A   1      42.667  24.851  28.563  1.00  0.00     0.031 A 
ATOM     43  C   UNL A   1      44.581  30.204  31.754  1.00  0.00     0.049 A 
ATOM     44  C   UNL A   1      43.917  25.209  29.316  1.00  0.00     0.074 A 
ATOM     45  C   UNL A   1      45.768  30.412  32.435  1.00  0.00     0.029 A 
ATOM     46  N   UNL A   1      44.638  28.917  31.240  1.00  0.00    -0.354 N 
ATOM     47  N   UNL A   1      44.214  26.326  29.934  1.00  0.00    -0.248 NA
ATOM     48  C   UNL A   1      44.959  24.177  29.396  1.00  0.00     0.031 C 
ATOM     49  C   UNL A   1      46.558  29.263  32.303  1.00  0.00     0.029 A 
ATOM     50  C   UNL A   1      45.843  28.323  31.578  1.00  0.00     0.049 A 
ATOM     51  H   UNL A   1      43.927  28.489  30.711  1.00  0.00     0.167 HD
ATOM     52  C   UNL A   1      45.470  26.124  30.495  1.00  0.00     0.074 A 
ATOM     53  C   UNL A   1      45.865  24.771  30.159  1.00  0.00     0.031 C 
ATOM     54  C   UNL A   1      46.226  26.980  31.226  1.00  0.00     0.031 A 
BRANCH  41  55
ATOM     55  C   UNL A   1      43.587  32.496  32.157  1.00  0.00    -0.014 A 
ATOM     56  C   UNL A   1      43.225  32.762  33.489  1.00  0.00     0.010 A 
ATOM     57  C   UNL A   1      44.086  33.543  31.361  1.00  0.00     0.010 A 
ATOM     58  C   UNL A   1      43.317  34.059  34.004  1.00  0.00     0.020 A 
ATOM     59  C   UNL A   1      44.203  34.838  31.880  1.00  0.00     0.020 A 
ATOM     60  C   UNL A   1      43.799  35.091  33.193  1.00  0.00     0.054 A 
BRANCH  60  61
ATOM     61  S   UNL A   1      43.919  36.763  33.887  1.00  0.00     0.124 S 
ATOM     62  O   UNL A   1      44.691  37.458  32.861  1.00  0.00    -0.237 OA
ATOM     63  O   UNL A   1      42.520  37.166  34.001  1.00  0.00    -0.237 OA
ATOM     64  O   UNL A   1      44.611  36.561  35.158  1.00  0.00    -0.744 OA
ENDBRANCH  60  61
ENDBRANCH  41  55
BRANCH  42  65
ATOM     65  C   UNL A   1      42.516  23.517  27.921  1.00  0.00    -0.014 A 
ATOM     66  C   UNL A   1      43.031  23.285  26.633  1.00  0.00     0.010 A 
ATOM     67  C   UNL A   1      41.878  22.467  28.605  1.00  0.00     0.010 A 
ATOM     68  C   UNL A   1      42.897  22.029  26.034  1.00  0.00     0.020 A 
ATOM     69  C   UNL A   1      41.764  21.203  28.018  1.00  0.00     0.020 A 
ATOM     70  C   UNL A   1      42.266  20.995  26.731  1.00  0.00     0.054 A 
BRANCH  70  71
ATOM     71  S   UNL A   1      42.161  19.354  25.964  1.00  0.00     0.124 S 
ATOM     72  O   UNL A   1      42.681  18.492  27.021  1.00  0.00    -0.237 OA
ATOM     73  O   UNL A   1      40.734  19.224  25.684  1.00  0.00    -0.237 OA
ATOM     74  O   UNL A   1      43.010  19.478  24.780  1.00  0.00    -0.744 OA
ENDBRANCH  70  71
ENDBRANCH  42  65
BRANCH  54  75
ATOM     75  C   UNL A   1      47.548  26.464  31.726  1.00  0.00    -0.014 A 
ATOM     76  C   UNL A   1      47.661  25.857  32.990  1.00  0.00     0.010 A 
ATOM     77  C   UNL A   1      48.692  26.582  30.916  1.00  0.00     0.010 A 
ATOM     78  C   UNL A   1      48.905  25.424  33.456  1.00  0.00     0.020 A 
ATOM     79  C   UNL A   1      49.933  26.128  31.369  1.00  0.00     0.020 A 
ATOM     80  C   UNL A   1      50.036  25.572  32.646  1.00  0.00     0.054 A 
BRANCH  80  81
ATOM     81  S   UNL A   1      51.642  25.003  33.267  1.00  0.00     0.124 S 
ATOM     82  O   UNL A   1      51.323  24.649  34.648  1.00  0.00    -0.237 OA
ATOM     83  O   UNL A   1      51.952  23.880  32.387  1.00  0.00    -0.237 OA
ATOM     84  O   UNL A   1      52.506  26.170  33.106  1.00  0.00    -0.744 OA
ENDBRANCH  80  81
ENDBRANCH  54  75
ENDBRANCH  28  29
ENDBRANCH  20  23
ENDBRANCH   1  19
TORSDOF 15
ENDMDL
