MODEL 1
REMARK VINA RESULT:     -11.4      0.000      0.000
REMARK SMILES CC[C@]1(C(=O)NCCCNC(=O)c2ccc(-c3c4nc(c(-c5ccc(S(=O)(=O)[O-])cc5)c5ccc([nH]5)c(-c5ccc(S(=O)(=O)[O-])cc5)c5nc(c(-c6ccc(S(=O)(=O)[O-])cc6)c6ccc3[nH]6)C=C5)C=C4)cc2)CC[N@@H+](Cc2nc(C)ccc2O)C1
REMARK SMILES IDX 8 1 7 2 6 3 4 4 5 5 3 7 73 8 85 9 74 10 75 11 2 13 1 14
REMARK SMILES IDX 76 15 77 16 78 17 83 18 79 19 82 20 80 21 81 22 84 23 9 25
REMARK SMILES IDX 10 26 11 27 12 29 13 30 14 31 72 32 15 33 71 34 16 35 17 36
REMARK SMILES IDX 18 37 65 38 19 39 70 40 64 41 66 42 20 43 69 44 63 45 62 46
REMARK SMILES IDX 21 48 51 49 32 50 50 51 33 52 36 53 49 54 67 55 34 56 35 57
REMARK SMILES IDX 48 59 68 60 37 61 22 62 23 63 31 64 24 65 30 66 25 67 26 68
REMARK SMILES IDX 27 69 28 70 29 71 52 72 53 73 61 74 54 75 60 76 55 77 56 78
REMARK SMILES IDX 57 79 58 80 59 81 38 82 39 83 47 84 40 85 46 86 41 87 42 88
REMARK SMILES IDX 43 89 44 90 45 91
REMARK H PARENT 6 6 75 12 84 24 10 28 66 47 36 58
REMARK Flexibility Score: inf
ROOT
ATOM      1  C   UNL A   1      34.062  31.641  27.788  1.00  0.00     0.042 C 
ENDROOT
BRANCH   1   2
ATOM      2  C   UNL A   1      33.955  30.165  27.275  1.00  0.00     0.117 C 
BRANCH   2   3
ATOM      3  N   UNL A   1      32.798  29.344  27.678  1.00  0.00    -0.355 N 
ATOM      4  C   UNL A   1      32.205  28.163  27.331  1.00  0.00     0.232 C 
ATOM      5  O   UNL A   1      31.390  27.813  28.204  1.00  0.00    -0.274 OA
ATOM      6  H   UNL A   1      32.307  29.775  28.414  1.00  0.00     0.163 HD
BRANCH   4   7
ATOM      7  C   UNL A   1      32.307  27.286  26.026  1.00  0.00     0.103 C 
ATOM      8  C   UNL A   1      33.800  27.005  25.693  1.00  0.00     0.084 C 
ATOM      9  C   UNL A   1      31.719  25.845  26.030  1.00  0.00     0.279 C 
ATOM     10  C   UNL A   1      33.810  25.683  24.938  1.00  0.00     0.263 C 
ATOM     11  N   UNL A   1      32.743  24.893  25.535  1.00  0.00    -0.329 N 
ATOM     12  H   UNL A   1      32.298  24.298  24.837  1.00  0.00     0.348 HD
BRANCH   7  13
ATOM     13  C   UNL A   1      31.683  28.125  24.846  1.00  0.00     0.020 C 
ATOM     14  C   UNL A   1      30.570  27.460  24.019  1.00  0.00     0.005 C 
ENDBRANCH   7  13
BRANCH  11  15
ATOM     15  C   UNL A   1      33.209  23.824  26.478  1.00  0.00     0.323 C 
BRANCH  15  16
ATOM     16  C   UNL A   1      33.805  22.503  25.960  1.00  0.00     0.136 A 
ATOM     17  N   UNL A   1      32.994  21.517  25.503  1.00  0.00    -0.248 NA
ATOM     18  C   UNL A   1      35.166  22.276  26.012  1.00  0.00     0.142 A 
ATOM     19  C   UNL A   1      33.585  20.366  25.050  1.00  0.00     0.038 A 
ATOM     20  C   UNL A   1      35.771  21.190  25.408  1.00  0.00     0.050 A 
ATOM     21  C   UNL A   1      32.714  19.171  24.798  1.00  0.00     0.067 C 
ATOM     22  C   UNL A   1      34.960  20.208  24.906  1.00  0.00     0.027 A 
BRANCH  18  23
ATOM     23  O   UNL A   1      35.934  23.127  26.697  1.00  0.00    -0.506 OA
ATOM     24  H   UNL A   1      36.855  23.168  26.529  1.00  0.00     0.293 HD
ENDBRANCH  18  23
ENDBRANCH  15  16
ENDBRANCH  11  15
ENDBRANCH   4   7
ENDBRANCH   2   3
ENDBRANCH   1   2
BRANCH   1  25
ATOM     25  C   UNL A   1      35.324  32.103  28.564  1.00  0.00     0.118 C 
BRANCH  25  26
ATOM     26  N   UNL A   1      35.494  31.300  29.774  1.00  0.00    -0.352 N 
ATOM     27  C   UNL A   1      36.429  30.383  30.186  1.00  0.00     0.251 C 
ATOM     28  H   UNL A   1      34.783  31.448  30.437  1.00  0.00     0.163 HD
ATOM     29  O   UNL A   1      36.051  29.556  31.020  1.00  0.00    -0.269 OA
BRANCH  27  30
ATOM     30  C   UNL A   1      37.866  30.359  29.779  1.00  0.00     0.039 A 
ATOM     31  C   UNL A   1      38.153  30.031  28.441  1.00  0.00     0.014 A 
ATOM     32  C   UNL A   1      38.924  30.394  30.692  1.00  0.00     0.014 A 
ATOM     33  C   UNL A   1      39.456  29.706  28.029  1.00  0.00     0.010 A 
ATOM     34  C   UNL A   1      40.239  30.091  30.269  1.00  0.00     0.010 A 
ATOM     35  C   UNL A   1      40.517  29.711  28.943  1.00  0.00    -0.014 A 
BRANCH  35  36
ATOM     36  C   UNL A   1      41.883  29.257  28.520  1.00  0.00     0.031 A 
ATOM     37  C   UNL A   1      43.045  30.226  28.486  1.00  0.00     0.074 A 
ATOM     38  C   UNL A   1      42.107  27.970  28.184  1.00  0.00     0.049 A 
ATOM     39  N   UNL A   1      44.296  30.012  28.148  1.00  0.00    -0.248 NA
ATOM     40  C   UNL A   1      42.762  31.615  28.873  1.00  0.00     0.031 C 
ATOM     41  C   UNL A   1      41.098  26.911  28.181  1.00  0.00     0.029 A 
ATOM     42  N   UNL A   1      43.259  27.332  27.782  1.00  0.00    -0.354 N 
ATOM     43  C   UNL A   1      44.942  31.240  28.265  1.00  0.00     0.074 A 
ATOM     44  C   UNL A   1      43.936  32.199  28.673  1.00  0.00     0.031 C 
ATOM     45  C   UNL A   1      41.677  25.755  27.812  1.00  0.00     0.029 A 
ATOM     46  C   UNL A   1      43.091  25.991  27.525  1.00  0.00     0.049 A 
ATOM     47  H   UNL A   1      44.124  27.793  27.688  1.00  0.00     0.167 HD
ATOM     48  C   UNL A   1      46.249  31.548  28.064  1.00  0.00     0.031 A 
ATOM     49  C   UNL A   1      43.965  25.053  27.106  1.00  0.00     0.031 A 
ATOM     50  C   UNL A   1      47.265  30.605  27.667  1.00  0.00     0.049 A 
ATOM     51  C   UNL A   1      45.407  25.417  26.869  1.00  0.00     0.074 A 
ATOM     52  C   UNL A   1      48.619  30.827  27.474  1.00  0.00     0.029 A 
ATOM     53  N   UNL A   1      47.043  29.263  27.405  1.00  0.00    -0.354 N 
ATOM     54  N   UNL A   1      45.997  26.579  27.014  1.00  0.00    -0.248 NA
ATOM     55  C   UNL A   1      46.302  24.339  26.423  1.00  0.00     0.031 C 
ATOM     56  C   UNL A   1      49.207  29.627  27.053  1.00  0.00     0.029 A 
ATOM     57  C   UNL A   1      48.229  28.648  27.034  1.00  0.00     0.049 A 
ATOM     58  H   UNL A   1      46.170  28.812  27.472  1.00  0.00     0.167 HD
ATOM     59  C   UNL A   1      47.337  26.364  26.705  1.00  0.00     0.074 A 
ATOM     60  C   UNL A   1      47.472  24.961  26.375  1.00  0.00     0.031 C 
ATOM     61  C   UNL A   1      48.362  27.252  26.702  1.00  0.00     0.031 A 
BRANCH  48  62
ATOM     62  C   UNL A   1      46.660  32.989  28.252  1.00  0.00    -0.014 A 
ATOM     63  C   UNL A   1      46.598  33.909  27.188  1.00  0.00     0.010 A 
ATOM     64  C   UNL A   1      47.086  33.437  29.515  1.00  0.00     0.010 A 
ATOM     65  C   UNL A   1      47.010  35.232  27.371  1.00  0.00     0.020 A 
ATOM     66  C   UNL A   1      47.473  34.767  29.710  1.00  0.00     0.020 A 
ATOM     67  C   UNL A   1      47.456  35.650  28.629  1.00  0.00     0.054 A 
BRANCH  67  68
ATOM     68  S   UNL A   1      47.998  37.369  28.845  1.00  0.00     0.124 S 
ATOM     69  O   UNL A   1      49.433  37.198  29.090  1.00  0.00    -0.237 OA
ATOM     70  O   UNL A   1      47.659  37.976  27.554  1.00  0.00    -0.237 OA
ATOM     71  O   UNL A   1      47.224  37.842  29.974  1.00  0.00    -0.744 OA
ENDBRANCH  67  68
ENDBRANCH  48  62
BRANCH  49  72
ATOM     72  C   UNL A   1      43.499  23.653  26.897  1.00  0.00    -0.014 A 
ATOM     73  C   UNL A   1      43.320  22.791  27.991  1.00  0.00     0.010 A 
ATOM     74  C   UNL A   1      43.217  23.184  25.602  1.00  0.00     0.010 A 
ATOM     75  C   UNL A   1      42.870  21.481  27.796  1.00  0.00     0.020 A 
ATOM     76  C   UNL A   1      42.744  21.883  25.404  1.00  0.00     0.020 A 
ATOM     77  C   UNL A   1      42.579  21.037  26.504  1.00  0.00     0.054 A 
BRANCH  77  78
ATOM     78  S   UNL A   1      41.926  19.360  26.279  1.00  0.00     0.124 S 
ATOM     79  O   UNL A   1      42.623  18.920  25.075  1.00  0.00    -0.237 OA
ATOM     80  O   UNL A   1      42.321  18.697  27.519  1.00  0.00    -0.237 OA
ATOM     81  O   UNL A   1      40.487  19.573  26.128  1.00  0.00    -0.744 OA
ENDBRANCH  77  78
ENDBRANCH  49  72
BRANCH  61  82
ATOM     82  C   UNL A   1      49.735  26.732  26.358  1.00  0.00    -0.014 A 
ATOM     83  C   UNL A   1      50.531  26.082  27.318  1.00  0.00     0.010 A 
ATOM     84  C   UNL A   1      50.215  26.857  25.042  1.00  0.00     0.010 A 
ATOM     85  C   UNL A   1      51.797  25.596  26.976  1.00  0.00     0.020 A 
ATOM     86  C   UNL A   1      51.470  26.351  24.690  1.00  0.00     0.020 A 
ATOM     87  C   UNL A   1      52.259  25.736  25.664  1.00  0.00     0.054 A 
BRANCH  87  88
ATOM     88  S   UNL A   1      53.890  25.064  25.232  1.00  0.00     0.124 S 
ATOM     89  O   UNL A   1      53.564  23.689  24.867  1.00  0.00    -0.237 OA
ATOM     90  O   UNL A   1      54.311  25.924  24.129  1.00  0.00    -0.237 OA
ATOM     91  O   UNL A   1      54.663  25.217  26.462  1.00  0.00    -0.744 OA
ENDBRANCH  87  88
ENDBRANCH  61  82
ENDBRANCH  35  36
ENDBRANCH  27  30
ENDBRANCH  25  26
ENDBRANCH   1  25
TORSDOF 17
ENDMDL
MODEL 2
REMARK VINA RESULT:     -11.3      2.644      4.485
REMARK SMILES CC[C@]1(C(=O)NCCCNC(=O)c2ccc(-c3c4nc(c(-c5ccc(S(=O)(=O)[O-])cc5)c5ccc([nH]5)c(-c5ccc(S(=O)(=O)[O-])cc5)c5nc(c(-c6ccc(S(=O)(=O)[O-])cc6)c6ccc3[nH]6)C=C5)C=C4)cc2)CC[N@@H+](Cc2nc(C)ccc2O)C1
REMARK SMILES IDX 8 1 7 2 6 3 4 4 5 5 3 7 73 8 85 9 74 10 75 11 2 13 1 14
REMARK SMILES IDX 76 15 77 16 78 17 83 18 79 19 82 20 80 21 81 22 84 23 9 25
REMARK SMILES IDX 10 26 11 27 12 29 13 30 14 31 72 32 15 33 71 34 16 35 17 36
REMARK SMILES IDX 18 37 65 38 19 39 70 40 64 41 66 42 20 43 69 44 63 45 62 46
REMARK SMILES IDX 21 48 51 49 32 50 50 51 33 52 36 53 49 54 67 55 34 56 35 57
REMARK SMILES IDX 48 59 68 60 37 61 22 62 23 63 31 64 24 65 30 66 25 67 26 68
REMARK SMILES IDX 27 69 28 70 29 71 52 72 53 73 61 74 54 75 60 76 55 77 56 78
REMARK SMILES IDX 57 79 58 80 59 81 38 82 39 83 47 84 40 85 46 86 41 87 42 88
REMARK SMILES IDX 43 89 44 90 45 91
REMARK H PARENT 6 6 75 12 84 24 10 28 66 47 36 58
REMARK Flexibility Score: inf
ROOT
ATOM      1  C   UNL A   1      34.494  30.574  27.236  1.00  0.00     0.042 C 
ENDROOT
BRANCH   1   2
ATOM      2  C   UNL A   1      32.930  30.662  27.274  1.00  0.00     0.117 C 
BRANCH   2   3
ATOM      3  N   UNL A   1      32.145  29.437  27.513  1.00  0.00    -0.355 N 
ATOM      4  C   UNL A   1      31.804  28.289  26.856  1.00  0.00     0.232 C 
ATOM      5  O   UNL A   1      31.331  27.456  27.651  1.00  0.00    -0.274 OA
ATOM      6  H   UNL A   1      31.746  29.451  28.414  1.00  0.00     0.163 HD
BRANCH   4   7
ATOM      7  C   UNL A   1      31.816  27.919  25.324  1.00  0.00     0.103 C 
ATOM      8  C   UNL A   1      30.797  26.777  25.048  1.00  0.00     0.084 C 
ATOM      9  C   UNL A   1      31.370  28.984  24.281  1.00  0.00     0.279 C 
ATOM     10  C   UNL A   1      30.362  26.956  23.600  1.00  0.00     0.263 C 
ATOM     11  N   UNL A   1      30.350  28.395  23.380  1.00  0.00    -0.329 N 
ATOM     12  H   UNL A   1      30.620  28.618  22.422  1.00  0.00     0.348 HD
BRANCH   7  13
ATOM     13  C   UNL A   1      33.262  27.391  24.980  1.00  0.00     0.020 C 
ATOM     14  C   UNL A   1      34.057  28.159  23.911  1.00  0.00     0.005 C 
ENDBRANCH   7  13
BRANCH  11  15
ATOM     15  C   UNL A   1      28.985  29.016  23.380  1.00  0.00     0.323 C 
BRANCH  15  16
ATOM     16  C   UNL A   1      28.735  30.399  22.753  1.00  0.00     0.136 A 
ATOM     17  N   UNL A   1      28.254  30.503  21.490  1.00  0.00    -0.248 NA
ATOM     18  C   UNL A   1      29.055  31.554  23.442  1.00  0.00     0.142 A 
ATOM     19  C   UNL A   1      28.046  31.763  20.990  1.00  0.00     0.038 A 
ATOM     20  C   UNL A   1      28.696  32.814  23.005  1.00  0.00     0.050 A 
ATOM     21  C   UNL A   1      27.779  31.910  19.522  1.00  0.00     0.067 C 
ATOM     22  C   UNL A   1      28.170  32.925  21.745  1.00  0.00     0.027 A 
BRANCH  18  23
ATOM     23  O   UNL A   1      29.767  31.453  24.567  1.00  0.00    -0.506 OA
ATOM     24  H   UNL A   1      29.370  31.651  25.392  1.00  0.00     0.293 HD
ENDBRANCH  18  23
ENDBRANCH  15  16
ENDBRANCH  11  15
ENDBRANCH   4   7
ENDBRANCH   2   3
ENDBRANCH   1   2
BRANCH   1  25
ATOM     25  C   UNL A   1      35.215  29.327  27.813  1.00  0.00     0.118 C 
BRANCH  25  26
ATOM     26  N   UNL A   1      35.766  29.629  29.133  1.00  0.00    -0.352 N 
ATOM     27  C   UNL A   1      36.887  29.224  29.815  1.00  0.00     0.251 C 
ATOM     28  H   UNL A   1      35.212  30.260  29.646  1.00  0.00     0.163 HD
ATOM     29  O   UNL A   1      36.826  29.280  31.046  1.00  0.00    -0.269 OA
BRANCH  27  30
ATOM     30  C   UNL A   1      38.181  28.810  29.196  1.00  0.00     0.039 A 
ATOM     31  C   UNL A   1      39.138  28.212  30.037  1.00  0.00     0.014 A 
ATOM     32  C   UNL A   1      38.582  29.206  27.917  1.00  0.00     0.014 A 
ATOM     33  C   UNL A   1      40.472  28.047  29.629  1.00  0.00     0.010 A 
ATOM     34  C   UNL A   1      39.920  29.017  27.500  1.00  0.00     0.010 A 
ATOM     35  C   UNL A   1      40.889  28.467  28.360  1.00  0.00    -0.014 A 
BRANCH  35  36
ATOM     36  C   UNL A   1      42.336  28.390  27.974  1.00  0.00     0.031 A 
ATOM     37  C   UNL A   1      43.263  29.565  28.201  1.00  0.00     0.074 A 
ATOM     38  C   UNL A   1      42.846  27.262  27.436  1.00  0.00     0.049 A 
ATOM     39  N   UNL A   1      44.542  29.679  27.932  1.00  0.00    -0.248 NA
ATOM     40  C   UNL A   1      42.671  30.769  28.802  1.00  0.00     0.031 C 
ATOM     41  C   UNL A   1      42.091  26.039  27.167  1.00  0.00     0.029 A 
ATOM     42  N   UNL A   1      44.124  26.961  27.020  1.00  0.00    -0.354 N 
ATOM     43  C   UNL A   1      44.903  30.969  28.313  1.00  0.00     0.074 A 
ATOM     44  C   UNL A   1      43.699  31.607  28.802  1.00  0.00     0.031 C 
ATOM     45  C   UNL A   1      42.920  25.116  26.648  1.00  0.00     0.029 A 
ATOM     46  C   UNL A   1      44.260  25.687  26.520  1.00  0.00     0.049 A 
ATOM     47  H   UNL A   1      44.872  27.599  27.077  1.00  0.00     0.167 HD
ATOM     48  C   UNL A   1      46.120  31.570  28.273  1.00  0.00     0.031 A 
ATOM     49  C   UNL A   1      45.332  25.044  26.014  1.00  0.00     0.031 A 
ATOM     50  C   UNL A   1      47.330  30.947  27.799  1.00  0.00     0.049 A 
ATOM     51  C   UNL A   1      46.669  25.733  25.959  1.00  0.00     0.074 A 
ATOM     52  C   UNL A   1      48.611  31.474  27.755  1.00  0.00     0.029 A 
ATOM     53  N   UNL A   1      47.414  29.662  27.289  1.00  0.00    -0.354 N 
ATOM     54  N   UNL A   1      46.989  26.942  26.352  1.00  0.00    -0.248 NA
ATOM     55  C   UNL A   1      47.793  24.964  25.404  1.00  0.00     0.031 C 
ATOM     56  C   UNL A   1      49.461  30.521  27.179  1.00  0.00     0.029 A 
ATOM     57  C   UNL A   1      48.718  29.384  26.911  1.00  0.00     0.049 A 
ATOM     58  H   UNL A   1      46.657  29.037  27.206  1.00  0.00     0.167 HD
ATOM     59  C   UNL A   1      48.355  27.069  26.117  1.00  0.00     0.074 A 
ATOM     60  C   UNL A   1      48.803  25.811  25.558  1.00  0.00     0.031 C 
ATOM     61  C   UNL A   1      49.163  28.132  26.351  1.00  0.00     0.031 A 
BRANCH  48  62
ATOM     62  C   UNL A   1      46.202  33.003  28.742  1.00  0.00    -0.014 A 
ATOM     63  C   UNL A   1      46.052  34.074  27.842  1.00  0.00     0.010 A 
ATOM     64  C   UNL A   1      46.403  33.283  30.106  1.00  0.00     0.010 A 
ATOM     65  C   UNL A   1      46.160  35.395  28.288  1.00  0.00     0.020 A 
ATOM     66  C   UNL A   1      46.485  34.603  30.561  1.00  0.00     0.020 A 
ATOM     67  C   UNL A   1      46.387  35.651  29.643  1.00  0.00     0.054 A 
BRANCH  67  68
ATOM     68  S   UNL A   1      46.537  37.371  30.203  1.00  0.00     0.124 S 
ATOM     69  O   UNL A   1      46.535  37.210  31.659  1.00  0.00    -0.237 OA
ATOM     70  O   UNL A   1      47.821  37.784  29.628  1.00  0.00    -0.237 OA
ATOM     71  O   UNL A   1      45.370  38.025  29.646  1.00  0.00    -0.744 OA
ENDBRANCH  67  68
ENDBRANCH  48  62
BRANCH  49  72
ATOM     72  C   UNL A   1      45.188  23.643  25.527  1.00  0.00    -0.014 A 
ATOM     73  C   UNL A   1      45.460  22.560  26.379  1.00  0.00     0.010 A 
ATOM     74  C   UNL A   1      44.761  23.388  24.211  1.00  0.00     0.010 A 
ATOM     75  C   UNL A   1      45.312  21.246  25.925  1.00  0.00     0.020 A 
ATOM     76  C   UNL A   1      44.588  22.076  23.761  1.00  0.00     0.020 A 
ATOM     77  C   UNL A   1      44.871  21.012  24.620  1.00  0.00     0.054 A 
BRANCH  77  78
ATOM     78  S   UNL A   1      44.614  19.301  24.075  1.00  0.00     0.124 S 
ATOM     79  O   UNL A   1      44.548  19.450  22.625  1.00  0.00    -0.237 OA
ATOM     80  O   UNL A   1      45.800  18.622  24.590  1.00  0.00    -0.237 OA
ATOM     81  O   UNL A   1      43.360  18.922  24.725  1.00  0.00    -0.744 OA
ENDBRANCH  77  78
ENDBRANCH  49  72
BRANCH  61  82
ATOM     82  C   UNL A   1      50.628  27.978  26.031  1.00  0.00    -0.014 A 
ATOM     83  C   UNL A   1      51.161  28.430  24.810  1.00  0.00     0.010 A 
ATOM     84  C   UNL A   1      51.492  27.414  26.987  1.00  0.00     0.010 A 
ATOM     85  C   UNL A   1      52.526  28.289  24.539  1.00  0.00     0.020 A 
ATOM     86  C   UNL A   1      52.861  27.294  26.730  1.00  0.00     0.020 A 
ATOM     87  C   UNL A   1      53.367  27.719  25.499  1.00  0.00     0.054 A 
BRANCH  87  88
ATOM     88  S   UNL A   1      55.141  27.581  25.141  1.00  0.00     0.124 S 
ATOM     89  O   UNL A   1      55.403  28.824  24.422  1.00  0.00    -0.237 OA
ATOM     90  O   UNL A   1      55.733  27.489  26.473  1.00  0.00    -0.237 OA
ATOM     91  O   UNL A   1      55.238  26.363  24.338  1.00  0.00    -0.744 OA
ENDBRANCH  87  88
ENDBRANCH  61  82
ENDBRANCH  35  36
ENDBRANCH  27  30
ENDBRANCH  25  26
ENDBRANCH   1  25
TORSDOF 17
ENDMDL
MODEL 3
REMARK VINA RESULT:     -11.3      3.136      3.914
REMARK SMILES CC[C@]1(C(=O)NCCCNC(=O)c2ccc(-c3c4nc(c(-c5ccc(S(=O)(=O)[O-])cc5)c5ccc([nH]5)c(-c5ccc(S(=O)(=O)[O-])cc5)c5nc(c(-c6ccc(S(=O)(=O)[O-])cc6)c6ccc3[nH]6)C=C5)C=C4)cc2)CC[N@@H+](Cc2nc(C)ccc2O)C1
REMARK SMILES IDX 8 1 7 2 6 3 4 4 5 5 3 7 73 8 85 9 74 10 75 11 2 13 1 14
REMARK SMILES IDX 76 15 77 16 78 17 83 18 79 19 82 20 80 21 81 22 84 23 9 25
REMARK SMILES IDX 10 26 11 27 12 29 13 30 14 31 72 32 15 33 71 34 16 35 17 36
REMARK SMILES IDX 18 37 65 38 19 39 70 40 64 41 66 42 20 43 69 44 63 45 62 46
REMARK SMILES IDX 21 48 51 49 32 50 50 51 33 52 36 53 49 54 67 55 34 56 35 57
REMARK SMILES IDX 48 59 68 60 37 61 22 62 23 63 31 64 24 65 30 66 25 67 26 68
REMARK SMILES IDX 27 69 28 70 29 71 52 72 53 73 61 74 54 75 60 76 55 77 56 78
REMARK SMILES IDX 57 79 58 80 59 81 38 82 39 83 47 84 40 85 46 86 41 87 42 88
REMARK SMILES IDX 43 89 44 90 45 91
REMARK H PARENT 6 6 75 12 84 24 10 28 66 47 36 58
REMARK Flexibility Score: inf
ROOT
ATOM      1  C   UNL A   1      31.941  29.154  26.729  1.00  0.00     0.042 C 
ENDROOT
BRANCH   1   2
ATOM      2  C   UNL A   1      32.003  27.710  27.333  1.00  0.00     0.117 C 
BRANCH   2   3
ATOM      3  N   UNL A   1      30.936  26.746  27.008  1.00  0.00    -0.355 N 
ATOM      4  C   UNL A   1      30.596  25.889  26.000  1.00  0.00     0.232 C 
ATOM      5  O   UNL A   1      29.711  25.100  26.379  1.00  0.00    -0.274 OA
ATOM      6  H   UNL A   1      30.269  26.710  27.733  1.00  0.00     0.163 HD
BRANCH   4   7
ATOM      7  C   UNL A   1      31.044  25.821  24.491  1.00  0.00     0.103 C 
ATOM      8  C   UNL A   1      32.582  25.605  24.405  1.00  0.00     0.084 C 
ATOM      9  C   UNL A   1      30.523  24.660  23.595  1.00  0.00     0.279 C 
ATOM     10  C   UNL A   1      32.822  24.882  23.088  1.00  0.00     0.263 C 
ATOM     11  N   UNL A   1      31.669  24.010  22.914  1.00  0.00    -0.329 N 
ATOM     12  H   UNL A   1      31.429  23.918  21.928  1.00  0.00     0.348 HD
BRANCH   7  13
ATOM     13  C   UNL A   1      30.699  27.212  23.834  1.00  0.00     0.020 C 
ATOM     14  C   UNL A   1      29.219  27.507  23.542  1.00  0.00     0.005 C 
ENDBRANCH   7  13
BRANCH  11  15
ATOM     15  C   UNL A   1      31.927  22.564  23.219  1.00  0.00     0.323 C 
BRANCH  15  16
ATOM     16  C   UNL A   1      32.820  22.141  24.399  1.00  0.00     0.136 A 
ATOM     17  N   UNL A   1      34.079  21.687  24.179  1.00  0.00    -0.248 NA
ATOM     18  C   UNL A   1      32.334  22.156  25.692  1.00  0.00     0.142 A 
ATOM     19  C   UNL A   1      34.827  21.332  25.271  1.00  0.00     0.038 A 
ATOM     20  C   UNL A   1      33.136  21.955  26.799  1.00  0.00     0.050 A 
ATOM     21  C   UNL A   1      36.104  20.579  25.043  1.00  0.00     0.067 C 
ATOM     22  C   UNL A   1      34.422  21.537  26.586  1.00  0.00     0.027 A 
BRANCH  18  23
ATOM     23  O   UNL A   1      31.026  22.347  25.884  1.00  0.00    -0.506 OA
ATOM     24  H   UNL A   1      30.495  22.687  25.192  1.00  0.00     0.293 HD
ENDBRANCH  18  23
ENDBRANCH  15  16
ENDBRANCH  11  15
ENDBRANCH   4   7
ENDBRANCH   2   3
ENDBRANCH   1   2
BRANCH   1  25
ATOM     25  C   UNL A   1      33.243  29.854  26.256  1.00  0.00     0.118 C 
BRANCH  25  26
ATOM     26  N   UNL A   1      33.619  30.909  27.197  1.00  0.00    -0.352 N 
ATOM     27  C   UNL A   1      34.528  30.994  28.222  1.00  0.00     0.251 C 
ATOM     28  H   UNL A   1      33.107  31.739  27.067  1.00  0.00     0.163 HD
ATOM     29  O   UNL A   1      34.281  31.822  29.103  1.00  0.00    -0.269 OA
BRANCH  27  30
ATOM     30  C   UNL A   1      35.814  30.239  28.311  1.00  0.00     0.039 A 
ATOM     31  C   UNL A   1      36.213  29.790  29.583  1.00  0.00     0.014 A 
ATOM     32  C   UNL A   1      36.743  30.180  27.268  1.00  0.00     0.014 A 
ATOM     33  C   UNL A   1      37.518  29.329  29.822  1.00  0.00     0.010 A 
ATOM     34  C   UNL A   1      38.048  29.691  27.505  1.00  0.00     0.010 A 
ATOM     35  C   UNL A   1      38.464  29.292  28.789  1.00  0.00    -0.014 A 
BRANCH  35  36
ATOM     36  C   UNL A   1      39.884  28.903  29.076  1.00  0.00     0.031 A 
ATOM     37  C   UNL A   1      40.827  29.866  29.764  1.00  0.00     0.074 A 
ATOM     38  C   UNL A   1      40.342  27.678  28.745  1.00  0.00     0.049 A 
ATOM     39  N   UNL A   1      42.087  29.703  30.094  1.00  0.00    -0.248 NA
ATOM     40  C   UNL A   1      40.284  31.185  30.120  1.00  0.00     0.031 C 
ATOM     41  C   UNL A   1      39.558  26.630  28.092  1.00  0.00     0.029 A 
ATOM     42  N   UNL A   1      41.583  27.104  28.917  1.00  0.00    -0.354 N 
ATOM     43  C   UNL A   1      42.491  30.901  30.678  1.00  0.00     0.074 A 
ATOM     44  C   UNL A   1      41.349  31.791  30.626  1.00  0.00     0.031 C 
ATOM     45  C   UNL A   1      40.327  25.540  27.933  1.00  0.00     0.029 A 
ATOM     46  C   UNL A   1      41.668  25.814  28.445  1.00  0.00     0.049 A 
ATOM     47  H   UNL A   1      42.338  27.574  29.339  1.00  0.00     0.167 HD
ATOM     48  C   UNL A   1      43.691  31.235  31.217  1.00  0.00     0.031 A 
ATOM     49  C   UNL A   1      42.701  24.947  28.423  1.00  0.00     0.031 A 
ATOM     50  C   UNL A   1      44.835  30.358  31.285  1.00  0.00     0.049 A 
ATOM     51  C   UNL A   1      44.031  25.342  29.008  1.00  0.00     0.074 A 
ATOM     52  C   UNL A   1      46.078  30.606  31.844  1.00  0.00     0.029 A 
ATOM     53  N   UNL A   1      44.877  29.069  30.781  1.00  0.00    -0.354 N 
ATOM     54  N   UNL A   1      44.378  26.469  29.579  1.00  0.00    -0.248 NA
ATOM     55  C   UNL A   1      45.106  24.339  28.955  1.00  0.00     0.031 C 
ATOM     56  C   UNL A   1      46.886  29.480  31.640  1.00  0.00     0.029 A 
ATOM     57  C   UNL A   1      46.128  28.514  30.999  1.00  0.00     0.049 A 
ATOM     58  H   UNL A   1      44.127  28.613  30.334  1.00  0.00     0.167 HD
ATOM     59  C   UNL A   1      45.701  26.302  29.978  1.00  0.00     0.074 A 
ATOM     60  C   UNL A   1      46.089  24.961  29.593  1.00  0.00     0.031 C 
ATOM     61  C   UNL A   1      46.516  27.180  30.612  1.00  0.00     0.031 A 
BRANCH  48  62
ATOM     62  C   UNL A   1      43.842  32.633  31.767  1.00  0.00    -0.014 A 
ATOM     63  C   UNL A   1      44.306  33.687  30.958  1.00  0.00     0.010 A 
ATOM     64  C   UNL A   1      43.486  32.903  33.101  1.00  0.00     0.010 A 
ATOM     65  C   UNL A   1      44.467  34.970  31.491  1.00  0.00     0.020 A 
ATOM     66  C   UNL A   1      43.620  34.191  33.630  1.00  0.00     0.020 A 
ATOM     67  C   UNL A   1      44.133  35.211  32.827  1.00  0.00     0.054 A 
BRANCH  67  68
ATOM     68  S   UNL A   1      44.360  36.880  33.505  1.00  0.00     0.124 S 
ATOM     69  O   UNL A   1      45.426  36.658  34.486  1.00  0.00    -0.237 OA
ATOM     70  O   UNL A   1      44.758  37.653  32.324  1.00  0.00    -0.237 OA
ATOM     71  O   UNL A   1      43.063  37.214  34.057  1.00  0.00    -0.744 OA
ENDBRANCH  67  68
ENDBRANCH  48  62
BRANCH  49  72
ATOM     72  C   UNL A   1      42.512  23.593  27.832  1.00  0.00    -0.014 A 
ATOM     73  C   UNL A   1      42.663  23.391  26.449  1.00  0.00     0.010 A 
ATOM     74  C   UNL A   1      42.196  22.496  28.654  1.00  0.00     0.010 A 
ATOM     75  C   UNL A   1      42.497  22.117  25.897  1.00  0.00     0.020 A 
ATOM     76  C   UNL A   1      42.054  21.216  28.108  1.00  0.00     0.020 A 
ATOM     77  C   UNL A   1      42.199  21.036  26.731  1.00  0.00     0.054 A 
BRANCH  77  78
ATOM     78  S   UNL A   1      42.063  19.379  26.004  1.00  0.00     0.124 S 
ATOM     79  O   UNL A   1      42.976  19.469  24.869  1.00  0.00    -0.237 OA
ATOM     80  O   UNL A   1      42.496  18.516  27.100  1.00  0.00    -0.237 OA
ATOM     81  O   UNL A   1      40.646  19.274  25.663  1.00  0.00    -0.744 OA
ENDBRANCH  77  78
ENDBRANCH  49  72
BRANCH  61  82
ATOM     82  C   UNL A   1      47.906  26.715  30.962  1.00  0.00    -0.014 A 
ATOM     83  C   UNL A   1      48.984  26.907  30.079  1.00  0.00     0.010 A 
ATOM     84  C   UNL A   1      48.145  26.117  32.212  1.00  0.00     0.010 A 
ATOM     85  C   UNL A   1      50.269  26.480  30.427  1.00  0.00     0.020 A 
ATOM     86  C   UNL A   1      49.433  25.710  32.575  1.00  0.00     0.020 A 
ATOM     87  C   UNL A   1      50.485  25.881  31.672  1.00  0.00     0.054 A 
BRANCH  87  88
ATOM     88  S   UNL A   1      52.168  25.368  32.119  1.00  0.00     0.124 S 
ATOM     89  O   UNL A   1      52.417  26.160  33.320  1.00  0.00    -0.237 OA
ATOM     90  O   UNL A   1      52.020  23.931  32.334  1.00  0.00    -0.237 OA
ATOM     91  O   UNL A   1      52.964  25.738  30.951  1.00  0.00    -0.744 OA
ENDBRANCH  87  88
ENDBRANCH  61  82
ENDBRANCH  35  36
ENDBRANCH  27  30
ENDBRANCH  25  26
ENDBRANCH   1  25
TORSDOF 17
ENDMDL
