MODEL 1
REMARK VINA RESULT:     -10.0      0.000      0.000
REMARK SMILES CC(C)C[C@H](NC(=O)CNC(=O)[C@@H]([NH3+])C(C)C)C(=O)NCCCNC(=O)c1ccc(-c2c3nc(c(-c4ccc(S(=O)(=O)[O-])cc4)c4ccc([nH]4)c(-c4ccc(S(=O)(=O)[O-])cc4)c4nc(c(-c5ccc(S(=O)(=O)[O-])cc5)c5ccc2[nH]5)C=C4)C=C3)cc1
REMARK SMILES IDX 21 1 20 2 18 3 19 4 5 6 4 7 2 8 1 9 3 10 6 11 7 12 8 14 9 15
REMARK SMILES IDX 10 16 11 17 12 19 13 20 14 21 15 25 16 26 17 27 22 28 23 29
REMARK SMILES IDX 24 30 25 31 26 33 27 34 28 35 86 36 29 37 85 38 30 39 31 40
REMARK SMILES IDX 32 41 79 42 33 43 84 44 78 45 80 46 34 47 83 48 77 49 76 50
REMARK SMILES IDX 35 52 65 53 46 54 64 55 47 56 50 57 63 58 81 59 48 60 49 61
REMARK SMILES IDX 62 63 82 64 51 65 36 66 37 67 45 68 38 69 44 70 39 71 40 72
REMARK SMILES IDX 41 73 42 74 43 75 66 76 67 77 75 78 68 79 74 80 69 81 70 82
REMARK SMILES IDX 71 83 72 84 73 85 52 86 53 87 61 88 54 89 60 90 55 91 56 92
REMARK SMILES IDX 57 93 58 94 59 95
REMARK H PARENT 20 5 6 13 10 18 14 22 14 23 14 24 24 32 80 51 50 62
REMARK Flexibility Score: inf
ROOT
ATOM      1  C   UNL A   1      32.419  26.478  26.335  1.00  0.00     0.117 C 
ENDROOT
BRANCH   1   2
ATOM      2  N   UNL A   1      31.365  25.580  26.778  1.00  0.00    -0.354 N 
ATOM      3  C   UNL A   1      31.339  24.218  26.718  1.00  0.00     0.242 C 
ATOM      4  O   UNL A   1      30.344  23.617  27.125  1.00  0.00    -0.273 OA
ATOM      5  H   UNL A   1      30.572  26.009  27.171  1.00  0.00     0.163 HD
BRANCH   3   6
ATOM      6  C   UNL A   1      32.538  23.470  26.120  1.00  0.00     0.171 C 
BRANCH   6   7
ATOM      7  C   UNL A   1      33.671  23.220  27.124  1.00  0.00     0.038 C 
BRANCH   7   8
ATOM      8  C   UNL A   1      34.978  22.476  26.744  1.00  0.00    -0.015 C 
ATOM      9  C   UNL A   1      34.810  21.278  25.816  1.00  0.00     0.007 C 
ATOM     10  C   UNL A   1      35.961  23.466  26.099  1.00  0.00     0.007 C 
ENDBRANCH   7   8
ENDBRANCH   6   7
BRANCH   6  11
ATOM     11  N   UNL A   1      32.773  24.168  24.820  1.00  0.00    -0.343 N 
ATOM     12  C   UNL A   1      32.263  24.484  23.614  1.00  0.00     0.240 C 
ATOM     13  H   UNL A   1      33.675  24.560  24.862  1.00  0.00     0.164 HD
ATOM     14  O   UNL A   1      33.017  25.200  22.936  1.00  0.00    -0.273 OA
BRANCH  12  15
ATOM     15  C   UNL A   1      30.873  24.185  23.047  1.00  0.00     0.216 C 
BRANCH  15  16
ATOM     16  N   UNL A   1      29.755  24.927  23.588  1.00  0.00    -0.342 N 
ATOM     17  C   UNL A   1      29.477  26.253  23.670  1.00  0.00     0.278 C 
ATOM     18  H   UNL A   1      29.054  24.354  23.973  1.00  0.00     0.164 HD
ATOM     19  O   UNL A   1      28.361  26.523  24.135  1.00  0.00    -0.268 OA
BRANCH  17  20
ATOM     20  C   UNL A   1      30.481  27.398  23.338  1.00  0.00     0.273 C 
BRANCH  20  21
ATOM     21  N   UNL A   1      31.007  27.346  21.959  1.00  0.00    -0.347 N 
ATOM     22  H   UNL A   1      31.375  28.261  21.701  1.00  0.00     0.345 HD
ATOM     23  H   UNL A   1      30.256  27.088  21.318  1.00  0.00     0.345 HD
ATOM     24  H   UNL A   1      31.752  26.651  21.906  1.00  0.00     0.345 HD
ENDBRANCH  20  21
BRANCH  20  25
ATOM     25  C   UNL A   1      29.887  28.790  23.666  1.00  0.00     0.051 C 
ATOM     26  C   UNL A   1      30.933  29.714  24.309  1.00  0.00     0.014 C 
ATOM     27  C   UNL A   1      29.345  29.498  22.415  1.00  0.00     0.014 C 
ENDBRANCH  20  25
ENDBRANCH  17  20
ENDBRANCH  15  16
ENDBRANCH  12  15
ENDBRANCH   6  11
ENDBRANCH   3   6
ENDBRANCH   1   2
BRANCH   1  28
ATOM     28  C   UNL A   1      32.368  27.811  27.044  1.00  0.00     0.042 C 
BRANCH  28  29
ATOM     29  C   UNL A   1      33.691  28.551  26.964  1.00  0.00     0.118 C 
BRANCH  29  30
ATOM     30  N   UNL A   1      33.607  29.926  27.454  1.00  0.00    -0.352 N 
ATOM     31  C   UNL A   1      34.533  30.633  28.185  1.00  0.00     0.251 C 
ATOM     32  H   UNL A   1      32.779  30.409  27.232  1.00  0.00     0.163 HD
ATOM     33  O   UNL A   1      34.261  31.724  28.658  1.00  0.00    -0.269 OA
BRANCH  31  34
ATOM     34  C   UNL A   1      35.853  30.014  28.396  1.00  0.00     0.039 A 
ATOM     35  C   UNL A   1      36.828  30.133  27.407  1.00  0.00     0.014 A 
ATOM     36  C   UNL A   1      36.138  29.420  29.627  1.00  0.00     0.014 A 
ATOM     37  C   UNL A   1      38.129  29.718  27.689  1.00  0.00     0.010 A 
ATOM     38  C   UNL A   1      37.450  29.112  29.941  1.00  0.00     0.010 A 
ATOM     39  C   UNL A   1      38.456  29.248  28.972  1.00  0.00    -0.014 A 
BRANCH  39  40
ATOM     40  C   UNL A   1      39.840  28.870  29.335  1.00  0.00     0.031 A 
ATOM     41  C   UNL A   1      40.713  29.868  30.043  1.00  0.00     0.074 A 
ATOM     42  C   UNL A   1      40.332  27.676  28.947  1.00  0.00     0.049 A 
ATOM     43  N   UNL A   1      41.981  29.785  30.348  1.00  0.00    -0.248 NA
ATOM     44  C   UNL A   1      40.089  31.149  30.418  1.00  0.00     0.031 C 
ATOM     45  C   UNL A   1      39.593  26.650  28.205  1.00  0.00     0.029 A 
ATOM     46  N   UNL A   1      41.577  27.128  29.117  1.00  0.00    -0.354 N 
ATOM     47  C   UNL A   1      42.310  31.008  30.919  1.00  0.00     0.074 A 
ATOM     48  C   UNL A   1      41.128  31.837  30.864  1.00  0.00     0.031 C 
ATOM     49  C   UNL A   1      40.390  25.586  28.013  1.00  0.00     0.029 A 
ATOM     50  C   UNL A   1      41.705  25.869  28.578  1.00  0.00     0.049 A 
ATOM     51  H   UNL A   1      42.311  27.592  29.582  1.00  0.00     0.167 HD
ATOM     52  C   UNL A   1      43.485  31.397  31.465  1.00  0.00     0.031 A 
ATOM     53  C   UNL A   1      42.766  25.040  28.542  1.00  0.00     0.031 A 
ATOM     54  C   UNL A   1      44.644  30.551  31.545  1.00  0.00     0.049 A 
ATOM     55  C   UNL A   1      44.054  25.485  29.176  1.00  0.00     0.074 A 
ATOM     56  C   UNL A   1      45.863  30.817  32.140  1.00  0.00     0.029 A 
ATOM     57  N   UNL A   1      44.722  29.270  31.021  1.00  0.00    -0.354 N 
ATOM     58  N   UNL A   1      44.329  26.621  29.773  1.00  0.00    -0.248 NA
ATOM     59  C   UNL A   1      45.173  24.533  29.145  1.00  0.00     0.031 C 
ATOM     60  C   UNL A   1      46.694  29.710  31.939  1.00  0.00     0.029 A 
ATOM     61  C   UNL A   1      45.974  28.736  31.264  1.00  0.00     0.049 A 
ATOM     62  H   UNL A   1      43.993  28.808  30.545  1.00  0.00     0.167 HD
ATOM     63  C   UNL A   1      45.644  26.512  30.207  1.00  0.00     0.074 A 
ATOM     64  C   UNL A   1      46.104  25.193  29.819  1.00  0.00     0.031 C 
ATOM     65  C   UNL A   1      46.404  27.419  30.869  1.00  0.00     0.031 A 
BRANCH  52  66
ATOM     66  C   UNL A   1      43.564  32.794  32.017  1.00  0.00    -0.014 A 
ATOM     67  C   UNL A   1      43.367  33.043  33.389  1.00  0.00     0.010 A 
ATOM     68  C   UNL A   1      43.856  33.871  31.162  1.00  0.00     0.010 A 
ATOM     69  C   UNL A   1      43.412  34.347  33.885  1.00  0.00     0.020 A 
ATOM     70  C   UNL A   1      43.932  35.174  31.660  1.00  0.00     0.020 A 
ATOM     71  C   UNL A   1      43.691  35.406  33.016  1.00  0.00     0.054 A 
BRANCH  71  72
ATOM     72  S   UNL A   1      43.763  37.088  33.691  1.00  0.00     0.124 S 
ATOM     73  O   UNL A   1      43.964  37.888  32.485  1.00  0.00    -0.237 OA
ATOM     74  O   UNL A   1      42.458  37.233  34.332  1.00  0.00    -0.237 OA
ATOM     75  O   UNL A   1      44.901  37.045  34.607  1.00  0.00    -0.744 OA
ENDBRANCH  71  72
ENDBRANCH  52  66
BRANCH  53  76
ATOM     76  C   UNL A   1      42.643  23.701  27.906  1.00  0.00    -0.014 A 
ATOM     77  C   UNL A   1      42.952  23.530  26.545  1.00  0.00     0.010 A 
ATOM     78  C   UNL A   1      42.237  22.585  28.660  1.00  0.00     0.010 A 
ATOM     79  C   UNL A   1      42.838  22.273  25.944  1.00  0.00     0.020 A 
ATOM     80  C   UNL A   1      42.148  21.320  28.069  1.00  0.00     0.020 A 
ATOM     81  C   UNL A   1      42.438  21.174  26.711  1.00  0.00     0.054 A 
BRANCH  81  82
ATOM     82  S   UNL A   1      42.348  19.543  25.922  1.00  0.00     0.124 S 
ATOM     83  O   UNL A   1      42.689  18.653  27.027  1.00  0.00    -0.237 OA
ATOM     84  O   UNL A   1      40.960  19.487  25.469  1.00  0.00    -0.237 OA
ATOM     85  O   UNL A   1      43.340  19.626  24.853  1.00  0.00    -0.744 OA
ENDBRANCH  81  82
ENDBRANCH  53  76
BRANCH  65  86
ATOM     86  C   UNL A   1      47.801  27.007  31.245  1.00  0.00    -0.014 A 
ATOM     87  C   UNL A   1      48.081  26.460  32.508  1.00  0.00     0.010 A 
ATOM     88  C   UNL A   1      48.830  27.103  30.291  1.00  0.00     0.010 A 
ATOM     89  C   UNL A   1      49.374  26.038  32.821  1.00  0.00     0.020 A 
ATOM     90  C   UNL A   1      50.119  26.659  30.592  1.00  0.00     0.020 A 
ATOM     91  C   UNL A   1      50.386  26.139  31.860  1.00  0.00     0.054 A 
BRANCH  91  92
ATOM     92  S   UNL A   1      52.045  25.534  32.271  1.00  0.00     0.124 S 
ATOM     93  O   UNL A   1      52.884  26.299  31.354  1.00  0.00    -0.237 OA
ATOM     94  O   UNL A   1      52.174  25.886  33.683  1.00  0.00    -0.237 OA
ATOM     95  O   UNL A   1      51.967  24.100  31.998  1.00  0.00    -0.744 OA
ENDBRANCH  91  92
ENDBRANCH  65  86
ENDBRANCH  39  40
ENDBRANCH  31  34
ENDBRANCH  29  30
ENDBRANCH  28  29
ENDBRANCH   1  28
TORSDOF 21
ENDMDL
MODEL 2
REMARK VINA RESULT:      -9.7      3.577      7.669
REMARK SMILES CC(C)C[C@H](NC(=O)CNC(=O)[C@@H]([NH3+])C(C)C)C(=O)NCCCNC(=O)c1ccc(-c2c3nc(c(-c4ccc(S(=O)(=O)[O-])cc4)c4ccc([nH]4)c(-c4ccc(S(=O)(=O)[O-])cc4)c4nc(c(-c5ccc(S(=O)(=O)[O-])cc5)c5ccc2[nH]5)C=C4)C=C3)cc1
REMARK SMILES IDX 21 1 20 2 18 3 19 4 5 6 4 7 2 8 1 9 3 10 6 11 7 12 8 14 9 15
REMARK SMILES IDX 10 16 11 17 12 19 13 20 14 21 15 25 16 26 17 27 22 28 23 29
REMARK SMILES IDX 24 30 25 31 26 33 27 34 28 35 86 36 29 37 85 38 30 39 31 40
REMARK SMILES IDX 32 41 79 42 33 43 84 44 78 45 80 46 34 47 83 48 77 49 76 50
REMARK SMILES IDX 35 52 65 53 46 54 64 55 47 56 50 57 63 58 81 59 48 60 49 61
REMARK SMILES IDX 62 63 82 64 51 65 36 66 37 67 45 68 38 69 44 70 39 71 40 72
REMARK SMILES IDX 41 73 42 74 43 75 66 76 67 77 75 78 68 79 74 80 69 81 70 82
REMARK SMILES IDX 71 83 72 84 73 85 52 86 53 87 61 88 54 89 60 90 55 91 56 92
REMARK SMILES IDX 57 93 58 94 59 95
REMARK H PARENT 20 5 6 13 10 18 14 22 14 23 14 24 24 32 80 51 50 62
REMARK Flexibility Score: inf
ROOT
ATOM      1  C   UNL A   1      36.649  20.681  25.415  1.00  0.00     0.117 C 
ENDROOT
BRANCH   1   2
ATOM      2  N   UNL A   1      35.970  21.686  24.613  1.00  0.00    -0.354 N 
ATOM      3  C   UNL A   1      34.628  21.851  24.430  1.00  0.00     0.242 C 
ATOM      4  O   UNL A   1      34.228  22.751  23.691  1.00  0.00    -0.273 OA
ATOM      5  H   UNL A   1      36.550  22.327  24.143  1.00  0.00     0.163 HD
BRANCH   3   6
ATOM      6  C   UNL A   1      33.653  20.893  25.127  1.00  0.00     0.171 C 
BRANCH   6   7
ATOM      7  C   UNL A   1      32.707  20.165  24.161  1.00  0.00     0.038 C 
BRANCH   7   8
ATOM      8  C   UNL A   1      32.733  18.627  23.964  1.00  0.00    -0.015 C 
ATOM      9  C   UNL A   1      32.300  18.129  22.590  1.00  0.00     0.007 C 
ATOM     10  C   UNL A   1      34.146  18.097  24.258  1.00  0.00     0.007 C 
ENDBRANCH   7   8
ENDBRANCH   6   7
BRANCH   6  11
ATOM     11  N   UNL A   1      33.141  21.693  26.281  1.00  0.00    -0.343 N 
ATOM     12  C   UNL A   1      32.241  22.605  26.696  1.00  0.00     0.240 C 
ATOM     13  H   UNL A   1      33.689  21.454  27.063  1.00  0.00     0.164 HD
ATOM     14  O   UNL A   1      32.311  22.844  27.912  1.00  0.00    -0.273 OA
BRANCH  12  15
ATOM     15  C   UNL A   1      31.107  23.266  25.909  1.00  0.00     0.216 C 
BRANCH  15  16
ATOM     16  N   UNL A   1      31.470  24.139  24.814  1.00  0.00    -0.342 N 
ATOM     17  C   UNL A   1      32.100  25.339  24.757  1.00  0.00     0.278 C 
ATOM     18  H   UNL A   1      31.207  23.791  23.932  1.00  0.00     0.164 HD
ATOM     19  O   UNL A   1      32.317  25.759  23.612  1.00  0.00    -0.268 OA
BRANCH  17  20
ATOM     20  C   UNL A   1      32.445  26.227  25.992  1.00  0.00     0.273 C 
BRANCH  20  21
ATOM     21  N   UNL A   1      33.851  26.676  26.026  1.00  0.00    -0.347 N 
ATOM     22  H   UNL A   1      34.442  25.976  25.581  1.00  0.00     0.345 HD
ATOM     23  H   UNL A   1      34.144  26.803  26.996  1.00  0.00     0.345 HD
ATOM     24  H   UNL A   1      33.936  27.562  25.527  1.00  0.00     0.345 HD
ENDBRANCH  20  21
BRANCH  20  25
ATOM     25  C   UNL A   1      31.464  27.418  26.128  1.00  0.00     0.051 C 
ATOM     26  C   UNL A   1      31.418  27.950  27.569  1.00  0.00     0.014 C 
ATOM     27  C   UNL A   1      31.845  28.589  25.210  1.00  0.00     0.014 C 
ENDBRANCH  20  25
ENDBRANCH  17  20
ENDBRANCH  15  16
ENDBRANCH  12  15
ENDBRANCH   6  11
ENDBRANCH   3   6
ENDBRANCH   1   2
BRANCH   1  28
ATOM     28  C   UNL A   1      38.078  20.468  24.970  1.00  0.00     0.042 C 
BRANCH  28  29
ATOM     29  C   UNL A   1      39.058  20.585  26.123  1.00  0.00     0.118 C 
BRANCH  29  30
ATOM     30  N   UNL A   1      40.172  19.644  26.023  1.00  0.00    -0.352 N 
ATOM     31  C   UNL A   1      41.518  19.893  26.154  1.00  0.00     0.251 C 
ATOM     32  H   UNL A   1      39.927  18.709  25.837  1.00  0.00     0.163 HD
ATOM     33  O   UNL A   1      42.345  19.036  25.892  1.00  0.00    -0.269 OA
BRANCH  31  34
ATOM     34  C   UNL A   1      41.923  21.237  26.600  1.00  0.00     0.039 A 
ATOM     35  C   UNL A   1      42.370  21.417  27.908  1.00  0.00     0.014 A 
ATOM     36  C   UNL A   1      41.960  22.280  25.672  1.00  0.00     0.014 A 
ATOM     37  C   UNL A   1      42.933  22.641  28.266  1.00  0.00     0.010 A 
ATOM     38  C   UNL A   1      42.617  23.453  25.999  1.00  0.00     0.010 A 
ATOM     39  C   UNL A   1      43.101  23.649  27.301  1.00  0.00    -0.014 A 
BRANCH  39  40
ATOM     40  C   UNL A   1      43.762  24.934  27.622  1.00  0.00     0.031 A 
ATOM     41  C   UNL A   1      42.939  26.069  28.164  1.00  0.00     0.074 A 
ATOM     42  C   UNL A   1      45.069  25.103  27.340  1.00  0.00     0.049 A 
ATOM     43  N   UNL A   1      43.293  27.304  28.402  1.00  0.00    -0.248 NA
ATOM     44  C   UNL A   1      41.516  25.790  28.432  1.00  0.00     0.031 C 
ATOM     45  C   UNL A   1      45.954  24.089  26.759  1.00  0.00     0.029 A 
ATOM     46  N   UNL A   1      45.880  26.198  27.496  1.00  0.00    -0.354 N 
ATOM     47  C   UNL A   1      42.135  27.952  28.815  1.00  0.00     0.074 A 
ATOM     48  C   UNL A   1      41.058  26.993  28.739  1.00  0.00     0.031 C 
ATOM     49  C   UNL A   1      47.191  24.601  26.640  1.00  0.00     0.029 A 
ATOM     50  C   UNL A   1      47.177  25.987  27.093  1.00  0.00     0.049 A 
ATOM     51  H   UNL A   1      45.562  27.055  27.864  1.00  0.00     0.167 HD
ATOM     52  C   UNL A   1      41.988  29.226  29.246  1.00  0.00     0.031 A 
ATOM     53  C   UNL A   1      48.234  26.821  27.086  1.00  0.00     0.031 A 
ATOM     54  C   UNL A   1      43.074  30.161  29.351  1.00  0.00     0.049 A 
ATOM     55  C   UNL A   1      48.052  28.225  27.592  1.00  0.00     0.074 A 
ATOM     56  C   UNL A   1      43.051  31.454  29.842  1.00  0.00     0.029 A 
ATOM     57  N   UNL A   1      44.380  29.898  28.967  1.00  0.00    -0.354 N 
ATOM     58  N   UNL A   1      46.963  28.803  28.043  1.00  0.00    -0.248 NA
ATOM     59  C   UNL A   1      49.241  29.087  27.600  1.00  0.00     0.031 C 
ATOM     60  C   UNL A   1      44.338  31.987  29.715  1.00  0.00     0.029 A 
ATOM     61  C   UNL A   1      45.171  31.009  29.194  1.00  0.00     0.049 A 
ATOM     62  H   UNL A   1      44.698  29.045  28.588  1.00  0.00     0.167 HD
ATOM     63  C   UNL A   1      47.342  30.089  28.409  1.00  0.00     0.074 A 
ATOM     64  C   UNL A   1      48.762  30.198  28.142  1.00  0.00     0.031 C 
ATOM     65  C   UNL A   1      46.584  31.089  28.922  1.00  0.00     0.031 A 
BRANCH  52  66
ATOM     66  C   UNL A   1      40.605  29.670  29.636  1.00  0.00    -0.014 A 
ATOM     67  C   UNL A   1      40.232  29.773  30.990  1.00  0.00     0.010 A 
ATOM     68  C   UNL A   1      39.670  30.007  28.642  1.00  0.00     0.010 A 
ATOM     69  C   UNL A   1      38.935  30.157  31.339  1.00  0.00     0.020 A 
ATOM     70  C   UNL A   1      38.381  30.421  28.988  1.00  0.00     0.020 A 
ATOM     71  C   UNL A   1      38.016  30.475  30.336  1.00  0.00     0.054 A 
BRANCH  71  72
ATOM     72  S   UNL A   1      36.345  30.990  30.819  1.00  0.00     0.124 S 
ATOM     73  O   UNL A   1      35.607  30.825  29.569  1.00  0.00    -0.237 OA
ATOM     74  O   UNL A   1      36.011  30.040  31.877  1.00  0.00    -0.237 OA
ATOM     75  O   UNL A   1      36.523  32.371  31.259  1.00  0.00    -0.744 OA
ENDBRANCH  71  72
ENDBRANCH  52  66
BRANCH  53  76
ATOM     76  C   UNL A   1      49.559  26.341  26.609  1.00  0.00    -0.014 A 
ATOM     77  C   UNL A   1      49.938  26.517  25.267  1.00  0.00     0.010 A 
ATOM     78  C   UNL A   1      50.459  25.723  27.497  1.00  0.00     0.010 A 
ATOM     79  C   UNL A   1      51.182  26.067  24.815  1.00  0.00     0.020 A 
ATOM     80  C   UNL A   1      51.715  25.296  27.056  1.00  0.00     0.020 A 
ATOM     81  C   UNL A   1      52.065  25.461  25.714  1.00  0.00     0.054 A 
BRANCH  81  82
ATOM     82  S   UNL A   1      53.695  24.932  25.117  1.00  0.00     0.124 S 
ATOM     83  O   UNL A   1      53.759  25.569  23.806  1.00  0.00    -0.237 OA
ATOM     84  O   UNL A   1      54.595  25.476  26.130  1.00  0.00    -0.237 OA
ATOM     85  O   UNL A   1      53.595  23.474  25.102  1.00  0.00    -0.744 OA
ENDBRANCH  81  82
ENDBRANCH  53  76
BRANCH  65  86
ATOM     86  C   UNL A   1      47.280  32.379  29.259  1.00  0.00    -0.014 A 
ATOM     87  C   UNL A   1      47.250  33.471  28.375  1.00  0.00     0.010 A 
ATOM     88  C   UNL A   1      47.909  32.520  30.509  1.00  0.00     0.010 A 
ATOM     89  C   UNL A   1      47.861  34.676  28.727  1.00  0.00     0.020 A 
ATOM     90  C   UNL A   1      48.499  33.731  30.874  1.00  0.00     0.020 A 
ATOM     91  C   UNL A   1      48.481  34.800  29.975  1.00  0.00     0.054 A 
BRANCH  91  92
ATOM     92  S   UNL A   1      49.218  36.392  30.432  1.00  0.00     0.124 S 
ATOM     93  O   UNL A   1      48.048  37.263  30.489  1.00  0.00    -0.237 OA
ATOM     94  O   UNL A   1      49.845  36.098  31.718  1.00  0.00    -0.237 OA
ATOM     95  O   UNL A   1      50.150  36.667  29.340  1.00  0.00    -0.744 OA
ENDBRANCH  91  92
ENDBRANCH  65  86
ENDBRANCH  39  40
ENDBRANCH  31  34
ENDBRANCH  29  30
ENDBRANCH  28  29
ENDBRANCH   1  28
TORSDOF 21
ENDMDL
MODEL 3
REMARK VINA RESULT:      -9.5      4.287      9.993
REMARK SMILES CC(C)C[C@H](NC(=O)CNC(=O)[C@@H]([NH3+])C(C)C)C(=O)NCCCNC(=O)c1ccc(-c2c3nc(c(-c4ccc(S(=O)(=O)[O-])cc4)c4ccc([nH]4)c(-c4ccc(S(=O)(=O)[O-])cc4)c4nc(c(-c5ccc(S(=O)(=O)[O-])cc5)c5ccc2[nH]5)C=C4)C=C3)cc1
REMARK SMILES IDX 21 1 20 2 18 3 19 4 5 6 4 7 2 8 1 9 3 10 6 11 7 12 8 14 9 15
REMARK SMILES IDX 10 16 11 17 12 19 13 20 14 21 15 25 16 26 17 27 22 28 23 29
REMARK SMILES IDX 24 30 25 31 26 33 27 34 28 35 86 36 29 37 85 38 30 39 31 40
REMARK SMILES IDX 32 41 79 42 33 43 84 44 78 45 80 46 34 47 83 48 77 49 76 50
REMARK SMILES IDX 35 52 65 53 46 54 64 55 47 56 50 57 63 58 81 59 48 60 49 61
REMARK SMILES IDX 62 63 82 64 51 65 36 66 37 67 45 68 38 69 44 70 39 71 40 72
REMARK SMILES IDX 41 73 42 74 43 75 66 76 67 77 75 78 68 79 74 80 69 81 70 82
REMARK SMILES IDX 71 83 72 84 73 85 52 86 53 87 61 88 54 89 60 90 55 91 56 92
REMARK SMILES IDX 57 93 58 94 59 95
REMARK H PARENT 20 5 6 13 10 18 14 22 14 23 14 24 24 32 80 51 50 62
REMARK Flexibility Score: inf
ROOT
ATOM      1  C   UNL A   1      36.779  23.662  26.442  1.00  0.00     0.117 C 
ENDROOT
BRANCH   1   2
ATOM      2  N   UNL A   1      36.032  23.611  25.196  1.00  0.00    -0.354 N 
ATOM      3  C   UNL A   1      35.168  22.644  24.771  1.00  0.00     0.242 C 
ATOM      4  O   UNL A   1      34.636  22.756  23.666  1.00  0.00    -0.273 OA
ATOM      5  H   UNL A   1      36.166  24.368  24.582  1.00  0.00     0.163 HD
BRANCH   3   6
ATOM      6  C   UNL A   1      34.902  21.429  25.669  1.00  0.00     0.171 C 
BRANCH   6   7
ATOM      7  C   UNL A   1      34.511  20.163  24.893  1.00  0.00     0.038 C 
BRANCH   7   8
ATOM      8  C   UNL A   1      33.045  19.666  24.785  1.00  0.00    -0.015 C 
ATOM      9  C   UNL A   1      32.545  19.386  23.372  1.00  0.00     0.007 C 
ATOM     10  C   UNL A   1      32.873  18.395  25.631  1.00  0.00     0.007 C 
ENDBRANCH   7   8
ENDBRANCH   6   7
BRANCH   6  11
ATOM     11  N   UNL A   1      34.046  21.982  26.762  1.00  0.00    -0.343 N 
ATOM     12  C   UNL A   1      33.161  22.934  27.114  1.00  0.00     0.240 C 
ATOM     13  H   UNL A   1      34.188  21.415  27.554  1.00  0.00     0.164 HD
ATOM     14  O   UNL A   1      32.742  22.807  28.276  1.00  0.00    -0.273 OA
BRANCH  12  15
ATOM     15  C   UNL A   1      32.538  24.035  26.253  1.00  0.00     0.216 C 
BRANCH  15  16
ATOM     16  N   UNL A   1      31.203  24.476  26.593  1.00  0.00    -0.342 N 
ATOM     17  C   UNL A   1      30.369  25.403  26.056  1.00  0.00     0.278 C 
ATOM     18  H   UNL A   1      30.821  24.008  27.370  1.00  0.00     0.164 HD
ATOM     19  O   UNL A   1      29.244  25.452  26.571  1.00  0.00    -0.268 OA
BRANCH  17  20
ATOM     20  C   UNL A   1      30.771  26.437  24.961  1.00  0.00     0.273 C 
BRANCH  20  21
ATOM     21  N   UNL A   1      29.667  26.795  24.048  1.00  0.00    -0.347 N 
ATOM     22  H   UNL A   1      30.040  27.298  23.244  1.00  0.00     0.345 HD
ATOM     23  H   UNL A   1      28.997  27.387  24.540  1.00  0.00     0.345 HD
ATOM     24  H   UNL A   1      29.200  25.945  23.731  1.00  0.00     0.345 HD
ENDBRANCH  20  21
BRANCH  20  25
ATOM     25  C   UNL A   1      31.427  27.697  25.578  1.00  0.00     0.051 C 
ATOM     26  C   UNL A   1      32.952  27.542  25.694  1.00  0.00     0.014 C 
ATOM     27  C   UNL A   1      31.147  28.960  24.751  1.00  0.00     0.014 C 
ENDBRANCH  20  25
ENDBRANCH  17  20
ENDBRANCH  15  16
ENDBRANCH  12  15
ENDBRANCH   6  11
ENDBRANCH   3   6
ENDBRANCH   1   2
BRANCH   1  28
ATOM     28  C   UNL A   1      38.254  23.405  26.233  1.00  0.00     0.042 C 
BRANCH  28  29
ATOM     29  C   UNL A   1      39.101  24.607  26.610  1.00  0.00     0.118 C 
BRANCH  29  30
ATOM     30  N   UNL A   1      40.228  24.818  25.703  1.00  0.00    -0.352 N 
ATOM     31  C   UNL A   1      41.239  25.746  25.795  1.00  0.00     0.251 C 
ATOM     32  H   UNL A   1      40.269  24.217  24.926  1.00  0.00     0.163 HD
ATOM     33  O   UNL A   1      42.029  25.908  24.881  1.00  0.00    -0.269 OA
BRANCH  31  34
ATOM     34  C   UNL A   1      41.316  26.552  27.026  1.00  0.00     0.039 A 
ATOM     35  C   UNL A   1      41.923  27.806  26.983  1.00  0.00     0.014 A 
ATOM     36  C   UNL A   1      40.681  26.093  28.181  1.00  0.00     0.014 A 
ATOM     37  C   UNL A   1      41.822  28.642  28.095  1.00  0.00     0.010 A 
ATOM     38  C   UNL A   1      40.488  26.964  29.238  1.00  0.00     0.010 A 
ATOM     39  C   UNL A   1      41.066  28.243  29.210  1.00  0.00    -0.014 A 
BRANCH  39  40
ATOM     40  C   UNL A   1      40.871  29.131  30.378  1.00  0.00     0.031 A 
ATOM     41  C   UNL A   1      41.735  28.945  31.595  1.00  0.00     0.074 A 
ATOM     42  C   UNL A   1      39.866  30.029  30.377  1.00  0.00     0.049 A 
ATOM     43  N   UNL A   1      41.657  29.533  32.759  1.00  0.00    -0.248 NA
ATOM     44  C   UNL A   1      42.802  27.933  31.504  1.00  0.00     0.031 C 
ATOM     45  C   UNL A   1      38.927  30.257  29.274  1.00  0.00     0.029 A 
ATOM     46  N   UNL A   1      39.460  30.913  31.343  1.00  0.00    -0.354 N 
ATOM     47  C   UNL A   1      42.638  28.941  33.544  1.00  0.00     0.074 A 
ATOM     48  C   UNL A   1      43.259  27.909  32.746  1.00  0.00     0.031 C 
ATOM     49  C   UNL A   1      38.078  31.240  29.615  1.00  0.00     0.029 A 
ATOM     50  C   UNL A   1      38.382  31.681  30.971  1.00  0.00     0.049 A 
ATOM     51  H   UNL A   1      39.900  30.991  32.221  1.00  0.00     0.167 HD
ATOM     52  C   UNL A   1      43.008  29.247  34.809  1.00  0.00     0.031 A 
ATOM     53  C   UNL A   1      37.712  32.631  31.652  1.00  0.00     0.031 A 
ATOM     54  C   UNL A   1      42.408  30.300  35.581  1.00  0.00     0.049 A 
ATOM     55  C   UNL A   1      38.157  32.971  33.047  1.00  0.00     0.074 A 
ATOM     56  C   UNL A   1      42.751  30.744  36.844  1.00  0.00     0.029 A 
ATOM     57  N   UNL A   1      41.342  31.079  35.155  1.00  0.00    -0.354 N 
ATOM     58  N   UNL A   1      39.132  32.447  33.751  1.00  0.00    -0.248 NA
ATOM     59  C   UNL A   1      37.420  34.040  33.736  1.00  0.00     0.031 C 
ATOM     60  C   UNL A   1      41.865  31.765  37.199  1.00  0.00     0.029 A 
ATOM     61  C   UNL A   1      41.004  31.992  36.137  1.00  0.00     0.049 A 
ATOM     62  H   UNL A   1      40.893  30.995  34.282  1.00  0.00     0.167 HD
ATOM     63  C   UNL A   1      39.140  33.136  34.958  1.00  0.00     0.074 A 
ATOM     64  C   UNL A   1      38.084  34.126  34.880  1.00  0.00     0.031 C 
ATOM     65  C   UNL A   1      39.950  32.969  36.033  1.00  0.00     0.031 A 
BRANCH  52  66
ATOM     66  C   UNL A   1      44.114  28.434  35.424  1.00  0.00    -0.014 A 
ATOM     67  C   UNL A   1      43.835  27.257  36.143  1.00  0.00     0.010 A 
ATOM     68  C   UNL A   1      45.452  28.839  35.268  1.00  0.00     0.010 A 
ATOM     69  C   UNL A   1      44.868  26.527  36.735  1.00  0.00     0.020 A 
ATOM     70  C   UNL A   1      46.491  28.095  35.833  1.00  0.00     0.020 A 
ATOM     71  C   UNL A   1      46.190  26.953  36.579  1.00  0.00     0.054 A 
BRANCH  71  72
ATOM     72  S   UNL A   1      47.514  25.975  37.342  1.00  0.00     0.124 S 
ATOM     73  O   UNL A   1      48.104  26.939  38.268  1.00  0.00    -0.237 OA
ATOM     74  O   UNL A   1      46.782  24.874  37.963  1.00  0.00    -0.237 OA
ATOM     75  O   UNL A   1      48.361  25.599  36.213  1.00  0.00    -0.744 OA
ENDBRANCH  71  72
ENDBRANCH  52  66
BRANCH  53  76
ATOM     76  C   UNL A   1      36.573  33.342  31.012  1.00  0.00    -0.014 A 
ATOM     77  C   UNL A   1      35.341  33.457  31.681  1.00  0.00     0.010 A 
ATOM     78  C   UNL A   1      36.715  33.927  29.741  1.00  0.00     0.010 A 
ATOM     79  C   UNL A   1      34.268  34.124  31.085  1.00  0.00     0.020 A 
ATOM     80  C   UNL A   1      35.653  34.619  29.151  1.00  0.00     0.020 A 
ATOM     81  C   UNL A   1      34.431  34.703  29.822  1.00  0.00     0.054 A 
BRANCH  81  82
ATOM     82  S   UNL A   1      33.041  35.609  29.089  1.00  0.00     0.124 S 
ATOM     83  O   UNL A   1      32.277  36.000  30.270  1.00  0.00    -0.237 OA
ATOM     84  O   UNL A   1      33.710  36.696  28.379  1.00  0.00    -0.237 OA
ATOM     85  O   UNL A   1      32.402  34.616  28.229  1.00  0.00    -0.744 OA
ENDBRANCH  81  82
ENDBRANCH  53  76
BRANCH  65  86
ATOM     86  C   UNL A   1      39.747  33.894  37.200  1.00  0.00    -0.014 A 
ATOM     87  C   UNL A   1      40.315  35.179  37.215  1.00  0.00     0.010 A 
ATOM     88  C   UNL A   1      38.917  33.495  38.263  1.00  0.00     0.010 A 
ATOM     89  C   UNL A   1      40.076  36.041  38.286  1.00  0.00     0.020 A 
ATOM     90  C   UNL A   1      38.655  34.364  39.324  1.00  0.00     0.020 A 
ATOM     91  C   UNL A   1      39.246  35.629  39.334  1.00  0.00     0.054 A 
BRANCH  91  92
ATOM     92  S   UNL A   1      38.905  36.787  40.686  1.00  0.00     0.124 S 
ATOM     93  O   UNL A   1      38.030  35.999  41.549  1.00  0.00    -0.237 OA
ATOM     94  O   UNL A   1      40.238  37.056  41.222  1.00  0.00    -0.237 OA
ATOM     95  O   UNL A   1      38.269  37.921  40.019  1.00  0.00    -0.744 OA
ENDBRANCH  91  92
ENDBRANCH  65  86
ENDBRANCH  39  40
ENDBRANCH  31  34
ENDBRANCH  29  30
ENDBRANCH  28  29
ENDBRANCH   1  28
TORSDOF 21
ENDMDL
