MODEL 1
REMARK VINA RESULT:     -15.1      0.000      0.000
REMARK SMILES CC(C)[C@H]1C(=O)Nc2ccccc2N1C(=O)N[C@H](Cc1ccccc1)C(=O)NCCCNC(=O)c1ccc(-c2c3nc(c(-c4ccc(S(=O)(=O)[O-])cc4)c4ccc([nH]4)c(-c4ccc(S(=O)(=O)[O-])cc4)c4nc(c(-c5ccc(S(=O)(=O)[O-])cc5)c5ccc2[nH]5)C=C4)C=C3)cc1
REMARK SMILES IDX 30 1 29 2 28 3 26 4 27 5 18 7 17 8 15 9 16 10 14 12 4 13
REMARK SMILES IDX 5 14 6 15 7 16 13 17 8 18 12 20 9 21 11 22 10 23 2 24 1 25
REMARK SMILES IDX 3 26 19 27 20 28 21 29 25 30 22 31 24 32 23 33 31 34 32 35
REMARK SMILES IDX 33 36 34 38 35 39 36 40 94 41 37 42 93 43 38 44 39 45 40 46
REMARK SMILES IDX 87 47 41 48 92 49 86 50 88 51 42 52 91 53 85 54 84 55 43 57
REMARK SMILES IDX 73 58 54 59 72 60 55 61 58 62 71 63 89 64 56 65 57 66 70 68
REMARK SMILES IDX 90 69 59 70 44 71 45 72 53 73 46 74 52 75 47 76 48 77 49 78
REMARK SMILES IDX 50 79 51 80 74 81 75 82 83 83 76 84 82 85 77 86 78 87 79 88
REMARK SMILES IDX 80 89 81 90 60 91 61 92 69 93 62 94 68 95 63 96 64 97 65 98
REMARK SMILES IDX 66 99 67 100
REMARK H PARENT 28 6 17 11 7 19 32 37 88 56 58 67
REMARK Flexibility Score: inf
ROOT
ATOM      1  C   UNL A   1      34.213  29.047  27.494  1.00  0.00     0.042 C 
ENDROOT
BRANCH   1   2
ATOM      2  C   UNL A   1      33.887  27.387  26.130  1.00  0.00     0.117 C 
BRANCH   2   3
ATOM      3  N   UNL A   1      34.051  27.380  24.278  1.00  0.00    -0.354 N 
ATOM      4  C   UNL A   1      34.145  26.300  23.102  1.00  0.00     0.242 C 
ATOM      5  O   UNL A   1      33.909  26.721  21.961  1.00  0.00    -0.273 OA
ATOM      6  H   UNL A   1      34.091  28.298  23.921  1.00  0.00     0.163 HD
BRANCH   4   7
ATOM      7  C   UNL A   1      34.861  24.534  23.307  1.00  0.00     0.177 C 
BRANCH   7   8
ATOM      8  N   UNL A   1      34.059  22.973  22.697  1.00  0.00    -0.326 N 
ATOM      9  C   UNL A   1      32.533  22.255  22.752  1.00  0.00     0.323 C 
ATOM     10  O   UNL A   1      32.250  21.424  21.889  1.00  0.00    -0.248 OA
ATOM     11  H   UNL A   1      34.700  22.410  22.206  1.00  0.00     0.166 HD
BRANCH   9  12
ATOM     12  N   UNL A   1      31.415  22.942  23.764  1.00  0.00    -0.280 N 
ATOM     13  C   UNL A   1      30.937  22.109  25.328  1.00  0.00     0.184 C 
ATOM     14  C   UNL A   1      30.264  23.095  26.936  1.00  0.00     0.247 C 
ATOM     15  O   UNL A   1      29.986  22.615  28.031  1.00  0.00    -0.272 OA
ATOM     16  N   UNL A   1      29.999  24.847  26.570  1.00  0.00    -0.322 N 
ATOM     17  C   UNL A   1      31.007  24.658  23.648  1.00  0.00     0.070 A 
ATOM     18  C   UNL A   1      30.337  25.569  24.962  1.00  0.00     0.065 A 
ATOM     19  H   UNL A   1      29.655  25.430  27.284  1.00  0.00     0.170 HD
ATOM     20  C   UNL A   1      31.114  25.282  22.432  1.00  0.00     0.028 A 
ATOM     21  C   UNL A   1      29.701  26.760  24.696  1.00  0.00     0.028 A 
ATOM     22  C   UNL A   1      30.470  26.531  22.315  1.00  0.00     0.002 A 
ATOM     23  C   UNL A   1      29.743  27.194  23.364  1.00  0.00     0.002 A 
BRANCH  13  24
ATOM     24  C   UNL A   1      32.219  21.513  25.127  1.00  0.00     0.015 C 
ATOM     25  C   UNL A   1      33.056  22.382  26.368  1.00  0.00     0.010 C 
ATOM     26  C   UNL A   1      31.980  19.516  24.857  1.00  0.00     0.010 C 
ENDBRANCH  13  24
ENDBRANCH   9  12
ENDBRANCH   7   8
BRANCH   7  27
ATOM     27  C   UNL A   1      35.371  24.514  24.807  1.00  0.00     0.070 C 
BRANCH  27  28
ATOM     28  C   UNL A   1      36.484  23.637  25.308  1.00  0.00    -0.045 A 
ATOM     29  C   UNL A   1      37.497  24.232  26.093  1.00  0.00     0.004 A 
ATOM     30  C   UNL A   1      36.625  22.304  24.932  1.00  0.00     0.004 A 
ATOM     31  C   UNL A   1      38.625  23.515  26.483  1.00  0.00     0.000 A 
ATOM     32  C   UNL A   1      37.760  21.585  25.322  1.00  0.00     0.000 A 
ATOM     33  C   UNL A   1      38.759  22.190  26.089  1.00  0.00     0.000 A 
ENDBRANCH  27  28
ENDBRANCH   7  27
ENDBRANCH   4   7
ENDBRANCH   2   3
ENDBRANCH   1   2
BRANCH   1  34
ATOM     34  C   UNL A   1      35.416  30.304  27.510  1.00  0.00     0.118 C 
BRANCH  34  35
ATOM     35  N   UNL A   1      35.944  30.727  28.801  1.00  0.00    -0.352 N 
ATOM     36  C   UNL A   1      36.470  29.927  29.778  1.00  0.00     0.251 C 
ATOM     37  H   UNL A   1      35.920  31.693  28.991  1.00  0.00     0.163 HD
ATOM     38  O   UNL A   1      35.863  29.429  30.708  1.00  0.00    -0.269 OA
BRANCH  36  39
ATOM     39  C   UNL A   1      37.913  29.904  29.653  1.00  0.00     0.039 A 
ATOM     40  C   UNL A   1      38.660  29.533  30.771  1.00  0.00     0.014 A 
ATOM     41  C   UNL A   1      38.365  29.796  28.337  1.00  0.00     0.014 A 
ATOM     42  C   UNL A   1      39.917  29.009  30.551  1.00  0.00     0.010 A 
ATOM     43  C   UNL A   1      39.536  29.131  28.125  1.00  0.00     0.010 A 
ATOM     44  C   UNL A   1      40.333  28.796  29.230  1.00  0.00    -0.014 A 
BRANCH  44  45
ATOM     45  C   UNL A   1      41.692  28.376  28.905  1.00  0.00     0.031 A 
ATOM     46  C   UNL A   1      42.727  29.457  28.900  1.00  0.00     0.074 A 
ATOM     47  C   UNL A   1      41.899  27.124  28.474  1.00  0.00     0.049 A 
ATOM     48  N   UNL A   1      43.921  29.447  28.388  1.00  0.00    -0.248 NA
ATOM     49  C   UNL A   1      42.314  30.768  29.448  1.00  0.00     0.031 C 
ATOM     50  C   UNL A   1      40.889  26.064  28.396  1.00  0.00     0.029 A 
ATOM     51  N   UNL A   1      43.036  26.545  27.997  1.00  0.00    -0.354 N 
ATOM     52  C   UNL A   1      44.367  30.758  28.493  1.00  0.00     0.074 A 
ATOM     53  C   UNL A   1      43.286  31.552  29.019  1.00  0.00     0.031 C 
ATOM     54  C   UNL A   1      41.467  24.947  27.924  1.00  0.00     0.029 A 
ATOM     55  C   UNL A   1      42.865  25.234  27.630  1.00  0.00     0.049 A 
ATOM     56  H   UNL A   1      43.895  27.020  27.923  1.00  0.00     0.167 HD
ATOM     57  C   UNL A   1      45.597  31.235  28.210  1.00  0.00     0.031 A 
ATOM     58  C   UNL A   1      43.763  24.383  27.110  1.00  0.00     0.031 A 
ATOM     59  C   UNL A   1      46.651  30.372  27.760  1.00  0.00     0.049 A 
ATOM     60  C   UNL A   1      45.156  24.905  26.894  1.00  0.00     0.074 A 
ATOM     61  C   UNL A   1      47.978  30.668  27.539  1.00  0.00     0.029 A 
ATOM     62  N   UNL A   1      46.479  29.019  27.489  1.00  0.00    -0.354 N 
ATOM     63  N   UNL A   1      45.610  26.128  27.064  1.00  0.00    -0.248 NA
ATOM     64  C   UNL A   1      46.160  23.942  26.440  1.00  0.00     0.031 C 
ATOM     65  C   UNL A   1      48.602  29.499  27.091  1.00  0.00     0.029 A 
ATOM     66  C   UNL A   1      47.675  28.463  27.089  1.00  0.00     0.049 A 
ATOM     67  H   UNL A   1      45.628  28.531  27.569  1.00  0.00     0.167 HD
ATOM     68  C   UNL A   1      46.961  26.080  26.757  1.00  0.00     0.074 A 
ATOM     69  C   UNL A   1      47.249  24.698  26.412  1.00  0.00     0.031 C 
ATOM     70  C   UNL A   1      47.886  27.074  26.753  1.00  0.00     0.031 A 
BRANCH  57  71
ATOM     71  C   UNL A   1      45.834  32.710  28.401  1.00  0.00    -0.014 A 
ATOM     72  C   UNL A   1      45.631  33.630  27.353  1.00  0.00     0.010 A 
ATOM     73  C   UNL A   1      46.299  33.186  29.639  1.00  0.00     0.010 A 
ATOM     74  C   UNL A   1      45.950  34.980  27.517  1.00  0.00     0.020 A 
ATOM     75  C   UNL A   1      46.580  34.545  29.821  1.00  0.00     0.020 A 
ATOM     76  C   UNL A   1      46.424  35.429  28.752  1.00  0.00     0.054 A 
BRANCH  76  77
ATOM     77  S   UNL A   1      46.808  37.191  28.945  1.00  0.00     0.124 S 
ATOM     78  O   UNL A   1      45.514  37.813  28.673  1.00  0.00    -0.237 OA
ATOM     79  O   UNL A   1      47.260  37.267  30.332  1.00  0.00    -0.237 OA
ATOM     80  O   UNL A   1      47.840  37.433  27.941  1.00  0.00    -0.744 OA
ENDBRANCH  76  77
ENDBRANCH  57  71
BRANCH  58  81
ATOM     81  C   UNL A   1      43.373  22.975  26.842  1.00  0.00    -0.014 A 
ATOM     82  C   UNL A   1      43.668  22.384  25.602  1.00  0.00     0.010 A 
ATOM     83  C   UNL A   1      42.792  22.187  27.853  1.00  0.00     0.010 A 
ATOM     84  C   UNL A   1      43.385  21.034  25.374  1.00  0.00     0.020 A 
ATOM     85  C   UNL A   1      42.530  20.830  27.638  1.00  0.00     0.020 A 
ATOM     86  C   UNL A   1      42.824  20.264  26.396  1.00  0.00     0.054 A 
BRANCH  86  87
ATOM     87  S   UNL A   1      42.538  18.497  26.098  1.00  0.00     0.124 S 
ATOM     88  O   UNL A   1      42.875  17.911  27.390  1.00  0.00    -0.237 OA
ATOM     89  O   UNL A   1      41.123  18.465  25.737  1.00  0.00    -0.237 OA
ATOM     90  O   UNL A   1      43.458  18.181  25.007  1.00  0.00    -0.744 OA
ENDBRANCH  86  87
ENDBRANCH  58  81
BRANCH  70  91
ATOM     91  C   UNL A   1      49.285  26.684  26.379  1.00  0.00    -0.014 A 
ATOM     92  C   UNL A   1      50.165  26.156  27.339  1.00  0.00     0.010 A 
ATOM     93  C   UNL A   1      49.692  26.783  25.037  1.00  0.00     0.010 A 
ATOM     94  C   UNL A   1      51.449  25.764  26.965  1.00  0.00     0.020 A 
ATOM     95  C   UNL A   1      50.963  26.360  24.654  1.00  0.00     0.020 A 
ATOM     96  C   UNL A   1      51.837  25.866  25.625  1.00  0.00     0.054 A 
BRANCH  96  97
ATOM     97  S   UNL A   1      53.496  25.306  25.160  1.00  0.00     0.124 S 
ATOM     98  O   UNL A   1      53.600  25.782  23.784  1.00  0.00    -0.237 OA
ATOM     99  O   UNL A   1      54.346  25.990  26.130  1.00  0.00    -0.237 OA
ATOM    100  O   UNL A   1      53.426  23.855  25.314  1.00  0.00    -0.744 OA
ENDBRANCH  96  97
ENDBRANCH  70  91
ENDBRANCH  44  45
ENDBRANCH  36  39
ENDBRANCH  34  35
ENDBRANCH   1  34
TORSDOF 18
ENDMDL
MODEL 2
REMARK VINA RESULT:     -14.7      6.438     11.044
REMARK SMILES CC(C)[C@H]1C(=O)Nc2ccccc2N1C(=O)N[C@H](Cc1ccccc1)C(=O)NCCCNC(=O)c1ccc(-c2c3nc(c(-c4ccc(S(=O)(=O)[O-])cc4)c4ccc([nH]4)c(-c4ccc(S(=O)(=O)[O-])cc4)c4nc(c(-c5ccc(S(=O)(=O)[O-])cc5)c5ccc2[nH]5)C=C4)C=C3)cc1
REMARK SMILES IDX 30 1 29 2 28 3 26 4 27 5 18 7 17 8 15 9 16 10 14 12 4 13
REMARK SMILES IDX 5 14 6 15 7 16 13 17 8 18 12 20 9 21 11 22 10 23 2 24 1 25
REMARK SMILES IDX 3 26 19 27 20 28 21 29 25 30 22 31 24 32 23 33 31 34 32 35
REMARK SMILES IDX 33 36 34 38 35 39 36 40 94 41 37 42 93 43 38 44 39 45 40 46
REMARK SMILES IDX 87 47 41 48 92 49 86 50 88 51 42 52 91 53 85 54 84 55 43 57
REMARK SMILES IDX 73 58 54 59 72 60 55 61 58 62 71 63 89 64 56 65 57 66 70 68
REMARK SMILES IDX 90 69 59 70 44 71 45 72 53 73 46 74 52 75 47 76 48 77 49 78
REMARK SMILES IDX 50 79 51 80 74 81 75 82 83 83 76 84 82 85 77 86 78 87 79 88
REMARK SMILES IDX 80 89 81 90 60 91 61 92 69 93 62 94 68 95 63 96 64 97 65 98
REMARK SMILES IDX 66 99 67 100
REMARK H PARENT 28 6 17 11 7 19 32 37 88 56 58 67
REMARK Flexibility Score: inf
ROOT
ATOM      1  C   UNL A   1      34.877  32.357  28.162  1.00  0.00     0.042 C 
ENDROOT
BRANCH   1   2
ATOM      2  C   UNL A   1      34.244  30.511  27.205  1.00  0.00     0.117 C 
BRANCH   2   3
ATOM      3  N   UNL A   1      32.798  29.431  27.649  1.00  0.00    -0.354 N 
ATOM      4  C   UNL A   1      31.842  28.375  26.921  1.00  0.00     0.242 C 
ATOM      5  O   UNL A   1      31.202  27.622  27.667  1.00  0.00    -0.273 OA
ATOM      6  H   UNL A   1      32.552  29.538  28.597  1.00  0.00     0.163 HD
BRANCH   4   7
ATOM      7  C   UNL A   1      31.421  28.403  25.052  1.00  0.00     0.177 C 
BRANCH   7   8
ATOM      8  N   UNL A   1      32.406  27.567  23.717  1.00  0.00    -0.326 N 
ATOM      9  C   UNL A   1      32.971  26.015  23.375  1.00  0.00     0.323 C 
ATOM     10  O   UNL A   1      33.229  25.734  22.204  1.00  0.00    -0.248 OA
ATOM     11  H   UNL A   1      32.672  28.206  23.016  1.00  0.00     0.166 HD
BRANCH   9  12
ATOM     12  N   UNL A   1      32.840  24.885  24.580  1.00  0.00    -0.280 N 
ATOM     13  C   UNL A   1      31.193  24.407  25.233  1.00  0.00     0.184 C 
ATOM     14  C   UNL A   1      30.814  22.618  26.051  1.00  0.00     0.247 C 
ATOM     15  O   UNL A   1      29.729  22.206  26.451  1.00  0.00    -0.272 OA
ATOM     16  N   UNL A   1      32.329  21.648  26.244  1.00  0.00    -0.322 N 
ATOM     17  C   UNL A   1      34.166  23.774  24.942  1.00  0.00     0.070 A 
ATOM     18  C   UNL A   1      33.942  22.246  25.728  1.00  0.00     0.065 A 
ATOM     19  H   UNL A   1      32.268  20.754  26.651  1.00  0.00     0.170 HD
ATOM     20  C   UNL A   1      35.453  24.179  24.698  1.00  0.00     0.028 A 
ATOM     21  C   UNL A   1      35.023  21.627  26.311  1.00  0.00     0.028 A 
ATOM     22  C   UNL A   1      36.472  23.415  25.303  1.00  0.00     0.002 A 
ATOM     23  C   UNL A   1      36.263  22.252  26.122  1.00  0.00     0.002 A 
BRANCH  13  24
ATOM     24  C   UNL A   1      30.803  24.892  23.948  1.00  0.00     0.015 C 
ATOM     25  C   UNL A   1      30.850  23.373  23.121  1.00  0.00     0.010 C 
ATOM     26  C   UNL A   1      29.280  26.214  24.181  1.00  0.00     0.010 C 
ENDBRANCH  13  24
ENDBRANCH   9  12
ENDBRANCH   7   8
BRANCH   7  27
ATOM     27  C   UNL A   1      31.028  29.915  24.784  1.00  0.00     0.070 C 
BRANCH  27  28
ATOM     28  C   UNL A   1      29.924  30.349  23.861  1.00  0.00    -0.045 A 
ATOM     29  C   UNL A   1      29.151  31.473  24.232  1.00  0.00     0.004 A 
ATOM     30  C   UNL A   1      29.553  29.625  22.732  1.00  0.00     0.004 A 
ATOM     31  C   UNL A   1      28.033  31.856  23.497  1.00  0.00     0.000 A 
ATOM     32  C   UNL A   1      28.426  30.009  21.996  1.00  0.00     0.000 A 
ATOM     33  C   UNL A   1      27.666  31.116  22.381  1.00  0.00     0.000 A 
ENDBRANCH  27  28
ENDBRANCH   7  27
ENDBRANCH   4   7
ENDBRANCH   2   3
ENDBRANCH   1   2
BRANCH   1  34
ATOM     34  C   UNL A   1      34.419  34.012  27.886  1.00  0.00     0.118 C 
BRANCH  34  35
ATOM     35  N   UNL A   1      34.321  34.896  29.041  1.00  0.00    -0.352 N 
ATOM     36  C   UNL A   1      33.650  34.654  30.208  1.00  0.00     0.251 C 
ATOM     37  H   UNL A   1      34.788  35.761  28.974  1.00  0.00     0.163 HD
ATOM     38  O   UNL A   1      32.498  34.959  30.456  1.00  0.00    -0.269 OA
BRANCH  36  39
ATOM     39  C   UNL A   1      34.576  34.137  31.194  1.00  0.00     0.039 A 
ATOM     40  C   UNL A   1      34.575  32.763  31.436  1.00  0.00     0.014 A 
ATOM     41  C   UNL A   1      35.664  34.975  31.443  1.00  0.00     0.014 A 
ATOM     42  C   UNL A   1      35.733  32.202  31.933  1.00  0.00     0.010 A 
ATOM     43  C   UNL A   1      36.848  34.389  31.780  1.00  0.00     0.010 A 
ATOM     44  C   UNL A   1      36.863  33.019  32.082  1.00  0.00    -0.014 A 
BRANCH  44  45
ATOM     45  C   UNL A   1      38.082  32.543  32.725  1.00  0.00     0.031 A 
ATOM     46  C   UNL A   1      38.860  31.512  31.969  1.00  0.00     0.074 A 
ATOM     47  C   UNL A   1      38.338  32.912  33.988  1.00  0.00     0.049 A 
ATOM     48  N   UNL A   1      39.796  30.717  32.393  1.00  0.00    -0.248 NA
ATOM     49  C   UNL A   1      38.444  31.265  30.571  1.00  0.00     0.031 C 
ATOM     50  C   UNL A   1      37.551  33.863  34.781  1.00  0.00     0.029 A 
ATOM     51  N   UNL A   1      39.327  32.505  34.831  1.00  0.00    -0.354 N 
ATOM     52  C   UNL A   1      40.027  29.841  31.340  1.00  0.00     0.074 A 
ATOM     53  C   UNL A   1      39.070  30.133  30.304  1.00  0.00     0.031 C 
ATOM     54  C   UNL A   1      38.115  33.987  35.994  1.00  0.00     0.029 A 
ATOM     55  C   UNL A   1      39.264  33.094  36.068  1.00  0.00     0.049 A 
ATOM     56  H   UNL A   1      40.020  31.853  34.576  1.00  0.00     0.167 HD
ATOM     57  C   UNL A   1      40.993  28.904  31.245  1.00  0.00     0.031 A 
ATOM     58  C   UNL A   1      40.062  32.907  37.130  1.00  0.00     0.031 A 
ATOM     59  C   UNL A   1      41.962  28.716  32.286  1.00  0.00     0.049 A 
ATOM     60  C   UNL A   1      41.194  31.930  36.972  1.00  0.00     0.074 A 
ATOM     61  C   UNL A   1      43.068  27.896  32.303  1.00  0.00     0.029 A 
ATOM     62  N   UNL A   1      41.936  29.399  33.498  1.00  0.00    -0.354 N 
ATOM     63  N   UNL A   1      41.468  31.150  35.948  1.00  0.00    -0.248 NA
ATOM     64  C   UNL A   1      42.132  31.818  38.090  1.00  0.00     0.031 C 
ATOM     65  C   UNL A   1      43.691  28.051  33.546  1.00  0.00     0.029 A 
ATOM     66  C   UNL A   1      43.003  29.011  34.279  1.00  0.00     0.049 A 
ATOM     67  H   UNL A   1      41.256  30.060  33.759  1.00  0.00     0.167 HD
ATOM     68  C   UNL A   1      42.625  30.466  36.288  1.00  0.00     0.074 A 
ATOM     69  C   UNL A   1      43.006  30.945  37.607  1.00  0.00     0.031 C 
ATOM     70  C   UNL A   1      43.316  29.528  35.591  1.00  0.00     0.031 A 
BRANCH  57  71
ATOM     71  C   UNL A   1      41.031  28.068  29.993  1.00  0.00    -0.014 A 
ATOM     72  C   UNL A   1      40.098  27.036  29.768  1.00  0.00     0.010 A 
ATOM     73  C   UNL A   1      42.037  28.291  29.037  1.00  0.00     0.010 A 
ATOM     74  C   UNL A   1      40.208  26.206  28.650  1.00  0.00     0.020 A 
ATOM     75  C   UNL A   1      42.126  27.488  27.894  1.00  0.00     0.020 A 
ATOM     76  C   UNL A   1      41.223  26.437  27.720  1.00  0.00     0.054 A 
BRANCH  76  77
ATOM     77  S   UNL A   1      41.329  25.359  26.265  1.00  0.00     0.124 S 
ATOM     78  O   UNL A   1      41.541  26.324  25.189  1.00  0.00    -0.237 OA
ATOM     79  O   UNL A   1      42.477  24.512  26.580  1.00  0.00    -0.237 OA
ATOM     80  O   UNL A   1      40.039  24.675  26.245  1.00  0.00    -0.744 OA
ENDBRANCH  76  77
ENDBRANCH  57  71
BRANCH  58  81
ATOM     81  C   UNL A   1      39.844  33.704  38.364  1.00  0.00    -0.014 A 
ATOM     82  C   UNL A   1      38.926  33.268  39.333  1.00  0.00     0.010 A 
ATOM     83  C   UNL A   1      40.620  34.850  38.624  1.00  0.00     0.010 A 
ATOM     84  C   UNL A   1      38.781  33.964  40.538  1.00  0.00     0.020 A 
ATOM     85  C   UNL A   1      40.495  35.534  39.837  1.00  0.00     0.020 A 
ATOM     86  C   UNL A   1      39.572  35.089  40.785  1.00  0.00     0.054 A 
BRANCH  86  87
ATOM     87  S   UNL A   1      39.417  35.928  42.386  1.00  0.00     0.124 S 
ATOM     88  O   UNL A   1      39.627  37.324  42.020  1.00  0.00    -0.237 OA
ATOM     89  O   UNL A   1      38.058  35.577  42.794  1.00  0.00    -0.237 OA
ATOM     90  O   UNL A   1      40.476  35.325  43.192  1.00  0.00    -0.744 OA
ENDBRANCH  86  87
ENDBRANCH  58  81
BRANCH  70  91
ATOM     91  C   UNL A   1      44.553  28.985  36.244  1.00  0.00    -0.014 A 
ATOM     92  C   UNL A   1      44.495  27.836  37.050  1.00  0.00     0.010 A 
ATOM     93  C   UNL A   1      45.792  29.596  35.985  1.00  0.00     0.010 A 
ATOM     94  C   UNL A   1      45.661  27.325  37.617  1.00  0.00     0.020 A 
ATOM     95  C   UNL A   1      46.964  29.067  36.522  1.00  0.00     0.020 A 
ATOM     96  C   UNL A   1      46.887  27.943  37.347  1.00  0.00     0.054 A 
BRANCH  96  97
ATOM     97  S   UNL A   1      48.391  27.229  38.061  1.00  0.00     0.124 S 
ATOM     98  O   UNL A   1      48.229  27.541  39.478  1.00  0.00    -0.237 OA
ATOM     99  O   UNL A   1      48.270  25.817  37.709  1.00  0.00    -0.237 OA
ATOM    100  O   UNL A   1      49.468  27.946  37.383  1.00  0.00    -0.744 OA
ENDBRANCH  96  97
ENDBRANCH  70  91
ENDBRANCH  44  45
ENDBRANCH  36  39
ENDBRANCH  34  35
ENDBRANCH   1  34
TORSDOF 18
ENDMDL
MODEL 3
REMARK VINA RESULT:     -14.7      6.440     10.264
REMARK SMILES CC(C)[C@H]1C(=O)Nc2ccccc2N1C(=O)N[C@H](Cc1ccccc1)C(=O)NCCCNC(=O)c1ccc(-c2c3nc(c(-c4ccc(S(=O)(=O)[O-])cc4)c4ccc([nH]4)c(-c4ccc(S(=O)(=O)[O-])cc4)c4nc(c(-c5ccc(S(=O)(=O)[O-])cc5)c5ccc2[nH]5)C=C4)C=C3)cc1
REMARK SMILES IDX 30 1 29 2 28 3 26 4 27 5 18 7 17 8 15 9 16 10 14 12 4 13
REMARK SMILES IDX 5 14 6 15 7 16 13 17 8 18 12 20 9 21 11 22 10 23 2 24 1 25
REMARK SMILES IDX 3 26 19 27 20 28 21 29 25 30 22 31 24 32 23 33 31 34 32 35
REMARK SMILES IDX 33 36 34 38 35 39 36 40 94 41 37 42 93 43 38 44 39 45 40 46
REMARK SMILES IDX 87 47 41 48 92 49 86 50 88 51 42 52 91 53 85 54 84 55 43 57
REMARK SMILES IDX 73 58 54 59 72 60 55 61 58 62 71 63 89 64 56 65 57 66 70 68
REMARK SMILES IDX 90 69 59 70 44 71 45 72 53 73 46 74 52 75 47 76 48 77 49 78
REMARK SMILES IDX 50 79 51 80 74 81 75 82 83 83 76 84 82 85 77 86 78 87 79 88
REMARK SMILES IDX 80 89 81 90 60 91 61 92 69 93 62 94 68 95 63 96 64 97 65 98
REMARK SMILES IDX 66 99 67 100
REMARK H PARENT 28 6 17 11 7 19 32 37 88 56 58 67
REMARK Flexibility Score: inf
ROOT
ATOM      1  C   UNL A   1      33.370  33.471  28.191  1.00  0.00     0.042 C 
ENDROOT
BRANCH   1   2
ATOM      2  C   UNL A   1      31.779  32.940  26.809  1.00  0.00     0.117 C 
BRANCH   2   3
ATOM      3  N   UNL A   1      31.263  31.241  26.258  1.00  0.00    -0.354 N 
ATOM      4  C   UNL A   1      31.945  29.812  26.031  1.00  0.00     0.242 C 
ATOM      5  O   UNL A   1      31.172  28.848  25.974  1.00  0.00    -0.273 OA
ATOM      6  H   UNL A   1      30.301  31.213  26.049  1.00  0.00     0.163 HD
BRANCH   4   7
ATOM      7  C   UNL A   1      33.786  29.553  25.563  1.00  0.00     0.177 C 
BRANCH   7   8
ATOM      8  N   UNL A   1      34.394  28.810  23.973  1.00  0.00    -0.326 N 
ATOM      9  C   UNL A   1      33.775  27.849  22.733  1.00  0.00     0.323 C 
ATOM     10  O   UNL A   1      34.325  27.894  21.631  1.00  0.00    -0.248 OA
ATOM     11  H   UNL A   1      35.337  29.041  23.808  1.00  0.00     0.166 HD
BRANCH   9  12
ATOM     12  N   UNL A   1      32.292  27.156  22.987  1.00  0.00    -0.280 N 
ATOM     13  C   UNL A   1      32.159  25.494  23.755  1.00  0.00     0.184 C 
ATOM     14  C   UNL A   1      30.558  24.892  24.799  1.00  0.00     0.247 C 
ATOM     15  O   UNL A   1      30.425  23.825  25.390  1.00  0.00    -0.272 OA
ATOM     16  N   UNL A   1      29.216  26.100  24.700  1.00  0.00    -0.322 N 
ATOM     17  C   UNL A   1      30.815  28.127  22.990  1.00  0.00     0.070 A 
ATOM     18  C   UNL A   1      29.356  27.642  23.791  1.00  0.00     0.065 A 
ATOM     19  H   UNL A   1      28.370  25.904  25.164  1.00  0.00     0.170 HD
ATOM     20  C   UNL A   1      30.773  29.268  22.230  1.00  0.00     0.028 A 
ATOM     21  C   UNL A   1      28.168  28.238  23.438  1.00  0.00     0.028 A 
ATOM     22  C   UNL A   1      29.494  29.815  21.999  1.00  0.00     0.002 A 
ATOM     23  C   UNL A   1      28.259  29.287  22.512  1.00  0.00     0.002 A 
BRANCH  13  24
ATOM     24  C   UNL A   1      33.443  25.878  24.248  1.00  0.00     0.015 C 
ATOM     25  C   UNL A   1      32.983  26.096  25.902  1.00  0.00     0.010 C 
ATOM     26  C   UNL A   1      34.850  24.667  23.425  1.00  0.00     0.010 C 
ENDBRANCH  13  24
ENDBRANCH   9  12
ENDBRANCH   7   8
BRANCH   7  27
ATOM     27  C   UNL A   1      34.427  28.975  26.892  1.00  0.00     0.070 C 
BRANCH  27  28
ATOM     28  C   UNL A   1      35.561  29.625  27.634  1.00  0.00    -0.045 A 
ATOM     29  C   UNL A   1      35.509  31.022  27.836  1.00  0.00     0.004 A 
ATOM     30  C   UNL A   1      36.708  28.935  28.017  1.00  0.00     0.004 A 
ATOM     31  C   UNL A   1      36.580  31.712  28.398  1.00  0.00     0.000 A 
ATOM     32  C   UNL A   1      37.785  29.630  28.578  1.00  0.00     0.000 A 
ATOM     33  C   UNL A   1      37.724  31.014  28.761  1.00  0.00     0.000 A 
ENDBRANCH  27  28
ENDBRANCH   7  27
ENDBRANCH   4   7
ENDBRANCH   2   3
ENDBRANCH   1   2
BRANCH   1  34
ATOM     34  C   UNL A   1      34.169  34.985  28.499  1.00  0.00     0.118 C 
BRANCH  34  35
ATOM     35  N   UNL A   1      34.016  35.583  29.820  1.00  0.00    -0.352 N 
ATOM     36  C   UNL A   1      33.420  35.019  30.914  1.00  0.00     0.251 C 
ATOM     37  H   UNL A   1      34.379  36.490  29.937  1.00  0.00     0.163 HD
ATOM     38  O   UNL A   1      32.251  35.126  31.236  1.00  0.00    -0.269 OA
BRANCH  36  39
ATOM     39  C   UNL A   1      34.434  34.414  31.753  1.00  0.00     0.039 A 
ATOM     40  C   UNL A   1      34.763  33.079  31.522  1.00  0.00     0.014 A 
ATOM     41  C   UNL A   1      35.285  35.336  32.366  1.00  0.00     0.014 A 
ATOM     42  C   UNL A   1      36.018  32.656  31.909  1.00  0.00     0.010 A 
ATOM     43  C   UNL A   1      36.571  34.952  32.596  1.00  0.00     0.010 A 
ATOM     44  C   UNL A   1      36.915  33.602  32.425  1.00  0.00    -0.014 A 
BRANCH  44  45
ATOM     45  C   UNL A   1      38.207  33.219  32.983  1.00  0.00     0.031 A 
ATOM     46  C   UNL A   1      38.269  33.116  34.475  1.00  0.00     0.074 A 
ATOM     47  C   UNL A   1      39.272  33.153  32.173  1.00  0.00     0.049 A 
ATOM     48  N   UNL A   1      39.310  33.079  35.252  1.00  0.00    -0.248 NA
ATOM     49  C   UNL A   1      36.978  33.179  35.196  1.00  0.00     0.031 C 
ATOM     50  C   UNL A   1      39.255  33.325  30.716  1.00  0.00     0.029 A 
ATOM     51  N   UNL A   1      40.584  32.947  32.474  1.00  0.00    -0.354 N 
ATOM     52  C   UNL A   1      38.800  33.182  36.540  1.00  0.00     0.074 A 
ATOM     53  C   UNL A   1      37.378  33.386  36.437  1.00  0.00     0.031 C 
ATOM     54  C   UNL A   1      40.506  33.184  30.248  1.00  0.00     0.029 A 
ATOM     55  C   UNL A   1      41.403  32.960  31.374  1.00  0.00     0.049 A 
ATOM     56  H   UNL A   1      40.912  32.801  33.391  1.00  0.00     0.167 HD
ATOM     57  C   UNL A   1      39.473  33.070  37.704  1.00  0.00     0.031 A 
ATOM     58  C   UNL A   1      42.735  32.809  31.315  1.00  0.00     0.031 A 
ATOM     59  C   UNL A   1      40.880  32.793  37.733  1.00  0.00     0.049 A 
ATOM     60  C   UNL A   1      43.457  32.587  32.615  1.00  0.00     0.074 A 
ATOM     61  C   UNL A   1      41.691  32.537  38.817  1.00  0.00     0.029 A 
ATOM     62  N   UNL A   1      41.676  32.712  36.595  1.00  0.00    -0.354 N 
ATOM     63  N   UNL A   1      42.970  32.606  33.838  1.00  0.00    -0.248 NA
ATOM     64  C   UNL A   1      44.890  32.304  32.536  1.00  0.00     0.031 C 
ATOM     65  C   UNL A   1      42.990  32.342  38.337  1.00  0.00     0.029 A 
ATOM     66  C   UNL A   1      42.976  32.420  36.949  1.00  0.00     0.049 A 
ATOM     67  H   UNL A   1      41.358  32.845  35.673  1.00  0.00     0.167 HD
ATOM     68  C   UNL A   1      44.035  32.317  34.677  1.00  0.00     0.074 A 
ATOM     69  C   UNL A   1      45.186  32.107  33.814  1.00  0.00     0.031 C 
ATOM     70  C   UNL A   1      44.075  32.232  36.032  1.00  0.00     0.031 A 
BRANCH  57  71
ATOM     71  C   UNL A   1      38.689  33.230  38.980  1.00  0.00    -0.014 A 
ATOM     72  C   UNL A   1      37.772  32.250  39.408  1.00  0.00     0.010 A 
ATOM     73  C   UNL A   1      38.844  34.395  39.752  1.00  0.00     0.010 A 
ATOM     74  C   UNL A   1      36.982  32.458  40.541  1.00  0.00     0.020 A 
ATOM     75  C   UNL A   1      38.085  34.590  40.910  1.00  0.00     0.020 A 
ATOM     76  C   UNL A   1      37.143  33.629  41.285  1.00  0.00     0.054 A 
BRANCH  76  77
ATOM     77  S   UNL A   1      36.120  33.865  42.764  1.00  0.00     0.124 S 
ATOM     78  O   UNL A   1      34.799  34.097  42.184  1.00  0.00    -0.237 OA
ATOM     79  O   UNL A   1      36.280  32.594  43.466  1.00  0.00    -0.237 OA
ATOM     80  O   UNL A   1      36.724  35.019  43.423  1.00  0.00    -0.744 OA
ENDBRANCH  76  77
ENDBRANCH  57  71
BRANCH  58  81
ATOM     81  C   UNL A   1      43.417  32.798  29.996  1.00  0.00    -0.014 A 
ATOM     82  C   UNL A   1      43.560  31.594  29.286  1.00  0.00     0.010 A 
ATOM     83  C   UNL A   1      43.841  33.999  29.397  1.00  0.00     0.010 A 
ATOM     84  C   UNL A   1      44.119  31.588  28.004  1.00  0.00     0.020 A 
ATOM     85  C   UNL A   1      44.378  34.001  28.106  1.00  0.00     0.020 A 
ATOM     86  C   UNL A   1      44.518  32.793  27.419  1.00  0.00     0.054 A 
BRANCH  86  87
ATOM     87  S   UNL A   1      45.170  32.766  25.726  1.00  0.00     0.124 S 
ATOM     88  O   UNL A   1      46.081  33.905  25.731  1.00  0.00    -0.237 OA
ATOM     89  O   UNL A   1      45.800  31.450  25.654  1.00  0.00    -0.237 OA
ATOM     90  O   UNL A   1      43.977  32.922  24.897  1.00  0.00    -0.744 OA
ENDBRANCH  86  87
ENDBRANCH  58  81
BRANCH  70  91
ATOM     91  C   UNL A   1      45.400  31.884  36.641  1.00  0.00    -0.014 A 
ATOM     92  C   UNL A   1      46.281  32.889  37.071  1.00  0.00     0.010 A 
ATOM     93  C   UNL A   1      45.728  30.532  36.848  1.00  0.00     0.010 A 
ATOM     94  C   UNL A   1      47.492  32.546  37.669  1.00  0.00     0.020 A 
ATOM     95  C   UNL A   1      46.922  30.186  37.477  1.00  0.00     0.020 A 
ATOM     96  C   UNL A   1      47.802  31.197  37.871  1.00  0.00     0.054 A 
BRANCH  96  97
ATOM     97  S   UNL A   1      49.361  30.780  38.693  1.00  0.00     0.124 S 
ATOM     98  O   UNL A   1      49.059  29.473  39.268  1.00  0.00    -0.237 OA
ATOM     99  O   UNL A   1      50.313  30.776  37.585  1.00  0.00    -0.237 OA
ATOM    100  O   UNL A   1      49.542  31.861  39.659  1.00  0.00    -0.744 OA
ENDBRANCH  96  97
ENDBRANCH  70  91
ENDBRANCH  44  45
ENDBRANCH  36  39
ENDBRANCH  34  35
ENDBRANCH   1  34
TORSDOF 18
ENDMDL
