MODEL 1
REMARK VINA RESULT:     -10.6      0.000      0.000
REMARK SMILES O=C(CSc1ccnc(C(=O)NCCCNC(=O)c2ccc(-c3c4nc(c(-c5ccc(S(=O)(=O)[O-])cc5)c5ccc([nH]5)c(-c5ccc(S(=O)(=O)[O-])cc5)c5nc(c(-c6ccc(S(=O)(=O)[O-])cc6)c6ccc3[nH]6)C=C5)C=C4)cc2)c1)NCC(F)(F)F
REMARK SMILES IDX 13 1 12 2 10 3 11 4 9 6 5 7 6 8 79 9 7 10 8 11 4 12 3 13
REMARK SMILES IDX 2 14 1 15 80 16 81 18 82 19 83 20 84 21 85 22 14 23 15 24
REMARK SMILES IDX 16 25 17 26 18 28 19 29 20 30 78 31 21 32 77 33 22 34 23 35
REMARK SMILES IDX 24 36 71 37 25 38 76 39 70 40 72 41 26 42 75 43 69 44 68 45
REMARK SMILES IDX 27 47 57 48 38 49 56 50 39 51 42 52 55 53 73 54 40 55 41 56
REMARK SMILES IDX 54 58 74 59 43 60 28 61 29 62 37 63 30 64 36 65 31 66 32 67
REMARK SMILES IDX 33 68 34 69 35 70 58 71 59 72 67 73 60 74 66 75 61 76 62 77
REMARK SMILES IDX 63 78 64 79 65 80 44 81 45 82 53 83 46 84 52 85 47 86 48 87
REMARK SMILES IDX 49 88 50 89 51 90
REMARK H PARENT 12 5 80 17 16 27 72 46 42 57
REMARK Flexibility Score: inf
ROOT
ATOM      1  C   UNL A   1      34.292  32.876  28.310  1.00  0.00     0.118 C 
ENDROOT
BRANCH   1   2
ATOM      2  N   UNL A   1      34.357  34.291  27.994  1.00  0.00    -0.351 N 
ATOM      3  C   UNL A   1      34.102  35.434  28.717  1.00  0.00     0.269 C 
ATOM      4  O   UNL A   1      34.287  36.498  28.119  1.00  0.00    -0.268 OA
ATOM      5  H   UNL A   1      34.644  34.470  27.070  1.00  0.00     0.163 HD
BRANCH   3   6
ATOM      6  C   UNL A   1      33.670  35.452  30.162  1.00  0.00     0.129 A 
ATOM      7  C   UNL A   1      33.848  34.902  32.489  1.00  0.00     0.012 A 
ATOM      8  C   UNL A   1      32.804  35.781  32.754  1.00  0.00     0.035 A 
ATOM      9  C   UNL A   1      34.259  34.705  31.170  1.00  0.00     0.049 A 
ATOM     10  C   UNL A   1      32.215  36.428  31.687  1.00  0.00     0.113 A 
ATOM     11  N   UNL A   1      32.637  36.299  30.416  1.00  0.00    -0.251 NA
BRANCH   7  12
ATOM     12  S   UNL A   1      34.793  34.137  33.800  1.00  0.00    -0.116 SA
BRANCH  12  13
ATOM     13  C   UNL A   1      35.597  32.765  32.902  1.00  0.00     0.174 C 
BRANCH  13  14
ATOM     14  C   UNL A   1      36.895  32.341  33.567  1.00  0.00     0.230 C 
ATOM     15  O   UNL A   1      37.028  32.315  34.787  1.00  0.00    -0.274 OA
ATOM     16  N   UNL A   1      37.901  31.959  32.708  1.00  0.00    -0.346 N 
ATOM     17  H   UNL A   1      37.721  31.952  31.739  1.00  0.00     0.163 HD
BRANCH  16  18
ATOM     18  C   UNL A   1      39.227  31.564  33.182  1.00  0.00     0.231 C 
BRANCH  18  19
ATOM     19  C   UNL A   1      40.395  32.176  32.412  1.00  0.00     0.405 C 
ATOM     20  F   UNL A   1      40.286  31.904  31.090  1.00  0.00    -0.169 F 
ATOM     21  F   UNL A   1      40.402  33.522  32.548  1.00  0.00    -0.169 F 
ATOM     22  F   UNL A   1      41.587  31.709  32.836  1.00  0.00    -0.169 F 
ENDBRANCH  18  19
ENDBRANCH  16  18
ENDBRANCH  13  14
ENDBRANCH  12  13
ENDBRANCH   7  12
ENDBRANCH   3   6
ENDBRANCH   1   2
BRANCH   1  23
ATOM     23  C   UNL A   1      35.620  32.183  28.004  1.00  0.00     0.042 C 
BRANCH  23  24
ATOM     24  C   UNL A   1      35.614  30.695  28.349  1.00  0.00     0.118 C 
BRANCH  24  25
ATOM     25  N   UNL A   1      35.636  30.480  29.788  1.00  0.00    -0.352 N 
ATOM     26  C   UNL A   1      36.538  29.808  30.571  1.00  0.00     0.251 C 
ATOM     27  H   UNL A   1      34.882  30.882  30.278  1.00  0.00     0.163 HD
ATOM     28  O   UNL A   1      36.226  29.530  31.726  1.00  0.00    -0.269 OA
BRANCH  26  29
ATOM     29  C   UNL A   1      37.869  29.420  30.052  1.00  0.00     0.039 A 
ATOM     30  C   UNL A   1      38.807  28.893  30.946  1.00  0.00     0.014 A 
ATOM     31  C   UNL A   1      38.230  29.647  28.721  1.00  0.00     0.014 A 
ATOM     32  C   UNL A   1      40.093  28.574  30.502  1.00  0.00     0.010 A 
ATOM     33  C   UNL A   1      39.490  29.264  28.264  1.00  0.00     0.010 A 
ATOM     34  C   UNL A   1      40.441  28.744  29.153  1.00  0.00    -0.014 A 
BRANCH  34  35
ATOM     35  C   UNL A   1      41.806  28.412  28.669  1.00  0.00     0.031 A 
ATOM     36  C   UNL A   1      42.868  29.479  28.607  1.00  0.00     0.074 A 
ATOM     37  C   UNL A   1      42.079  27.161  28.250  1.00  0.00     0.049 A 
ATOM     38  N   UNL A   1      44.105  29.388  28.188  1.00  0.00    -0.248 NA
ATOM     39  C   UNL A   1      42.484  30.830  29.049  1.00  0.00     0.031 C 
ATOM     40  C   UNL A   1      41.125  26.048  28.226  1.00  0.00     0.029 A 
ATOM     41  N   UNL A   1      43.238  26.613  27.762  1.00  0.00    -0.354 N 
ATOM     42  C   UNL A   1      44.636  30.670  28.292  1.00  0.00     0.074 A 
ATOM     43  C   UNL A   1      43.576  31.528  28.773  1.00  0.00     0.031 C 
ATOM     44  C   UNL A   1      41.747  24.946  27.779  1.00  0.00     0.029 A 
ATOM     45  C   UNL A   1      43.130  25.278  27.454  1.00  0.00     0.049 A 
ATOM     46  H   UNL A   1      44.069  27.128  27.644  1.00  0.00     0.167 HD
ATOM     47  C   UNL A   1      45.896  31.092  28.026  1.00  0.00     0.031 A 
ATOM     48  C   UNL A   1      44.045  24.417  26.967  1.00  0.00     0.031 A 
ATOM     49  C   UNL A   1      46.955  30.230  27.572  1.00  0.00     0.049 A 
ATOM     50  C   UNL A   1      45.443  24.904  26.706  1.00  0.00     0.074 A 
ATOM     51  C   UNL A   1      48.281  30.548  27.332  1.00  0.00     0.029 A 
ATOM     52  N   UNL A   1      46.810  28.880  27.294  1.00  0.00    -0.354 N 
ATOM     53  N   UNL A   1      45.940  26.108  26.865  1.00  0.00    -0.248 NA
ATOM     54  C   UNL A   1      46.408  23.910  26.216  1.00  0.00     0.031 C 
ATOM     55  C   UNL A   1      48.929  29.396  26.871  1.00  0.00     0.029 A 
ATOM     56  C   UNL A   1      48.019  28.352  26.873  1.00  0.00     0.049 A 
ATOM     57  H   UNL A   1      45.972  28.371  27.383  1.00  0.00     0.167 HD
ATOM     58  C   UNL A   1      47.285  26.007  26.528  1.00  0.00     0.074 A 
ATOM     59  C   UNL A   1      47.525  24.624  26.168  1.00  0.00     0.031 C 
ATOM     60  C   UNL A   1      48.239  26.971  26.522  1.00  0.00     0.031 A 
BRANCH  47  61
ATOM     61  C   UNL A   1      46.196  32.557  28.218  1.00  0.00    -0.014 A 
ATOM     62  C   UNL A   1      46.754  33.036  29.417  1.00  0.00     0.010 A 
ATOM     63  C   UNL A   1      45.948  33.462  27.170  1.00  0.00     0.010 A 
ATOM     64  C   UNL A   1      47.016  34.398  29.582  1.00  0.00     0.020 A 
ATOM     65  C   UNL A   1      46.236  34.822  27.320  1.00  0.00     0.020 A 
ATOM     66  C   UNL A   1      46.752  35.284  28.534  1.00  0.00     0.054 A 
BRANCH  66  67
ATOM     67  S   UNL A   1      47.122  37.045  28.766  1.00  0.00     0.124 S 
ATOM     68  O   UNL A   1      47.005  37.188  30.215  1.00  0.00    -0.237 OA
ATOM     69  O   UNL A   1      48.478  37.162  28.233  1.00  0.00    -0.237 OA
ATOM     70  O   UNL A   1      46.089  37.723  27.987  1.00  0.00    -0.744 OA
ENDBRANCH  66  67
ENDBRANCH  47  61
BRANCH  48  71
ATOM     71  C   UNL A   1      43.677  22.994  26.733  1.00  0.00    -0.014 A 
ATOM     72  C   UNL A   1      44.228  22.287  25.648  1.00  0.00     0.010 A 
ATOM     73  C   UNL A   1      42.780  22.336  27.593  1.00  0.00     0.010 A 
ATOM     74  C   UNL A   1      43.870  20.957  25.414  1.00  0.00     0.020 A 
ATOM     75  C   UNL A   1      42.441  20.997  27.378  1.00  0.00     0.020 A 
ATOM     76  C   UNL A   1      42.978  20.320  26.281  1.00  0.00     0.054 A 
BRANCH  76  77
ATOM     77  S   UNL A   1      42.562  18.579  25.986  1.00  0.00     0.124 S 
ATOM     78  O   UNL A   1      42.974  17.952  27.238  1.00  0.00    -0.237 OA
ATOM     79  O   UNL A   1      41.122  18.633  25.749  1.00  0.00    -0.237 OA
ATOM     80  O   UNL A   1      43.364  18.231  24.815  1.00  0.00    -0.744 OA
ENDBRANCH  76  77
ENDBRANCH  48  71
BRANCH  60  81
ATOM     81  C   UNL A   1      49.637  26.551  26.157  1.00  0.00    -0.014 A 
ATOM     82  C   UNL A   1      50.170  26.803  24.881  1.00  0.00     0.010 A 
ATOM     83  C   UNL A   1      50.438  25.912  27.122  1.00  0.00     0.010 A 
ATOM     84  C   UNL A   1      51.462  26.381  24.562  1.00  0.00     0.020 A 
ATOM     85  C   UNL A   1      51.740  25.514  26.815  1.00  0.00     0.020 A 
ATOM     86  C   UNL A   1      52.237  25.733  25.529  1.00  0.00     0.054 A 
BRANCH  86  87
ATOM     87  S   UNL A   1      53.919  25.207  25.097  1.00  0.00     0.124 S 
ATOM     88  O   UNL A   1      53.757  23.762  24.959  1.00  0.00    -0.237 OA
ATOM     89  O   UNL A   1      54.175  25.932  23.855  1.00  0.00    -0.237 OA
ATOM     90  O   UNL A   1      54.719  25.640  26.239  1.00  0.00    -0.744 OA
ENDBRANCH  86  87
ENDBRANCH  60  81
ENDBRANCH  34  35
ENDBRANCH  26  29
ENDBRANCH  24  25
ENDBRANCH  23  24
ENDBRANCH   1  23
TORSDOF 18
ENDMDL
MODEL 2
REMARK VINA RESULT:     -10.3      5.101     11.149
REMARK SMILES O=C(CSc1ccnc(C(=O)NCCCNC(=O)c2ccc(-c3c4nc(c(-c5ccc(S(=O)(=O)[O-])cc5)c5ccc([nH]5)c(-c5ccc(S(=O)(=O)[O-])cc5)c5nc(c(-c6ccc(S(=O)(=O)[O-])cc6)c6ccc3[nH]6)C=C5)C=C4)cc2)c1)NCC(F)(F)F
REMARK SMILES IDX 13 1 12 2 10 3 11 4 9 6 5 7 6 8 79 9 7 10 8 11 4 12 3 13
REMARK SMILES IDX 2 14 1 15 80 16 81 18 82 19 83 20 84 21 85 22 14 23 15 24
REMARK SMILES IDX 16 25 17 26 18 28 19 29 20 30 78 31 21 32 77 33 22 34 23 35
REMARK SMILES IDX 24 36 71 37 25 38 76 39 70 40 72 41 26 42 75 43 69 44 68 45
REMARK SMILES IDX 27 47 57 48 38 49 56 50 39 51 42 52 55 53 73 54 40 55 41 56
REMARK SMILES IDX 54 58 74 59 43 60 28 61 29 62 37 63 30 64 36 65 31 66 32 67
REMARK SMILES IDX 33 68 34 69 35 70 58 71 59 72 67 73 60 74 66 75 61 76 62 77
REMARK SMILES IDX 63 78 64 79 65 80 44 81 45 82 53 83 46 84 52 85 47 86 48 87
REMARK SMILES IDX 49 88 50 89 51 90
REMARK H PARENT 12 5 80 17 16 27 72 46 42 57
REMARK Flexibility Score: inf
ROOT
ATOM      1  C   UNL A   1      36.763  20.629  25.115  1.00  0.00     0.118 C 
ENDROOT
BRANCH   1   2
ATOM      2  N   UNL A   1      35.708  19.651  24.927  1.00  0.00    -0.351 N 
ATOM      3  C   UNL A   1      34.344  19.748  24.769  1.00  0.00     0.269 C 
ATOM      4  O   UNL A   1      33.746  18.680  24.609  1.00  0.00    -0.268 OA
ATOM      5  H   UNL A   1      36.037  18.723  24.908  1.00  0.00     0.163 HD
BRANCH   3   6
ATOM      6  C   UNL A   1      33.579  21.047  24.737  1.00  0.00     0.129 A 
ATOM      7  C   UNL A   1      32.989  23.199  23.859  1.00  0.00     0.012 A 
ATOM      8  C   UNL A   1      31.934  23.254  24.763  1.00  0.00     0.035 A 
ATOM      9  C   UNL A   1      33.847  22.099  23.875  1.00  0.00     0.049 A 
ATOM     10  C   UNL A   1      31.780  22.204  25.645  1.00  0.00     0.113 A 
ATOM     11  N   UNL A   1      32.559  21.106  25.635  1.00  0.00    -0.251 NA
BRANCH   7  12
ATOM     12  S   UNL A   1      33.187  24.417  22.566  1.00  0.00    -0.116 SA
BRANCH  12  13
ATOM     13  C   UNL A   1      31.526  25.175  22.537  1.00  0.00     0.174 C 
BRANCH  13  14
ATOM     14  C   UNL A   1      31.536  26.576  23.125  1.00  0.00     0.230 C 
ATOM     15  O   UNL A   1      32.315  26.908  24.013  1.00  0.00    -0.274 OA
ATOM     16  N   UNL A   1      30.631  27.455  22.572  1.00  0.00    -0.346 N 
ATOM     17  H   UNL A   1      30.065  27.147  21.826  1.00  0.00     0.163 HD
BRANCH  16  18
ATOM     18  C   UNL A   1      30.481  28.829  23.050  1.00  0.00     0.231 C 
BRANCH  18  19
ATOM     19  C   UNL A   1      29.094  29.432  22.851  1.00  0.00     0.405 C 
ATOM     20  F   UNL A   1      28.135  28.505  23.085  1.00  0.00    -0.169 F 
ATOM     21  F   UNL A   1      28.888  30.451  23.716  1.00  0.00    -0.169 F 
ATOM     22  F   UNL A   1      28.917  29.905  21.601  1.00  0.00    -0.169 F 
ENDBRANCH  18  19
ENDBRANCH  16  18
ENDBRANCH  13  14
ENDBRANCH  12  13
ENDBRANCH   7  12
ENDBRANCH   3   6
ENDBRANCH   1   2
BRANCH   1  23
ATOM     23  C   UNL A   1      38.142  19.980  24.995  1.00  0.00     0.042 C 
BRANCH  23  24
ATOM     24  C   UNL A   1      39.161  20.548  25.981  1.00  0.00     0.118 C 
BRANCH  24  25
ATOM     25  N   UNL A   1      40.306  19.664  26.134  1.00  0.00    -0.352 N 
ATOM     26  C   UNL A   1      41.640  19.954  26.262  1.00  0.00     0.251 C 
ATOM     27  H   UNL A   1      40.089  18.703  26.146  1.00  0.00     0.163 HD
ATOM     28  O   UNL A   1      42.458  19.048  26.117  1.00  0.00    -0.269 OA
BRANCH  26  29
ATOM     29  C   UNL A   1      42.103  21.324  26.574  1.00  0.00     0.039 A 
ATOM     30  C   UNL A   1      42.269  22.229  25.519  1.00  0.00     0.014 A 
ATOM     31  C   UNL A   1      42.454  21.702  27.873  1.00  0.00     0.014 A 
ATOM     32  C   UNL A   1      42.763  23.511  25.770  1.00  0.00     0.010 A 
ATOM     33  C   UNL A   1      42.880  23.003  28.132  1.00  0.00     0.010 A 
ATOM     34  C   UNL A   1      43.060  23.915  27.081  1.00  0.00    -0.014 A 
BRANCH  34  35
ATOM     35  C   UNL A   1      43.589  25.274  27.361  1.00  0.00     0.031 A 
ATOM     36  C   UNL A   1      45.033  25.599  27.079  1.00  0.00     0.074 A 
ATOM     37  C   UNL A   1      42.781  26.205  27.905  1.00  0.00     0.049 A 
ATOM     38  N   UNL A   1      45.682  26.716  27.282  1.00  0.00    -0.248 NA
ATOM     39  C   UNL A   1      45.862  24.519  26.517  1.00  0.00     0.031 C 
ATOM     40  C   UNL A   1      41.372  26.003  28.259  1.00  0.00     0.029 A 
ATOM     41  N   UNL A   1      43.026  27.508  28.257  1.00  0.00    -0.354 N 
ATOM     42  C   UNL A   1      46.996  26.467  26.899  1.00  0.00     0.074 A 
ATOM     43  C   UNL A   1      47.061  25.081  26.491  1.00  0.00     0.031 C 
ATOM     44  C   UNL A   1      40.873  27.149  28.747  1.00  0.00     0.029 A 
ATOM     45  C   UNL A   1      41.928  28.156  28.772  1.00  0.00     0.049 A 
ATOM     46  H   UNL A   1      43.905  27.939  28.150  1.00  0.00     0.167 HD
ATOM     47  C   UNL A   1      48.050  27.319  26.875  1.00  0.00     0.031 A 
ATOM     48  C   UNL A   1      41.787  29.422  29.211  1.00  0.00     0.031 A 
ATOM     49  C   UNL A   1      47.976  28.704  27.258  1.00  0.00     0.049 A 
ATOM     50  C   UNL A   1      42.966  30.354  29.148  1.00  0.00     0.074 A 
ATOM     51  C   UNL A   1      48.971  29.665  27.211  1.00  0.00     0.029 A 
ATOM     52  N   UNL A   1      46.841  29.327  27.752  1.00  0.00    -0.354 N 
ATOM     53  N   UNL A   1      44.185  30.115  28.729  1.00  0.00    -0.248 NA
ATOM     54  C   UNL A   1      42.741  31.734  29.601  1.00  0.00     0.031 C 
ATOM     55  C   UNL A   1      48.448  30.861  27.716  1.00  0.00     0.029 A 
ATOM     56  C   UNL A   1      47.113  30.657  28.027  1.00  0.00     0.049 A 
ATOM     57  H   UNL A   1      45.969  28.890  27.887  1.00  0.00     0.167 HD
ATOM     58  C   UNL A   1      44.864  31.323  28.836  1.00  0.00     0.074 A 
ATOM     59  C   UNL A   1      43.917  32.293  29.348  1.00  0.00     0.031 C 
ATOM     60  C   UNL A   1      46.155  31.608  28.533  1.00  0.00     0.031 A 
BRANCH  47  61
ATOM     61  C   UNL A   1      49.379  26.770  26.421  1.00  0.00    -0.014 A 
ATOM     62  C   UNL A   1      50.155  25.951  27.260  1.00  0.00     0.010 A 
ATOM     63  C   UNL A   1      49.841  27.051  25.121  1.00  0.00     0.010 A 
ATOM     64  C   UNL A   1      51.389  25.459  26.826  1.00  0.00     0.020 A 
ATOM     65  C   UNL A   1      51.062  26.537  24.674  1.00  0.00     0.020 A 
ATOM     66  C   UNL A   1      51.837  25.759  25.537  1.00  0.00     0.054 A 
BRANCH  66  67
ATOM     67  S   UNL A   1      53.433  25.090  24.991  1.00  0.00     0.124 S 
ATOM     68  O   UNL A   1      53.261  23.661  25.242  1.00  0.00    -0.237 OA
ATOM     69  O   UNL A   1      53.479  25.477  23.583  1.00  0.00    -0.237 OA
ATOM     70  O   UNL A   1      54.404  25.762  25.851  1.00  0.00    -0.744 OA
ENDBRANCH  66  67
ENDBRANCH  47  61
BRANCH  48  71
ATOM     71  C   UNL A   1      40.468  29.894  29.713  1.00  0.00    -0.014 A 
ATOM     72  C   UNL A   1      39.445  30.232  28.810  1.00  0.00     0.010 A 
ATOM     73  C   UNL A   1      40.225  30.001  31.094  1.00  0.00     0.010 A 
ATOM     74  C   UNL A   1      38.210  30.693  29.277  1.00  0.00     0.020 A 
ATOM     75  C   UNL A   1      38.983  30.435  31.565  1.00  0.00     0.020 A 
ATOM     76  C   UNL A   1      37.988  30.792  30.653  1.00  0.00     0.054 A 
BRANCH  76  77
ATOM     77  S   UNL A   1      36.364  31.348  31.240  1.00  0.00     0.124 S 
ATOM     78  O   UNL A   1      35.600  31.418  29.998  1.00  0.00    -0.237 OA
ATOM     79  O   UNL A   1      35.978  30.282  32.161  1.00  0.00    -0.237 OA
ATOM     80  O   UNL A   1      36.653  32.633  31.873  1.00  0.00    -0.744 OA
ENDBRANCH  76  77
ENDBRANCH  48  71
BRANCH  60  81
ATOM     81  C   UNL A   1      46.602  33.034  28.703  1.00  0.00    -0.014 A 
ATOM     82  C   UNL A   1      46.440  33.981  27.676  1.00  0.00     0.010 A 
ATOM     83  C   UNL A   1      47.173  33.436  29.925  1.00  0.00     0.010 A 
ATOM     84  C   UNL A   1      46.885  35.293  27.853  1.00  0.00     0.020 A 
ATOM     85  C   UNL A   1      47.593  34.754  30.114  1.00  0.00     0.020 A 
ATOM     86  C   UNL A   1      47.465  35.670  29.068  1.00  0.00     0.054 A 
BRANCH  86  87
ATOM     87  S   UNL A   1      48.022  37.383  29.280  1.00  0.00     0.124 S 
ATOM     88  O   UNL A   1      49.454  37.210  29.508  1.00  0.00    -0.237 OA
ATOM     89  O   UNL A   1      47.659  38.000  28.007  1.00  0.00    -0.237 OA
ATOM     90  O   UNL A   1      47.259  37.854  30.433  1.00  0.00    -0.744 OA
ENDBRANCH  86  87
ENDBRANCH  60  81
ENDBRANCH  34  35
ENDBRANCH  26  29
ENDBRANCH  24  25
ENDBRANCH  23  24
ENDBRANCH   1  23
TORSDOF 18
ENDMDL
MODEL 3
REMARK VINA RESULT:     -10.3      5.577     14.007
REMARK SMILES O=C(CSc1ccnc(C(=O)NCCCNC(=O)c2ccc(-c3c4nc(c(-c5ccc(S(=O)(=O)[O-])cc5)c5ccc([nH]5)c(-c5ccc(S(=O)(=O)[O-])cc5)c5nc(c(-c6ccc(S(=O)(=O)[O-])cc6)c6ccc3[nH]6)C=C5)C=C4)cc2)c1)NCC(F)(F)F
REMARK SMILES IDX 13 1 12 2 10 3 11 4 9 6 5 7 6 8 79 9 7 10 8 11 4 12 3 13
REMARK SMILES IDX 2 14 1 15 80 16 81 18 82 19 83 20 84 21 85 22 14 23 15 24
REMARK SMILES IDX 16 25 17 26 18 28 19 29 20 30 78 31 21 32 77 33 22 34 23 35
REMARK SMILES IDX 24 36 71 37 25 38 76 39 70 40 72 41 26 42 75 43 69 44 68 45
REMARK SMILES IDX 27 47 57 48 38 49 56 50 39 51 42 52 55 53 73 54 40 55 41 56
REMARK SMILES IDX 54 58 74 59 43 60 28 61 29 62 37 63 30 64 36 65 31 66 32 67
REMARK SMILES IDX 33 68 34 69 35 70 58 71 59 72 67 73 60 74 66 75 61 76 62 77
REMARK SMILES IDX 63 78 64 79 65 80 44 81 45 82 53 83 46 84 52 85 47 86 48 87
REMARK SMILES IDX 49 88 50 89 51 90
REMARK H PARENT 12 5 80 17 16 27 72 46 42 57
REMARK Flexibility Score: inf
ROOT
ATOM      1  C   UNL A   1      45.958  23.845  27.082  1.00  0.00     0.118 C 
ENDROOT
BRANCH   1   2
ATOM      2  N   UNL A   1      45.945  23.826  25.631  1.00  0.00    -0.351 N 
ATOM      3  C   UNL A   1      45.759  22.830  24.699  1.00  0.00     0.269 C 
ATOM      4  O   UNL A   1      45.796  23.188  23.519  1.00  0.00    -0.268 OA
ATOM      5  H   UNL A   1      46.103  24.711  25.229  1.00  0.00     0.163 HD
BRANCH   3   6
ATOM      6  C   UNL A   1      45.478  21.388  25.036  1.00  0.00     0.129 A 
ATOM      7  C   UNL A   1      44.087  19.528  25.632  1.00  0.00     0.012 A 
ATOM      8  C   UNL A   1      45.171  18.681  25.432  1.00  0.00     0.035 A 
ATOM      9  C   UNL A   1      44.255  20.904  25.471  1.00  0.00     0.049 A 
ATOM     10  C   UNL A   1      46.379  19.246  25.077  1.00  0.00     0.113 A 
ATOM     11  N   UNL A   1      46.546  20.563  24.857  1.00  0.00    -0.251 NA
BRANCH   7  12
ATOM     12  S   UNL A   1      42.441  18.898  25.930  1.00  0.00    -0.116 SA
BRANCH  12  13
ATOM     13  C   UNL A   1      41.571  20.415  26.455  1.00  0.00     0.174 C 
BRANCH  13  14
ATOM     14  C   UNL A   1      40.150  20.464  25.920  1.00  0.00     0.230 C 
ATOM     15  O   UNL A   1      39.543  19.453  25.581  1.00  0.00    -0.274 OA
ATOM     16  N   UNL A   1      39.581  21.718  25.870  1.00  0.00    -0.346 N 
ATOM     17  H   UNL A   1      40.098  22.487  26.203  1.00  0.00     0.163 HD
BRANCH  16  18
ATOM     18  C   UNL A   1      38.237  21.946  25.342  1.00  0.00     0.231 C 
BRANCH  18  19
ATOM     19  C   UNL A   1      37.564  23.227  25.827  1.00  0.00     0.405 C 
ATOM     20  F   UNL A   1      38.411  23.944  26.601  1.00  0.00    -0.169 F 
ATOM     21  F   UNL A   1      37.214  24.008  24.780  1.00  0.00    -0.169 F 
ATOM     22  F   UNL A   1      36.452  22.978  26.549  1.00  0.00    -0.169 F 
ENDBRANCH  18  19
ENDBRANCH  16  18
ENDBRANCH  13  14
ENDBRANCH  12  13
ENDBRANCH   7  12
ENDBRANCH   3   6
ENDBRANCH   1   2
BRANCH   1  23
ATOM     23  C   UNL A   1      44.740  24.589  27.632  1.00  0.00     0.042 C 
BRANCH  23  24
ATOM     24  C   UNL A   1      43.418  23.893  27.314  1.00  0.00     0.118 C 
BRANCH  24  25
ATOM     25  N   UNL A   1      42.756  24.502  26.170  1.00  0.00    -0.352 N 
ATOM     26  C   UNL A   1      41.830  25.512  26.115  1.00  0.00     0.251 C 
ATOM     27  H   UNL A   1      43.013  24.129  25.296  1.00  0.00     0.163 HD
ATOM     28  O   UNL A   1      41.213  25.691  25.068  1.00  0.00    -0.269 OA
BRANCH  26  29
ATOM     29  C   UNL A   1      41.571  26.383  27.284  1.00  0.00     0.039 A 
ATOM     30  C   UNL A   1      42.290  27.577  27.399  1.00  0.00     0.014 A 
ATOM     31  C   UNL A   1      40.696  25.998  28.304  1.00  0.00     0.014 A 
ATOM     32  C   UNL A   1      42.115  28.392  28.520  1.00  0.00     0.010 A 
ATOM     33  C   UNL A   1      40.471  26.845  29.388  1.00  0.00     0.010 A 
ATOM     34  C   UNL A   1      41.193  28.040  29.518  1.00  0.00    -0.014 A 
BRANCH  34  35
ATOM     35  C   UNL A   1      41.001  28.896  30.717  1.00  0.00     0.031 A 
ATOM     36  C   UNL A   1      39.893  29.916  30.751  1.00  0.00     0.074 A 
ATOM     37  C   UNL A   1      41.846  28.780  31.760  1.00  0.00     0.049 A 
ATOM     38  N   UNL A   1      39.587  30.771  31.693  1.00  0.00    -0.248 NA
ATOM     39  C   UNL A   1      39.033  30.006  29.559  1.00  0.00     0.031 C 
ATOM     40  C   UNL A   1      42.981  27.855  31.834  1.00  0.00     0.029 A 
ATOM     41  N   UNL A   1      41.885  29.447  32.959  1.00  0.00    -0.354 N 
ATOM     42  C   UNL A   1      38.519  31.514  31.200  1.00  0.00     0.074 A 
ATOM     43  C   UNL A   1      38.258  31.038  29.859  1.00  0.00     0.031 C 
ATOM     44  C   UNL A   1      43.582  27.991  33.027  1.00  0.00     0.029 A 
ATOM     45  C   UNL A   1      42.899  29.032  33.788  1.00  0.00     0.049 A 
ATOM     46  H   UNL A   1      41.245  30.155  33.202  1.00  0.00     0.167 HD
ATOM     47  C   UNL A   1      37.810  32.493  31.813  1.00  0.00     0.031 A 
ATOM     48  C   UNL A   1      43.240  29.443  35.025  1.00  0.00     0.031 A 
ATOM     49  C   UNL A   1      38.057  32.946  33.156  1.00  0.00     0.049 A 
ATOM     50  C   UNL A   1      42.421  30.512  35.693  1.00  0.00     0.074 A 
ATOM     51  C   UNL A   1      37.357  33.888  33.889  1.00  0.00     0.029 A 
ATOM     52  N   UNL A   1      39.080  32.484  33.970  1.00  0.00    -0.354 N 
ATOM     53  N   UNL A   1      41.379  31.162  35.231  1.00  0.00    -0.248 NA
ATOM     54  C   UNL A   1      42.813  30.888  37.058  1.00  0.00     0.031 C 
ATOM     55  C   UNL A   1      37.982  34.026  35.134  1.00  0.00     0.029 A 
ATOM     56  C   UNL A   1      39.038  33.131  35.194  1.00  0.00     0.049 A 
ATOM     57  H   UNL A   1      39.738  31.798  33.716  1.00  0.00     0.167 HD
ATOM     58  C   UNL A   1      40.971  32.000  36.262  1.00  0.00     0.074 A 
ATOM     59  C   UNL A   1      41.870  31.766  37.374  1.00  0.00     0.031 C 
ATOM     60  C   UNL A   1      39.941  32.882  36.290  1.00  0.00     0.031 A 
BRANCH  47  61
ATOM     61  C   UNL A   1      36.699  33.144  31.029  1.00  0.00    -0.014 A 
ATOM     62  C   UNL A   1      36.973  34.080  30.016  1.00  0.00     0.010 A 
ATOM     63  C   UNL A   1      35.362  32.787  31.287  1.00  0.00     0.010 A 
ATOM     64  C   UNL A   1      35.930  34.681  29.306  1.00  0.00     0.020 A 
ATOM     65  C   UNL A   1      34.318  33.365  30.559  1.00  0.00     0.020 A 
ATOM     66  C   UNL A   1      34.609  34.323  29.585  1.00  0.00     0.054 A 
BRANCH  66  67
ATOM     67  S   UNL A   1      33.274  35.102  28.633  1.00  0.00     0.124 S 
ATOM     68  O   UNL A   1      32.698  33.957  27.931  1.00  0.00    -0.237 OA
ATOM     69  O   UNL A   1      32.433  35.685  29.677  1.00  0.00    -0.237 OA
ATOM     70  O   UNL A   1      33.970  36.067  27.786  1.00  0.00    -0.744 OA
ENDBRANCH  66  67
ENDBRANCH  47  61
BRANCH  48  71
ATOM     71  C   UNL A   1      44.390  28.812  35.729  1.00  0.00    -0.014 A 
ATOM     72  C   UNL A   1      44.243  27.554  36.342  1.00  0.00     0.010 A 
ATOM     73  C   UNL A   1      45.637  29.459  35.785  1.00  0.00     0.010 A 
ATOM     74  C   UNL A   1      45.315  26.967  37.020  1.00  0.00     0.020 A 
ATOM     75  C   UNL A   1      46.718  28.863  36.439  1.00  0.00     0.020 A 
ATOM     76  C   UNL A   1      46.547  27.626  37.064  1.00  0.00     0.054 A 
BRANCH  76  77
ATOM     77  S   UNL A   1      47.939  26.826  37.909  1.00  0.00     0.124 S 
ATOM     78  O   UNL A   1      48.581  26.101  36.817  1.00  0.00    -0.237 OA
ATOM     79  O   UNL A   1      48.684  27.965  38.439  1.00  0.00    -0.237 OA
ATOM     80  O   UNL A   1      47.290  25.993  38.919  1.00  0.00    -0.744 OA
ENDBRANCH  76  77
ENDBRANCH  48  71
BRANCH  60  81
ATOM     81  C   UNL A   1      39.705  33.622  37.579  1.00  0.00    -0.014 A 
ATOM     82  C   UNL A   1      39.254  32.959  38.733  1.00  0.00     0.010 A 
ATOM     83  C   UNL A   1      39.963  35.004  37.636  1.00  0.00     0.010 A 
ATOM     84  C   UNL A   1      39.022  33.674  39.910  1.00  0.00     0.020 A 
ATOM     85  C   UNL A   1      39.757  35.717  38.819  1.00  0.00     0.020 A 
ATOM     86  C   UNL A   1      39.267  35.050  39.944  1.00  0.00     0.054 A 
BRANCH  86  87
ATOM     87  S   UNL A   1      38.972  35.957  41.487  1.00  0.00     0.124 S 
ATOM     88  O   UNL A   1      40.174  35.647  42.255  1.00  0.00    -0.237 OA
ATOM     89  O   UNL A   1      38.856  37.339  41.032  1.00  0.00    -0.237 OA
ATOM     90  O   UNL A   1      37.735  35.370  41.999  1.00  0.00    -0.744 OA
ENDBRANCH  86  87
ENDBRANCH  60  81
ENDBRANCH  34  35
ENDBRANCH  26  29
ENDBRANCH  24  25
ENDBRANCH  23  24
ENDBRANCH   1  23
TORSDOF 18
ENDMDL
