MODEL 1
REMARK VINA RESULT:     -10.7      0.000      0.000
REMARK SMILES CSc1ncccc1C(=O)N1CSC[C@H]1C(=O)NCCCNC(=O)c1ccc(-c2c3nc(c(-c4ccc(S(=O)(=O)[O-])cc4)c4ccc([nH]4)c(-c4ccc(S(=O)(=O)[O-])cc4)c4nc(c(-c5ccc(S(=O)(=O)[O-])cc5)c5ccc2[nH]5)C=C4)C=C3)cc1
REMARK SMILES IDX 20 1 19 2 18 3 16 4 17 5 15 7 11 8 12 9 13 10 14 11 9 12
REMARK SMILES IDX 10 13 8 14 3 15 4 16 5 17 7 18 6 19 2 20 1 21 21 22 22 23
REMARK SMILES IDX 23 24 24 26 25 27 26 28 84 29 27 30 83 31 28 32 29 33 30 34
REMARK SMILES IDX 77 35 31 36 82 37 76 38 78 39 32 40 81 41 75 42 74 43 33 45
REMARK SMILES IDX 63 46 44 47 62 48 45 49 48 50 61 51 79 52 46 53 47 54 60 56
REMARK SMILES IDX 80 57 49 58 34 59 35 60 43 61 36 62 42 63 37 64 38 65 39 66
REMARK SMILES IDX 40 67 41 68 64 69 65 70 73 71 66 72 72 73 67 74 68 75 69 76
REMARK SMILES IDX 70 77 71 78 50 79 51 80 59 81 52 82 58 83 53 84 54 85 55 86
REMARK SMILES IDX 56 87 57 88
REMARK H PARENT 18 6 22 25 78 44 48 55
REMARK Flexibility Score: inf
ROOT
ATOM      1  C   UNL A   1      35.382  31.624  27.626  1.00  0.00     0.042 C 
ENDROOT
BRANCH   1   2
ATOM      2  C   UNL A   1      34.245  32.367  28.305  1.00  0.00     0.117 C 
BRANCH   2   3
ATOM      3  N   UNL A   1      34.230  33.778  27.986  1.00  0.00    -0.354 N 
ATOM      4  C   UNL A   1      34.052  34.867  28.784  1.00  0.00     0.243 C 
ATOM      5  O   UNL A   1      34.412  35.951  28.311  1.00  0.00    -0.273 OA
ATOM      6  H   UNL A   1      34.374  33.985  27.034  1.00  0.00     0.163 HD
BRANCH   4   7
ATOM      7  C   UNL A   1      33.616  34.768  30.262  1.00  0.00     0.185 C 
ATOM      8  N   UNL A   1      34.670  34.599  31.280  1.00  0.00    -0.316 N 
ATOM      9  C   UNL A   1      34.858  35.735  32.158  1.00  0.00     0.190 C 
ATOM     10  S   UNL A   1      33.250  36.548  32.255  1.00  0.00    -0.138 SA
ATOM     11  C   UNL A   1      32.693  35.930  30.639  1.00  0.00     0.106 C 
BRANCH   8  12
ATOM     12  C   UNL A   1      35.205  33.316  31.427  1.00  0.00     0.257 C 
ATOM     13  O   UNL A   1      34.499  32.376  31.786  1.00  0.00    -0.269 OA
BRANCH  12  14
ATOM     14  C   UNL A   1      36.671  33.092  31.327  1.00  0.00     0.072 A 
ATOM     15  C   UNL A   1      37.490  32.809  32.425  1.00  0.00     0.108 A 
ATOM     16  N   UNL A   1      38.843  32.694  32.294  1.00  0.00    -0.249 NA
ATOM     17  C   UNL A   1      39.399  32.889  31.081  1.00  0.00     0.112 A 
ATOM     18  C   UNL A   1      37.295  33.352  30.095  1.00  0.00     0.018 A 
ATOM     19  C   UNL A   1      38.672  33.221  29.960  1.00  0.00     0.021 A 
BRANCH  15  20
ATOM     20  S   UNL A   1      36.879  32.537  34.085  1.00  0.00    -0.109 SA
ATOM     21  C   UNL A   1      38.337  31.776  34.859  1.00  0.00     0.092 C 
ENDBRANCH  15  20
ENDBRANCH  12  14
ENDBRANCH   8  12
ENDBRANCH   4   7
ENDBRANCH   2   3
ENDBRANCH   1   2
BRANCH   1  22
ATOM     22  C   UNL A   1      35.567  30.207  28.154  1.00  0.00     0.118 C 
BRANCH  22  23
ATOM     23  N   UNL A   1      35.576  30.165  29.612  1.00  0.00    -0.352 N 
ATOM     24  C   UNL A   1      36.552  29.747  30.478  1.00  0.00     0.251 C 
ATOM     25  H   UNL A   1      34.751  30.489  30.042  1.00  0.00     0.163 HD
ATOM     26  O   UNL A   1      36.267  29.562  31.663  1.00  0.00    -0.269 OA
BRANCH  24  27
ATOM     27  C   UNL A   1      37.930  29.517  30.002  1.00  0.00     0.039 A 
ATOM     28  C   UNL A   1      38.919  29.156  30.921  1.00  0.00     0.014 A 
ATOM     29  C   UNL A   1      38.259  29.696  28.656  1.00  0.00     0.014 A 
ATOM     30  C   UNL A   1      40.223  28.926  30.480  1.00  0.00     0.010 A 
ATOM     31  C   UNL A   1      39.533  29.376  28.203  1.00  0.00     0.010 A 
ATOM     32  C   UNL A   1      40.534  29.008  29.113  1.00  0.00    -0.014 A 
BRANCH  32  33
ATOM     33  C   UNL A   1      41.906  28.745  28.613  1.00  0.00     0.031 A 
ATOM     34  C   UNL A   1      42.284  27.361  28.156  1.00  0.00     0.074 A 
ATOM     35  C   UNL A   1      42.824  29.731  28.633  1.00  0.00     0.049 A 
ATOM     36  N   UNL A   1      43.446  26.914  27.755  1.00  0.00    -0.248 NA
ATOM     37  C   UNL A   1      41.225  26.338  28.180  1.00  0.00     0.031 C 
ATOM     38  C   UNL A   1      42.587  31.103  29.090  1.00  0.00     0.029 A 
ATOM     39  N   UNL A   1      44.145  29.730  28.264  1.00  0.00    -0.354 N 
ATOM     40  C   UNL A   1      43.263  25.559  27.503  1.00  0.00     0.074 A 
ATOM     41  C   UNL A   1      41.894  25.245  27.847  1.00  0.00     0.031 C 
ATOM     42  C   UNL A   1      43.715  31.815  28.949  1.00  0.00     0.029 A 
ATOM     43  C   UNL A   1      44.767  30.944  28.434  1.00  0.00     0.049 A 
ATOM     44  H   UNL A   1      44.605  28.934  27.910  1.00  0.00     0.167 HD
ATOM     45  C   UNL A   1      44.147  24.661  27.009  1.00  0.00     0.031 A 
ATOM     46  C   UNL A   1      46.043  31.313  28.208  1.00  0.00     0.031 A 
ATOM     47  C   UNL A   1      45.504  24.985  26.656  1.00  0.00     0.049 A 
ATOM     48  C   UNL A   1      47.008  30.298  27.661  1.00  0.00     0.074 A 
ATOM     49  C   UNL A   1      46.468  24.163  26.098  1.00  0.00     0.029 A 
ATOM     50  N   UNL A   1      46.090  26.231  26.827  1.00  0.00    -0.354 N 
ATOM     51  N   UNL A   1      46.800  29.035  27.371  1.00  0.00    -0.248 NA
ATOM     52  C   UNL A   1      48.377  30.760  27.395  1.00  0.00     0.031 C 
ATOM     53  C   UNL A   1      47.651  24.898  25.979  1.00  0.00     0.029 A 
ATOM     54  C   UNL A   1      47.406  26.195  26.402  1.00  0.00     0.049 A 
ATOM     55  H   UNL A   1      45.636  27.022  27.195  1.00  0.00     0.167 HD
ATOM     56  C   UNL A   1      48.002  28.561  26.857  1.00  0.00     0.074 A 
ATOM     57  C   UNL A   1      48.926  29.677  26.864  1.00  0.00     0.031 C 
ATOM     58  C   UNL A   1      48.311  27.318  26.412  1.00  0.00     0.031 A 
BRANCH  45  59
ATOM     59  C   UNL A   1      43.674  23.242  26.826  1.00  0.00    -0.014 A 
ATOM     60  C   UNL A   1      42.982  22.568  27.851  1.00  0.00     0.010 A 
ATOM     61  C   UNL A   1      43.894  22.583  25.604  1.00  0.00     0.010 A 
ATOM     62  C   UNL A   1      42.559  21.248  27.670  1.00  0.00     0.020 A 
ATOM     63  C   UNL A   1      43.443  21.274  25.408  1.00  0.00     0.020 A 
ATOM     64  C   UNL A   1      42.794  20.608  26.450  1.00  0.00     0.054 A 
BRANCH  64  65
ATOM     65  S   UNL A   1      42.213  18.904  26.238  1.00  0.00     0.124 S 
ATOM     66  O   UNL A   1      42.395  18.354  27.579  1.00  0.00    -0.237 OA
ATOM     67  O   UNL A   1      40.826  19.090  25.818  1.00  0.00    -0.237 OA
ATOM     68  O   UNL A   1      43.101  18.358  25.215  1.00  0.00    -0.744 OA
ENDBRANCH  64  65
ENDBRANCH  45  59
BRANCH  46  69
ATOM     69  C   UNL A   1      46.471  32.714  28.477  1.00  0.00    -0.014 A 
ATOM     70  C   UNL A   1      46.332  33.705  27.489  1.00  0.00     0.010 A 
ATOM     71  C   UNL A   1      47.005  33.068  29.729  1.00  0.00     0.010 A 
ATOM     72  C   UNL A   1      46.739  35.018  27.742  1.00  0.00     0.020 A 
ATOM     73  C   UNL A   1      47.384  34.386  29.995  1.00  0.00     0.020 A 
ATOM     74  C   UNL A   1      47.260  35.351  28.995  1.00  0.00     0.054 A 
BRANCH  74  75
ATOM     75  S   UNL A   1      47.733  37.074  29.317  1.00  0.00     0.124 S 
ATOM     76  O   UNL A   1      48.046  37.558  27.976  1.00  0.00    -0.237 OA
ATOM     77  O   UNL A   1      46.524  37.624  29.925  1.00  0.00    -0.237 OA
ATOM     78  O   UNL A   1      48.874  36.951  30.221  1.00  0.00    -0.744 OA
ENDBRANCH  74  75
ENDBRANCH  46  69
BRANCH  58  79
ATOM     79  C   UNL A   1      49.691  27.106  25.848  1.00  0.00    -0.014 A 
ATOM     80  C   UNL A   1      50.759  26.683  26.657  1.00  0.00     0.010 A 
ATOM     81  C   UNL A   1      49.904  27.282  24.468  1.00  0.00     0.010 A 
ATOM     82  C   UNL A   1      52.025  26.474  26.103  1.00  0.00     0.020 A 
ATOM     83  C   UNL A   1      51.160  27.044  23.904  1.00  0.00     0.020 A 
ATOM     84  C   UNL A   1      52.217  26.657  24.730  1.00  0.00     0.054 A 
BRANCH  84  85
ATOM     85  S   UNL A   1      53.858  26.341  24.027  1.00  0.00     0.124 S 
ATOM     86  O   UNL A   1      53.554  26.178  22.608  1.00  0.00    -0.237 OA
ATOM     87  O   UNL A   1      54.595  27.553  24.377  1.00  0.00    -0.237 OA
ATOM     88  O   UNL A   1      54.302  25.129  24.713  1.00  0.00    -0.744 OA
ENDBRANCH  84  85
ENDBRANCH  58  79
ENDBRANCH  32  33
ENDBRANCH  24  27
ENDBRANCH  22  23
ENDBRANCH   1  22
TORSDOF 16
ENDMDL
MODEL 2
REMARK VINA RESULT:     -10.7      5.105     11.237
REMARK SMILES CSc1ncccc1C(=O)N1CSC[C@H]1C(=O)NCCCNC(=O)c1ccc(-c2c3nc(c(-c4ccc(S(=O)(=O)[O-])cc4)c4ccc([nH]4)c(-c4ccc(S(=O)(=O)[O-])cc4)c4nc(c(-c5ccc(S(=O)(=O)[O-])cc5)c5ccc2[nH]5)C=C4)C=C3)cc1
REMARK SMILES IDX 20 1 19 2 18 3 16 4 17 5 15 7 11 8 12 9 13 10 14 11 9 12
REMARK SMILES IDX 10 13 8 14 3 15 4 16 5 17 7 18 6 19 2 20 1 21 21 22 22 23
REMARK SMILES IDX 23 24 24 26 25 27 26 28 84 29 27 30 83 31 28 32 29 33 30 34
REMARK SMILES IDX 77 35 31 36 82 37 76 38 78 39 32 40 81 41 75 42 74 43 33 45
REMARK SMILES IDX 63 46 44 47 62 48 45 49 48 50 61 51 79 52 46 53 47 54 60 56
REMARK SMILES IDX 80 57 49 58 34 59 35 60 43 61 36 62 42 63 37 64 38 65 39 66
REMARK SMILES IDX 40 67 41 68 64 69 65 70 73 71 66 72 72 73 67 74 68 75 69 76
REMARK SMILES IDX 70 77 71 78 50 79 51 80 59 81 52 82 58 83 53 84 54 85 55 86
REMARK SMILES IDX 56 87 57 88
REMARK H PARENT 18 6 22 25 78 44 48 55
REMARK Flexibility Score: inf
ROOT
ATOM      1  C   UNL A   1      33.717  27.319  25.722  1.00  0.00     0.042 C 
ENDROOT
BRANCH   1   2
ATOM      2  C   UNL A   1      33.723  25.800  25.688  1.00  0.00     0.117 C 
BRANCH   2   3
ATOM      3  N   UNL A   1      34.331  25.271  24.487  1.00  0.00    -0.354 N 
ATOM      4  C   UNL A   1      35.181  24.222  24.310  1.00  0.00     0.243 C 
ATOM      5  O   UNL A   1      35.281  23.793  23.154  1.00  0.00    -0.273 OA
ATOM      6  H   UNL A   1      34.090  25.749  23.660  1.00  0.00     0.163 HD
BRANCH   4   7
ATOM      7  C   UNL A   1      35.841  23.464  25.482  1.00  0.00     0.185 C 
ATOM      8  N   UNL A   1      35.823  21.990  25.444  1.00  0.00    -0.316 N 
ATOM      9  C   UNL A   1      37.118  21.369  25.255  1.00  0.00     0.190 C 
ATOM     10  S   UNL A   1      38.316  22.512  25.971  1.00  0.00    -0.138 SA
ATOM     11  C   UNL A   1      37.263  23.973  25.731  1.00  0.00     0.106 C 
BRANCH   8  12
ATOM     12  C   UNL A   1      34.627  21.363  25.808  1.00  0.00     0.257 C 
ATOM     13  O   UNL A   1      34.210  21.423  26.962  1.00  0.00    -0.269 OA
BRANCH  12  14
ATOM     14  C   UNL A   1      33.926  20.463  24.855  1.00  0.00     0.072 A 
ATOM     15  C   UNL A   1      32.763  20.816  24.164  1.00  0.00     0.108 A 
ATOM     16  N   UNL A   1      32.110  19.926  23.364  1.00  0.00    -0.249 NA
ATOM     17  C   UNL A   1      32.585  18.668  23.265  1.00  0.00     0.112 A 
ATOM     18  C   UNL A   1      34.352  19.125  24.776  1.00  0.00     0.018 A 
ATOM     19  C   UNL A   1      33.694  18.222  23.951  1.00  0.00     0.021 A 
BRANCH  15  20
ATOM     20  S   UNL A   1      32.026  22.446  24.217  1.00  0.00    -0.109 SA
ATOM     21  C   UNL A   1      31.023  22.313  25.727  1.00  0.00     0.092 C 
ENDBRANCH  15  20
ENDBRANCH  12  14
ENDBRANCH   8  12
ENDBRANCH   4   7
ENDBRANCH   2   3
ENDBRANCH   1   2
BRANCH   1  22
ATOM     22  C   UNL A   1      33.622  27.883  27.134  1.00  0.00     0.118 C 
BRANCH  22  23
ATOM     23  N   UNL A   1      33.493  29.336  27.134  1.00  0.00    -0.352 N 
ATOM     24  C   UNL A   1      34.339  30.298  27.618  1.00  0.00     0.251 C 
ATOM     25  H   UNL A   1      32.669  29.680  26.719  1.00  0.00     0.163 HD
ATOM     26  O   UNL A   1      33.930  31.455  27.741  1.00  0.00    -0.269 OA
BRANCH  24  27
ATOM     27  C   UNL A   1      35.726  29.959  27.995  1.00  0.00     0.039 A 
ATOM     28  C   UNL A   1      36.001  29.571  29.309  1.00  0.00     0.014 A 
ATOM     29  C   UNL A   1      36.762  30.060  27.064  1.00  0.00     0.014 A 
ATOM     30  C   UNL A   1      37.307  29.238  29.673  1.00  0.00     0.010 A 
ATOM     31  C   UNL A   1      38.043  29.638  27.401  1.00  0.00     0.010 A 
ATOM     32  C   UNL A   1      38.333  29.243  28.715  1.00  0.00    -0.014 A 
BRANCH  32  33
ATOM     33  C   UNL A   1      39.726  28.871  29.067  1.00  0.00     0.031 A 
ATOM     34  C   UNL A   1      40.627  29.882  29.724  1.00  0.00     0.074 A 
ATOM     35  C   UNL A   1      40.195  27.652  28.735  1.00  0.00     0.049 A 
ATOM     36  N   UNL A   1      41.892  29.776  30.042  1.00  0.00    -0.248 NA
ATOM     37  C   UNL A   1      40.039  31.195  30.039  1.00  0.00     0.031 C 
ATOM     38  C   UNL A   1      39.429  26.602  28.061  1.00  0.00     0.029 A 
ATOM     39  N   UNL A   1      41.434  27.093  28.917  1.00  0.00    -0.354 N 
ATOM     40  C   UNL A   1      42.253  31.010  30.571  1.00  0.00     0.074 A 
ATOM     41  C   UNL A   1      41.092  31.866  30.481  1.00  0.00     0.031 C 
ATOM     42  C   UNL A   1      40.205  25.518  27.910  1.00  0.00     0.029 A 
ATOM     43  C   UNL A   1      41.536  25.808  28.435  1.00  0.00     0.049 A 
ATOM     44  H   UNL A   1      42.181  27.566  29.350  1.00  0.00     0.167 HD
ATOM     45  C   UNL A   1      43.438  31.391  31.103  1.00  0.00     0.031 A 
ATOM     46  C   UNL A   1      42.584  24.963  28.414  1.00  0.00     0.031 A 
ATOM     47  C   UNL A   1      44.585  30.527  31.202  1.00  0.00     0.049 A 
ATOM     48  C   UNL A   1      43.892  25.408  29.009  1.00  0.00     0.074 A 
ATOM     49  C   UNL A   1      45.818  30.795  31.771  1.00  0.00     0.029 A 
ATOM     50  N   UNL A   1      44.641  29.228  30.720  1.00  0.00    -0.354 N 
ATOM     51  N   UNL A   1      44.197  26.559  29.559  1.00  0.00    -0.248 NA
ATOM     52  C   UNL A   1      44.992  24.435  28.994  1.00  0.00     0.031 C 
ATOM     53  C   UNL A   1      46.635  29.677  31.587  1.00  0.00     0.029 A 
ATOM     54  C   UNL A   1      45.892  28.688  30.962  1.00  0.00     0.049 A 
ATOM     55  H   UNL A   1      43.900  28.760  30.271  1.00  0.00     0.167 HD
ATOM     56  C   UNL A   1      45.514  26.437  29.988  1.00  0.00     0.074 A 
ATOM     57  C   UNL A   1      45.941  25.096  29.644  1.00  0.00     0.031 C 
ATOM     58  C   UNL A   1      46.297  27.348  30.616  1.00  0.00     0.031 A 
BRANCH  45  59
ATOM     59  C   UNL A   1      43.553  32.803  31.615  1.00  0.00    -0.014 A 
ATOM     60  C   UNL A   1      43.189  33.131  32.935  1.00  0.00     0.010 A 
ATOM     61  C   UNL A   1      44.062  33.812  30.777  1.00  0.00     0.010 A 
ATOM     62  C   UNL A   1      43.291  34.448  33.392  1.00  0.00     0.020 A 
ATOM     63  C   UNL A   1      44.196  35.124  31.241  1.00  0.00     0.020 A 
ATOM     64  C   UNL A   1      43.792  35.437  32.540  1.00  0.00     0.054 A 
BRANCH  64  65
ATOM     65  S   UNL A   1      43.934  37.132  33.169  1.00  0.00     0.124 S 
ATOM     66  O   UNL A   1      45.248  37.108  33.806  1.00  0.00    -0.237 OA
ATOM     67  O   UNL A   1      43.842  37.934  31.951  1.00  0.00    -0.237 OA
ATOM     68  O   UNL A   1      42.801  37.261  34.082  1.00  0.00    -0.744 OA
ENDBRANCH  64  65
ENDBRANCH  45  59
BRANCH  46  69
ATOM     69  C   UNL A   1      42.430  23.603  27.827  1.00  0.00    -0.014 A 
ATOM     70  C   UNL A   1      42.707  23.377  26.467  1.00  0.00     0.010 A 
ATOM     71  C   UNL A   1      42.020  22.522  28.629  1.00  0.00     0.010 A 
ATOM     72  C   UNL A   1      42.557  22.101  25.916  1.00  0.00     0.020 A 
ATOM     73  C   UNL A   1      41.897  21.240  28.088  1.00  0.00     0.020 A 
ATOM     74  C   UNL A   1      42.156  21.039  26.731  1.00  0.00     0.054 A 
BRANCH  74  75
ATOM     75  S   UNL A   1      42.018  19.381  26.006  1.00  0.00     0.124 S 
ATOM     76  O   UNL A   1      42.856  19.500  24.816  1.00  0.00    -0.237 OA
ATOM     77  O   UNL A   1      42.544  18.528  27.068  1.00  0.00    -0.237 OA
ATOM     78  O   UNL A   1      40.586  19.237  25.753  1.00  0.00    -0.744 OA
ENDBRANCH  74  75
ENDBRANCH  46  69
BRANCH  58  79
ATOM     79  C   UNL A   1      47.682  26.913  31.019  1.00  0.00    -0.014 A 
ATOM     80  C   UNL A   1      48.789  27.111  30.177  1.00  0.00     0.010 A 
ATOM     81  C   UNL A   1      47.880  26.345  32.291  1.00  0.00     0.010 A 
ATOM     82  C   UNL A   1      50.066  26.716  30.585  1.00  0.00     0.020 A 
ATOM     83  C   UNL A   1      49.159  25.977  32.716  1.00  0.00     0.020 A 
ATOM     84  C   UNL A   1      50.242  26.151  31.852  1.00  0.00     0.054 A 
BRANCH  84  85
ATOM     85  S   UNL A   1      51.914  25.684  32.375  1.00  0.00     0.124 S 
ATOM     86  O   UNL A   1      52.743  26.376  31.393  1.00  0.00    -0.237 OA
ATOM     87  O   UNL A   1      51.982  26.209  33.737  1.00  0.00    -0.237 OA
ATOM     88  O   UNL A   1      51.915  24.226  32.275  1.00  0.00    -0.744 OA
ENDBRANCH  84  85
ENDBRANCH  58  79
ENDBRANCH  32  33
ENDBRANCH  24  27
ENDBRANCH  22  23
ENDBRANCH   1  22
TORSDOF 16
ENDMDL
MODEL 3
REMARK VINA RESULT:     -10.6      0.533      8.326
REMARK SMILES CSc1ncccc1C(=O)N1CSC[C@H]1C(=O)NCCCNC(=O)c1ccc(-c2c3nc(c(-c4ccc(S(=O)(=O)[O-])cc4)c4ccc([nH]4)c(-c4ccc(S(=O)(=O)[O-])cc4)c4nc(c(-c5ccc(S(=O)(=O)[O-])cc5)c5ccc2[nH]5)C=C4)C=C3)cc1
REMARK SMILES IDX 20 1 19 2 18 3 16 4 17 5 15 7 11 8 12 9 13 10 14 11 9 12
REMARK SMILES IDX 10 13 8 14 3 15 4 16 5 17 7 18 6 19 2 20 1 21 21 22 22 23
REMARK SMILES IDX 23 24 24 26 25 27 26 28 84 29 27 30 83 31 28 32 29 33 30 34
REMARK SMILES IDX 77 35 31 36 82 37 76 38 78 39 32 40 81 41 75 42 74 43 33 45
REMARK SMILES IDX 63 46 44 47 62 48 45 49 48 50 61 51 79 52 46 53 47 54 60 56
REMARK SMILES IDX 80 57 49 58 34 59 35 60 43 61 36 62 42 63 37 64 38 65 39 66
REMARK SMILES IDX 40 67 41 68 64 69 65 70 73 71 66 72 72 73 67 74 68 75 69 76
REMARK SMILES IDX 70 77 71 78 50 79 51 80 59 81 52 82 58 83 53 84 54 85 55 86
REMARK SMILES IDX 56 87 57 88
REMARK H PARENT 18 6 22 25 78 44 48 55
REMARK Flexibility Score: inf
ROOT
ATOM      1  C   UNL A   1      35.058  31.688  27.635  1.00  0.00     0.042 C 
ENDROOT
BRANCH   1   2
ATOM      2  C   UNL A   1      34.158  32.492  28.559  1.00  0.00     0.117 C 
BRANCH   2   3
ATOM      3  N   UNL A   1      34.109  33.895  28.209  1.00  0.00    -0.354 N 
ATOM      4  C   UNL A   1      33.919  34.997  28.985  1.00  0.00     0.243 C 
ATOM      5  O   UNL A   1      34.249  36.078  28.483  1.00  0.00    -0.273 OA
ATOM      6  H   UNL A   1      34.235  34.083  27.251  1.00  0.00     0.163 HD
BRANCH   4   7
ATOM      7  C   UNL A   1      33.506  34.922  30.471  1.00  0.00     0.185 C 
ATOM      8  N   UNL A   1      34.577  34.786  31.476  1.00  0.00    -0.316 N 
ATOM      9  C   UNL A   1      34.764  35.941  32.329  1.00  0.00     0.190 C 
ATOM     10  S   UNL A   1      33.148  36.736  32.435  1.00  0.00    -0.138 SA
ATOM     11  C   UNL A   1      32.575  36.080  30.839  1.00  0.00     0.106 C 
BRANCH   8  12
ATOM     12  C   UNL A   1      35.130  33.512  31.640  1.00  0.00     0.257 C 
ATOM     13  O   UNL A   1      34.433  32.563  31.994  1.00  0.00    -0.269 OA
BRANCH  12  14
ATOM     14  C   UNL A   1      36.601  33.312  31.567  1.00  0.00     0.072 A 
ATOM     15  C   UNL A   1      37.420  33.148  32.688  1.00  0.00     0.108 A 
ATOM     16  N   UNL A   1      38.776  33.050  32.573  1.00  0.00    -0.249 NA
ATOM     17  C   UNL A   1      39.334  33.145  31.349  1.00  0.00     0.112 A 
ATOM     18  C   UNL A   1      37.226  33.470  30.317  1.00  0.00     0.018 A 
ATOM     19  C   UNL A   1      38.606  33.357  30.199  1.00  0.00     0.021 A 
BRANCH  15  20
ATOM     20  S   UNL A   1      36.806  33.017  34.364  1.00  0.00    -0.109 SA
ATOM     21  C   UNL A   1      38.358  33.152  35.302  1.00  0.00     0.092 C 
ENDBRANCH  15  20
ENDBRANCH  12  14
ENDBRANCH   8  12
ENDBRANCH   4   7
ENDBRANCH   2   3
ENDBRANCH   1   2
BRANCH   1  22
ATOM     22  C   UNL A   1      35.513  30.369  28.246  1.00  0.00     0.118 C 
BRANCH  22  23
ATOM     23  N   UNL A   1      35.526  30.419  29.704  1.00  0.00    -0.352 N 
ATOM     24  C   UNL A   1      36.466  29.972  30.594  1.00  0.00     0.251 C 
ATOM     25  H   UNL A   1      34.736  30.842  30.113  1.00  0.00     0.163 HD
ATOM     26  O   UNL A   1      36.173  29.888  31.789  1.00  0.00    -0.269 OA
BRANCH  24  27
ATOM     27  C   UNL A   1      37.815  29.589  30.134  1.00  0.00     0.039 A 
ATOM     28  C   UNL A   1      38.145  29.742  28.784  1.00  0.00     0.014 A 
ATOM     29  C   UNL A   1      38.744  29.043  31.023  1.00  0.00     0.014 A 
ATOM     30  C   UNL A   1      39.422  29.393  28.340  1.00  0.00     0.010 A 
ATOM     31  C   UNL A   1      40.042  28.785  30.600  1.00  0.00     0.010 A 
ATOM     32  C   UNL A   1      40.389  28.938  29.251  1.00  0.00    -0.014 A 
BRANCH  32  33
ATOM     33  C   UNL A   1      41.761  28.582  28.812  1.00  0.00     0.031 A 
ATOM     34  C   UNL A   1      42.824  29.647  28.743  1.00  0.00     0.074 A 
ATOM     35  C   UNL A   1      42.030  27.323  28.414  1.00  0.00     0.049 A 
ATOM     36  N   UNL A   1      44.058  29.553  28.318  1.00  0.00    -0.248 NA
ATOM     37  C   UNL A   1      42.443  31.000  29.182  1.00  0.00     0.031 C 
ATOM     38  C   UNL A   1      41.072  26.215  28.398  1.00  0.00     0.029 A 
ATOM     39  N   UNL A   1      43.189  26.765  27.940  1.00  0.00    -0.354 N 
ATOM     40  C   UNL A   1      44.589  30.834  28.417  1.00  0.00     0.074 A 
ATOM     41  C   UNL A   1      43.530  31.697  28.890  1.00  0.00     0.031 C 
ATOM     42  C   UNL A   1      41.689  25.105  27.964  1.00  0.00     0.029 A 
ATOM     43  C   UNL A   1      43.072  25.430  27.629  1.00  0.00     0.049 A 
ATOM     44  H   UNL A   1      44.027  27.271  27.832  1.00  0.00     0.167 HD
ATOM     45  C   UNL A   1      45.851  31.252  28.158  1.00  0.00     0.031 A 
ATOM     46  C   UNL A   1      43.975  24.567  27.125  1.00  0.00     0.031 A 
ATOM     47  C   UNL A   1      46.903  30.384  27.700  1.00  0.00     0.049 A 
ATOM     48  C   UNL A   1      45.370  25.053  26.843  1.00  0.00     0.074 A 
ATOM     49  C   UNL A   1      48.230  30.693  27.459  1.00  0.00     0.029 A 
ATOM     50  N   UNL A   1      46.748  29.035  27.416  1.00  0.00    -0.354 N 
ATOM     51  N   UNL A   1      45.870  26.256  27.000  1.00  0.00    -0.248 NA
ATOM     52  C   UNL A   1      46.326  24.064  26.330  1.00  0.00     0.031 C 
ATOM     53  C   UNL A   1      48.864  29.544  26.978  1.00  0.00     0.029 A 
ATOM     54  C   UNL A   1      47.949  28.503  26.984  1.00  0.00     0.049 A 
ATOM     55  H   UNL A   1      45.907  28.532  27.508  1.00  0.00     0.167 HD
ATOM     56  C   UNL A   1      47.209  26.159  26.639  1.00  0.00     0.074 A 
ATOM     57  C   UNL A   1      47.441  24.778  26.267  1.00  0.00     0.031 C 
ATOM     58  C   UNL A   1      48.162  27.123  26.623  1.00  0.00     0.031 A 
BRANCH  45  59
ATOM     59  C   UNL A   1      46.158  32.713  28.360  1.00  0.00    -0.014 A 
ATOM     60  C   UNL A   1      45.937  33.653  27.335  1.00  0.00     0.010 A 
ATOM     61  C   UNL A   1      46.644  33.161  29.602  1.00  0.00     0.010 A 
ATOM     62  C   UNL A   1      46.237  35.003  27.534  1.00  0.00     0.020 A 
ATOM     63  C   UNL A   1      46.915  34.516  29.815  1.00  0.00     0.020 A 
ATOM     64  C   UNL A   1      46.727  35.426  28.773  1.00  0.00     0.054 A 
BRANCH  64  65
ATOM     65  S   UNL A   1      47.086  37.187  29.009  1.00  0.00     0.124 S 
ATOM     66  O   UNL A   1      45.748  37.774  28.971  1.00  0.00    -0.237 OA
ATOM     67  O   UNL A   1      47.744  37.208  30.313  1.00  0.00    -0.237 OA
ATOM     68  O   UNL A   1      47.945  37.522  27.876  1.00  0.00    -0.744 OA
ENDBRANCH  64  65
ENDBRANCH  45  59
BRANCH  46  69
ATOM     69  C   UNL A   1      43.590  23.150  26.877  1.00  0.00    -0.014 A 
ATOM     70  C   UNL A   1      43.137  22.338  27.932  1.00  0.00     0.010 A 
ATOM     71  C   UNL A   1      43.659  22.608  25.580  1.00  0.00     0.010 A 
ATOM     72  C   UNL A   1      42.781  21.006  27.699  1.00  0.00     0.020 A 
ATOM     73  C   UNL A   1      43.276  21.287  25.338  1.00  0.00     0.020 A 
ATOM     74  C   UNL A   1      42.850  20.490  26.403  1.00  0.00     0.054 A 
BRANCH  74  75
ATOM     75  S   UNL A   1      42.334  18.774  26.115  1.00  0.00     0.124 S 
ATOM     76  O   UNL A   1      43.251  18.354  25.059  1.00  0.00    -0.237 OA
ATOM     77  O   UNL A   1      42.547  18.157  27.422  1.00  0.00    -0.237 OA
ATOM     78  O   UNL A   1      40.934  18.900  25.716  1.00  0.00    -0.744 OA
ENDBRANCH  74  75
ENDBRANCH  46  69
BRANCH  58  79
ATOM     79  C   UNL A   1      49.560  26.712  26.238  1.00  0.00    -0.014 A 
ATOM     80  C   UNL A   1      50.431  26.115  27.165  1.00  0.00     0.010 A 
ATOM     81  C   UNL A   1      49.983  26.878  24.907  1.00  0.00     0.010 A 
ATOM     82  C   UNL A   1      51.716  25.724  26.775  1.00  0.00     0.020 A 
ATOM     83  C   UNL A   1      51.254  26.461  24.505  1.00  0.00     0.020 A 
ATOM     84  C   UNL A   1      52.118  25.901  25.447  1.00  0.00     0.054 A 
BRANCH  84  85
ATOM     85  S   UNL A   1      53.774  25.349  24.956  1.00  0.00     0.124 S 
ATOM     86  O   UNL A   1      53.967  26.055  23.693  1.00  0.00    -0.237 OA
ATOM     87  O   UNL A   1      54.607  25.807  26.066  1.00  0.00    -0.237 OA
ATOM     88  O   UNL A   1      53.638  23.898  24.844  1.00  0.00    -0.744 OA
ENDBRANCH  84  85
ENDBRANCH  58  79
ENDBRANCH  32  33
ENDBRANCH  24  27
ENDBRANCH  22  23
ENDBRANCH   1  22
TORSDOF 16
ENDMDL
