MODEL 1
REMARK VINA RESULT:     -10.1      0.000      0.000
REMARK SMILES C[N@@H+](CC(=O)NCCCNC(=O)c1ccc(-c2c3nc(c(-c4ccc(S(=O)(=O)[O-])cc4)c4ccc([nH]4)c(-c4ccc(S(=O)(=O)[O-])cc4)c4nc(c(-c5ccc(S(=O)(=O)[O-])cc5)c5ccc2[nH]5)C=C4)C=C3)cc1)Cc1noc(-c2ccccc2Cl)n1
REMARK SMILES IDX 7 1 6 2 4 3 5 4 3 6 2 7 1 8 73 10 74 11 75 12 85 13 76 14
REMARK SMILES IDX 77 15 78 16 79 17 83 18 80 19 82 20 84 21 81 22 8 23 9 24
REMARK SMILES IDX 10 25 11 26 12 28 13 29 14 30 72 31 15 32 71 33 16 34 17 35
REMARK SMILES IDX 18 36 65 37 19 38 70 39 64 40 66 41 20 42 69 43 63 44 62 45
REMARK SMILES IDX 21 47 51 48 32 49 50 50 33 51 36 52 49 53 67 54 34 55 35 56
REMARK SMILES IDX 48 58 68 59 37 60 22 61 23 62 31 63 24 64 30 65 25 66 26 67
REMARK SMILES IDX 27 68 28 69 29 70 52 71 53 72 61 73 54 74 60 75 55 76 56 77
REMARK SMILES IDX 57 78 58 79 59 80 38 81 39 82 47 83 40 84 46 85 41 86 42 87
REMARK SMILES IDX 43 88 44 89 45 90
REMARK H PARENT 6 5 2 9 10 27 66 46 36 57
REMARK Flexibility Score: inf
ROOT
ATOM      1  C   UNL A   1      34.896  22.961  24.284  1.00  0.00     0.118 C 
ENDROOT
BRANCH   1   2
ATOM      2  N   UNL A   1      34.546  23.205  22.898  1.00  0.00    -0.351 N 
ATOM      3  C   UNL A   1      33.351  23.111  22.253  1.00  0.00     0.275 C 
ATOM      4  O   UNL A   1      33.317  23.489  21.077  1.00  0.00    -0.269 OA
ATOM      5  H   UNL A   1      35.300  23.486  22.328  1.00  0.00     0.163 HD
BRANCH   3   6
ATOM      6  C   UNL A   1      32.085  22.627  22.959  1.00  0.00     0.363 C 
BRANCH   6   7
ATOM      7  N   UNL A   1      31.510  23.514  23.974  1.00  0.00    -0.323 N 
ATOM      8  C   UNL A   1      30.896  22.898  25.129  1.00  0.00     0.333 C 
ATOM      9  H   UNL A   1      32.395  23.856  24.351  1.00  0.00     0.348 HD
BRANCH   7  10
ATOM     10  C   UNL A   1      30.885  24.769  23.531  1.00  0.00     0.345 C 
BRANCH  10  11
ATOM     11  C   UNL A   1      31.620  26.039  23.841  1.00  0.00     0.226 A 
ATOM     12  N   UNL A   1      32.153  26.782  22.858  1.00  0.00    -0.056 NA
ATOM     13  N   UNL A   1      31.846  26.526  25.113  1.00  0.00    -0.186 NA
ATOM     14  O   UNL A   1      32.722  27.855  23.537  1.00  0.00    -0.334 OA
ATOM     15  C   UNL A   1      32.518  27.630  24.868  1.00  0.00     0.259 A 
BRANCH  15  16
ATOM     16  C   UNL A   1      33.088  28.630  25.754  1.00  0.00     0.058 A 
ATOM     17  C   UNL A   1      34.254  28.317  26.480  1.00  0.00     0.015 A 
ATOM     18  C   UNL A   1      32.490  29.882  25.952  1.00  0.00     0.053 A 
ATOM     19  C   UNL A   1      34.802  29.228  27.386  1.00  0.00     0.001 A 
ATOM     20  C   UNL A   1      33.030  30.783  26.877  1.00  0.00     0.021 A 
ATOM     21  Cl  UNL A   1      31.057  30.364  25.113  1.00  0.00    -0.083 Cl
ATOM     22  C   UNL A   1      34.183  30.456  27.593  1.00  0.00     0.002 A 
ENDBRANCH  15  16
ENDBRANCH  10  11
ENDBRANCH   7  10
ENDBRANCH   6   7
ENDBRANCH   3   6
ENDBRANCH   1   2
BRANCH   1  23
ATOM     23  C   UNL A   1      35.769  24.059  24.884  1.00  0.00     0.042 C 
BRANCH  23  24
ATOM     24  C   UNL A   1      36.419  23.721  26.219  1.00  0.00     0.118 C 
BRANCH  24  25
ATOM     25  N   UNL A   1      37.554  22.821  26.088  1.00  0.00    -0.352 N 
ATOM     26  C   UNL A   1      38.887  23.026  26.348  1.00  0.00     0.251 C 
ATOM     27  H   UNL A   1      37.330  21.920  25.760  1.00  0.00     0.163 HD
ATOM     28  O   UNL A   1      39.697  22.160  26.002  1.00  0.00    -0.269 OA
BRANCH  26  29
ATOM     29  C   UNL A   1      39.379  24.259  27.014  1.00  0.00     0.039 A 
ATOM     30  C   UNL A   1      40.131  25.178  26.272  1.00  0.00     0.014 A 
ATOM     31  C   UNL A   1      39.160  24.500  28.370  1.00  0.00     0.014 A 
ATOM     32  C   UNL A   1      40.601  26.356  26.869  1.00  0.00     0.010 A 
ATOM     33  C   UNL A   1      39.563  25.708  28.942  1.00  0.00     0.010 A 
ATOM     34  C   UNL A   1      40.293  26.649  28.206  1.00  0.00    -0.014 A 
BRANCH  34  35
ATOM     35  C   UNL A   1      40.708  27.923  28.858  1.00  0.00     0.031 A 
ATOM     36  C   UNL A   1      42.079  28.061  29.474  1.00  0.00     0.074 A 
ATOM     37  C   UNL A   1      39.824  28.934  28.977  1.00  0.00     0.049 A 
ATOM     38  N   UNL A   1      42.585  29.064  30.147  1.00  0.00    -0.248 NA
ATOM     39  C   UNL A   1      42.990  26.912  29.343  1.00  0.00     0.031 C 
ATOM     40  C   UNL A   1      38.443  28.916  28.488  1.00  0.00     0.029 A 
ATOM     41  N   UNL A   1      39.950  30.171  29.561  1.00  0.00    -0.354 N 
ATOM     42  C   UNL A   1      43.863  28.667  30.524  1.00  0.00     0.074 A 
ATOM     43  C   UNL A   1      44.034  27.308  30.057  1.00  0.00     0.031 C 
ATOM     44  C   UNL A   1      37.860  30.094  28.768  1.00  0.00     0.029 A 
ATOM     45  C   UNL A   1      38.812  30.939  29.484  1.00  0.00     0.049 A 
ATOM     46  H   UNL A   1      40.780  30.479  29.993  1.00  0.00     0.167 HD
ATOM     47  C   UNL A   1      44.821  29.373  31.175  1.00  0.00     0.031 A 
ATOM     48  C   UNL A   1      38.558  32.182  29.937  1.00  0.00     0.031 A 
ATOM     49  C   UNL A   1      44.666  30.733  31.622  1.00  0.00     0.049 A 
ATOM     50  C   UNL A   1      39.639  32.950  30.646  1.00  0.00     0.074 A 
ATOM     51  C   UNL A   1      45.600  31.547  32.241  1.00  0.00     0.029 A 
ATOM     52  N   UNL A   1      43.509  31.484  31.490  1.00  0.00    -0.354 N 
ATOM     53  N   UNL A   1      40.862  32.575  30.935  1.00  0.00    -0.248 NA
ATOM     54  C   UNL A   1      39.311  34.318  31.073  1.00  0.00     0.031 C 
ATOM     55  C   UNL A   1      44.999  32.781  32.510  1.00  0.00     0.029 A 
ATOM     56  C   UNL A   1      43.704  32.749  32.018  1.00  0.00     0.049 A 
ATOM     57  H   UNL A   1      42.672  31.166  31.081  1.00  0.00     0.167 HD
ATOM     58  C   UNL A   1      41.459  33.673  31.545  1.00  0.00     0.074 A 
ATOM     59  C   UNL A   1      40.467  34.728  31.577  1.00  0.00     0.031 C 
ATOM     60  C   UNL A   1      42.717  33.796  32.031  1.00  0.00     0.031 A 
BRANCH  47  61
ATOM     61  C   UNL A   1      46.143  28.695  31.420  1.00  0.00    -0.014 A 
ATOM     62  C   UNL A   1      47.185  28.797  30.480  1.00  0.00     0.010 A 
ATOM     63  C   UNL A   1      46.374  28.005  32.624  1.00  0.00     0.010 A 
ATOM     64  C   UNL A   1      48.419  28.190  30.722  1.00  0.00     0.020 A 
ATOM     65  C   UNL A   1      47.617  27.419  32.882  1.00  0.00     0.020 A 
ATOM     66  C   UNL A   1      48.627  27.502  31.921  1.00  0.00     0.054 A 
BRANCH  66  67
ATOM     67  S   UNL A   1      50.250  26.749  32.221  1.00  0.00     0.124 S 
ATOM     68  O   UNL A   1      50.988  27.859  32.819  1.00  0.00    -0.237 OA
ATOM     69  O   UNL A   1      49.931  25.648  33.126  1.00  0.00    -0.237 OA
ATOM     70  O   UNL A   1      50.698  26.348  30.890  1.00  0.00    -0.744 OA
ENDBRANCH  66  67
ENDBRANCH  47  61
BRANCH  48  71
ATOM     71  C   UNL A   1      37.227  32.805  29.701  1.00  0.00    -0.014 A 
ATOM     72  C   UNL A   1      36.993  33.548  28.531  1.00  0.00     0.010 A 
ATOM     73  C   UNL A   1      36.195  32.669  30.646  1.00  0.00     0.010 A 
ATOM     74  C   UNL A   1      35.760  34.173  28.324  1.00  0.00     0.020 A 
ATOM     75  C   UNL A   1      34.953  33.272  30.430  1.00  0.00     0.020 A 
ATOM     76  C   UNL A   1      34.748  34.034  29.278  1.00  0.00     0.054 A 
BRANCH  76  77
ATOM     77  S   UNL A   1      33.146  34.829  28.977  1.00  0.00     0.124 S 
ATOM     78  O   UNL A   1      33.548  36.140  28.480  1.00  0.00    -0.237 OA
ATOM     79  O   UNL A   1      32.530  33.941  27.994  1.00  0.00    -0.237 OA
ATOM     80  O   UNL A   1      32.512  34.822  30.293  1.00  0.00    -0.744 OA
ENDBRANCH  76  77
ENDBRANCH  48  71
BRANCH  60  81
ATOM     81  C   UNL A   1      43.116  35.134  32.594  1.00  0.00    -0.014 A 
ATOM     82  C   UNL A   1      43.592  36.163  31.765  1.00  0.00     0.010 A 
ATOM     83  C   UNL A   1      42.962  35.377  33.972  1.00  0.00     0.010 A 
ATOM     84  C   UNL A   1      43.937  37.404  32.308  1.00  0.00     0.020 A 
ATOM     85  C   UNL A   1      43.283  36.624  34.514  1.00  0.00     0.020 A 
ATOM     86  C   UNL A   1      43.781  37.626  33.680  1.00  0.00     0.054 A 
BRANCH  86  87
ATOM     87  S   UNL A   1      44.191  39.259  34.355  1.00  0.00     0.124 S 
ATOM     88  O   UNL A   1      45.469  39.544  33.709  1.00  0.00    -0.237 OA
ATOM     89  O   UNL A   1      43.066  40.082  33.913  1.00  0.00    -0.237 OA
ATOM     90  O   UNL A   1      44.257  39.031  35.797  1.00  0.00    -0.744 OA
ENDBRANCH  86  87
ENDBRANCH  60  81
ENDBRANCH  34  35
ENDBRANCH  26  29
ENDBRANCH  24  25
ENDBRANCH  23  24
ENDBRANCH   1  23
TORSDOF 17
ENDMDL
MODEL 2
REMARK VINA RESULT:      -9.8      3.891      5.528
REMARK SMILES C[N@@H+](CC(=O)NCCCNC(=O)c1ccc(-c2c3nc(c(-c4ccc(S(=O)(=O)[O-])cc4)c4ccc([nH]4)c(-c4ccc(S(=O)(=O)[O-])cc4)c4nc(c(-c5ccc(S(=O)(=O)[O-])cc5)c5ccc2[nH]5)C=C4)C=C3)cc1)Cc1noc(-c2ccccc2Cl)n1
REMARK SMILES IDX 7 1 6 2 4 3 5 4 3 6 2 7 1 8 73 10 74 11 75 12 85 13 76 14
REMARK SMILES IDX 77 15 78 16 79 17 83 18 80 19 82 20 84 21 81 22 8 23 9 24
REMARK SMILES IDX 10 25 11 26 12 28 13 29 14 30 72 31 15 32 71 33 16 34 17 35
REMARK SMILES IDX 18 36 65 37 19 38 70 39 64 40 66 41 20 42 69 43 63 44 62 45
REMARK SMILES IDX 21 47 51 48 32 49 50 50 33 51 36 52 49 53 67 54 34 55 35 56
REMARK SMILES IDX 48 58 68 59 37 60 22 61 23 62 31 63 24 64 30 65 25 66 26 67
REMARK SMILES IDX 27 68 28 69 29 70 52 71 53 72 61 73 54 74 60 75 55 76 56 77
REMARK SMILES IDX 57 78 58 79 59 80 38 81 39 82 47 83 40 84 46 85 41 86 42 87
REMARK SMILES IDX 43 88 44 89 45 90
REMARK H PARENT 6 5 2 9 10 27 66 46 36 57
REMARK Flexibility Score: inf
ROOT
ATOM      1  C   UNL A   1      35.785  23.413  25.711  1.00  0.00     0.118 C 
ENDROOT
BRANCH   1   2
ATOM      2  N   UNL A   1      35.206  24.704  26.026  1.00  0.00    -0.351 N 
ATOM      3  C   UNL A   1      34.312  25.468  25.341  1.00  0.00     0.275 C 
ATOM      4  O   UNL A   1      33.901  26.489  25.902  1.00  0.00    -0.269 OA
ATOM      5  H   UNL A   1      35.511  25.093  26.879  1.00  0.00     0.163 HD
BRANCH   3   6
ATOM      6  C   UNL A   1      33.779  25.059  23.968  1.00  0.00     0.363 C 
BRANCH   6   7
ATOM      7  N   UNL A   1      32.357  24.713  23.885  1.00  0.00    -0.323 N 
ATOM      8  C   UNL A   1      31.416  25.795  23.705  1.00  0.00     0.333 C 
ATOM      9  H   UNL A   1      32.388  24.292  22.956  1.00  0.00     0.348 HD
BRANCH   7  10
ATOM     10  C   UNL A   1      31.864  23.587  24.692  1.00  0.00     0.345 C 
BRANCH  10  11
ATOM     11  C   UNL A   1      32.203  22.208  24.209  1.00  0.00     0.226 A 
ATOM     12  N   UNL A   1      31.847  21.804  22.980  1.00  0.00    -0.056 NA
ATOM     13  N   UNL A   1      32.850  21.249  24.962  1.00  0.00    -0.186 NA
ATOM     14  O   UNL A   1      32.343  20.506  22.910  1.00  0.00    -0.334 OA
ATOM     15  C   UNL A   1      32.909  20.237  24.124  1.00  0.00     0.259 A 
BRANCH  15  16
ATOM     16  C   UNL A   1      33.448  18.895  24.266  1.00  0.00     0.058 A 
ATOM     17  C   UNL A   1      32.589  17.791  24.101  1.00  0.00     0.015 A 
ATOM     18  C   UNL A   1      34.786  18.660  24.611  1.00  0.00     0.053 A 
ATOM     19  C   UNL A   1      33.053  16.487  24.286  1.00  0.00     0.001 A 
ATOM     20  C   UNL A   1      35.240  17.352  24.818  1.00  0.00     0.021 A 
ATOM     21  Cl  UNL A   1      35.920  19.944  24.839  1.00  0.00    -0.083 Cl
ATOM     22  C   UNL A   1      34.376  16.268  24.656  1.00  0.00     0.002 A 
ENDBRANCH  15  16
ENDBRANCH  10  11
ENDBRANCH   7  10
ENDBRANCH   6   7
ENDBRANCH   3   6
ENDBRANCH   1   2
BRANCH   1  23
ATOM     23  C   UNL A   1      37.263  23.492  25.338  1.00  0.00     0.042 C 
BRANCH  23  24
ATOM     24  C   UNL A   1      38.161  24.167  26.366  1.00  0.00     0.118 C 
BRANCH  24  25
ATOM     25  N   UNL A   1      39.576  24.039  26.057  1.00  0.00    -0.352 N 
ATOM     26  C   UNL A   1      40.651  24.785  26.477  1.00  0.00     0.251 C 
ATOM     27  H   UNL A   1      39.800  23.298  25.449  1.00  0.00     0.163 HD
ATOM     28  O   UNL A   1      41.749  24.589  25.948  1.00  0.00    -0.269 OA
BRANCH  26  29
ATOM     29  C   UNL A   1      40.524  25.824  27.530  1.00  0.00     0.039 A 
ATOM     30  C   UNL A   1      39.576  25.650  28.546  1.00  0.00     0.014 A 
ATOM     31  C   UNL A   1      41.282  26.995  27.504  1.00  0.00     0.014 A 
ATOM     32  C   UNL A   1      39.439  26.608  29.560  1.00  0.00     0.010 A 
ATOM     33  C   UNL A   1      41.196  27.910  28.555  1.00  0.00     0.010 A 
ATOM     34  C   UNL A   1      40.273  27.735  29.592  1.00  0.00    -0.014 A 
BRANCH  34  35
ATOM     35  C   UNL A   1      40.211  28.739  30.692  1.00  0.00     0.031 A 
ATOM     36  C   UNL A   1      41.085  28.597  31.914  1.00  0.00     0.074 A 
ATOM     37  C   UNL A   1      39.304  29.737  30.638  1.00  0.00     0.049 A 
ATOM     38  N   UNL A   1      41.112  29.330  32.999  1.00  0.00    -0.248 NA
ATOM     39  C   UNL A   1      42.031  27.469  31.932  1.00  0.00     0.031 C 
ATOM     40  C   UNL A   1      38.349  29.958  29.549  1.00  0.00     0.029 A 
ATOM     41  N   UNL A   1      39.028  30.745  31.529  1.00  0.00    -0.354 N 
ATOM     42  C   UNL A   1      42.066  28.750  33.829  1.00  0.00     0.074 A 
ATOM     43  C   UNL A   1      42.553  27.570  33.147  1.00  0.00     0.031 C 
ATOM     44  C   UNL A   1      37.612  31.048  29.824  1.00  0.00     0.029 A 
ATOM     45  C   UNL A   1      38.017  31.583  31.121  1.00  0.00     0.049 A 
ATOM     46  H   UNL A   1      39.509  30.857  32.381  1.00  0.00     0.167 HD
ATOM     47  C   UNL A   1      42.520  29.172  35.035  1.00  0.00     0.031 A 
ATOM     48  C   UNL A   1      37.475  32.663  31.717  1.00  0.00     0.031 A 
ATOM     49  C   UNL A   1      42.057  30.357  35.710  1.00  0.00     0.049 A 
ATOM     50  C   UNL A   1      38.002  33.118  33.050  1.00  0.00     0.074 A 
ATOM     51  C   UNL A   1      42.497  30.892  36.909  1.00  0.00     0.029 A 
ATOM     52  N   UNL A   1      41.059  31.197  35.241  1.00  0.00    -0.354 N 
ATOM     53  N   UNL A   1      38.950  32.589  33.786  1.00  0.00    -0.248 NA
ATOM     54  C   UNL A   1      37.398  34.329  33.625  1.00  0.00     0.031 C 
ATOM     55  C   UNL A   1      41.745  32.040  37.181  1.00  0.00     0.029 A 
ATOM     56  C   UNL A   1      40.867  32.242  36.129  1.00  0.00     0.049 A 
ATOM     57  H   UNL A   1      40.560  31.069  34.403  1.00  0.00     0.167 HD
ATOM     58  C   UNL A   1      39.079  33.423  34.891  1.00  0.00     0.074 A 
ATOM     59  C   UNL A   1      38.119  34.494  34.725  1.00  0.00     0.031 C 
ATOM     60  C   UNL A   1      39.921  33.312  35.947  1.00  0.00     0.031 A 
BRANCH  47  61
ATOM     61  C   UNL A   1      43.600  28.358  35.699  1.00  0.00    -0.014 A 
ATOM     62  C   UNL A   1      43.272  27.377  36.653  1.00  0.00     0.010 A 
ATOM     63  C   UNL A   1      44.945  28.524  35.324  1.00  0.00     0.010 A 
ATOM     64  C   UNL A   1      44.272  26.604  37.247  1.00  0.00     0.020 A 
ATOM     65  C   UNL A   1      45.947  27.734  35.897  1.00  0.00     0.020 A 
ATOM     66  C   UNL A   1      45.605  26.790  36.867  1.00  0.00     0.054 A 
BRANCH  66  67
ATOM     67  S   UNL A   1      46.880  25.751  37.634  1.00  0.00     0.124 S 
ATOM     68  O   UNL A   1      47.028  26.379  38.944  1.00  0.00    -0.237 OA
ATOM     69  O   UNL A   1      46.258  24.430  37.638  1.00  0.00    -0.237 OA
ATOM     70  O   UNL A   1      48.026  25.894  36.741  1.00  0.00    -0.744 OA
ENDBRANCH  66  67
ENDBRANCH  47  61
BRANCH  48  71
ATOM     71  C   UNL A   1      36.388  33.421  31.042  1.00  0.00    -0.014 A 
ATOM     72  C   UNL A   1      35.153  33.612  31.686  1.00  0.00     0.010 A 
ATOM     73  C   UNL A   1      36.574  33.944  29.750  1.00  0.00     0.010 A 
ATOM     74  C   UNL A   1      34.112  34.284  31.040  1.00  0.00     0.020 A 
ATOM     75  C   UNL A   1      35.544  34.639  29.111  1.00  0.00     0.020 A 
ATOM     76  C   UNL A   1      34.313  34.790  29.753  1.00  0.00     0.054 A 
BRANCH  76  77
ATOM     77  S   UNL A   1      32.960  35.685  28.942  1.00  0.00     0.124 S 
ATOM     78  O   UNL A   1      33.680  36.731  28.222  1.00  0.00    -0.237 OA
ATOM     79  O   UNL A   1      32.348  34.652  28.111  1.00  0.00    -0.237 OA
ATOM     80  O   UNL A   1      32.138  36.142  30.059  1.00  0.00    -0.744 OA
ENDBRANCH  76  77
ENDBRANCH  48  71
BRANCH  60  81
ATOM     81  C   UNL A   1      39.883  34.402  36.983  1.00  0.00    -0.014 A 
ATOM     82  C   UNL A   1      40.637  35.578  36.834  1.00  0.00     0.010 A 
ATOM     83  C   UNL A   1      39.037  34.265  38.100  1.00  0.00     0.010 A 
ATOM     84  C   UNL A   1      40.569  36.587  37.799  1.00  0.00     0.020 A 
ATOM     85  C   UNL A   1      38.949  35.281  39.054  1.00  0.00     0.020 A 
ATOM     86  C   UNL A   1      39.726  36.431  38.904  1.00  0.00     0.054 A 
BRANCH  86  87
ATOM     87  S   UNL A   1      39.619  37.773  40.121  1.00  0.00     0.124 S 
ATOM     88  O   UNL A   1      38.487  38.548  39.619  1.00  0.00    -0.237 OA
ATOM     89  O   UNL A   1      39.384  37.056  41.372  1.00  0.00    -0.237 OA
ATOM     90  O   UNL A   1      40.919  38.433  40.024  1.00  0.00    -0.744 OA
ENDBRANCH  86  87
ENDBRANCH  60  81
ENDBRANCH  34  35
ENDBRANCH  26  29
ENDBRANCH  24  25
ENDBRANCH  23  24
ENDBRANCH   1  23
TORSDOF 17
ENDMDL
MODEL 3
REMARK VINA RESULT:      -9.6      4.045      9.438
REMARK SMILES C[N@@H+](CC(=O)NCCCNC(=O)c1ccc(-c2c3nc(c(-c4ccc(S(=O)(=O)[O-])cc4)c4ccc([nH]4)c(-c4ccc(S(=O)(=O)[O-])cc4)c4nc(c(-c5ccc(S(=O)(=O)[O-])cc5)c5ccc2[nH]5)C=C4)C=C3)cc1)Cc1noc(-c2ccccc2Cl)n1
REMARK SMILES IDX 7 1 6 2 4 3 5 4 3 6 2 7 1 8 73 10 74 11 75 12 85 13 76 14
REMARK SMILES IDX 77 15 78 16 79 17 83 18 80 19 82 20 84 21 81 22 8 23 9 24
REMARK SMILES IDX 10 25 11 26 12 28 13 29 14 30 72 31 15 32 71 33 16 34 17 35
REMARK SMILES IDX 18 36 65 37 19 38 70 39 64 40 66 41 20 42 69 43 63 44 62 45
REMARK SMILES IDX 21 47 51 48 32 49 50 50 33 51 36 52 49 53 67 54 34 55 35 56
REMARK SMILES IDX 48 58 68 59 37 60 22 61 23 62 31 63 24 64 30 65 25 66 26 67
REMARK SMILES IDX 27 68 28 69 29 70 52 71 53 72 61 73 54 74 60 75 55 76 56 77
REMARK SMILES IDX 57 78 58 79 59 80 38 81 39 82 47 83 40 84 46 85 41 86 42 87
REMARK SMILES IDX 43 88 44 89 45 90
REMARK H PARENT 6 5 2 9 10 27 66 46 36 57
REMARK Flexibility Score: inf
ROOT
ATOM      1  C   UNL A   1      36.508  20.813  25.154  1.00  0.00     0.118 C 
ENDROOT
BRANCH   1   2
ATOM      2  N   UNL A   1      36.343  22.182  24.706  1.00  0.00    -0.351 N 
ATOM      3  C   UNL A   1      35.220  22.929  24.527  1.00  0.00     0.275 C 
ATOM      4  O   UNL A   1      35.378  24.120  24.239  1.00  0.00    -0.269 OA
ATOM      5  H   UNL A   1      37.185  22.649  24.498  1.00  0.00     0.163 HD
BRANCH   3   6
ATOM      6  C   UNL A   1      33.820  22.352  24.737  1.00  0.00     0.363 C 
BRANCH   6   7
ATOM      7  N   UNL A   1      33.538  21.755  26.046  1.00  0.00    -0.323 N 
ATOM      8  C   UNL A   1      32.921  20.448  26.064  1.00  0.00     0.333 C 
ATOM      9  H   UNL A   1      34.505  21.546  26.295  1.00  0.00     0.348 HD
BRANCH   7  10
ATOM     10  C   UNL A   1      33.144  22.644  27.149  1.00  0.00     0.345 C 
BRANCH  10  11
ATOM     11  C   UNL A   1      32.254  23.801  26.802  1.00  0.00     0.226 A 
ATOM     12  N   UNL A   1      30.939  23.758  27.066  1.00  0.00    -0.056 NA
ATOM     13  N   UNL A   1      32.674  24.954  26.172  1.00  0.00    -0.186 NA
ATOM     14  O   UNL A   1      30.480  24.993  26.620  1.00  0.00    -0.334 OA
ATOM     15  C   UNL A   1      31.556  25.642  26.087  1.00  0.00     0.259 A 
BRANCH  15  16
ATOM     16  C   UNL A   1      31.267  26.947  25.518  1.00  0.00     0.058 A 
ATOM     17  C   UNL A   1      30.447  27.029  24.376  1.00  0.00     0.015 A 
ATOM     18  C   UNL A   1      31.815  28.128  26.037  1.00  0.00     0.053 A 
ATOM     19  C   UNL A   1      30.191  28.258  23.763  1.00  0.00     0.001 A 
ATOM     20  C   UNL A   1      31.575  29.354  25.407  1.00  0.00     0.021 A 
ATOM     21  Cl  UNL A   1      32.835  28.136  27.433  1.00  0.00    -0.083 Cl
ATOM     22  C   UNL A   1      30.764  29.419  24.272  1.00  0.00     0.002 A 
ENDBRANCH  15  16
ENDBRANCH  10  11
ENDBRANCH   7  10
ENDBRANCH   6   7
ENDBRANCH   3   6
ENDBRANCH   1   2
BRANCH   1  23
ATOM     23  C   UNL A   1      37.876  20.230  24.812  1.00  0.00     0.042 C 
BRANCH  23  24
ATOM     24  C   UNL A   1      39.009  20.628  25.749  1.00  0.00     0.118 C 
BRANCH  24  25
ATOM     25  N   UNL A   1      40.004  19.580  25.916  1.00  0.00    -0.352 N 
ATOM     26  C   UNL A   1      41.355  19.664  26.148  1.00  0.00     0.251 C 
ATOM     27  H   UNL A   1      39.652  18.663  25.852  1.00  0.00     0.163 HD
ATOM     28  O   UNL A   1      42.030  18.632  26.090  1.00  0.00    -0.269 OA
BRANCH  26  29
ATOM     29  C   UNL A   1      42.023  20.956  26.449  1.00  0.00     0.039 A 
ATOM     30  C   UNL A   1      42.344  21.817  25.393  1.00  0.00     0.014 A 
ATOM     31  C   UNL A   1      42.389  21.310  27.748  1.00  0.00     0.014 A 
ATOM     32  C   UNL A   1      42.966  23.048  25.646  1.00  0.00     0.010 A 
ATOM     33  C   UNL A   1      42.939  22.567  28.004  1.00  0.00     0.010 A 
ATOM     34  C   UNL A   1      43.240  23.451  26.961  1.00  0.00    -0.014 A 
BRANCH  34  35
ATOM     35  C   UNL A   1      43.832  24.781  27.279  1.00  0.00     0.031 A 
ATOM     36  C   UNL A   1      42.960  25.915  27.763  1.00  0.00     0.074 A 
ATOM     37  C   UNL A   1      45.142  25.004  27.049  1.00  0.00     0.049 A 
ATOM     38  N   UNL A   1      43.287  27.157  28.015  1.00  0.00    -0.248 NA
ATOM     39  C   UNL A   1      41.531  25.622  27.963  1.00  0.00     0.031 C 
ATOM     40  C   UNL A   1      46.090  24.021  26.519  1.00  0.00     0.029 A 
ATOM     41  N   UNL A   1      45.901  26.137  27.219  1.00  0.00    -0.354 N 
ATOM     42  C   UNL A   1      42.110  27.794  28.393  1.00  0.00     0.074 A 
ATOM     43  C   UNL A   1      41.050  26.815  28.281  1.00  0.00     0.031 C 
ATOM     44  C   UNL A   1      47.307  24.585  26.433  1.00  0.00     0.029 A 
ATOM     45  C   UNL A   1      47.221  25.976  26.868  1.00  0.00     0.049 A 
ATOM     46  H   UNL A   1      45.534  26.984  27.560  1.00  0.00     0.167 HD
ATOM     47  C   UNL A   1      41.926  29.067  28.823  1.00  0.00     0.031 A 
ATOM     48  C   UNL A   1      48.250  26.845  26.894  1.00  0.00     0.031 A 
ATOM     49  C   UNL A   1      42.979  30.040  28.960  1.00  0.00     0.049 A 
ATOM     50  C   UNL A   1      48.024  28.249  27.385  1.00  0.00     0.074 A 
ATOM     51  C   UNL A   1      42.896  31.336  29.439  1.00  0.00     0.029 A 
ATOM     52  N   UNL A   1      44.307  29.821  28.629  1.00  0.00    -0.354 N 
ATOM     53  N   UNL A   1      46.912  28.809  27.798  1.00  0.00    -0.248 NA
ATOM     54  C   UNL A   1      49.198  29.133  27.431  1.00  0.00     0.031 C 
ATOM     55  C   UNL A   1      44.169  31.913  29.370  1.00  0.00     0.029 A 
ATOM     56  C   UNL A   1      45.051  30.960  28.890  1.00  0.00     0.049 A 
ATOM     57  H   UNL A   1      44.668  28.982  28.263  1.00  0.00     0.167 HD
ATOM     58  C   UNL A   1      47.261  30.098  28.186  1.00  0.00     0.074 A 
ATOM     59  C   UNL A   1      48.686  30.233  27.966  1.00  0.00     0.031 C 
ATOM     60  C   UNL A   1      46.471  31.079  28.683  1.00  0.00     0.031 A 
BRANCH  47  61
ATOM     61  C   UNL A   1      40.529  29.480  29.207  1.00  0.00    -0.014 A 
ATOM     62  C   UNL A   1      40.190  29.688  30.557  1.00  0.00     0.010 A 
ATOM     63  C   UNL A   1      39.564  29.725  28.215  1.00  0.00     0.010 A 
ATOM     64  C   UNL A   1      38.903  30.097  30.909  1.00  0.00     0.020 A 
ATOM     65  C   UNL A   1      38.280  30.160  28.561  1.00  0.00     0.020 A 
ATOM     66  C   UNL A   1      37.954  30.328  29.909  1.00  0.00     0.054 A 
BRANCH  66  67
ATOM     67  S   UNL A   1      36.298  30.887  30.394  1.00  0.00     0.124 S 
ATOM     68  O   UNL A   1      36.572  32.231  30.896  1.00  0.00    -0.237 OA
ATOM     69  O   UNL A   1      35.557  30.826  29.136  1.00  0.00    -0.237 OA
ATOM     70  O   UNL A   1      35.886  29.917  31.404  1.00  0.00    -0.744 OA
ENDBRANCH  66  67
ENDBRANCH  47  61
BRANCH  48  71
ATOM     71  C   UNL A   1      49.609  26.406  26.476  1.00  0.00    -0.014 A 
ATOM     72  C   UNL A   1      50.050  26.630  25.160  1.00  0.00     0.010 A 
ATOM     73  C   UNL A   1      50.461  25.753  27.383  1.00  0.00     0.010 A 
ATOM     74  C   UNL A   1      51.307  26.181  24.748  1.00  0.00     0.020 A 
ATOM     75  C   UNL A   1      51.729  25.324  26.981  1.00  0.00     0.020 A 
ATOM     76  C   UNL A   1      52.138  25.526  25.661  1.00  0.00     0.054 A 
BRANCH  76  77
ATOM     77  S   UNL A   1      53.778  24.975  25.116  1.00  0.00     0.124 S 
ATOM     78  O   UNL A   1      53.603  23.528  25.049  1.00  0.00    -0.237 OA
ATOM     79  O   UNL A   1      53.931  25.655  23.832  1.00  0.00    -0.237 OA
ATOM     80  O   UNL A   1      54.665  25.453  26.173  1.00  0.00    -0.744 OA
ENDBRANCH  76  77
ENDBRANCH  48  71
BRANCH  60  81
ATOM     81  C   UNL A   1      47.133  32.373  29.075  1.00  0.00    -0.014 A 
ATOM     82  C   UNL A   1      47.660  32.562  30.364  1.00  0.00     0.010 A 
ATOM     83  C   UNL A   1      47.274  33.395  28.118  1.00  0.00     0.010 A 
ATOM     84  C   UNL A   1      48.290  33.764  30.699  1.00  0.00     0.020 A 
ATOM     85  C   UNL A   1      47.924  34.588  28.443  1.00  0.00     0.020 A 
ATOM     86  C   UNL A   1      48.417  34.770  29.736  1.00  0.00     0.054 A 
BRANCH  86  87
ATOM     87  S   UNL A   1      49.279  36.304  30.179  1.00  0.00     0.124 S 
ATOM     88  O   UNL A   1      50.065  36.568  28.977  1.00  0.00    -0.237 OA
ATOM     89  O   UNL A   1      48.179  37.232  30.427  1.00  0.00    -0.237 OA
ATOM     90  O   UNL A   1      50.053  35.936  31.362  1.00  0.00    -0.744 OA
ENDBRANCH  86  87
ENDBRANCH  60  81
ENDBRANCH  34  35
ENDBRANCH  26  29
ENDBRANCH  24  25
ENDBRANCH  23  24
ENDBRANCH   1  23
TORSDOF 17
ENDMDL
