MODEL 1
REMARK VINA RESULT:     -14.0      0.000      0.000
REMARK SMILES Cc1ccc(N[C@](C)(C(=O)NCCCNC(=O)c2ccc(-c3c4nc(c(-c5ccc(S(=O)(=O)[O-])cc5)c5ccc([nH]5)c(-c5ccc(S(=O)(=O)[O-])cc5)c5nc(c(-c6ccc(S(=O)(=O)[O-])cc6)c6ccc3[nH]6)C=C5)C=C4)cc2)c2cc(F)cc(F)c2)cc1
REMARK SMILES IDX 13 1 12 2 11 3 9 4 10 5 7 7 8 8 6 9 5 11 1 12 2 13 3 14
REMARK SMILES IDX 87 15 4 16 86 17 78 18 79 19 85 20 80 21 83 22 81 23 82 24
REMARK SMILES IDX 84 25 14 26 15 27 16 28 17 30 18 31 19 32 77 33 20 34 76 35
REMARK SMILES IDX 21 36 22 37 23 38 70 39 24 40 75 41 69 42 71 43 25 44 74 45
REMARK SMILES IDX 68 46 67 47 26 49 56 50 37 51 55 52 38 53 41 54 54 55 72 56
REMARK SMILES IDX 39 57 40 58 53 60 73 61 42 62 27 63 28 64 36 65 29 66 35 67
REMARK SMILES IDX 30 68 31 69 32 70 33 71 34 72 57 73 58 74 66 75 59 76 65 77
REMARK SMILES IDX 60 78 61 79 62 80 63 81 64 82 43 83 44 84 52 85 45 86 51 87
REMARK SMILES IDX 46 88 47 89 48 90 49 91 50 92
REMARK H PARENT 11 6 6 10 15 29 71 48 41 59
REMARK Flexibility Score: inf
ROOT
ATOM      1  C   UNL A   1      33.262  30.138  26.982  1.00  0.00     0.042 C 
ENDROOT
BRANCH   1   2
ATOM      2  C   UNL A   1      32.692  29.227  25.898  1.00  0.00     0.117 C 
BRANCH   2   3
ATOM      3  N   UNL A   1      33.449  29.347  24.661  1.00  0.00    -0.354 N 
ATOM      4  C   UNL A   1      33.557  28.548  23.565  1.00  0.00     0.250 C 
ATOM      5  O   UNL A   1      34.540  28.784  22.841  1.00  0.00    -0.272 OA
ATOM      6  H   UNL A   1      33.989  30.169  24.607  1.00  0.00     0.163 HD
BRANCH   4   7
ATOM      7  C   UNL A   1      32.570  27.354  23.187  1.00  0.00     0.139 C 
ATOM      8  C   UNL A   1      32.901  26.514  21.933  1.00  0.00     0.051 C 
BRANCH   7   9
ATOM      9  N   UNL A   1      32.606  26.395  24.348  1.00  0.00    -0.368 N 
ATOM     10  H   UNL A   1      32.052  26.630  25.127  1.00  0.00     0.161 HD
BRANCH   9  11
ATOM     11  C   UNL A   1      33.335  25.210  24.442  1.00  0.00     0.035 A 
ATOM     12  C   UNL A   1      35.343  21.367  24.695  1.00  0.00     0.044 C 
ATOM     13  C   UNL A   1      34.640  22.686  24.594  1.00  0.00    -0.051 A 
ATOM     14  C   UNL A   1      35.228  23.833  25.132  1.00  0.00     0.005 A 
ATOM     15  C   UNL A   1      33.398  22.804  23.973  1.00  0.00     0.005 A 
ATOM     16  C   UNL A   1      34.579  25.072  25.061  1.00  0.00     0.026 A 
ATOM     17  C   UNL A   1      32.761  24.050  23.898  1.00  0.00     0.026 A 
ENDBRANCH   9  11
ENDBRANCH   7   9
BRANCH   7  18
ATOM     18  C   UNL A   1      31.126  27.951  23.071  1.00  0.00    -0.008 A 
ATOM     19  C   UNL A   1      30.012  27.270  23.605  1.00  0.00     0.046 A 
ATOM     20  C   UNL A   1      30.835  29.130  22.353  1.00  0.00     0.046 A 
ATOM     21  C   UNL A   1      28.704  27.707  23.388  1.00  0.00     0.126 A 
ATOM     22  C   UNL A   1      29.518  29.571  22.176  1.00  0.00     0.126 A 
ATOM     23  F   UNL A   1      27.684  26.984  23.868  1.00  0.00    -0.207 F 
ATOM     24  C   UNL A   1      28.443  28.858  22.673  1.00  0.00     0.078 A 
ATOM     25  F   UNL A   1      29.294  30.705  21.497  1.00  0.00    -0.207 F 
ENDBRANCH   7  18
ENDBRANCH   4   7
ENDBRANCH   2   3
ENDBRANCH   1   2
BRANCH   1  26
ATOM     26  C   UNL A   1      34.709  29.836  27.341  1.00  0.00     0.118 C 
BRANCH  26  27
ATOM     27  N   UNL A   1      35.390  31.003  27.900  1.00  0.00    -0.352 N 
ATOM     28  C   UNL A   1      36.646  31.055  28.484  1.00  0.00     0.251 C 
ATOM     29  H   UNL A   1      34.897  31.855  27.857  1.00  0.00     0.163 HD
ATOM     30  O   UNL A   1      37.101  32.037  29.025  1.00  0.00    -0.269 OA
BRANCH  28  31
ATOM     31  C   UNL A   1      37.452  29.830  28.329  1.00  0.00     0.039 A 
ATOM     32  C   UNL A   1      37.624  29.048  29.476  1.00  0.00     0.014 A 
ATOM     33  C   UNL A   1      38.305  29.738  27.233  1.00  0.00     0.014 A 
ATOM     34  C   UNL A   1      38.781  28.291  29.601  1.00  0.00     0.010 A 
ATOM     35  C   UNL A   1      39.494  29.055  27.400  1.00  0.00     0.010 A 
ATOM     36  C   UNL A   1      39.752  28.382  28.603  1.00  0.00    -0.014 A 
BRANCH  36  37
ATOM     37  C   UNL A   1      41.099  27.852  28.770  1.00  0.00     0.031 A 
ATOM     38  C   UNL A   1      41.367  26.454  28.363  1.00  0.00     0.074 A 
ATOM     39  C   UNL A   1      42.092  28.622  29.276  1.00  0.00     0.049 A 
ATOM     40  N   UNL A   1      42.269  25.698  28.894  1.00  0.00    -0.248 NA
ATOM     41  C   UNL A   1      40.576  25.773  27.341  1.00  0.00     0.031 C 
ATOM     42  C   UNL A   1      43.513  28.280  29.327  1.00  0.00     0.029 A 
ATOM     43  N   UNL A   1      42.003  29.787  30.047  1.00  0.00    -0.354 N 
ATOM     44  C   UNL A   1      42.381  24.578  28.100  1.00  0.00     0.074 A 
ATOM     45  C   UNL A   1      41.252  24.630  27.203  1.00  0.00     0.031 C 
ATOM     46  C   UNL A   1      44.087  28.989  30.312  1.00  0.00     0.029 A 
ATOM     47  C   UNL A   1      43.021  29.691  31.009  1.00  0.00     0.049 A 
ATOM     48  H   UNL A   1      41.358  30.522  29.938  1.00  0.00     0.167 HD
ATOM     49  C   UNL A   1      43.499  23.801  28.177  1.00  0.00     0.031 A 
ATOM     50  C   UNL A   1      42.802  29.636  32.356  1.00  0.00     0.031 A 
ATOM     51  C   UNL A   1      44.412  24.274  29.214  1.00  0.00     0.049 A 
ATOM     52  C   UNL A   1      43.375  28.385  33.000  1.00  0.00     0.074 A 
ATOM     53  C   UNL A   1      45.555  25.054  29.173  1.00  0.00     0.029 A 
ATOM     54  N   UNL A   1      44.016  24.221  30.545  1.00  0.00    -0.354 N 
ATOM     55  N   UNL A   1      43.733  27.321  32.333  1.00  0.00    -0.248 NA
ATOM     56  C   UNL A   1      43.554  28.216  34.441  1.00  0.00     0.031 C 
ATOM     57  C   UNL A   1      45.802  25.537  30.484  1.00  0.00     0.029 A 
ATOM     58  C   UNL A   1      44.829  25.024  31.323  1.00  0.00     0.049 A 
ATOM     59  H   UNL A   1      43.263  23.686  30.886  1.00  0.00     0.167 HD
ATOM     60  C   UNL A   1      44.179  26.354  33.198  1.00  0.00     0.074 A 
ATOM     61  C   UNL A   1      44.057  26.970  34.508  1.00  0.00     0.031 C 
ATOM     62  C   UNL A   1      44.602  25.130  32.760  1.00  0.00     0.031 A 
BRANCH  49  63
ATOM     63  C   UNL A   1      43.887  22.818  27.093  1.00  0.00    -0.014 A 
ATOM     64  C   UNL A   1      42.980  21.807  26.712  1.00  0.00     0.010 A 
ATOM     65  C   UNL A   1      45.143  22.797  26.458  1.00  0.00     0.010 A 
ATOM     66  C   UNL A   1      43.343  20.772  25.837  1.00  0.00     0.020 A 
ATOM     67  C   UNL A   1      45.535  21.746  25.614  1.00  0.00     0.020 A 
ATOM     68  C   UNL A   1      44.633  20.729  25.318  1.00  0.00     0.054 A 
BRANCH  68  69
ATOM     69  S   UNL A   1      45.114  19.335  24.265  1.00  0.00     0.124 S 
ATOM     70  O   UNL A   1      46.571  19.434  24.252  1.00  0.00    -0.237 OA
ATOM     71  O   UNL A   1      44.566  18.192  24.989  1.00  0.00    -0.237 OA
ATOM     72  O   UNL A   1      44.468  19.627  22.986  1.00  0.00    -0.744 OA
ENDBRANCH  68  69
ENDBRANCH  49  63
BRANCH  50  73
ATOM     73  C   UNL A   1      41.586  30.356  32.824  1.00  0.00    -0.014 A 
ATOM     74  C   UNL A   1      40.395  29.611  32.957  1.00  0.00     0.010 A 
ATOM     75  C   UNL A   1      41.688  31.593  33.482  1.00  0.00     0.010 A 
ATOM     76  C   UNL A   1      39.396  30.015  33.848  1.00  0.00     0.020 A 
ATOM     77  C   UNL A   1      40.685  32.000  34.376  1.00  0.00     0.020 A 
ATOM     78  C   UNL A   1      39.576  31.179  34.595  1.00  0.00     0.054 A 
BRANCH  78  79
ATOM     79  S   UNL A   1      38.438  31.487  35.982  1.00  0.00     0.124 S 
ATOM     80  O   UNL A   1      38.349  30.173  36.608  1.00  0.00    -0.237 OA
ATOM     81  O   UNL A   1      39.160  32.500  36.755  1.00  0.00    -0.237 OA
ATOM     82  O   UNL A   1      37.229  31.963  35.322  1.00  0.00    -0.744 OA
ENDBRANCH  78  79
ENDBRANCH  50  73
BRANCH  62  83
ATOM     83  C   UNL A   1      44.925  23.920  33.614  1.00  0.00    -0.014 A 
ATOM     84  C   UNL A   1      44.035  22.872  33.885  1.00  0.00     0.010 A 
ATOM     85  C   UNL A   1      46.255  23.758  34.083  1.00  0.00     0.010 A 
ATOM     86  C   UNL A   1      44.430  21.749  34.629  1.00  0.00     0.020 A 
ATOM     87  C   UNL A   1      46.674  22.621  34.783  1.00  0.00     0.020 A 
ATOM     88  C   UNL A   1      45.747  21.631  35.074  1.00  0.00     0.054 A 
BRANCH  88  89
ATOM     89  S   UNL A   1      46.263  20.145  35.970  1.00  0.00     0.124 S 
ATOM     90  O   UNL A   1      45.809  20.438  37.326  1.00  0.00    -0.237 OA
ATOM     91  O   UNL A   1      45.535  19.079  35.282  1.00  0.00    -0.237 OA
ATOM     92  O   UNL A   1      47.711  20.117  35.784  1.00  0.00    -0.744 OA
ENDBRANCH  88  89
ENDBRANCH  62  83
ENDBRANCH  36  37
ENDBRANCH  28  31
ENDBRANCH  26  27
ENDBRANCH   1  26
TORSDOF 16
ENDMDL
MODEL 2
REMARK VINA RESULT:     -13.9      5.133     11.499
REMARK SMILES Cc1ccc(N[C@](C)(C(=O)NCCCNC(=O)c2ccc(-c3c4nc(c(-c5ccc(S(=O)(=O)[O-])cc5)c5ccc([nH]5)c(-c5ccc(S(=O)(=O)[O-])cc5)c5nc(c(-c6ccc(S(=O)(=O)[O-])cc6)c6ccc3[nH]6)C=C5)C=C4)cc2)c2cc(F)cc(F)c2)cc1
REMARK SMILES IDX 13 1 12 2 11 3 9 4 10 5 7 7 8 8 6 9 5 11 1 12 2 13 3 14
REMARK SMILES IDX 87 15 4 16 86 17 78 18 79 19 85 20 80 21 83 22 81 23 82 24
REMARK SMILES IDX 84 25 14 26 15 27 16 28 17 30 18 31 19 32 77 33 20 34 76 35
REMARK SMILES IDX 21 36 22 37 23 38 70 39 24 40 75 41 69 42 71 43 25 44 74 45
REMARK SMILES IDX 68 46 67 47 26 49 56 50 37 51 55 52 38 53 41 54 54 55 72 56
REMARK SMILES IDX 39 57 40 58 53 60 73 61 42 62 27 63 28 64 36 65 29 66 35 67
REMARK SMILES IDX 30 68 31 69 32 70 33 71 34 72 57 73 58 74 66 75 59 76 65 77
REMARK SMILES IDX 60 78 61 79 62 80 63 81 64 82 43 83 44 84 52 85 45 86 51 87
REMARK SMILES IDX 46 88 47 89 48 90 49 91 50 92
REMARK H PARENT 11 6 6 10 15 29 71 48 41 59
REMARK Flexibility Score: inf
ROOT
ATOM      1  C   UNL A   1      37.448  22.235  25.866  1.00  0.00     0.042 C 
ENDROOT
BRANCH   1   2
ATOM      2  C   UNL A   1      36.863  21.834  24.515  1.00  0.00     0.117 C 
BRANCH   2   3
ATOM      3  N   UNL A   1      36.300  22.986  23.826  1.00  0.00    -0.354 N 
ATOM      4  C   UNL A   1      35.065  23.557  23.840  1.00  0.00     0.250 C 
ATOM      5  O   UNL A   1      34.831  24.321  22.888  1.00  0.00    -0.272 OA
ATOM      6  H   UNL A   1      36.940  23.442  23.232  1.00  0.00     0.163 HD
BRANCH   4   7
ATOM      7  C   UNL A   1      33.933  23.290  24.932  1.00  0.00     0.139 C 
ATOM      8  C   UNL A   1      34.329  23.393  26.422  1.00  0.00     0.051 C 
BRANCH   7   9
ATOM      9  N   UNL A   1      32.879  24.345  24.712  1.00  0.00    -0.368 N 
ATOM     10  H   UNL A   1      32.201  24.148  24.026  1.00  0.00     0.161 HD
BRANCH   9  11
ATOM     11  C   UNL A   1      32.758  25.568  25.370  1.00  0.00     0.035 A 
ATOM     12  C   UNL A   1      32.687  29.406  27.401  1.00  0.00     0.044 C 
ATOM     13  C   UNL A   1      32.724  28.089  26.689  1.00  0.00    -0.051 A 
ATOM     14  C   UNL A   1      31.659  27.196  26.818  1.00  0.00     0.005 A 
ATOM     15  C   UNL A   1      33.808  27.721  25.892  1.00  0.00     0.005 A 
ATOM     16  C   UNL A   1      31.683  25.953  26.172  1.00  0.00     0.026 A 
ATOM     17  C   UNL A   1      33.817  26.480  25.242  1.00  0.00     0.026 A 
ENDBRANCH   9  11
ENDBRANCH   7   9
BRANCH   7  18
ATOM     18  C   UNL A   1      33.309  21.884  24.635  1.00  0.00    -0.008 A 
ATOM     19  C   UNL A   1      33.266  20.883  25.628  1.00  0.00     0.046 A 
ATOM     20  C   UNL A   1      32.852  21.499  23.357  1.00  0.00     0.046 A 
ATOM     21  C   UNL A   1      32.848  19.580  25.346  1.00  0.00     0.126 A 
ATOM     22  C   UNL A   1      32.405  20.197  23.104  1.00  0.00     0.126 A 
ATOM     23  F   UNL A   1      32.888  18.657  26.316  1.00  0.00    -0.207 F 
ATOM     24  C   UNL A   1      32.416  19.224  24.085  1.00  0.00     0.078 A 
ATOM     25  F   UNL A   1      31.968  19.883  21.876  1.00  0.00    -0.207 F 
ENDBRANCH   7  18
ENDBRANCH   4   7
ENDBRANCH   2   3
ENDBRANCH   1   2
BRANCH   1  26
ATOM     26  C   UNL A   1      38.331  23.472  25.812  1.00  0.00     0.118 C 
BRANCH  26  27
ATOM     27  N   UNL A   1      39.656  23.225  26.380  1.00  0.00    -0.352 N 
ATOM     28  C   UNL A   1      40.479  24.125  27.039  1.00  0.00     0.251 C 
ATOM     29  H   UNL A   1      40.006  22.310  26.283  1.00  0.00     0.163 HD
ATOM     30  O   UNL A   1      41.611  23.879  27.387  1.00  0.00    -0.269 OA
BRANCH  28  31
ATOM     31  C   UNL A   1      39.845  25.414  27.375  1.00  0.00     0.039 A 
ATOM     32  C   UNL A   1      40.290  26.532  26.663  1.00  0.00     0.014 A 
ATOM     33  C   UNL A   1      39.188  25.525  28.597  1.00  0.00     0.014 A 
ATOM     34  C   UNL A   1      40.241  27.777  27.275  1.00  0.00     0.010 A 
ATOM     35  C   UNL A   1      39.223  26.749  29.236  1.00  0.00     0.010 A 
ATOM     36  C   UNL A   1      39.800  27.856  28.597  1.00  0.00    -0.014 A 
BRANCH  36  37
ATOM     37  C   UNL A   1      39.968  29.055  29.408  1.00  0.00     0.031 A 
ATOM     38  C   UNL A   1      38.930  30.108  29.342  1.00  0.00     0.074 A 
ATOM     39  C   UNL A   1      41.044  29.202  30.217  1.00  0.00     0.049 A 
ATOM     40  N   UNL A   1      39.150  31.364  29.541  1.00  0.00    -0.248 NA
ATOM     41  C   UNL A   1      37.544  29.817  28.981  1.00  0.00     0.031 C 
ATOM     42  C   UNL A   1      41.244  30.256  31.209  1.00  0.00     0.029 A 
ATOM     43  N   UNL A   1      42.285  28.554  30.166  1.00  0.00    -0.354 N 
ATOM     44  C   UNL A   1      37.922  31.983  29.637  1.00  0.00     0.074 A 
ATOM     45  C   UNL A   1      36.963  31.000  29.196  1.00  0.00     0.031 C 
ATOM     46  C   UNL A   1      42.563  30.394  31.427  1.00  0.00     0.029 A 
ATOM     47  C   UNL A   1      43.244  29.533  30.472  1.00  0.00     0.049 A 
ATOM     48  H   UNL A   1      42.450  27.606  29.958  1.00  0.00     0.167 HD
ATOM     49  C   UNL A   1      37.824  33.209  30.225  1.00  0.00     0.031 A 
ATOM     50  C   UNL A   1      44.224  29.942  29.614  1.00  0.00     0.031 A 
ATOM     51  C   UNL A   1      39.134  33.729  30.606  1.00  0.00     0.049 A 
ATOM     52  C   UNL A   1      44.174  31.432  29.324  1.00  0.00     0.074 A 
ATOM     53  C   UNL A   1      39.822  33.752  31.808  1.00  0.00     0.029 A 
ATOM     54  N   UNL A   1      40.060  34.034  29.615  1.00  0.00    -0.354 N 
ATOM     55  N   UNL A   1      43.140  32.189  29.573  1.00  0.00    -0.248 NA
ATOM     56  C   UNL A   1      45.264  32.180  28.698  1.00  0.00     0.031 C 
ATOM     57  C   UNL A   1      41.191  33.998  31.524  1.00  0.00     0.029 A 
ATOM     58  C   UNL A   1      41.326  34.156  30.157  1.00  0.00     0.049 A 
ATOM     59  H   UNL A   1      39.844  34.148  28.661  1.00  0.00     0.167 HD
ATOM     60  C   UNL A   1      43.393  33.476  29.170  1.00  0.00     0.074 A 
ATOM     61  C   UNL A   1      44.743  33.420  28.638  1.00  0.00     0.031 C 
ATOM     62  C   UNL A   1      42.466  34.472  29.304  1.00  0.00     0.031 A 
BRANCH  49  63
ATOM     63  C   UNL A   1      36.513  33.770  30.732  1.00  0.00    -0.014 A 
ATOM     64  C   UNL A   1      35.476  34.051  29.818  1.00  0.00     0.010 A 
ATOM     65  C   UNL A   1      36.261  34.098  32.078  1.00  0.00     0.010 A 
ATOM     66  C   UNL A   1      34.306  34.723  30.203  1.00  0.00     0.020 A 
ATOM     67  C   UNL A   1      35.115  34.807  32.471  1.00  0.00     0.020 A 
ATOM     68  C   UNL A   1      34.147  35.128  31.525  1.00  0.00     0.054 A 
BRANCH  68  69
ATOM     69  S   UNL A   1      32.673  36.076  31.986  1.00  0.00     0.124 S 
ATOM     70  O   UNL A   1      31.780  35.044  32.505  1.00  0.00    -0.237 OA
ATOM     71  O   UNL A   1      33.199  37.011  32.976  1.00  0.00    -0.237 OA
ATOM     72  O   UNL A   1      32.243  36.683  30.727  1.00  0.00    -0.744 OA
ENDBRANCH  68  69
ENDBRANCH  49  63
BRANCH  50  73
ATOM     73  C   UNL A   1      44.696  28.902  28.659  1.00  0.00    -0.014 A 
ATOM     74  C   UNL A   1      44.022  28.792  27.424  1.00  0.00     0.010 A 
ATOM     75  C   UNL A   1      45.975  28.334  28.785  1.00  0.00     0.010 A 
ATOM     76  C   UNL A   1      44.669  28.269  26.300  1.00  0.00     0.020 A 
ATOM     77  C   UNL A   1      46.626  27.808  27.658  1.00  0.00     0.020 A 
ATOM     78  C   UNL A   1      45.989  27.834  26.414  1.00  0.00     0.054 A 
BRANCH  78  79
ATOM     79  S   UNL A   1      46.909  27.491  24.881  1.00  0.00     0.124 S 
ATOM     80  O   UNL A   1      46.616  28.670  24.074  1.00  0.00    -0.237 OA
ATOM     81  O   UNL A   1      48.288  27.390  25.363  1.00  0.00    -0.237 OA
ATOM     82  O   UNL A   1      46.326  26.238  24.415  1.00  0.00    -0.744 OA
ENDBRANCH  78  79
ENDBRANCH  50  73
BRANCH  62  83
ATOM     83  C   UNL A   1      42.544  35.871  28.725  1.00  0.00    -0.014 A 
ATOM     84  C   UNL A   1      41.892  36.289  27.556  1.00  0.00     0.010 A 
ATOM     85  C   UNL A   1      43.220  36.874  29.466  1.00  0.00     0.010 A 
ATOM     86  C   UNL A   1      41.956  37.622  27.119  1.00  0.00     0.020 A 
ATOM     87  C   UNL A   1      43.250  38.215  29.068  1.00  0.00     0.020 A 
ATOM     88  C   UNL A   1      42.636  38.577  27.878  1.00  0.00     0.054 A 
BRANCH  88  89
ATOM     89  S   UNL A   1      42.650  40.306  27.342  1.00  0.00     0.124 S 
ATOM     90  O   UNL A   1      43.420  40.231  26.103  1.00  0.00    -0.237 OA
ATOM     91  O   UNL A   1      41.229  40.609  27.178  1.00  0.00    -0.237 OA
ATOM     92  O   UNL A   1      43.303  41.002  28.447  1.00  0.00    -0.744 OA
ENDBRANCH  88  89
ENDBRANCH  62  83
ENDBRANCH  36  37
ENDBRANCH  28  31
ENDBRANCH  26  27
ENDBRANCH   1  26
TORSDOF 16
ENDMDL
MODEL 3
REMARK VINA RESULT:     -13.6      2.121      3.095
REMARK SMILES Cc1ccc(N[C@](C)(C(=O)NCCCNC(=O)c2ccc(-c3c4nc(c(-c5ccc(S(=O)(=O)[O-])cc5)c5ccc([nH]5)c(-c5ccc(S(=O)(=O)[O-])cc5)c5nc(c(-c6ccc(S(=O)(=O)[O-])cc6)c6ccc3[nH]6)C=C5)C=C4)cc2)c2cc(F)cc(F)c2)cc1
REMARK SMILES IDX 13 1 12 2 11 3 9 4 10 5 7 7 8 8 6 9 5 11 1 12 2 13 3 14
REMARK SMILES IDX 87 15 4 16 86 17 78 18 79 19 85 20 80 21 83 22 81 23 82 24
REMARK SMILES IDX 84 25 14 26 15 27 16 28 17 30 18 31 19 32 77 33 20 34 76 35
REMARK SMILES IDX 21 36 22 37 23 38 70 39 24 40 75 41 69 42 71 43 25 44 74 45
REMARK SMILES IDX 68 46 67 47 26 49 56 50 37 51 55 52 38 53 41 54 54 55 72 56
REMARK SMILES IDX 39 57 40 58 53 60 73 61 42 62 27 63 28 64 36 65 29 66 35 67
REMARK SMILES IDX 30 68 31 69 32 70 33 71 34 72 57 73 58 74 66 75 59 76 65 77
REMARK SMILES IDX 60 78 61 79 62 80 63 81 64 82 43 83 44 84 52 85 45 86 51 87
REMARK SMILES IDX 46 88 47 89 48 90 49 91 50 92
REMARK H PARENT 11 6 6 10 15 29 71 48 41 59
REMARK Flexibility Score: inf
ROOT
ATOM      1  C   UNL A   1      34.132  29.176  26.139  1.00  0.00     0.042 C 
ENDROOT
BRANCH   1   2
ATOM      2  C   UNL A   1      34.360  27.722  25.736  1.00  0.00     0.117 C 
BRANCH   2   3
ATOM      3  N   UNL A   1      33.495  27.344  24.628  1.00  0.00    -0.354 N 
ATOM      4  C   UNL A   1      33.025  26.144  24.193  1.00  0.00     0.250 C 
ATOM      5  O   UNL A   1      32.585  26.144  23.030  1.00  0.00    -0.272 OA
ATOM      6  H   UNL A   1      33.190  28.108  24.087  1.00  0.00     0.163 HD
BRANCH   4   7
ATOM      7  C   UNL A   1      33.037  24.786  25.029  1.00  0.00     0.139 C 
ATOM      8  C   UNL A   1      32.640  24.852  26.521  1.00  0.00     0.051 C 
BRANCH   7   9
ATOM      9  N   UNL A   1      32.027  23.879  24.374  1.00  0.00    -0.368 N 
ATOM     10  H   UNL A   1      31.179  24.297  24.098  1.00  0.00     0.161 HD
BRANCH   9  11
ATOM     11  C   UNL A   1      32.157  22.515  24.116  1.00  0.00     0.035 A 
ATOM     12  C   UNL A   1      32.416  18.314  23.047  1.00  0.00     0.044 C 
ATOM     13  C   UNL A   1      32.331  19.768  23.399  1.00  0.00    -0.051 A 
ATOM     14  C   UNL A   1      32.453  20.172  24.730  1.00  0.00     0.005 A 
ATOM     15  C   UNL A   1      32.126  20.742  22.423  1.00  0.00     0.005 A 
ATOM     16  C   UNL A   1      32.360  21.525  25.079  1.00  0.00     0.026 A 
ATOM     17  C   UNL A   1      32.046  22.094  22.782  1.00  0.00     0.026 A 
ENDBRANCH   9  11
ENDBRANCH   7   9
BRANCH   7  18
ATOM     18  C   UNL A   1      34.460  24.147  24.876  1.00  0.00    -0.008 A 
ATOM     19  C   UNL A   1      35.365  24.120  25.957  1.00  0.00     0.046 A 
ATOM     20  C   UNL A   1      34.957  23.659  23.649  1.00  0.00     0.046 A 
ATOM     21  C   UNL A   1      36.685  23.690  25.806  1.00  0.00     0.126 A 
ATOM     22  C   UNL A   1      36.274  23.199  23.527  1.00  0.00     0.126 A 
ATOM     23  F   UNL A   1      37.515  23.746  26.855  1.00  0.00    -0.207 F 
ATOM     24  C   UNL A   1      37.153  23.227  24.593  1.00  0.00     0.078 A 
ATOM     25  F   UNL A   1      36.696  22.733  22.343  1.00  0.00    -0.207 F 
ENDBRANCH   7  18
ENDBRANCH   4   7
ENDBRANCH   2   3
ENDBRANCH   1   2
BRANCH   1  26
ATOM     26  C   UNL A   1      34.351  29.446  27.620  1.00  0.00     0.118 C 
BRANCH  26  27
ATOM     27  N   UNL A   1      35.050  30.709  27.850  1.00  0.00    -0.352 N 
ATOM     28  C   UNL A   1      36.384  30.895  28.178  1.00  0.00     0.251 C 
ATOM     29  H   UNL A   1      34.508  31.527  27.761  1.00  0.00     0.163 HD
ATOM     30  O   UNL A   1      36.869  31.966  28.461  1.00  0.00    -0.269 OA
BRANCH  28  31
ATOM     31  C   UNL A   1      37.221  29.685  28.077  1.00  0.00     0.039 A 
ATOM     32  C   UNL A   1      37.406  28.955  29.256  1.00  0.00     0.014 A 
ATOM     33  C   UNL A   1      38.081  29.568  26.989  1.00  0.00     0.014 A 
ATOM     34  C   UNL A   1      38.581  28.234  29.417  1.00  0.00     0.010 A 
ATOM     35  C   UNL A   1      39.285  28.922  27.189  1.00  0.00     0.010 A 
ATOM     36  C   UNL A   1      39.554  28.307  28.420  1.00  0.00    -0.014 A 
BRANCH  36  37
ATOM     37  C   UNL A   1      40.913  27.817  28.614  1.00  0.00     0.031 A 
ATOM     38  C   UNL A   1      41.227  26.423  28.227  1.00  0.00     0.074 A 
ATOM     39  C   UNL A   1      41.875  28.621  29.126  1.00  0.00     0.049 A 
ATOM     40  N   UNL A   1      42.142  25.700  28.780  1.00  0.00    -0.248 NA
ATOM     41  C   UNL A   1      40.472  25.709  27.200  1.00  0.00     0.031 C 
ATOM     42  C   UNL A   1      43.304  28.320  29.203  1.00  0.00     0.029 A 
ATOM     43  N   UNL A   1      41.741  29.791  29.883  1.00  0.00    -0.354 N 
ATOM     44  C   UNL A   1      42.299  24.574  28.001  1.00  0.00     0.074 A 
ATOM     45  C   UNL A   1      41.183  24.584  27.085  1.00  0.00     0.031 C 
ATOM     46  C   UNL A   1      43.843  29.057  30.189  1.00  0.00     0.029 A 
ATOM     47  C   UNL A   1      42.746  29.735  30.862  1.00  0.00     0.049 A 
ATOM     48  H   UNL A   1      41.077  30.506  29.755  1.00  0.00     0.167 HD
ATOM     49  C   UNL A   1      43.437  23.830  28.103  1.00  0.00     0.031 A 
ATOM     50  C   UNL A   1      42.507  29.688  32.206  1.00  0.00     0.031 A 
ATOM     51  C   UNL A   1      44.319  24.341  29.149  1.00  0.00     0.049 A 
ATOM     52  C   UNL A   1      43.105  28.461  32.872  1.00  0.00     0.074 A 
ATOM     53  C   UNL A   1      45.440  25.154  29.117  1.00  0.00     0.029 A 
ATOM     54  N   UNL A   1      43.904  24.291  30.474  1.00  0.00    -0.354 N 
ATOM     55  N   UNL A   1      43.504  27.401  32.223  1.00  0.00    -0.248 NA
ATOM     56  C   UNL A   1      43.266  28.313  34.317  1.00  0.00     0.031 C 
ATOM     57  C   UNL A   1      45.652  25.657  30.427  1.00  0.00     0.029 A 
ATOM     58  C   UNL A   1      44.681  25.125  31.256  1.00  0.00     0.049 A 
ATOM     59  H   UNL A   1      43.161  23.738  30.809  1.00  0.00     0.167 HD
ATOM     60  C   UNL A   1      43.964  26.456  33.106  1.00  0.00     0.074 A 
ATOM     61  C   UNL A   1      43.803  27.082  34.407  1.00  0.00     0.031 C 
ATOM     62  C   UNL A   1      44.429  25.240  32.688  1.00  0.00     0.031 A 
BRANCH  49  63
ATOM     63  C   UNL A   1      43.870  22.848  27.036  1.00  0.00    -0.014 A 
ATOM     64  C   UNL A   1      42.993  21.816  26.643  1.00  0.00     0.010 A 
ATOM     65  C   UNL A   1      45.140  22.848  26.431  1.00  0.00     0.010 A 
ATOM     66  C   UNL A   1      43.397  20.782  25.785  1.00  0.00     0.020 A 
ATOM     67  C   UNL A   1      45.574  21.799  25.605  1.00  0.00     0.020 A 
ATOM     68  C   UNL A   1      44.700  20.761  25.296  1.00  0.00     0.054 A 
BRANCH  68  69
ATOM     69  S   UNL A   1      45.234  19.370  24.266  1.00  0.00     0.124 S 
ATOM     70  O   UNL A   1      44.527  19.614  23.011  1.00  0.00    -0.237 OA
ATOM     71  O   UNL A   1      46.681  19.552  24.220  1.00  0.00    -0.237 OA
ATOM     72  O   UNL A   1      44.779  18.195  25.007  1.00  0.00    -0.744 OA
ENDBRANCH  68  69
ENDBRANCH  49  63
BRANCH  50  73
ATOM     73  C   UNL A   1      41.264  30.378  32.646  1.00  0.00    -0.014 A 
ATOM     74  C   UNL A   1      40.146  29.575  32.961  1.00  0.00     0.010 A 
ATOM     75  C   UNL A   1      41.300  31.701  33.116  1.00  0.00     0.010 A 
ATOM     76  C   UNL A   1      39.167  30.030  33.850  1.00  0.00     0.020 A 
ATOM     77  C   UNL A   1      40.318  32.160  34.007  1.00  0.00     0.020 A 
ATOM     78  C   UNL A   1      39.292  31.300  34.412  1.00  0.00     0.054 A 
BRANCH  78  79
ATOM     79  S   UNL A   1      38.211  31.723  35.814  1.00  0.00     0.124 S 
ATOM     80  O   UNL A   1      38.093  30.447  36.511  1.00  0.00    -0.237 OA
ATOM     81  O   UNL A   1      38.992  32.747  36.510  1.00  0.00    -0.237 OA
ATOM     82  O   UNL A   1      36.999  32.209  35.165  1.00  0.00    -0.744 OA
ENDBRANCH  78  79
ENDBRANCH  50  73
BRANCH  62  83
ATOM     83  C   UNL A   1      44.773  24.049  33.560  1.00  0.00    -0.014 A 
ATOM     84  C   UNL A   1      43.833  23.232  34.203  1.00  0.00     0.010 A 
ATOM     85  C   UNL A   1      46.130  23.644  33.648  1.00  0.00     0.010 A 
ATOM     86  C   UNL A   1      44.227  22.103  34.940  1.00  0.00     0.020 A 
ATOM     87  C   UNL A   1      46.530  22.494  34.338  1.00  0.00     0.020 A 
ATOM     88  C   UNL A   1      45.573  21.742  35.003  1.00  0.00     0.054 A 
BRANCH  88  89
ATOM     89  S   UNL A   1      46.061  20.244  35.896  1.00  0.00     0.124 S 
ATOM     90  O   UNL A   1      45.629  20.550  37.256  1.00  0.00    -0.237 OA
ATOM     91  O   UNL A   1      45.298  19.196  35.218  1.00  0.00    -0.237 OA
ATOM     92  O   UNL A   1      47.505  20.179  35.694  1.00  0.00    -0.744 OA
ENDBRANCH  88  89
ENDBRANCH  62  83
ENDBRANCH  36  37
ENDBRANCH  28  31
ENDBRANCH  26  27
ENDBRANCH   1  26
TORSDOF 16
ENDMDL
