MODEL 1
REMARK VINA RESULT:     -11.7      0.000      0.000
REMARK SMILES COc1ccc(C2=NN=C[C@@H]2C(=O)NCCCNC(=O)c2ccc(-c3c4nc(c(-c5ccc(S(=O)(=O)[O-])cc5)c5ccc([nH]5)c(-c5ccc(S(=O)(=O)[O-])cc5)c5nc(c(-c6ccc(S(=O)(=O)[O-])cc6)c6ccc3[nH]6)C=C5)C=C4)cc2)cc1OC
REMARK SMILES IDX 16 1 15 2 14 3 12 4 13 5 11 7 7 8 8 9 9 10 10 11 6 12 3 13
REMARK SMILES IDX 4 14 82 15 5 16 81 17 2 18 1 19 83 20 84 21 17 22 18 23
REMARK SMILES IDX 19 24 20 26 21 27 22 28 80 29 23 30 79 31 24 32 25 33 26 34
REMARK SMILES IDX 73 35 27 36 78 37 72 38 74 39 28 40 77 41 71 42 70 43 29 45
REMARK SMILES IDX 59 46 40 47 58 48 41 49 44 50 57 51 75 52 42 53 43 54 56 56
REMARK SMILES IDX 76 57 45 58 30 59 31 60 39 61 32 62 38 63 33 64 34 65 35 66
REMARK SMILES IDX 36 67 37 68 60 69 61 70 69 71 62 72 68 73 63 74 64 75 65 76
REMARK SMILES IDX 66 77 67 78 46 79 47 80 55 81 48 82 54 83 49 84 50 85 51 86
REMARK SMILES IDX 52 87 53 88
REMARK H PARENT 14 6 18 25 74 44 44 55
REMARK Flexibility Score: inf
ROOT
ATOM      1  C   UNL A   1      31.628  32.005  26.673  1.00  0.00     0.042 C 
ENDROOT
BRANCH   1   2
ATOM      2  C   UNL A   1      31.831  30.494  26.553  1.00  0.00     0.117 C 
BRANCH   2   3
ATOM      3  N   UNL A   1      32.736  30.122  25.471  1.00  0.00    -0.355 N 
ATOM      4  C   UNL A   1      32.544  29.364  24.356  1.00  0.00     0.234 C 
ATOM      5  O   UNL A   1      33.492  29.258  23.574  1.00  0.00    -0.274 OA
ATOM      6  H   UNL A   1      33.647  30.482  25.564  1.00  0.00     0.163 HD
BRANCH   4   7
ATOM      7  C   UNL A   1      31.243  28.692  24.040  1.00  0.00     0.173 C 
ATOM      8  C   UNL A   1      31.332  27.278  23.583  1.00  0.00     0.088 C 
ATOM      9  N   UNL A   1      30.760  27.078  22.433  1.00  0.00    -0.154 NA
ATOM     10  N   UNL A   1      30.223  28.330  21.984  1.00  0.00    -0.162 NA
ATOM     11  C   UNL A   1      30.506  29.229  22.871  1.00  0.00     0.128 C 
BRANCH   8  12
ATOM     12  C   UNL A   1      32.043  26.254  24.350  1.00  0.00     0.003 A 
ATOM     13  C   UNL A   1      33.365  24.354  25.904  1.00  0.00     0.160 A 
ATOM     14  C   UNL A   1      34.027  24.988  24.840  1.00  0.00     0.051 A 
ATOM     15  C   UNL A   1      32.027  24.662  26.186  1.00  0.00     0.161 A 
ATOM     16  C   UNL A   1      33.362  25.928  24.047  1.00  0.00     0.014 A 
ATOM     17  C   UNL A   1      31.379  25.628  25.406  1.00  0.00     0.060 A 
BRANCH  13  18
ATOM     18  O   UNL A   1      34.108  23.570  26.747  1.00  0.00    -0.493 OA
ATOM     19  C   UNL A   1      34.283  22.243  26.249  1.00  0.00     0.278 C 
ENDBRANCH  13  18
BRANCH  15  20
ATOM     20  O   UNL A   1      31.232  24.168  27.185  1.00  0.00    -0.493 OA
ATOM     21  C   UNL A   1      30.545  22.948  26.951  1.00  0.00     0.278 C 
ENDBRANCH  15  20
ENDBRANCH   8  12
ENDBRANCH   4   7
ENDBRANCH   2   3
ENDBRANCH   1   2
BRANCH   1  22
ATOM     22  C   UNL A   1      32.828  32.706  27.291  1.00  0.00     0.118 C 
BRANCH  22  23
ATOM     23  N   UNL A   1      32.496  34.007  27.882  1.00  0.00    -0.352 N 
ATOM     24  C   UNL A   1      33.077  34.611  28.988  1.00  0.00     0.251 C 
ATOM     25  H   UNL A   1      31.775  34.510  27.442  1.00  0.00     0.163 HD
ATOM     26  O   UNL A   1      32.504  35.505  29.588  1.00  0.00    -0.269 OA
BRANCH  24  27
ATOM     27  C   UNL A   1      34.411  34.148  29.409  1.00  0.00     0.039 A 
ATOM     28  C   UNL A   1      34.595  33.312  30.514  1.00  0.00     0.014 A 
ATOM     29  C   UNL A   1      35.489  34.527  28.616  1.00  0.00     0.014 A 
ATOM     30  C   UNL A   1      35.865  32.787  30.751  1.00  0.00     0.010 A 
ATOM     31  C   UNL A   1      36.680  33.865  28.735  1.00  0.00     0.010 A 
ATOM     32  C   UNL A   1      36.900  33.049  29.838  1.00  0.00    -0.014 A 
BRANCH  32  33
ATOM     33  C   UNL A   1      38.191  32.370  29.919  1.00  0.00     0.031 A 
ATOM     34  C   UNL A   1      38.146  30.947  29.488  1.00  0.00     0.074 A 
ATOM     35  C   UNL A   1      39.352  33.039  30.110  1.00  0.00     0.049 A 
ATOM     36  N   UNL A   1      38.257  29.898  30.233  1.00  0.00    -0.248 NA
ATOM     37  C   UNL A   1      37.754  30.645  28.098  1.00  0.00     0.031 C 
ATOM     38  C   UNL A   1      39.547  34.493  30.230  1.00  0.00     0.029 A 
ATOM     39  N   UNL A   1      40.633  32.578  30.107  1.00  0.00    -0.354 N 
ATOM     40  C   UNL A   1      38.220  28.813  29.364  1.00  0.00     0.074 A 
ATOM     41  C   UNL A   1      37.685  29.312  28.124  1.00  0.00     0.031 C 
ATOM     42  C   UNL A   1      40.848  34.801  30.032  1.00  0.00     0.029 A 
ATOM     43  C   UNL A   1      41.606  33.568  29.961  1.00  0.00     0.049 A 
ATOM     44  H   UNL A   1      40.855  31.624  30.200  1.00  0.00     0.167 HD
ATOM     45  C   UNL A   1      38.916  27.672  29.636  1.00  0.00     0.031 A 
ATOM     46  C   UNL A   1      42.943  33.393  29.789  1.00  0.00     0.031 A 
ATOM     47  C   UNL A   1      39.391  27.667  30.997  1.00  0.00     0.049 A 
ATOM     48  C   UNL A   1      43.255  32.028  30.269  1.00  0.00     0.074 A 
ATOM     49  C   UNL A   1      38.807  27.689  32.246  1.00  0.00     0.029 A 
ATOM     50  N   UNL A   1      40.697  28.060  31.169  1.00  0.00    -0.354 N 
ATOM     51  N   UNL A   1      43.119  31.663  31.514  1.00  0.00    -0.248 NA
ATOM     52  C   UNL A   1      43.272  30.946  29.301  1.00  0.00     0.031 C 
ATOM     53  C   UNL A   1      39.669  28.500  33.043  1.00  0.00     0.029 A 
ATOM     54  C   UNL A   1      40.776  28.864  32.273  1.00  0.00     0.049 A 
ATOM     55  H   UNL A   1      41.453  27.805  30.592  1.00  0.00     0.167 HD
ATOM     56  C   UNL A   1      42.585  30.384  31.449  1.00  0.00     0.074 A 
ATOM     57  C   UNL A   1      42.819  29.953  30.071  1.00  0.00     0.031 C 
ATOM     58  C   UNL A   1      41.758  29.921  32.434  1.00  0.00     0.031 A 
BRANCH  45  59
ATOM     59  C   UNL A   1      39.576  26.811  28.579  1.00  0.00    -0.014 A 
ATOM     60  C   UNL A   1      39.255  25.438  28.536  1.00  0.00     0.010 A 
ATOM     61  C   UNL A   1      40.701  27.223  27.835  1.00  0.00     0.010 A 
ATOM     62  C   UNL A   1      40.066  24.518  27.857  1.00  0.00     0.020 A 
ATOM     63  C   UNL A   1      41.491  26.321  27.119  1.00  0.00     0.020 A 
ATOM     64  C   UNL A   1      41.188  24.967  27.164  1.00  0.00     0.054 A 
BRANCH  64  65
ATOM     65  S   UNL A   1      42.284  23.765  26.374  1.00  0.00     0.124 S 
ATOM     66  O   UNL A   1      41.383  22.638  26.154  1.00  0.00    -0.237 OA
ATOM     67  O   UNL A   1      42.710  24.481  25.174  1.00  0.00    -0.237 OA
ATOM     68  O   UNL A   1      43.330  23.549  27.370  1.00  0.00    -0.744 OA
ENDBRANCH  64  65
ENDBRANCH  45  59
BRANCH  46  69
ATOM     69  C   UNL A   1      43.899  34.204  28.991  1.00  0.00    -0.014 A 
ATOM     70  C   UNL A   1      45.117  34.661  29.530  1.00  0.00     0.010 A 
ATOM     71  C   UNL A   1      43.736  34.291  27.592  1.00  0.00     0.010 A 
ATOM     72  C   UNL A   1      46.148  35.143  28.699  1.00  0.00     0.020 A 
ATOM     73  C   UNL A   1      44.757  34.768  26.758  1.00  0.00     0.020 A 
ATOM     74  C   UNL A   1      45.967  35.178  27.314  1.00  0.00     0.054 A 
BRANCH  74  75
ATOM     75  S   UNL A   1      47.350  35.664  26.234  1.00  0.00     0.124 S 
ATOM     76  O   UNL A   1      48.500  35.543  27.126  1.00  0.00    -0.237 OA
ATOM     77  O   UNL A   1      47.279  34.679  25.159  1.00  0.00    -0.237 OA
ATOM     78  O   UNL A   1      47.017  37.032  25.839  1.00  0.00    -0.744 OA
ENDBRANCH  74  75
ENDBRANCH  46  69
BRANCH  58  79
ATOM     79  C   UNL A   1      41.719  30.673  33.747  1.00  0.00    -0.014 A 
ATOM     80  C   UNL A   1      40.839  31.735  34.036  1.00  0.00     0.010 A 
ATOM     81  C   UNL A   1      42.532  30.178  34.782  1.00  0.00     0.010 A 
ATOM     82  C   UNL A   1      40.794  32.298  35.322  1.00  0.00     0.020 A 
ATOM     83  C   UNL A   1      42.478  30.721  36.067  1.00  0.00     0.020 A 
ATOM     84  C   UNL A   1      41.618  31.786  36.329  1.00  0.00     0.054 A 
BRANCH  84  85
ATOM     85  S   UNL A   1      41.541  32.490  38.001  1.00  0.00     0.124 S 
ATOM     86  O   UNL A   1      40.110  32.464  38.291  1.00  0.00    -0.237 OA
ATOM     87  O   UNL A   1      42.359  31.564  38.782  1.00  0.00    -0.237 OA
ATOM     88  O   UNL A   1      42.115  33.826  37.845  1.00  0.00    -0.744 OA
ENDBRANCH  84  85
ENDBRANCH  58  79
ENDBRANCH  32  33
ENDBRANCH  24  27
ENDBRANCH  22  23
ENDBRANCH   1  22
TORSDOF 16
ENDMDL
MODEL 2
REMARK VINA RESULT:     -11.4      3.207      8.205
REMARK SMILES COc1ccc(C2=NN=C[C@@H]2C(=O)NCCCNC(=O)c2ccc(-c3c4nc(c(-c5ccc(S(=O)(=O)[O-])cc5)c5ccc([nH]5)c(-c5ccc(S(=O)(=O)[O-])cc5)c5nc(c(-c6ccc(S(=O)(=O)[O-])cc6)c6ccc3[nH]6)C=C5)C=C4)cc2)cc1OC
REMARK SMILES IDX 16 1 15 2 14 3 12 4 13 5 11 7 7 8 8 9 9 10 10 11 6 12 3 13
REMARK SMILES IDX 4 14 82 15 5 16 81 17 2 18 1 19 83 20 84 21 17 22 18 23
REMARK SMILES IDX 19 24 20 26 21 27 22 28 80 29 23 30 79 31 24 32 25 33 26 34
REMARK SMILES IDX 73 35 27 36 78 37 72 38 74 39 28 40 77 41 71 42 70 43 29 45
REMARK SMILES IDX 59 46 40 47 58 48 41 49 44 50 57 51 75 52 42 53 43 54 56 56
REMARK SMILES IDX 76 57 45 58 30 59 31 60 39 61 32 62 38 63 33 64 34 65 35 66
REMARK SMILES IDX 36 67 37 68 60 69 61 70 69 71 62 72 68 73 63 74 64 75 65 76
REMARK SMILES IDX 66 77 67 78 46 79 47 80 55 81 48 82 54 83 49 84 50 85 51 86
REMARK SMILES IDX 52 87 53 88
REMARK H PARENT 14 6 18 25 74 44 44 55
REMARK Flexibility Score: inf
ROOT
ATOM      1  C   UNL A   1      36.775  22.548  24.249  1.00  0.00     0.042 C 
ENDROOT
BRANCH   1   2
ATOM      2  C   UNL A   1      35.432  23.192  23.902  1.00  0.00     0.117 C 
BRANCH   2   3
ATOM      3  N   UNL A   1      35.145  24.382  24.696  1.00  0.00    -0.355 N 
ATOM      4  C   UNL A   1      34.094  24.696  25.502  1.00  0.00     0.234 C 
ATOM      5  O   UNL A   1      34.142  25.774  26.101  1.00  0.00    -0.274 OA
ATOM      6  H   UNL A   1      35.835  25.082  24.639  1.00  0.00     0.163 HD
BRANCH   4   7
ATOM      7  C   UNL A   1      32.918  23.789  25.702  1.00  0.00     0.173 C 
ATOM      8  C   UNL A   1      31.590  24.452  25.798  1.00  0.00     0.088 C 
ATOM      9  N   UNL A   1      30.949  24.154  26.889  1.00  0.00    -0.154 NA
ATOM     10  N   UNL A   1      31.771  23.258  27.651  1.00  0.00    -0.162 NA
ATOM     11  C   UNL A   1      32.872  23.069  26.997  1.00  0.00     0.128 C 
BRANCH   8  12
ATOM     12  C   UNL A   1      31.106  25.382  24.775  1.00  0.00     0.003 A 
ATOM     13  C   UNL A   1      30.287  27.195  22.822  1.00  0.00     0.160 A 
ATOM     14  C   UNL A   1      29.558  27.057  24.015  1.00  0.00     0.051 A 
ATOM     15  C   UNL A   1      31.427  26.411  22.597  1.00  0.00     0.161 A 
ATOM     16  C   UNL A   1      29.956  26.137  24.990  1.00  0.00     0.014 A 
ATOM     17  C   UNL A   1      31.835  25.513  23.592  1.00  0.00     0.060 A 
BRANCH  13  18
ATOM     18  O   UNL A   1      29.953  28.223  21.980  1.00  0.00    -0.493 OA
ATOM     19  C   UNL A   1      30.378  29.494  22.471  1.00  0.00     0.278 C 
ENDBRANCH  13  18
BRANCH  15  20
ATOM     20  O   UNL A   1      32.267  26.420  21.517  1.00  0.00    -0.493 OA
ATOM     21  C   UNL A   1      32.809  25.183  21.080  1.00  0.00     0.278 C 
ENDBRANCH  15  20
ENDBRANCH   8  12
ENDBRANCH   4   7
ENDBRANCH   2   3
ENDBRANCH   1   2
BRANCH   1  22
ATOM     22  C   UNL A   1      37.341  23.055  25.566  1.00  0.00     0.118 C 
BRANCH  22  23
ATOM     23  N   UNL A   1      38.228  22.090  26.224  1.00  0.00    -0.352 N 
ATOM     24  C   UNL A   1      39.484  22.320  26.766  1.00  0.00     0.251 C 
ATOM     25  H   UNL A   1      37.891  21.167  26.287  1.00  0.00     0.163 HD
ATOM     26  O   UNL A   1      40.260  21.402  26.967  1.00  0.00    -0.269 OA
BRANCH  24  27
ATOM     27  C   UNL A   1      39.848  23.709  27.102  1.00  0.00     0.039 A 
ATOM     28  C   UNL A   1      38.970  24.779  26.905  1.00  0.00     0.014 A 
ATOM     29  C   UNL A   1      41.092  23.909  27.691  1.00  0.00     0.014 A 
ATOM     30  C   UNL A   1      39.325  26.034  27.397  1.00  0.00     0.010 A 
ATOM     31  C   UNL A   1      41.352  25.086  28.336  1.00  0.00     0.010 A 
ATOM     32  C   UNL A   1      40.511  26.174  28.138  1.00  0.00    -0.014 A 
BRANCH  32  33
ATOM     33  C   UNL A   1      40.837  27.408  28.846  1.00  0.00     0.031 A 
ATOM     34  C   UNL A   1      41.954  28.174  28.229  1.00  0.00     0.074 A 
ATOM     35  C   UNL A   1      40.035  27.931  29.802  1.00  0.00     0.049 A 
ATOM     36  N   UNL A   1      43.148  28.332  28.695  1.00  0.00    -0.248 NA
ATOM     37  C   UNL A   1      41.787  28.673  26.851  1.00  0.00     0.031 C 
ATOM     38  C   UNL A   1      38.737  27.419  30.270  1.00  0.00     0.029 A 
ATOM     39  N   UNL A   1      40.137  29.109  30.478  1.00  0.00    -0.354 N 
ATOM     40  C   UNL A   1      43.794  29.177  27.797  1.00  0.00     0.074 A 
ATOM     41  C   UNL A   1      43.003  29.160  26.594  1.00  0.00     0.031 C 
ATOM     42  C   UNL A   1      38.073  28.388  30.939  1.00  0.00     0.029 A 
ATOM     43  C   UNL A   1      38.965  29.518  31.114  1.00  0.00     0.049 A 
ATOM     44  H   UNL A   1      40.972  29.630  30.513  1.00  0.00     0.167 HD
ATOM     45  C   UNL A   1      44.749  30.053  28.222  1.00  0.00     0.031 A 
ATOM     46  C   UNL A   1      38.734  30.702  31.740  1.00  0.00     0.031 A 
ATOM     47  C   UNL A   1      45.159  29.758  29.572  1.00  0.00     0.049 A 
ATOM     48  C   UNL A   1      40.061  31.275  32.061  1.00  0.00     0.074 A 
ATOM     49  C   UNL A   1      45.756  28.693  30.211  1.00  0.00     0.029 A 
ATOM     50  N   UNL A   1      44.560  30.516  30.550  1.00  0.00    -0.354 N 
ATOM     51  N   UNL A   1      40.895  30.717  32.894  1.00  0.00    -0.248 NA
ATOM     52  C   UNL A   1      40.654  32.207  31.118  1.00  0.00     0.031 C 
ATOM     53  C   UNL A   1      45.130  28.631  31.492  1.00  0.00     0.029 A 
ATOM     54  C   UNL A   1      44.245  29.706  31.607  1.00  0.00     0.049 A 
ATOM     55  H   UNL A   1      44.386  31.484  30.499  1.00  0.00     0.167 HD
ATOM     56  C   UNL A   1      42.140  30.868  32.300  1.00  0.00     0.074 A 
ATOM     57  C   UNL A   1      41.943  31.896  31.279  1.00  0.00     0.031 C 
ATOM     58  C   UNL A   1      43.128  29.945  32.503  1.00  0.00     0.031 A 
BRANCH  45  59
ATOM     59  C   UNL A   1      44.955  31.432  27.630  1.00  0.00    -0.014 A 
ATOM     60  C   UNL A   1      46.236  31.767  27.142  1.00  0.00     0.010 A 
ATOM     61  C   UNL A   1      44.044  32.494  27.802  1.00  0.00     0.010 A 
ATOM     62  C   UNL A   1      46.609  33.100  26.923  1.00  0.00     0.020 A 
ATOM     63  C   UNL A   1      44.391  33.822  27.546  1.00  0.00     0.020 A 
ATOM     64  C   UNL A   1      45.685  34.120  27.141  1.00  0.00     0.054 A 
BRANCH  64  65
ATOM     65  S   UNL A   1      46.203  35.843  26.951  1.00  0.00     0.124 S 
ATOM     66  O   UNL A   1      46.989  35.785  25.724  1.00  0.00    -0.237 OA
ATOM     67  O   UNL A   1      44.922  36.539  26.854  1.00  0.00    -0.237 OA
ATOM     68  O   UNL A   1      46.961  36.108  28.172  1.00  0.00    -0.744 OA
ENDBRANCH  64  65
ENDBRANCH  45  59
BRANCH  46  69
ATOM     69  C   UNL A   1      37.476  31.489  31.822  1.00  0.00    -0.014 A 
ATOM     70  C   UNL A   1      36.831  31.732  33.050  1.00  0.00     0.010 A 
ATOM     71  C   UNL A   1      37.058  32.247  30.708  1.00  0.00     0.010 A 
ATOM     72  C   UNL A   1      35.839  32.726  33.169  1.00  0.00     0.020 A 
ATOM     73  C   UNL A   1      36.073  33.238  30.819  1.00  0.00     0.020 A 
ATOM     74  C   UNL A   1      35.477  33.485  32.054  1.00  0.00     0.054 A 
BRANCH  74  75
ATOM     75  S   UNL A   1      34.302  34.864  32.242  1.00  0.00     0.124 S 
ATOM     76  O   UNL A   1      35.078  35.832  33.012  1.00  0.00    -0.237 OA
ATOM     77  O   UNL A   1      34.021  35.237  30.858  1.00  0.00    -0.237 OA
ATOM     78  O   UNL A   1      33.177  34.265  32.958  1.00  0.00    -0.744 OA
ENDBRANCH  74  75
ENDBRANCH  46  69
BRANCH  58  79
ATOM     79  C   UNL A   1      42.967  28.965  33.644  1.00  0.00    -0.014 A 
ATOM     80  C   UNL A   1      43.620  29.070  34.888  1.00  0.00     0.010 A 
ATOM     81  C   UNL A   1      41.994  27.963  33.483  1.00  0.00     0.010 A 
ATOM     82  C   UNL A   1      43.322  28.176  35.931  1.00  0.00     0.020 A 
ATOM     83  C   UNL A   1      41.679  27.085  34.522  1.00  0.00     0.020 A 
ATOM     84  C   UNL A   1      42.352  27.188  35.738  1.00  0.00     0.054 A 
BRANCH  84  85
ATOM     85  S   UNL A   1      41.940  26.052  37.093  1.00  0.00     0.124 S 
ATOM     86  O   UNL A   1      40.555  26.406  37.394  1.00  0.00    -0.237 OA
ATOM     87  O   UNL A   1      42.137  24.737  36.488  1.00  0.00    -0.237 OA
ATOM     88  O   UNL A   1      42.904  26.392  38.139  1.00  0.00    -0.744 OA
ENDBRANCH  84  85
ENDBRANCH  58  79
ENDBRANCH  32  33
ENDBRANCH  24  27
ENDBRANCH  22  23
ENDBRANCH   1  22
TORSDOF 16
ENDMDL
MODEL 3
REMARK VINA RESULT:     -11.2      4.431     10.036
REMARK SMILES COc1ccc(C2=NN=C[C@@H]2C(=O)NCCCNC(=O)c2ccc(-c3c4nc(c(-c5ccc(S(=O)(=O)[O-])cc5)c5ccc([nH]5)c(-c5ccc(S(=O)(=O)[O-])cc5)c5nc(c(-c6ccc(S(=O)(=O)[O-])cc6)c6ccc3[nH]6)C=C5)C=C4)cc2)cc1OC
REMARK SMILES IDX 16 1 15 2 14 3 12 4 13 5 11 7 7 8 8 9 9 10 10 11 6 12 3 13
REMARK SMILES IDX 4 14 82 15 5 16 81 17 2 18 1 19 83 20 84 21 17 22 18 23
REMARK SMILES IDX 19 24 20 26 21 27 22 28 80 29 23 30 79 31 24 32 25 33 26 34
REMARK SMILES IDX 73 35 27 36 78 37 72 38 74 39 28 40 77 41 71 42 70 43 29 45
REMARK SMILES IDX 59 46 40 47 58 48 41 49 44 50 57 51 75 52 42 53 43 54 56 56
REMARK SMILES IDX 76 57 45 58 30 59 31 60 39 61 32 62 38 63 33 64 34 65 35 66
REMARK SMILES IDX 36 67 37 68 60 69 61 70 69 71 62 72 68 73 63 74 64 75 65 76
REMARK SMILES IDX 66 77 67 78 46 79 47 80 55 81 48 82 54 83 49 84 50 85 51 86
REMARK SMILES IDX 52 87 53 88
REMARK H PARENT 14 6 18 25 74 44 44 55
REMARK Flexibility Score: inf
ROOT
ATOM      1  C   UNL A   1      38.145  20.052  24.839  1.00  0.00     0.042 C 
ENDROOT
BRANCH   1   2
ATOM      2  C   UNL A   1      37.253  21.283  24.665  1.00  0.00     0.117 C 
BRANCH   2   3
ATOM      3  N   UNL A   1      36.375  21.519  25.806  1.00  0.00    -0.355 N 
ATOM      4  C   UNL A   1      35.060  21.228  26.007  1.00  0.00     0.234 C 
ATOM      5  O   UNL A   1      34.582  21.503  27.111  1.00  0.00    -0.274 OA
ATOM      6  H   UNL A   1      36.811  21.970  26.566  1.00  0.00     0.163 HD
BRANCH   4   7
ATOM      7  C   UNL A   1      34.200  20.575  24.968  1.00  0.00     0.173 C 
ATOM      8  C   UNL A   1      32.939  21.286  24.625  1.00  0.00     0.088 C 
ATOM      9  N   UNL A   1      31.881  20.544  24.770  1.00  0.00    -0.154 NA
ATOM     10  N   UNL A   1      32.308  19.253  25.228  1.00  0.00    -0.162 NA
ATOM     11  C   UNL A   1      33.596  19.278  25.353  1.00  0.00     0.128 C 
BRANCH   8  12
ATOM     12  C   UNL A   1      32.921  22.692  24.218  1.00  0.00     0.003 A 
ATOM     13  C   UNL A   1      32.775  25.372  23.462  1.00  0.00     0.160 A 
ATOM     14  C   UNL A   1      33.418  24.434  22.637  1.00  0.00     0.051 A 
ATOM     15  C   UNL A   1      32.212  24.970  24.681  1.00  0.00     0.161 A 
ATOM     16  C   UNL A   1      33.508  23.093  23.021  1.00  0.00     0.014 A 
ATOM     17  C   UNL A   1      32.280  23.618  25.042  1.00  0.00     0.060 A 
BRANCH  13  18
ATOM     18  O   UNL A   1      32.570  26.632  22.965  1.00  0.00    -0.493 OA
ATOM     19  C   UNL A   1      31.571  26.662  21.945  1.00  0.00     0.278 C 
ENDBRANCH  13  18
BRANCH  15  20
ATOM     20  O   UNL A   1      31.534  25.729  25.597  1.00  0.00    -0.493 OA
ATOM     21  C   UNL A   1      30.240  25.300  25.995  1.00  0.00     0.278 C 
ENDBRANCH  15  20
ENDBRANCH   8  12
ENDBRANCH   4   7
ENDBRANCH   2   3
ENDBRANCH   1   2
BRANCH   1  22
ATOM     22  C   UNL A   1      39.196  20.243  25.921  1.00  0.00     0.118 C 
BRANCH  22  23
ATOM     23  N   UNL A   1      40.304  19.287  25.826  1.00  0.00    -0.352 N 
ATOM     24  C   UNL A   1      41.664  19.551  25.887  1.00  0.00     0.251 C 
ATOM     25  H   UNL A   1      40.051  18.344  25.703  1.00  0.00     0.163 HD
ATOM     26  O   UNL A   1      42.480  18.754  25.456  1.00  0.00    -0.269 OA
BRANCH  24  27
ATOM     27  C   UNL A   1      42.095  20.822  26.498  1.00  0.00     0.039 A 
ATOM     28  C   UNL A   1      42.483  21.925  25.732  1.00  0.00     0.014 A 
ATOM     29  C   UNL A   1      42.037  20.905  27.886  1.00  0.00     0.014 A 
ATOM     30  C   UNL A   1      42.720  23.137  26.377  1.00  0.00     0.010 A 
ATOM     31  C   UNL A   1      42.082  22.130  28.491  1.00  0.00     0.010 A 
ATOM     32  C   UNL A   1      42.490  23.239  27.759  1.00  0.00    -0.014 A 
BRANCH  32  33
ATOM     33  C   UNL A   1      42.526  24.522  28.456  1.00  0.00     0.031 A 
ATOM     34  C   UNL A   1      41.362  25.398  28.153  1.00  0.00     0.074 A 
ATOM     35  C   UNL A   1      43.385  24.775  29.470  1.00  0.00     0.049 A 
ATOM     36  N   UNL A   1      41.360  26.487  27.459  1.00  0.00    -0.248 NA
ATOM     37  C   UNL A   1      40.012  24.921  28.506  1.00  0.00     0.031 C 
ATOM     38  C   UNL A   1      44.370  23.859  30.067  1.00  0.00     0.029 A 
ATOM     39  N   UNL A   1      43.479  25.864  30.282  1.00  0.00    -0.354 N 
ATOM     40  C   UNL A   1      40.057  26.971  27.521  1.00  0.00     0.074 A 
ATOM     41  C   UNL A   1      39.244  25.870  27.967  1.00  0.00     0.031 C 
ATOM     42  C   UNL A   1      44.763  24.327  31.273  1.00  0.00     0.029 A 
ATOM     43  C   UNL A   1      44.211  25.656  31.451  1.00  0.00     0.049 A 
ATOM     44  H   UNL A   1      43.062  26.728  30.062  1.00  0.00     0.167 HD
ATOM     45  C   UNL A   1      39.804  28.311  27.497  1.00  0.00     0.031 A 
ATOM     46  C   UNL A   1      44.355  26.509  32.499  1.00  0.00     0.031 A 
ATOM     47  C   UNL A   1      40.979  29.054  27.114  1.00  0.00     0.049 A 
ATOM     48  C   UNL A   1      44.025  27.860  31.991  1.00  0.00     0.074 A 
ATOM     49  C   UNL A   1      41.785  29.117  25.997  1.00  0.00     0.029 A 
ATOM     50  N   UNL A   1      41.705  29.587  28.152  1.00  0.00    -0.354 N 
ATOM     51  N   UNL A   1      44.731  28.470  31.080  1.00  0.00    -0.248 NA
ATOM     52  C   UNL A   1      42.663  28.339  32.148  1.00  0.00     0.031 C 
ATOM     53  C   UNL A   1      43.107  29.295  26.504  1.00  0.00     0.029 A 
ATOM     54  C   UNL A   1      43.038  29.415  27.895  1.00  0.00     0.049 A 
ATOM     55  H   UNL A   1      41.329  30.023  28.951  1.00  0.00     0.167 HD
ATOM     56  C   UNL A   1      43.793  29.077  30.256  1.00  0.00     0.074 A 
ATOM     57  C   UNL A   1      42.553  29.066  31.033  1.00  0.00     0.031 C 
ATOM     58  C   UNL A   1      44.048  29.267  28.927  1.00  0.00     0.031 A 
BRANCH  45  59
ATOM     59  C   UNL A   1      38.683  28.974  28.271  1.00  0.00    -0.014 A 
ATOM     60  C   UNL A   1      37.777  29.795  27.566  1.00  0.00     0.010 A 
ATOM     61  C   UNL A   1      38.660  29.065  29.678  1.00  0.00     0.010 A 
ATOM     62  C   UNL A   1      36.957  30.717  28.231  1.00  0.00     0.020 A 
ATOM     63  C   UNL A   1      37.816  29.950  30.353  1.00  0.00     0.020 A 
ATOM     64  C   UNL A   1      36.994  30.796  29.622  1.00  0.00     0.054 A 
BRANCH  64  65
ATOM     65  S   UNL A   1      36.007  32.055  30.466  1.00  0.00     0.124 S 
ATOM     66  O   UNL A   1      34.905  32.249  29.528  1.00  0.00    -0.237 OA
ATOM     67  O   UNL A   1      35.665  31.387  31.719  1.00  0.00    -0.237 OA
ATOM     68  O   UNL A   1      36.927  33.182  30.596  1.00  0.00    -0.744 OA
ENDBRANCH  64  65
ENDBRANCH  45  59
BRANCH  46  69
ATOM     69  C   UNL A   1      44.480  26.202  33.948  1.00  0.00    -0.014 A 
ATOM     70  C   UNL A   1      43.907  25.047  34.514  1.00  0.00     0.010 A 
ATOM     71  C   UNL A   1      45.415  26.913  34.729  1.00  0.00     0.010 A 
ATOM     72  C   UNL A   1      44.288  24.597  35.795  1.00  0.00     0.020 A 
ATOM     73  C   UNL A   1      45.800  26.471  36.003  1.00  0.00     0.020 A 
ATOM     74  C   UNL A   1      45.246  25.304  36.525  1.00  0.00     0.054 A 
BRANCH  74  75
ATOM     75  S   UNL A   1      45.842  24.641  38.113  1.00  0.00     0.124 S 
ATOM     76  O   UNL A   1      45.480  23.230  38.018  1.00  0.00    -0.237 OA
ATOM     77  O   UNL A   1      47.272  24.931  38.065  1.00  0.00    -0.237 OA
ATOM     78  O   UNL A   1      45.093  25.405  39.110  1.00  0.00    -0.744 OA
ENDBRANCH  74  75
ENDBRANCH  46  69
BRANCH  58  79
ATOM     79  C   UNL A   1      45.477  29.134  28.448  1.00  0.00    -0.014 A 
ATOM     80  C   UNL A   1      46.080  27.923  28.053  1.00  0.00     0.010 A 
ATOM     81  C   UNL A   1      46.194  30.329  28.263  1.00  0.00     0.010 A 
ATOM     82  C   UNL A   1      47.377  27.912  27.512  1.00  0.00     0.020 A 
ATOM     83  C   UNL A   1      47.475  30.327  27.708  1.00  0.00     0.020 A 
ATOM     84  C   UNL A   1      48.066  29.117  27.345  1.00  0.00     0.054 A 
BRANCH  84  85
ATOM     85  S   UNL A   1      49.729  29.111  26.616  1.00  0.00     0.124 S 
ATOM     86  O   UNL A   1      50.053  30.534  26.553  1.00  0.00    -0.237 OA
ATOM     87  O   UNL A   1      50.504  28.332  27.578  1.00  0.00    -0.237 OA
ATOM     88  O   UNL A   1      49.539  28.464  25.319  1.00  0.00    -0.744 OA
ENDBRANCH  84  85
ENDBRANCH  58  79
ENDBRANCH  32  33
ENDBRANCH  24  27
ENDBRANCH  22  23
ENDBRANCH   1  22
TORSDOF 16
ENDMDL
