MODEL 1
REMARK VINA RESULT:     -13.7      0.000      0.000
REMARK SMILES COc1ccccc1[C@@H]1CN(C(=O)c2cnn3ccccc23)C[C@H]1C(=O)NCCCNC(=O)c1ccc(-c2c3nc(c(-c4ccc(S(=O)(=O)[O-])cc4)c4ccc([nH]4)c(-c4ccc(S(=O)(=O)[O-])cc4)c4nc(c(-c5ccc(S(=O)(=O)[O-])cc5)c5ccc2[nH]5)C=C4)C=C3)cc1
REMARK SMILES IDX 29 1 28 2 27 3 25 4 26 5 24 7 9 8 10 9 11 10 23 11 8 12 3 13
REMARK SMILES IDX 4 14 5 15 7 16 6 17 2 18 1 19 12 20 13 21 14 22 15 23 22 24
REMARK SMILES IDX 16 25 17 26 21 27 18 28 20 29 19 30 30 31 31 32 32 33 33 35
REMARK SMILES IDX 34 36 35 37 93 38 36 39 92 40 37 41 38 42 39 43 86 44 40 45
REMARK SMILES IDX 91 46 85 47 87 48 41 49 90 50 84 51 83 52 42 54 72 55 53 56
REMARK SMILES IDX 71 57 54 58 57 59 70 60 88 61 55 62 56 63 69 65 89 66 58 67
REMARK SMILES IDX 43 68 44 69 52 70 45 71 51 72 46 73 47 74 48 75 49 76 50 77
REMARK SMILES IDX 73 78 74 79 82 80 75 81 81 82 76 83 77 84 78 85 79 86 80 87
REMARK SMILES IDX 59 88 60 89 68 90 61 91 67 92 62 93 63 94 64 95 65 96 66 97
REMARK H PARENT 27 6 31 34 87 53 57 64
REMARK Flexibility Score: inf
ROOT
ATOM      1  C   UNL A   1      32.812  28.413  27.120  1.00  0.00     0.042 C 
ENDROOT
BRANCH   1   2
ATOM      2  C   UNL A   1      32.403  27.278  26.185  1.00  0.00     0.117 C 
BRANCH   2   3
ATOM      3  N   UNL A   1      31.198  26.594  26.619  1.00  0.00    -0.356 N 
ATOM      4  C   UNL A   1      30.207  25.979  25.924  1.00  0.00     0.225 C 
ATOM      5  O   UNL A   1      29.329  25.417  26.584  1.00  0.00    -0.275 OA
ATOM      6  H   UNL A   1      31.077  26.573  27.596  1.00  0.00     0.163 HD
BRANCH   4   7
ATOM      7  C   UNL A   1      30.140  25.952  24.408  1.00  0.00     0.107 C 
ATOM      8  C   UNL A   1      30.700  27.214  23.718  1.00  0.00     0.057 C 
ATOM      9  C   UNL A   1      31.349  26.682  22.440  1.00  0.00     0.129 C 
ATOM     10  N   UNL A   1      31.828  25.370  22.841  1.00  0.00    -0.337 N 
ATOM     11  C   UNL A   1      30.892  24.773  23.786  1.00  0.00     0.134 C 
BRANCH   8  12
ATOM     12  C   UNL A   1      29.736  28.363  23.535  1.00  0.00    -0.000 A 
ATOM     13  C   UNL A   1      30.023  29.709  23.817  1.00  0.00     0.122 A 
ATOM     14  C   UNL A   1      29.054  30.702  23.633  1.00  0.00     0.047 A 
ATOM     15  C   UNL A   1      27.780  30.371  23.174  1.00  0.00     0.004 A 
ATOM     16  C   UNL A   1      28.440  28.054  23.070  1.00  0.00     0.008 A 
ATOM     17  C   UNL A   1      27.469  29.043  22.904  1.00  0.00     0.001 A 
BRANCH  13  18
ATOM     18  O   UNL A   1      31.173  30.089  24.457  1.00  0.00    -0.496 OA
ATOM     19  C   UNL A   1      30.959  31.043  25.492  1.00  0.00     0.278 C 
ENDBRANCH  13  18
ENDBRANCH   8  12
BRANCH  10  20
ATOM     20  C   UNL A   1      32.902  24.656  22.347  1.00  0.00     0.257 C 
ATOM     21  O   UNL A   1      33.272  24.781  21.183  1.00  0.00    -0.269 OA
BRANCH  20  22
ATOM     22  C   UNL A   1      33.599  23.755  23.243  1.00  0.00     0.085 A 
ATOM     23  C   UNL A   1      34.783  24.041  23.952  1.00  0.00     0.150 A 
ATOM     24  C   UNL A   1      33.363  22.420  23.525  1.00  0.00     0.079 A 
ATOM     25  N   UNL A   1      35.218  23.022  24.694  1.00  0.00    -0.176 NA
ATOM     26  N   UNL A   1      34.347  22.014  24.435  1.00  0.00    -0.240 N 
ATOM     27  C   UNL A   1      32.409  21.441  23.112  1.00  0.00     0.029 A 
ATOM     28  C   UNL A   1      34.377  20.723  24.967  1.00  0.00     0.113 A 
ATOM     29  C   UNL A   1      32.448  20.200  23.630  1.00  0.00     0.004 A 
ATOM     30  C   UNL A   1      33.457  19.815  24.599  1.00  0.00     0.020 A 
ENDBRANCH  20  22
ENDBRANCH  10  20
ENDBRANCH   4   7
ENDBRANCH   2   3
ENDBRANCH   1   2
BRANCH   1  31
ATOM     31  C   UNL A   1      34.087  29.103  26.680  1.00  0.00     0.118 C 
BRANCH  31  32
ATOM     32  N   UNL A   1      33.996  30.555  26.808  1.00  0.00    -0.352 N 
ATOM     33  C   UNL A   1      34.719  31.366  27.653  1.00  0.00     0.251 C 
ATOM     34  H   UNL A   1      33.343  31.005  26.223  1.00  0.00     0.163 HD
ATOM     35  O   UNL A   1      34.346  32.508  27.904  1.00  0.00    -0.269 OA
BRANCH  33  36
ATOM     36  C   UNL A   1      35.937  30.813  28.264  1.00  0.00     0.039 A 
ATOM     37  C   UNL A   1      36.077  29.436  28.436  1.00  0.00     0.014 A 
ATOM     38  C   UNL A   1      36.977  31.691  28.566  1.00  0.00     0.014 A 
ATOM     39  C   UNL A   1      37.314  28.936  28.825  1.00  0.00     0.010 A 
ATOM     40  C   UNL A   1      38.228  31.189  28.835  1.00  0.00     0.010 A 
ATOM     41  C   UNL A   1      38.398  29.814  28.990  1.00  0.00    -0.014 A 
BRANCH  41  42
ATOM     42  C   UNL A   1      39.742  29.280  29.198  1.00  0.00     0.031 A 
ATOM     43  C   UNL A   1      40.141  29.105  30.623  1.00  0.00     0.074 A 
ATOM     44  C   UNL A   1      40.506  28.772  28.210  1.00  0.00     0.049 A 
ATOM     45  N   UNL A   1      41.006  29.795  31.289  1.00  0.00    -0.248 NA
ATOM     46  C   UNL A   1      39.401  28.132  31.442  1.00  0.00     0.031 C 
ATOM     47  C   UNL A   1      40.148  28.554  26.803  1.00  0.00     0.029 A 
ATOM     48  N   UNL A   1      41.748  28.221  28.293  1.00  0.00    -0.354 N 
ATOM     49  C   UNL A   1      41.087  29.205  32.547  1.00  0.00     0.074 A 
ATOM     50  C   UNL A   1      39.957  28.315  32.643  1.00  0.00     0.031 C 
ATOM     51  C   UNL A   1      41.037  27.708  26.239  1.00  0.00     0.029 A 
ATOM     52  C   UNL A   1      42.116  27.474  27.180  1.00  0.00     0.049 A 
ATOM     53  H   UNL A   1      42.334  28.341  29.074  1.00  0.00     0.167 HD
ATOM     54  C   UNL A   1      42.206  29.313  33.320  1.00  0.00     0.031 A 
ATOM     55  C   UNL A   1      43.217  26.694  27.052  1.00  0.00     0.031 A 
ATOM     56  C   UNL A   1      43.120  30.296  32.795  1.00  0.00     0.049 A 
ATOM     57  C   UNL A   1      44.198  27.156  28.065  1.00  0.00     0.074 A 
ATOM     58  C   UNL A   1      43.056  31.648  32.526  1.00  0.00     0.029 A 
ATOM     59  N   UNL A   1      44.199  29.817  32.088  1.00  0.00    -0.354 N 
ATOM     60  N   UNL A   1      44.767  28.327  28.027  1.00  0.00    -0.248 NA
ATOM     61  C   UNL A   1      44.224  26.494  29.359  1.00  0.00     0.031 C 
ATOM     62  C   UNL A   1      43.790  31.815  31.315  1.00  0.00     0.029 A 
ATOM     63  C   UNL A   1      44.321  30.575  30.954  1.00  0.00     0.049 A 
ATOM     64  H   UNL A   1      44.780  29.066  32.351  1.00  0.00     0.167 HD
ATOM     65  C   UNL A   1      44.827  28.737  29.351  1.00  0.00     0.074 A 
ATOM     66  C   UNL A   1      44.585  27.524  30.129  1.00  0.00     0.031 C 
ATOM     67  C   UNL A   1      44.789  30.062  29.682  1.00  0.00     0.031 A 
BRANCH  54  68
ATOM     68  C   UNL A   1      42.673  28.265  34.304  1.00  0.00    -0.014 A 
ATOM     69  C   UNL A   1      43.052  28.676  35.601  1.00  0.00     0.010 A 
ATOM     70  C   UNL A   1      43.024  26.956  33.922  1.00  0.00     0.010 A 
ATOM     71  C   UNL A   1      43.812  27.847  36.437  1.00  0.00     0.020 A 
ATOM     72  C   UNL A   1      43.743  26.104  34.766  1.00  0.00     0.020 A 
ATOM     73  C   UNL A   1      44.164  26.570  36.004  1.00  0.00     0.054 A 
BRANCH  73  74
ATOM     74  S   UNL A   1      45.236  25.546  37.042  1.00  0.00     0.124 S 
ATOM     75  O   UNL A   1      44.263  24.753  37.787  1.00  0.00    -0.237 OA
ATOM     76  O   UNL A   1      46.025  24.818  36.051  1.00  0.00    -0.237 OA
ATOM     77  O   UNL A   1      45.984  26.525  37.828  1.00  0.00    -0.744 OA
ENDBRANCH  73  74
ENDBRANCH  54  68
BRANCH  55  78
ATOM     78  C   UNL A   1      43.364  25.420  26.308  1.00  0.00    -0.014 A 
ATOM     79  C   UNL A   1      44.354  25.275  25.320  1.00  0.00     0.010 A 
ATOM     80  C   UNL A   1      42.720  24.254  26.772  1.00  0.00     0.010 A 
ATOM     81  C   UNL A   1      44.741  24.001  24.868  1.00  0.00     0.020 A 
ATOM     82  C   UNL A   1      43.095  22.983  26.319  1.00  0.00     0.020 A 
ATOM     83  C   UNL A   1      44.125  22.861  25.390  1.00  0.00     0.054 A 
BRANCH  83  84
ATOM     84  S   UNL A   1      44.772  21.219  24.955  1.00  0.00     0.124 S 
ATOM     85  O   UNL A   1      46.123  21.261  25.504  1.00  0.00    -0.237 OA
ATOM     86  O   UNL A   1      43.841  20.322  25.634  1.00  0.00    -0.237 OA
ATOM     87  O   UNL A   1      44.695  21.194  23.495  1.00  0.00    -0.744 OA
ENDBRANCH  83  84
ENDBRANCH  55  78
BRANCH  67  88
ATOM     88  C   UNL A   1      45.026  31.087  28.596  1.00  0.00    -0.014 A 
ATOM     89  C   UNL A   1      44.026  31.565  27.726  1.00  0.00     0.010 A 
ATOM     90  C   UNL A   1      46.293  31.693  28.557  1.00  0.00     0.010 A 
ATOM     91  C   UNL A   1      44.303  32.600  26.819  1.00  0.00     0.020 A 
ATOM     92  C   UNL A   1      46.569  32.737  27.671  1.00  0.00     0.020 A 
ATOM     93  C   UNL A   1      45.575  33.178  26.798  1.00  0.00     0.054 A 
BRANCH  93  94
ATOM     94  S   UNL A   1      45.923  34.539  25.649  1.00  0.00     0.124 S 
ATOM     95  O   UNL A   1      47.358  34.403  25.419  1.00  0.00    -0.237 OA
ATOM     96  O   UNL A   1      45.070  34.225  24.505  1.00  0.00    -0.237 OA
ATOM     97  O   UNL A   1      45.528  35.735  26.394  1.00  0.00    -0.744 OA
ENDBRANCH  93  94
ENDBRANCH  67  88
ENDBRANCH  41  42
ENDBRANCH  33  36
ENDBRANCH  31  32
ENDBRANCH   1  31
TORSDOF 17
ENDMDL
MODEL 2
REMARK VINA RESULT:     -12.3      4.369      9.463
REMARK SMILES COc1ccccc1[C@@H]1CN(C(=O)c2cnn3ccccc23)C[C@H]1C(=O)NCCCNC(=O)c1ccc(-c2c3nc(c(-c4ccc(S(=O)(=O)[O-])cc4)c4ccc([nH]4)c(-c4ccc(S(=O)(=O)[O-])cc4)c4nc(c(-c5ccc(S(=O)(=O)[O-])cc5)c5ccc2[nH]5)C=C4)C=C3)cc1
REMARK SMILES IDX 29 1 28 2 27 3 25 4 26 5 24 7 9 8 10 9 11 10 23 11 8 12 3 13
REMARK SMILES IDX 4 14 5 15 7 16 6 17 2 18 1 19 12 20 13 21 14 22 15 23 22 24
REMARK SMILES IDX 16 25 17 26 21 27 18 28 20 29 19 30 30 31 31 32 32 33 33 35
REMARK SMILES IDX 34 36 35 37 93 38 36 39 92 40 37 41 38 42 39 43 86 44 40 45
REMARK SMILES IDX 91 46 85 47 87 48 41 49 90 50 84 51 83 52 42 54 72 55 53 56
REMARK SMILES IDX 71 57 54 58 57 59 70 60 88 61 55 62 56 63 69 65 89 66 58 67
REMARK SMILES IDX 43 68 44 69 52 70 45 71 51 72 46 73 47 74 48 75 49 76 50 77
REMARK SMILES IDX 73 78 74 79 82 80 75 81 81 82 76 83 77 84 78 85 79 86 80 87
REMARK SMILES IDX 59 88 60 89 68 90 61 91 67 92 62 93 63 94 64 95 65 96 66 97
REMARK H PARENT 27 6 31 34 87 53 57 64
REMARK Flexibility Score: inf
ROOT
ATOM      1  C   UNL A   1      34.804  28.602  26.291  1.00  0.00     0.042 C 
ENDROOT
BRANCH   1   2
ATOM      2  C   UNL A   1      33.671  27.902  25.547  1.00  0.00     0.117 C 
BRANCH   2   3
ATOM      3  N   UNL A   1      32.550  27.568  26.407  1.00  0.00    -0.356 N 
ATOM      4  C   UNL A   1      31.346  27.000  26.145  1.00  0.00     0.225 C 
ATOM      5  O   UNL A   1      30.612  26.776  27.111  1.00  0.00    -0.275 OA
ATOM      6  H   UNL A   1      32.689  27.796  27.355  1.00  0.00     0.163 HD
BRANCH   4   7
ATOM      7  C   UNL A   1      30.879  26.636  24.748  1.00  0.00     0.107 C 
ATOM      8  C   UNL A   1      31.218  27.680  23.664  1.00  0.00     0.057 C 
ATOM      9  C   UNL A   1      31.513  26.844  22.419  1.00  0.00     0.129 C 
ATOM     10  N   UNL A   1      32.099  25.634  22.972  1.00  0.00    -0.337 N 
ATOM     11  C   UNL A   1      31.455  25.312  24.240  1.00  0.00     0.134 C 
BRANCH   8  12
ATOM     12  C   UNL A   1      30.224  28.804  23.479  1.00  0.00    -0.000 A 
ATOM     13  C   UNL A   1      30.296  30.056  24.114  1.00  0.00     0.122 A 
ATOM     14  C   UNL A   1      29.313  31.028  23.894  1.00  0.00     0.047 A 
ATOM     15  C   UNL A   1      28.238  30.766  23.046  1.00  0.00     0.004 A 
ATOM     16  C   UNL A   1      29.127  28.565  22.626  1.00  0.00     0.008 A 
ATOM     17  C   UNL A   1      28.138  29.529  22.421  1.00  0.00     0.001 A 
BRANCH  13  18
ATOM     18  O   UNL A   1      31.202  30.317  25.107  1.00  0.00    -0.496 OA
ATOM     19  C   UNL A   1      30.892  31.481  25.867  1.00  0.00     0.278 C 
ENDBRANCH  13  18
ENDBRANCH   8  12
BRANCH  10  20
ATOM     20  C   UNL A   1      33.012  24.776  22.393  1.00  0.00     0.257 C 
ATOM     21  O   UNL A   1      33.266  24.827  21.192  1.00  0.00    -0.269 OA
BRANCH  20  22
ATOM     22  C   UNL A   1      33.683  23.812  23.241  1.00  0.00     0.085 A 
ATOM     23  C   UNL A   1      34.898  24.012  23.927  1.00  0.00     0.150 A 
ATOM     24  C   UNL A   1      33.385  22.482  23.487  1.00  0.00     0.079 A 
ATOM     25  N   UNL A   1      35.297  22.949  24.624  1.00  0.00    -0.176 NA
ATOM     26  N   UNL A   1      34.368  21.996  24.357  1.00  0.00    -0.240 N 
ATOM     27  C   UNL A   1      32.370  21.568  23.070  1.00  0.00     0.029 A 
ATOM     28  C   UNL A   1      34.343  20.689  24.848  1.00  0.00     0.113 A 
ATOM     29  C   UNL A   1      32.356  20.310  23.548  1.00  0.00     0.004 A 
ATOM     30  C   UNL A   1      33.368  19.843  24.478  1.00  0.00     0.020 A 
ENDBRANCH  20  22
ENDBRANCH  10  20
ENDBRANCH   4   7
ENDBRANCH   2   3
ENDBRANCH   1   2
BRANCH   1  31
ATOM     31  C   UNL A   1      34.329  29.328  27.533  1.00  0.00     0.118 C 
BRANCH  31  32
ATOM     32  N   UNL A   1      33.813  30.659  27.225  1.00  0.00    -0.352 N 
ATOM     33  C   UNL A   1      34.077  31.833  27.894  1.00  0.00     0.251 C 
ATOM     34  H   UNL A   1      33.206  30.724  26.452  1.00  0.00     0.163 HD
ATOM     35  O   UNL A   1      33.356  32.815  27.752  1.00  0.00    -0.269 OA
BRANCH  33  36
ATOM     36  C   UNL A   1      35.234  31.864  28.800  1.00  0.00     0.039 A 
ATOM     37  C   UNL A   1      36.514  31.588  28.319  1.00  0.00     0.014 A 
ATOM     38  C   UNL A   1      35.026  32.273  30.117  1.00  0.00     0.014 A 
ATOM     39  C   UNL A   1      37.603  31.824  29.151  1.00  0.00     0.010 A 
ATOM     40  C   UNL A   1      36.107  32.616  30.896  1.00  0.00     0.010 A 
ATOM     41  C   UNL A   1      37.397  32.371  30.428  1.00  0.00    -0.014 A 
BRANCH  41  42
ATOM     42  C   UNL A   1      38.540  32.810  31.225  1.00  0.00     0.031 A 
ATOM     43  C   UNL A   1      39.559  33.607  30.486  1.00  0.00     0.074 A 
ATOM     44  C   UNL A   1      38.599  32.708  32.568  1.00  0.00     0.049 A 
ATOM     45  N   UNL A   1      40.750  33.243  30.147  1.00  0.00    -0.248 NA
ATOM     46  C   UNL A   1      39.164  34.920  29.947  1.00  0.00     0.031 C 
ATOM     47  C   UNL A   1      37.552  32.258  33.493  1.00  0.00     0.029 A 
ATOM     48  N   UNL A   1      39.590  33.111  33.409  1.00  0.00    -0.354 N 
ATOM     49  C   UNL A   1      41.341  34.353  29.549  1.00  0.00     0.074 A 
ATOM     50  C   UNL A   1      40.269  35.282  29.290  1.00  0.00     0.031 C 
ATOM     51  C   UNL A   1      37.867  32.642  34.749  1.00  0.00     0.029 A 
ATOM     52  C   UNL A   1      39.208  33.195  34.743  1.00  0.00     0.049 A 
ATOM     53  H   UNL A   1      40.499  33.325  33.099  1.00  0.00     0.167 HD
ATOM     54  C   UNL A   1      42.694  34.523  29.530  1.00  0.00     0.031 A 
ATOM     55  C   UNL A   1      39.933  33.711  35.766  1.00  0.00     0.031 A 
ATOM     56  C   UNL A   1      43.384  33.328  29.944  1.00  0.00     0.049 A 
ATOM     57  C   UNL A   1      41.354  33.700  35.341  1.00  0.00     0.074 A 
ATOM     58  C   UNL A   1      43.444  32.025  29.491  1.00  0.00     0.029 A 
ATOM     59  N   UNL A   1      43.856  33.305  31.236  1.00  0.00    -0.354 N 
ATOM     60  N   UNL A   1      42.031  32.606  35.137  1.00  0.00    -0.248 NA
ATOM     61  C   UNL A   1      41.903  34.895  34.721  1.00  0.00     0.031 C 
ATOM     62  C   UNL A   1      43.489  31.229  30.674  1.00  0.00     0.029 A 
ATOM     63  C   UNL A   1      43.530  32.089  31.775  1.00  0.00     0.049 A 
ATOM     64  H   UNL A   1      44.341  34.031  31.691  1.00  0.00     0.167 HD
ATOM     65  C   UNL A   1      42.819  32.877  34.028  1.00  0.00     0.074 A 
ATOM     66  C   UNL A   1      42.782  34.331  33.889  1.00  0.00     0.031 C 
ATOM     67  C   UNL A   1      43.195  31.883  33.169  1.00  0.00     0.031 A 
BRANCH  54  68
ATOM     68  C   UNL A   1      43.390  35.865  29.540  1.00  0.00    -0.014 A 
ATOM     69  C   UNL A   1      43.799  36.406  30.778  1.00  0.00     0.010 A 
ATOM     70  C   UNL A   1      43.399  36.732  28.430  1.00  0.00     0.010 A 
ATOM     71  C   UNL A   1      44.121  37.763  30.911  1.00  0.00     0.020 A 
ATOM     72  C   UNL A   1      43.763  38.077  28.543  1.00  0.00     0.020 A 
ATOM     73  C   UNL A   1      44.085  38.593  29.791  1.00  0.00     0.054 A 
BRANCH  73  74
ATOM     74  S   UNL A   1      44.395  40.364  29.990  1.00  0.00     0.124 S 
ATOM     75  O   UNL A   1      43.877  40.611  31.332  1.00  0.00    -0.237 OA
ATOM     76  O   UNL A   1      45.847  40.443  29.845  1.00  0.00    -0.237 OA
ATOM     77  O   UNL A   1      43.633  40.968  28.900  1.00  0.00    -0.744 OA
ENDBRANCH  73  74
ENDBRANCH  54  68
BRANCH  55  78
ATOM     78  C   UNL A   1      39.451  34.452  36.956  1.00  0.00    -0.014 A 
ATOM     79  C   UNL A   1      38.968  33.765  38.084  1.00  0.00     0.010 A 
ATOM     80  C   UNL A   1      39.737  35.826  37.095  1.00  0.00     0.010 A 
ATOM     81  C   UNL A   1      38.849  34.412  39.326  1.00  0.00     0.020 A 
ATOM     82  C   UNL A   1      39.612  36.478  38.327  1.00  0.00     0.020 A 
ATOM     83  C   UNL A   1      39.196  35.759  39.445  1.00  0.00     0.054 A 
BRANCH  83  84
ATOM     84  S   UNL A   1      39.236  36.528  41.091  1.00  0.00     0.124 S 
ATOM     85  O   UNL A   1      40.617  36.302  41.507  1.00  0.00    -0.237 OA
ATOM     86  O   UNL A   1      38.882  37.916  40.802  1.00  0.00    -0.237 OA
ATOM     87  O   UNL A   1      38.231  35.781  41.845  1.00  0.00    -0.744 OA
ENDBRANCH  83  84
ENDBRANCH  55  78
BRANCH  67  88
ATOM     88  C   UNL A   1      43.041  30.446  33.612  1.00  0.00    -0.014 A 
ATOM     89  C   UNL A   1      44.029  29.720  34.305  1.00  0.00     0.010 A 
ATOM     90  C   UNL A   1      41.777  29.856  33.437  1.00  0.00     0.010 A 
ATOM     91  C   UNL A   1      43.765  28.426  34.780  1.00  0.00     0.020 A 
ATOM     92  C   UNL A   1      41.501  28.577  33.926  1.00  0.00     0.020 A 
ATOM     93  C   UNL A   1      42.501  27.863  34.585  1.00  0.00     0.054 A 
BRANCH  93  94
ATOM     94  S   UNL A   1      42.148  26.203  35.229  1.00  0.00     0.124 S 
ATOM     95  O   UNL A   1      42.646  26.282  36.599  1.00  0.00    -0.237 OA
ATOM     96  O   UNL A   1      40.697  26.102  35.092  1.00  0.00    -0.237 OA
ATOM     97  O   UNL A   1      42.907  25.318  34.346  1.00  0.00    -0.744 OA
ENDBRANCH  93  94
ENDBRANCH  67  88
ENDBRANCH  41  42
ENDBRANCH  33  36
ENDBRANCH  31  32
ENDBRANCH   1  31
TORSDOF 17
ENDMDL
MODEL 3
REMARK VINA RESULT:     -12.0      5.586     11.058
REMARK SMILES COc1ccccc1[C@@H]1CN(C(=O)c2cnn3ccccc23)C[C@H]1C(=O)NCCCNC(=O)c1ccc(-c2c3nc(c(-c4ccc(S(=O)(=O)[O-])cc4)c4ccc([nH]4)c(-c4ccc(S(=O)(=O)[O-])cc4)c4nc(c(-c5ccc(S(=O)(=O)[O-])cc5)c5ccc2[nH]5)C=C4)C=C3)cc1
REMARK SMILES IDX 29 1 28 2 27 3 25 4 26 5 24 7 9 8 10 9 11 10 23 11 8 12 3 13
REMARK SMILES IDX 4 14 5 15 7 16 6 17 2 18 1 19 12 20 13 21 14 22 15 23 22 24
REMARK SMILES IDX 16 25 17 26 21 27 18 28 20 29 19 30 30 31 31 32 32 33 33 35
REMARK SMILES IDX 34 36 35 37 93 38 36 39 92 40 37 41 38 42 39 43 86 44 40 45
REMARK SMILES IDX 91 46 85 47 87 48 41 49 90 50 84 51 83 52 42 54 72 55 53 56
REMARK SMILES IDX 71 57 54 58 57 59 70 60 88 61 55 62 56 63 69 65 89 66 58 67
REMARK SMILES IDX 43 68 44 69 52 70 45 71 51 72 46 73 47 74 48 75 49 76 50 77
REMARK SMILES IDX 73 78 74 79 82 80 75 81 81 82 76 83 77 84 78 85 79 86 80 87
REMARK SMILES IDX 59 88 60 89 68 90 61 91 67 92 62 93 63 94 64 95 65 96 66 97
REMARK H PARENT 27 6 31 34 87 53 57 64
REMARK Flexibility Score: inf
ROOT
ATOM      1  C   UNL A   1      44.502  24.518  32.203  1.00  0.00     0.042 C 
ENDROOT
BRANCH   1   2
ATOM      2  C   UNL A   1      44.187  25.845  31.518  1.00  0.00     0.117 C 
BRANCH   2   3
ATOM      3  N   UNL A   1      44.542  25.853  30.110  1.00  0.00    -0.356 N 
ATOM      4  C   UNL A   1      43.809  25.622  28.991  1.00  0.00     0.225 C 
ATOM      5  O   UNL A   1      44.382  25.771  27.909  1.00  0.00    -0.275 OA
ATOM      6  H   UNL A   1      45.487  26.066  29.935  1.00  0.00     0.163 HD
BRANCH   4   7
ATOM      7  C   UNL A   1      42.351  25.202  29.018  1.00  0.00     0.107 C 
ATOM      8  C   UNL A   1      41.433  26.005  28.071  1.00  0.00     0.057 C 
ATOM      9  C   UNL A   1      40.412  24.979  27.582  1.00  0.00     0.129 C 
ATOM     10  N   UNL A   1      41.181  23.746  27.549  1.00  0.00    -0.337 N 
ATOM     11  C   UNL A   1      42.134  23.732  28.653  1.00  0.00     0.134 C 
BRANCH   8  12
ATOM     12  C   UNL A   1      40.860  27.290  28.623  1.00  0.00    -0.000 A 
ATOM     13  C   UNL A   1      40.952  28.546  28.000  1.00  0.00     0.122 A 
ATOM     14  C   UNL A   1      40.404  29.686  28.601  1.00  0.00     0.047 A 
ATOM     15  C   UNL A   1      39.765  29.595  29.837  1.00  0.00     0.004 A 
ATOM     16  C   UNL A   1      40.208  27.225  29.871  1.00  0.00     0.008 A 
ATOM     17  C   UNL A   1      39.678  28.366  30.478  1.00  0.00     0.001 A 
BRANCH  13  18
ATOM     18  O   UNL A   1      41.731  28.755  26.893  1.00  0.00    -0.496 OA
ATOM     19  C   UNL A   1      43.023  29.270  27.197  1.00  0.00     0.278 C 
ENDBRANCH  13  18
ENDBRANCH   8  12
BRANCH  10  20
ATOM     20  C   UNL A   1      41.007  22.642  26.738  1.00  0.00     0.257 C 
ATOM     21  O   UNL A   1      39.898  22.141  26.569  1.00  0.00    -0.269 OA
BRANCH  20  22
ATOM     22  C   UNL A   1      42.169  22.088  26.072  1.00  0.00     0.085 A 
ATOM     23  C   UNL A   1      43.023  22.773  25.186  1.00  0.00     0.150 A 
ATOM     24  C   UNL A   1      42.642  20.787  26.043  1.00  0.00     0.079 A 
ATOM     25  N   UNL A   1      44.008  22.015  24.704  1.00  0.00    -0.176 NA
ATOM     26  N   UNL A   1      43.780  20.783  25.228  1.00  0.00    -0.240 N 
ATOM     27  C   UNL A   1      42.245  19.542  26.617  1.00  0.00     0.029 A 
ATOM     28  C   UNL A   1      44.537  19.630  25.016  1.00  0.00     0.113 A 
ATOM     29  C   UNL A   1      42.980  18.435  26.405  1.00  0.00     0.004 A 
ATOM     30  C   UNL A   1      44.176  18.467  25.584  1.00  0.00     0.020 A 
ENDBRANCH  20  22
ENDBRANCH  10  20
ENDBRANCH   4   7
ENDBRANCH   2   3
ENDBRANCH   1   2
BRANCH   1  31
ATOM     31  C   UNL A   1      44.956  24.693  33.638  1.00  0.00     0.118 C 
BRANCH  31  32
ATOM     32  N   UNL A   1      44.046  24.050  34.583  1.00  0.00    -0.352 N 
ATOM     33  C   UNL A   1      43.107  24.659  35.384  1.00  0.00     0.251 C 
ATOM     34  H   UNL A   1      44.113  23.070  34.654  1.00  0.00     0.163 HD
ATOM     35  O   UNL A   1      42.629  24.074  36.351  1.00  0.00    -0.269 OA
BRANCH  33  36
ATOM     36  C   UNL A   1      42.713  26.037  35.059  1.00  0.00     0.039 A 
ATOM     37  C   UNL A   1      43.554  27.104  35.376  1.00  0.00     0.014 A 
ATOM     38  C   UNL A   1      41.535  26.231  34.339  1.00  0.00     0.014 A 
ATOM     39  C   UNL A   1      43.247  28.365  34.875  1.00  0.00     0.010 A 
ATOM     40  C   UNL A   1      41.297  27.450  33.749  1.00  0.00     0.010 A 
ATOM     41  C   UNL A   1      42.135  28.527  34.032  1.00  0.00    -0.014 A 
BRANCH  41  42
ATOM     42  C   UNL A   1      41.925  29.797  33.342  1.00  0.00     0.031 A 
ATOM     43  C   UNL A   1      43.008  30.192  32.398  1.00  0.00     0.074 A 
ATOM     44  C   UNL A   1      40.762  30.477  33.365  1.00  0.00     0.049 A 
ATOM     45  N   UNL A   1      43.868  31.145  32.539  1.00  0.00    -0.248 NA
ATOM     46  C   UNL A   1      43.247  29.348  31.215  1.00  0.00     0.031 C 
ATOM     47  C   UNL A   1      39.484  30.075  33.966  1.00  0.00     0.029 A 
ATOM     48  N   UNL A   1      40.444  31.642  32.737  1.00  0.00    -0.354 N 
ATOM     49  C   UNL A   1      44.616  31.171  31.365  1.00  0.00     0.074 A 
ATOM     50  C   UNL A   1      44.317  29.940  30.676  1.00  0.00     0.031 C 
ATOM     51  C   UNL A   1      38.491  30.843  33.468  1.00  0.00     0.029 A 
ATOM     52  C   UNL A   1      39.081  31.899  32.665  1.00  0.00     0.049 A 
ATOM     53  H   UNL A   1      41.123  32.250  32.365  1.00  0.00     0.167 HD
ATOM     54  C   UNL A   1      45.239  32.305  30.936  1.00  0.00     0.031 A 
ATOM     55  C   UNL A   1      38.475  32.893  31.970  1.00  0.00     0.031 A 
ATOM     56  C   UNL A   1      45.240  33.327  31.953  1.00  0.00     0.049 A 
ATOM     57  C   UNL A   1      39.499  33.938  31.724  1.00  0.00     0.074 A 
ATOM     58  C   UNL A   1      45.731  33.427  33.239  1.00  0.00     0.029 A 
ATOM     59  N   UNL A   1      44.306  34.327  31.821  1.00  0.00    -0.354 N 
ATOM     60  N   UNL A   1      40.039  34.647  32.674  1.00  0.00    -0.248 NA
ATOM     61  C   UNL A   1      40.243  33.901  30.476  1.00  0.00     0.031 C 
ATOM     62  C   UNL A   1      44.736  34.158  33.953  1.00  0.00     0.029 A 
ATOM     63  C   UNL A   1      43.735  34.526  33.050  1.00  0.00     0.049 A 
ATOM     64  H   UNL A   1      44.087  34.814  30.993  1.00  0.00     0.167 HD
ATOM     65  C   UNL A   1      41.371  34.776  32.308  1.00  0.00     0.074 A 
ATOM     66  C   UNL A   1      41.410  34.397  30.897  1.00  0.00     0.031 C 
ATOM     67  C   UNL A   1      42.351  34.908  33.250  1.00  0.00     0.031 A 
BRANCH  54  68
ATOM     68  C   UNL A   1      45.484  32.653  29.485  1.00  0.00    -0.014 A 
ATOM     69  C   UNL A   1      46.792  33.004  29.085  1.00  0.00     0.010 A 
ATOM     70  C   UNL A   1      44.444  32.925  28.575  1.00  0.00     0.010 A 
ATOM     71  C   UNL A   1      47.032  33.665  27.874  1.00  0.00     0.020 A 
ATOM     72  C   UNL A   1      44.678  33.543  27.344  1.00  0.00     0.020 A 
ATOM     73  C   UNL A   1      45.967  33.944  27.018  1.00  0.00     0.054 A 
BRANCH  73  74
ATOM     74  S   UNL A   1      46.269  34.893  25.507  1.00  0.00     0.124 S 
ATOM     75  O   UNL A   1      45.268  34.339  24.600  1.00  0.00    -0.237 OA
ATOM     76  O   UNL A   1      46.032  36.265  25.951  1.00  0.00    -0.237 OA
ATOM     77  O   UNL A   1      47.658  34.581  25.180  1.00  0.00    -0.744 OA
ENDBRANCH  73  74
ENDBRANCH  54  68
BRANCH  55  78
ATOM     78  C   UNL A   1      37.163  32.870  31.281  1.00  0.00    -0.014 A 
ATOM     79  C   UNL A   1      36.174  33.823  31.583  1.00  0.00     0.010 A 
ATOM     80  C   UNL A   1      36.990  32.088  30.119  1.00  0.00     0.010 A 
ATOM     81  C   UNL A   1      35.092  34.041  30.714  1.00  0.00     0.020 A 
ATOM     82  C   UNL A   1      35.909  32.294  29.254  1.00  0.00     0.020 A 
ATOM     83  C   UNL A   1      34.980  33.291  29.541  1.00  0.00     0.054 A 
BRANCH  83  84
ATOM     84  S   UNL A   1      33.698  33.720  28.326  1.00  0.00     0.124 S 
ATOM     85  O   UNL A   1      34.407  34.629  27.432  1.00  0.00    -0.237 OA
ATOM     86  O   UNL A   1      33.349  32.420  27.760  1.00  0.00    -0.237 OA
ATOM     87  O   UNL A   1      32.649  34.339  29.136  1.00  0.00    -0.744 OA
ENDBRANCH  83  84
ENDBRANCH  55  78
BRANCH  67  88
ATOM     88  C   UNL A   1      41.954  35.255  34.667  1.00  0.00    -0.014 A 
ATOM     89  C   UNL A   1      41.838  36.570  35.157  1.00  0.00     0.010 A 
ATOM     90  C   UNL A   1      41.544  34.194  35.493  1.00  0.00     0.010 A 
ATOM     91  C   UNL A   1      41.355  36.810  36.453  1.00  0.00     0.020 A 
ATOM     92  C   UNL A   1      41.043  34.427  36.775  1.00  0.00     0.020 A 
ATOM     93  C   UNL A   1      40.961  35.734  37.254  1.00  0.00     0.054 A 
BRANCH  93  94
ATOM     94  S   UNL A   1      40.305  36.047  38.916  1.00  0.00     0.124 S 
ATOM     95  O   UNL A   1      40.510  37.484  39.074  1.00  0.00    -0.237 OA
ATOM     96  O   UNL A   1      38.912  35.620  38.802  1.00  0.00    -0.237 OA
ATOM     97  O   UNL A   1      41.131  35.207  39.782  1.00  0.00    -0.744 OA
ENDBRANCH  93  94
ENDBRANCH  67  88
ENDBRANCH  41  42
ENDBRANCH  33  36
ENDBRANCH  31  32
ENDBRANCH   1  31
TORSDOF 17
ENDMDL
