MODEL 1
REMARK VINA RESULT:     -11.4      0.000      0.000
REMARK SMILES O=C(CCC(=O)/[NH+]=C1\S[C@H]2CS(=O)(=O)C[C@@H]2N1c1ccc(Oc2ccccc2)cc1)NCCCNC(=O)c1ccc(-c2c3nc(c(-c4ccc(S(=O)(=O)[O-])cc4)c4ccc([nH]4)c(-c4ccc(S(=O)(=O)[O-])cc4)c4nc(c(-c5ccc(S(=O)(=O)[O-])cc5)c5ccc2[nH]5)C=C4)C=C3)cc1
REMARK SMILES IDX 32 1 31 2 2 3 1 4 3 6 4 7 5 8 6 9 7 10 8 11 9 13 17 14 10 15
REMARK SMILES IDX 16 16 11 17 15 18 12 19 13 20 14 21 18 22 19 23 30 24 20 25
REMARK SMILES IDX 29 26 21 27 22 28 23 29 24 30 28 31 25 32 27 33 26 34 33 35
REMARK SMILES IDX 34 36 35 37 36 38 37 40 38 41 39 42 97 43 40 44 96 45 41 46
REMARK SMILES IDX 42 47 43 48 90 49 44 50 95 51 89 52 91 53 45 54 94 55 88 56
REMARK SMILES IDX 87 57 46 59 76 60 57 61 75 62 58 63 61 64 74 65 92 66 59 67
REMARK SMILES IDX 60 68 73 70 93 71 62 72 47 73 48 74 56 75 49 76 55 77 50 78
REMARK SMILES IDX 51 79 52 80 53 81 54 82 77 83 78 84 86 85 79 86 85 87 80 88
REMARK SMILES IDX 81 89 82 90 83 91 84 92 63 93 64 94 72 95 65 96 71 97 66 98
REMARK SMILES IDX 67 99 68 100 69 101 70 102
REMARK H PARENT 31 5 7 12 35 39 91 58 61 69
REMARK Flexibility Score: inf
ROOT
ATOM      1  C   UNL A   1      34.895  23.700  23.752  1.00  0.00     0.117 C 
ENDROOT
BRANCH   1   2
ATOM      2  N   UNL A   1      33.575  23.276  23.314  1.00  0.00    -0.356 N 
ATOM      3  C   UNL A   1      32.389  23.239  23.978  1.00  0.00     0.220 C 
ATOM      4  O   UNL A   1      31.368  22.936  23.355  1.00  0.00    -0.275 OA
ATOM      5  H   UNL A   1      33.533  22.963  22.382  1.00  0.00     0.163 HD
BRANCH   3   6
ATOM      6  C   UNL A   1      32.329  23.551  25.447  1.00  0.00     0.112 C 
BRANCH   6   7
ATOM      7  C   UNL A   1      32.084  25.001  25.842  1.00  0.00     0.138 C 
BRANCH   7   8
ATOM      8  C   UNL A   1      33.181  26.074  25.807  1.00  0.00     0.308 C 
ATOM      9  O   UNL A   1      34.343  25.704  25.645  1.00  0.00    -0.247 OA
ATOM     10  N   UNL A   1      32.889  27.404  25.992  1.00  0.00    -0.204 N 
ATOM     11  C   UNL A   1      32.203  28.081  25.135  1.00  0.00     0.319 C 
ATOM     12  H   UNL A   1      33.213  27.854  26.805  1.00  0.00     0.316 HD
ATOM     13  S   UNL A   1      31.461  27.354  23.664  1.00  0.00    -0.029 SA
ATOM     14  N   UNL A   1      31.791  29.410  25.229  1.00  0.00    -0.217 N 
ATOM     15  C   UNL A   1      30.634  28.899  23.251  1.00  0.00     0.120 C 
ATOM     16  C   UNL A   1      30.497  29.615  24.596  1.00  0.00     0.212 C 
ATOM     17  C   UNL A   1      29.238  28.912  22.687  1.00  0.00     0.156 C 
ATOM     18  C   UNL A   1      30.018  31.001  24.229  1.00  0.00     0.188 C 
ATOM     19  S   UNL A   1      28.774  30.630  22.980  1.00  0.00     0.155 S 
ATOM     20  O   UNL A   1      29.086  31.393  21.785  1.00  0.00    -0.229 OA
ATOM     21  O   UNL A   1      27.469  30.658  23.594  1.00  0.00    -0.229 OA
BRANCH  14  22
ATOM     22  C   UNL A   1      32.310  30.429  26.034  1.00  0.00     0.128 A 
ATOM     23  C   UNL A   1      33.565  30.303  26.643  1.00  0.00     0.056 A 
ATOM     24  C   UNL A   1      31.525  31.539  26.389  1.00  0.00     0.056 A 
ATOM     25  C   UNL A   1      34.013  31.248  27.569  1.00  0.00     0.051 A 
ATOM     26  C   UNL A   1      31.961  32.472  27.358  1.00  0.00     0.051 A 
ATOM     27  C   UNL A   1      33.221  32.339  27.936  1.00  0.00     0.127 A 
BRANCH  27  28
ATOM     28  O   UNL A   1      33.848  33.178  28.821  1.00  0.00    -0.457 OA
BRANCH  28  29
ATOM     29  C   UNL A   1      33.548  34.511  28.922  1.00  0.00     0.127 A 
ATOM     30  C   UNL A   1      34.138  35.373  27.990  1.00  0.00     0.047 A 
ATOM     31  C   UNL A   1      32.923  35.029  30.055  1.00  0.00     0.047 A 
ATOM     32  C   UNL A   1      34.099  36.755  28.186  1.00  0.00     0.004 A 
ATOM     33  C   UNL A   1      32.905  36.410  30.261  1.00  0.00     0.004 A 
ATOM     34  C   UNL A   1      33.502  37.271  29.333  1.00  0.00     0.000 A 
ENDBRANCH  28  29
ENDBRANCH  27  28
ENDBRANCH  14  22
ENDBRANCH   7   8
ENDBRANCH   6   7
ENDBRANCH   3   6
ENDBRANCH   1   2
BRANCH   1  35
ATOM     35  C   UNL A   1      35.716  22.639  24.482  1.00  0.00     0.042 C 
BRANCH  35  36
ATOM     36  C   UNL A   1      36.639  23.145  25.585  1.00  0.00     0.118 C 
BRANCH  36  37
ATOM     37  N   UNL A   1      37.668  22.188  25.967  1.00  0.00    -0.352 N 
ATOM     38  C   UNL A   1      38.957  22.384  26.417  1.00  0.00     0.251 C 
ATOM     39  H   UNL A   1      37.399  21.244  25.891  1.00  0.00     0.163 HD
ATOM     40  O   UNL A   1      39.687  21.399  26.533  1.00  0.00    -0.269 OA
BRANCH  38  41
ATOM     41  C   UNL A   1      39.487  23.729  26.777  1.00  0.00     0.039 A 
ATOM     42  C   UNL A   1      39.441  24.171  28.105  1.00  0.00     0.014 A 
ATOM     43  C   UNL A   1      39.960  24.608  25.808  1.00  0.00     0.014 A 
ATOM     44  C   UNL A   1      39.899  25.459  28.444  1.00  0.00     0.010 A 
ATOM     45  C   UNL A   1      40.453  25.870  26.143  1.00  0.00     0.010 A 
ATOM     46  C   UNL A   1      40.416  26.324  27.462  1.00  0.00    -0.014 A 
BRANCH  46  47
ATOM     47  C   UNL A   1      41.073  27.609  27.806  1.00  0.00     0.031 A 
ATOM     48  C   UNL A   1      42.551  27.850  27.703  1.00  0.00     0.074 A 
ATOM     49  C   UNL A   1      40.349  28.559  28.421  1.00  0.00     0.049 A 
ATOM     50  N   UNL A   1      43.191  28.988  27.581  1.00  0.00    -0.248 NA
ATOM     51  C   UNL A   1      43.431  26.684  27.775  1.00  0.00     0.031 C 
ATOM     52  C   UNL A   1      38.941  28.445  28.797  1.00  0.00     0.029 A 
ATOM     53  N   UNL A   1      40.734  29.784  28.895  1.00  0.00    -0.354 N 
ATOM     54  C   UNL A   1      44.521  28.645  27.375  1.00  0.00     0.074 A 
ATOM     55  C   UNL A   1      44.622  27.224  27.551  1.00  0.00     0.031 C 
ATOM     56  C   UNL A   1      38.589  29.545  29.480  1.00  0.00     0.029 A 
ATOM     57  C   UNL A   1      39.741  30.439  29.573  1.00  0.00     0.049 A 
ATOM     58  H   UNL A   1      41.635  30.156  28.763  1.00  0.00     0.167 HD
ATOM     59  C   UNL A   1      45.574  29.440  27.079  1.00  0.00     0.031 A 
ATOM     60  C   UNL A   1      39.770  31.627  30.202  1.00  0.00     0.031 A 
ATOM     61  C   UNL A   1      45.590  30.839  27.385  1.00  0.00     0.049 A 
ATOM     62  C   UNL A   1      41.018  32.467  30.145  1.00  0.00     0.074 A 
ATOM     63  C   UNL A   1      46.621  31.749  27.253  1.00  0.00     0.029 A 
ATOM     64  N   UNL A   1      44.566  31.479  28.063  1.00  0.00    -0.354 N 
ATOM     65  N   UNL A   1      42.149  32.231  29.522  1.00  0.00    -0.248 NA
ATOM     66  C   UNL A   1      40.981  33.749  30.861  1.00  0.00     0.031 C 
ATOM     67  C   UNL A   1      46.278  32.886  27.998  1.00  0.00     0.029 A 
ATOM     68  C   UNL A   1      44.991  32.719  28.491  1.00  0.00     0.049 A 
ATOM     69  H   UNL A   1      43.668  31.105  28.216  1.00  0.00     0.167 HD
ATOM     70  C   UNL A   1      42.947  33.350  29.745  1.00  0.00     0.074 A 
ATOM     71  C   UNL A   1      42.164  34.263  30.552  1.00  0.00     0.031 C 
ATOM     72  C   UNL A   1      44.208  33.606  29.312  1.00  0.00     0.031 A 
BRANCH  59  73
ATOM     73  C   UNL A   1      46.794  28.804  26.468  1.00  0.00    -0.014 A 
ATOM     74  C   UNL A   1      46.736  28.350  25.136  1.00  0.00     0.010 A 
ATOM     75  C   UNL A   1      48.017  28.741  27.155  1.00  0.00     0.010 A 
ATOM     76  C   UNL A   1      47.875  27.842  24.503  1.00  0.00     0.020 A 
ATOM     77  C   UNL A   1      49.163  28.239  26.522  1.00  0.00     0.020 A 
ATOM     78  C   UNL A   1      49.084  27.792  25.201  1.00  0.00     0.054 A 
BRANCH  78  79
ATOM     79  S   UNL A   1      50.555  27.169  24.338  1.00  0.00     0.124 S 
ATOM     80  O   UNL A   1      50.987  26.087  25.219  1.00  0.00    -0.237 OA
ATOM     81  O   UNL A   1      50.013  26.750  23.048  1.00  0.00    -0.237 OA
ATOM     82  O   UNL A   1      51.447  28.324  24.293  1.00  0.00    -0.744 OA
ENDBRANCH  78  79
ENDBRANCH  59  73
BRANCH  60  83
ATOM     83  C   UNL A   1      38.552  32.096  30.908  1.00  0.00    -0.014 A 
ATOM     84  C   UNL A   1      38.243  31.603  32.185  1.00  0.00     0.010 A 
ATOM     85  C   UNL A   1      37.717  33.065  30.320  1.00  0.00     0.010 A 
ATOM     86  C   UNL A   1      37.105  32.055  32.856  1.00  0.00     0.020 A 
ATOM     87  C   UNL A   1      36.594  33.540  31.001  1.00  0.00     0.020 A 
ATOM     88  C   UNL A   1      36.289  33.020  32.260  1.00  0.00     0.054 A 
BRANCH  88  89
ATOM     89  S   UNL A   1      34.837  33.610  33.171  1.00  0.00     0.124 S 
ATOM     90  O   UNL A   1      33.759  32.849  32.547  1.00  0.00    -0.237 OA
ATOM     91  O   UNL A   1      35.159  33.243  34.548  1.00  0.00    -0.237 OA
ATOM     92  O   UNL A   1      34.825  35.047  32.904  1.00  0.00    -0.744 OA
ENDBRANCH  88  89
ENDBRANCH  60  83
BRANCH  72  93
ATOM     93  C   UNL A   1      44.837  34.915  29.700  1.00  0.00    -0.014 A 
ATOM     94  C   UNL A   1      45.500  35.072  30.929  1.00  0.00     0.010 A 
ATOM     95  C   UNL A   1      44.855  35.970  28.768  1.00  0.00     0.010 A 
ATOM     96  C   UNL A   1      46.155  36.268  31.227  1.00  0.00     0.020 A 
ATOM     97  C   UNL A   1      45.538  37.154  29.049  1.00  0.00     0.020 A 
ATOM     98  C   UNL A   1      46.178  37.298  30.282  1.00  0.00     0.054 A 
BRANCH  98  99
ATOM     99  S   UNL A   1      47.104  38.808  30.661  1.00  0.00     0.124 S 
ATOM    100  O   UNL A   1      46.604  39.146  31.990  1.00  0.00    -0.237 OA
ATOM    101  O   UNL A   1      48.491  38.353  30.608  1.00  0.00    -0.237 OA
ATOM    102  O   UNL A   1      46.716  39.731  29.596  1.00  0.00    -0.744 OA
ENDBRANCH  98  99
ENDBRANCH  72  93
ENDBRANCH  46  47
ENDBRANCH  38  41
ENDBRANCH  36  37
ENDBRANCH  35  36
ENDBRANCH   1  35
TORSDOF 18
ENDMDL
MODEL 2
REMARK VINA RESULT:     -11.1      5.485     10.990
REMARK SMILES O=C(CCC(=O)/[NH+]=C1\S[C@H]2CS(=O)(=O)C[C@@H]2N1c1ccc(Oc2ccccc2)cc1)NCCCNC(=O)c1ccc(-c2c3nc(c(-c4ccc(S(=O)(=O)[O-])cc4)c4ccc([nH]4)c(-c4ccc(S(=O)(=O)[O-])cc4)c4nc(c(-c5ccc(S(=O)(=O)[O-])cc5)c5ccc2[nH]5)C=C4)C=C3)cc1
REMARK SMILES IDX 32 1 31 2 2 3 1 4 3 6 4 7 5 8 6 9 7 10 8 11 9 13 17 14 10 15
REMARK SMILES IDX 16 16 11 17 15 18 12 19 13 20 14 21 18 22 19 23 30 24 20 25
REMARK SMILES IDX 29 26 21 27 22 28 23 29 24 30 28 31 25 32 27 33 26 34 33 35
REMARK SMILES IDX 34 36 35 37 36 38 37 40 38 41 39 42 97 43 40 44 96 45 41 46
REMARK SMILES IDX 42 47 43 48 90 49 44 50 95 51 89 52 91 53 45 54 94 55 88 56
REMARK SMILES IDX 87 57 46 59 76 60 57 61 75 62 58 63 61 64 74 65 92 66 59 67
REMARK SMILES IDX 60 68 73 70 93 71 62 72 47 73 48 74 56 75 49 76 55 77 50 78
REMARK SMILES IDX 51 79 52 80 53 81 54 82 77 83 78 84 86 85 79 86 85 87 80 88
REMARK SMILES IDX 81 89 82 90 83 91 84 92 63 93 64 94 72 95 65 96 71 97 66 98
REMARK SMILES IDX 67 99 68 100 69 101 70 102
REMARK H PARENT 31 5 7 12 35 39 91 58 61 69
REMARK Flexibility Score: inf
ROOT
ATOM      1  C   UNL A   1      48.738  28.570  28.272  1.00  0.00     0.117 C 
ENDROOT
BRANCH   1   2
ATOM      2  N   UNL A   1      49.362  27.394  27.687  1.00  0.00    -0.356 N 
ATOM      3  C   UNL A   1      48.813  26.265  27.166  1.00  0.00     0.220 C 
ATOM      4  O   UNL A   1      49.553  25.440  26.623  1.00  0.00    -0.275 OA
ATOM      5  H   UNL A   1      50.345  27.420  27.665  1.00  0.00     0.163 HD
BRANCH   3   6
ATOM      6  C   UNL A   1      47.333  26.022  27.262  1.00  0.00     0.112 C 
BRANCH   6   7
ATOM      7  C   UNL A   1      46.548  25.977  25.958  1.00  0.00     0.138 C 
BRANCH   7   8
ATOM      8  C   UNL A   1      45.411  26.953  25.631  1.00  0.00     0.308 C 
ATOM      9  O   UNL A   1      45.625  27.825  24.790  1.00  0.00    -0.247 OA
ATOM     10  N   UNL A   1      44.203  26.891  26.283  1.00  0.00    -0.204 N 
ATOM     11  C   UNL A   1      43.392  25.899  26.130  1.00  0.00     0.319 C 
ATOM     12  H   UNL A   1      43.949  27.626  26.886  1.00  0.00     0.316 HD
ATOM     13  S   UNL A   1      43.781  24.445  25.143  1.00  0.00    -0.029 SA
ATOM     14  N   UNL A   1      42.172  25.687  26.771  1.00  0.00    -0.217 N 
ATOM     15  C   UNL A   1      42.260  23.626  25.652  1.00  0.00     0.120 C 
ATOM     16  C   UNL A   1      41.926  24.271  26.997  1.00  0.00     0.212 C 
ATOM     17  C   UNL A   1      42.226  22.148  25.937  1.00  0.00     0.156 C 
ATOM     18  C   UNL A   1      40.539  23.761  27.317  1.00  0.00     0.188 C 
ATOM     19  S   UNL A   1      40.686  22.022  26.868  1.00  0.00     0.155 S 
ATOM     20  O   UNL A   1      39.620  21.701  25.938  1.00  0.00    -0.229 OA
ATOM     21  O   UNL A   1      40.929  21.248  28.061  1.00  0.00    -0.229 OA
BRANCH  14  22
ATOM     22  C   UNL A   1      41.351  26.620  27.414  1.00  0.00     0.128 A 
ATOM     23  C   UNL A   1      40.727  27.649  26.700  1.00  0.00     0.056 A 
ATOM     24  C   UNL A   1      41.256  26.651  28.816  1.00  0.00     0.056 A 
ATOM     25  C   UNL A   1      40.037  28.669  27.361  1.00  0.00     0.051 A 
ATOM     26  C   UNL A   1      40.594  27.706  29.487  1.00  0.00     0.051 A 
ATOM     27  C   UNL A   1      39.963  28.708  28.756  1.00  0.00     0.127 A 
BRANCH  27  28
ATOM     28  O   UNL A   1      39.208  29.757  29.218  1.00  0.00    -0.457 OA
BRANCH  28  29
ATOM     29  C   UNL A   1      38.903  29.925  30.543  1.00  0.00     0.127 A 
ATOM     30  C   UNL A   1      39.853  29.500  31.479  1.00  0.00     0.047 A 
ATOM     31  C   UNL A   1      37.608  30.234  30.954  1.00  0.00     0.047 A 
ATOM     32  C   UNL A   1      39.512  29.388  32.828  1.00  0.00     0.004 A 
ATOM     33  C   UNL A   1      37.262  30.100  32.302  1.00  0.00     0.004 A 
ATOM     34  C   UNL A   1      38.210  29.668  33.235  1.00  0.00     0.000 A 
ENDBRANCH  28  29
ENDBRANCH  27  28
ENDBRANCH  14  22
ENDBRANCH   7   8
ENDBRANCH   6   7
ENDBRANCH   3   6
ENDBRANCH   1   2
BRANCH   1  35
ATOM     35  C   UNL A   1      48.055  29.510  27.281  1.00  0.00     0.042 C 
BRANCH  35  36
ATOM     36  C   UNL A   1      46.574  29.781  27.523  1.00  0.00     0.118 C 
BRANCH  36  37
ATOM     37  N   UNL A   1      45.994  30.728  26.582  1.00  0.00    -0.352 N 
ATOM     38  C   UNL A   1      44.898  31.557  26.698  1.00  0.00     0.251 C 
ATOM     39  H   UNL A   1      46.463  30.787  25.718  1.00  0.00     0.163 HD
ATOM     40  O   UNL A   1      44.519  32.163  25.695  1.00  0.00    -0.269 OA
BRANCH  38  41
ATOM     41  C   UNL A   1      44.172  31.754  27.985  1.00  0.00     0.039 A 
ATOM     42  C   UNL A   1      43.235  30.807  28.414  1.00  0.00     0.014 A 
ATOM     43  C   UNL A   1      44.339  32.906  28.746  1.00  0.00     0.014 A 
ATOM     44  C   UNL A   1      42.512  31.010  29.606  1.00  0.00     0.010 A 
ATOM     45  C   UNL A   1      43.656  33.093  29.948  1.00  0.00     0.010 A 
ATOM     46  C   UNL A   1      42.720  32.158  30.391  1.00  0.00    -0.014 A 
BRANCH  46  47
ATOM     47  C   UNL A   1      42.116  32.317  31.737  1.00  0.00     0.031 A 
ATOM     48  C   UNL A   1      42.695  31.729  32.991  1.00  0.00     0.074 A 
ATOM     49  C   UNL A   1      40.888  32.853  31.834  1.00  0.00     0.049 A 
ATOM     50  N   UNL A   1      42.516  32.106  34.235  1.00  0.00    -0.248 NA
ATOM     51  C   UNL A   1      43.557  30.555  32.851  1.00  0.00     0.031 C 
ATOM     52  C   UNL A   1      40.066  33.303  30.713  1.00  0.00     0.029 A 
ATOM     53  N   UNL A   1      40.099  33.041  32.936  1.00  0.00    -0.354 N 
ATOM     54  C   UNL A   1      43.390  31.333  34.987  1.00  0.00     0.074 A 
ATOM     55  C   UNL A   1      43.969  30.366  34.097  1.00  0.00     0.031 C 
ATOM     56  C   UNL A   1      38.868  33.683  31.184  1.00  0.00     0.029 A 
ATOM     57  C   UNL A   1      38.850  33.514  32.635  1.00  0.00     0.049 A 
ATOM     58  H   UNL A   1      40.400  32.853  33.855  1.00  0.00     0.167 HD
ATOM     59  C   UNL A   1      43.681  31.406  36.305  1.00  0.00     0.031 A 
ATOM     60  C   UNL A   1      37.811  33.774  33.448  1.00  0.00     0.031 A 
ATOM     61  C   UNL A   1      42.786  31.995  37.256  1.00  0.00     0.049 A 
ATOM     62  C   UNL A   1      37.975  33.617  34.936  1.00  0.00     0.074 A 
ATOM     63  C   UNL A   1      42.886  32.042  38.634  1.00  0.00     0.029 A 
ATOM     64  N   UNL A   1      41.532  32.477  36.922  1.00  0.00    -0.354 N 
ATOM     65  N   UNL A   1      39.040  33.273  35.622  1.00  0.00    -0.248 NA
ATOM     66  C   UNL A   1      36.796  33.911  35.761  1.00  0.00     0.031 C 
ATOM     67  C   UNL A   1      41.626  32.398  39.135  1.00  0.00     0.029 A 
ATOM     68  C   UNL A   1      40.788  32.680  38.065  1.00  0.00     0.049 A 
ATOM     69  H   UNL A   1      41.218  32.647  36.004  1.00  0.00     0.167 HD
ATOM     70  C   UNL A   1      38.667  33.339  36.962  1.00  0.00     0.074 A 
ATOM     71  C   UNL A   1      37.283  33.764  36.987  1.00  0.00     0.031 C 
ATOM     72  C   UNL A   1      39.405  33.082  38.072  1.00  0.00     0.031 A 
BRANCH  59  73
ATOM     73  C   UNL A   1      44.962  30.780  36.786  1.00  0.00    -0.014 A 
ATOM     74  C   UNL A   1      46.138  31.557  36.810  1.00  0.00     0.010 A 
ATOM     75  C   UNL A   1      44.999  29.476  37.304  1.00  0.00     0.010 A 
ATOM     76  C   UNL A   1      47.325  31.042  37.339  1.00  0.00     0.020 A 
ATOM     77  C   UNL A   1      46.185  28.958  37.843  1.00  0.00     0.020 A 
ATOM     78  C   UNL A   1      47.340  29.744  37.856  1.00  0.00     0.054 A 
BRANCH  78  79
ATOM     79  S   UNL A   1      48.885  29.119  38.576  1.00  0.00     0.124 S 
ATOM     80  O   UNL A   1      48.593  27.695  38.730  1.00  0.00    -0.237 OA
ATOM     81  O   UNL A   1      49.871  29.450  37.550  1.00  0.00    -0.237 OA
ATOM     82  O   UNL A   1      49.013  29.864  39.826  1.00  0.00    -0.744 OA
ENDBRANCH  78  79
ENDBRANCH  59  73
BRANCH  60  83
ATOM     83  C   UNL A   1      36.535  34.244  32.853  1.00  0.00    -0.014 A 
ATOM     84  C   UNL A   1      35.832  33.427  31.956  1.00  0.00     0.010 A 
ATOM     85  C   UNL A   1      36.001  35.496  33.214  1.00  0.00     0.010 A 
ATOM     86  C   UNL A   1      34.624  33.863  31.408  1.00  0.00     0.020 A 
ATOM     87  C   UNL A   1      34.779  35.922  32.690  1.00  0.00     0.020 A 
ATOM     88  C   UNL A   1      34.105  35.107  31.779  1.00  0.00     0.054 A 
BRANCH  88  89
ATOM     89  S   UNL A   1      32.518  35.630  31.075  1.00  0.00     0.124 S 
ATOM     90  O   UNL A   1      32.704  37.072  30.950  1.00  0.00    -0.237 OA
ATOM     91  O   UNL A   1      32.471  34.885  29.818  1.00  0.00    -0.237 OA
ATOM     92  O   UNL A   1      31.543  35.208  32.078  1.00  0.00    -0.744 OA
ENDBRANCH  88  89
ENDBRANCH  60  83
BRANCH  72  93
ATOM     93  C   UNL A   1      38.745  33.242  39.413  1.00  0.00    -0.014 A 
ATOM     94  C   UNL A   1      39.112  34.278  40.289  1.00  0.00     0.010 A 
ATOM     95  C   UNL A   1      37.664  32.406  39.750  1.00  0.00     0.010 A 
ATOM     96  C   UNL A   1      38.422  34.463  41.488  1.00  0.00     0.020 A 
ATOM     97  C   UNL A   1      36.950  32.610  40.931  1.00  0.00     0.020 A 
ATOM     98  C   UNL A   1      37.339  33.633  41.797  1.00  0.00     0.054 A 
BRANCH  98  99
ATOM     99  S   UNL A   1      36.409  33.947  43.321  1.00  0.00     0.124 S 
ATOM    100  O   UNL A   1      35.037  34.020  42.830  1.00  0.00    -0.237 OA
ATOM    101  O   UNL A   1      36.726  32.777  44.134  1.00  0.00    -0.237 OA
ATOM    102  O   UNL A   1      36.964  35.208  43.812  1.00  0.00    -0.744 OA
ENDBRANCH  98  99
ENDBRANCH  72  93
ENDBRANCH  46  47
ENDBRANCH  38  41
ENDBRANCH  36  37
ENDBRANCH  35  36
ENDBRANCH   1  35
TORSDOF 18
ENDMDL
MODEL 3
REMARK VINA RESULT:     -10.9      5.832     10.765
REMARK SMILES O=C(CCC(=O)/[NH+]=C1\S[C@H]2CS(=O)(=O)C[C@@H]2N1c1ccc(Oc2ccccc2)cc1)NCCCNC(=O)c1ccc(-c2c3nc(c(-c4ccc(S(=O)(=O)[O-])cc4)c4ccc([nH]4)c(-c4ccc(S(=O)(=O)[O-])cc4)c4nc(c(-c5ccc(S(=O)(=O)[O-])cc5)c5ccc2[nH]5)C=C4)C=C3)cc1
REMARK SMILES IDX 32 1 31 2 2 3 1 4 3 6 4 7 5 8 6 9 7 10 8 11 9 13 17 14 10 15
REMARK SMILES IDX 16 16 11 17 15 18 12 19 13 20 14 21 18 22 19 23 30 24 20 25
REMARK SMILES IDX 29 26 21 27 22 28 23 29 24 30 28 31 25 32 27 33 26 34 33 35
REMARK SMILES IDX 34 36 35 37 36 38 37 40 38 41 39 42 97 43 40 44 96 45 41 46
REMARK SMILES IDX 42 47 43 48 90 49 44 50 95 51 89 52 91 53 45 54 94 55 88 56
REMARK SMILES IDX 87 57 46 59 76 60 57 61 75 62 58 63 61 64 74 65 92 66 59 67
REMARK SMILES IDX 60 68 73 70 93 71 62 72 47 73 48 74 56 75 49 76 55 77 50 78
REMARK SMILES IDX 51 79 52 80 53 81 54 82 77 83 78 84 86 85 79 86 85 87 80 88
REMARK SMILES IDX 81 89 82 90 83 91 84 92 63 93 64 94 72 95 65 96 71 97 66 98
REMARK SMILES IDX 67 99 68 100 69 101 70 102
REMARK H PARENT 31 5 7 12 35 39 91 58 61 69
REMARK Flexibility Score: inf
ROOT
ATOM      1  C   UNL A   1      51.130  25.439  26.698  1.00  0.00     0.117 C 
ENDROOT
BRANCH   1   2
ATOM      2  N   UNL A   1      50.551  25.881  25.440  1.00  0.00    -0.356 N 
ATOM      3  C   UNL A   1      49.255  26.095  25.086  1.00  0.00     0.220 C 
ATOM      4  O   UNL A   1      49.014  26.580  23.978  1.00  0.00    -0.275 OA
ATOM      5  H   UNL A   1      51.205  26.056  24.726  1.00  0.00     0.163 HD
BRANCH   3   6
ATOM      6  C   UNL A   1      48.139  25.734  26.027  1.00  0.00     0.112 C 
BRANCH   6   7
ATOM      7  C   UNL A   1      46.730  25.692  25.451  1.00  0.00     0.138 C 
BRANCH   7   8
ATOM      8  C   UNL A   1      45.757  26.875  25.531  1.00  0.00     0.308 C 
ATOM      9  O   UNL A   1      45.948  27.828  24.777  1.00  0.00    -0.247 OA
ATOM     10  N   UNL A   1      44.730  26.898  26.444  1.00  0.00    -0.204 N 
ATOM     11  C   UNL A   1      43.731  26.085  26.371  1.00  0.00     0.319 C 
ATOM     12  H   UNL A   1      44.757  27.556  27.176  1.00  0.00     0.316 HD
ATOM     13  S   UNL A   1      43.611  24.769  25.149  1.00  0.00    -0.029 SA
ATOM     14  N   UNL A   1      42.661  25.966  27.257  1.00  0.00    -0.217 N 
ATOM     15  C   UNL A   1      42.108  24.128  25.905  1.00  0.00     0.120 C 
ATOM     16  C   UNL A   1      42.202  24.589  27.361  1.00  0.00     0.212 C 
ATOM     17  C   UNL A   1      41.854  22.648  26.007  1.00  0.00     0.156 C 
ATOM     18  C   UNL A   1      40.847  24.258  27.941  1.00  0.00     0.188 C 
ATOM     19  S   UNL A   1      40.557  22.616  27.260  1.00  0.00     0.155 S 
ATOM     20  O   UNL A   1      39.274  22.623  26.583  1.00  0.00    -0.229 OA
ATOM     21  O   UNL A   1      40.900  21.628  28.255  1.00  0.00    -0.229 OA
BRANCH  14  22
ATOM     22  C   UNL A   1      42.192  26.899  28.189  1.00  0.00     0.128 A 
ATOM     23  C   UNL A   1      41.541  28.069  27.778  1.00  0.00     0.056 A 
ATOM     24  C   UNL A   1      42.500  26.772  29.553  1.00  0.00     0.056 A 
ATOM     25  C   UNL A   1      41.214  29.070  28.696  1.00  0.00     0.051 A 
ATOM     26  C   UNL A   1      42.208  27.804  30.475  1.00  0.00     0.051 A 
ATOM     27  C   UNL A   1      41.542  28.950  30.049  1.00  0.00     0.127 A 
BRANCH  27  28
ATOM     28  O   UNL A   1      41.101  30.011  30.799  1.00  0.00    -0.457 OA
BRANCH  28  29
ATOM     29  C   UNL A   1      39.772  30.274  31.004  1.00  0.00     0.127 A 
ATOM     30  C   UNL A   1      39.344  31.595  30.825  1.00  0.00     0.047 A 
ATOM     31  C   UNL A   1      38.940  29.350  31.634  1.00  0.00     0.047 A 
ATOM     32  C   UNL A   1      38.083  31.993  31.269  1.00  0.00     0.004 A 
ATOM     33  C   UNL A   1      37.687  29.757  32.098  1.00  0.00     0.004 A 
ATOM     34  C   UNL A   1      37.263  31.078  31.926  1.00  0.00     0.000 A 
ENDBRANCH  28  29
ENDBRANCH  27  28
ENDBRANCH  14  22
ENDBRANCH   7   8
ENDBRANCH   6   7
ENDBRANCH   3   6
ENDBRANCH   1   2
BRANCH   1  35
ATOM     35  C   UNL A   1      52.471  26.075  27.061  1.00  0.00     0.042 C 
BRANCH  35  36
ATOM     36  C   UNL A   1      52.429  27.542  27.473  1.00  0.00     0.118 C 
BRANCH  36  37
ATOM     37  N   UNL A   1      52.346  28.461  26.347  1.00  0.00    -0.352 N 
ATOM     38  C   UNL A   1      51.369  29.368  25.994  1.00  0.00     0.251 C 
ATOM     39  H   UNL A   1      53.117  28.430  25.734  1.00  0.00     0.163 HD
ATOM     40  O   UNL A   1      51.464  29.929  24.903  1.00  0.00    -0.269 OA
BRANCH  38  41
ATOM     41  C   UNL A   1      50.221  29.699  26.885  1.00  0.00     0.039 A 
ATOM     42  C   UNL A   1      48.922  29.318  26.528  1.00  0.00     0.014 A 
ATOM     43  C   UNL A   1      50.389  30.456  28.039  1.00  0.00     0.014 A 
ATOM     44  C   UNL A   1      47.827  29.668  27.342  1.00  0.00     0.010 A 
ATOM     45  C   UNL A   1      49.314  30.771  28.871  1.00  0.00     0.010 A 
ATOM     46  C   UNL A   1      48.014  30.397  28.530  1.00  0.00    -0.014 A 
BRANCH  46  47
ATOM     47  C   UNL A   1      46.915  30.624  29.501  1.00  0.00     0.031 A 
ATOM     48  C   UNL A   1      46.316  29.545  30.356  1.00  0.00     0.074 A 
ATOM     49  C   UNL A   1      46.284  31.810  29.496  1.00  0.00     0.049 A 
ATOM     50  N   UNL A   1      45.665  29.661  31.489  1.00  0.00    -0.248 NA
ATOM     51  C   UNL A   1      46.425  28.167  29.878  1.00  0.00     0.031 C 
ATOM     52  C   UNL A   1      46.579  32.926  28.601  1.00  0.00     0.029 A 
ATOM     53  N   UNL A   1      45.212  32.234  30.234  1.00  0.00    -0.354 N 
ATOM     54  C   UNL A   1      45.462  28.361  31.935  1.00  0.00     0.074 A 
ATOM     55  C   UNL A   1      45.904  27.484  30.889  1.00  0.00     0.031 C 
ATOM     56  C   UNL A   1      45.682  33.900  28.818  1.00  0.00     0.029 A 
ATOM     57  C   UNL A   1      44.764  33.477  29.874  1.00  0.00     0.049 A 
ATOM     58  H   UNL A   1      44.804  31.699  30.952  1.00  0.00     0.167 HD
ATOM     59  C   UNL A   1      44.942  27.930  33.105  1.00  0.00     0.031 A 
ATOM     60  C   UNL A   1      43.723  34.185  30.346  1.00  0.00     0.031 A 
ATOM     61  C   UNL A   1      44.074  28.741  33.905  1.00  0.00     0.049 A 
ATOM     62  C   UNL A   1      42.913  33.639  31.491  1.00  0.00     0.074 A 
ATOM     63  C   UNL A   1      43.379  28.407  35.052  1.00  0.00     0.029 A 
ATOM     64  N   UNL A   1      43.645  30.001  33.522  1.00  0.00    -0.354 N 
ATOM     65  N   UNL A   1      43.079  32.527  32.170  1.00  0.00    -0.248 NA
ATOM     66  C   UNL A   1      41.786  34.462  31.949  1.00  0.00     0.031 C 
ATOM     67  C   UNL A   1      42.412  29.399  35.263  1.00  0.00     0.029 A 
ATOM     68  C   UNL A   1      42.589  30.397  34.314  1.00  0.00     0.049 A 
ATOM     69  H   UNL A   1      44.036  30.533  32.791  1.00  0.00     0.167 HD
ATOM     70  C   UNL A   1      42.096  32.534  33.156  1.00  0.00     0.074 A 
ATOM     71  C   UNL A   1      41.348  33.763  32.988  1.00  0.00     0.031 C 
ATOM     72  C   UNL A   1      41.841  31.612  34.120  1.00  0.00     0.031 A 
BRANCH  59  73
ATOM     73  C   UNL A   1      45.238  26.518  33.537  1.00  0.00    -0.014 A 
ATOM     74  C   UNL A   1      46.453  26.244  34.196  1.00  0.00     0.010 A 
ATOM     75  C   UNL A   1      44.297  25.487  33.391  1.00  0.00     0.010 A 
ATOM     76  C   UNL A   1      46.723  24.966  34.697  1.00  0.00     0.020 A 
ATOM     77  C   UNL A   1      44.559  24.207  33.897  1.00  0.00     0.020 A 
ATOM     78  C   UNL A   1      45.771  23.955  34.546  1.00  0.00     0.054 A 
BRANCH  78  79
ATOM     79  S   UNL A   1      46.130  22.319  35.246  1.00  0.00     0.124 S 
ATOM     80  O   UNL A   1      45.099  22.195  36.273  1.00  0.00    -0.237 OA
ATOM     81  O   UNL A   1      45.976  21.438  34.091  1.00  0.00    -0.237 OA
ATOM     82  O   UNL A   1      47.495  22.448  35.751  1.00  0.00    -0.744 OA
ENDBRANCH  78  79
ENDBRANCH  59  73
BRANCH  60  83
ATOM     83  C   UNL A   1      43.422  35.507  29.743  1.00  0.00    -0.014 A 
ATOM     84  C   UNL A   1      44.068  36.660  30.213  1.00  0.00     0.010 A 
ATOM     85  C   UNL A   1      42.516  35.610  28.670  1.00  0.00     0.010 A 
ATOM     86  C   UNL A   1      43.797  37.902  29.637  1.00  0.00     0.020 A 
ATOM     87  C   UNL A   1      42.264  36.847  28.072  1.00  0.00     0.020 A 
ATOM     88  C   UNL A   1      42.897  37.987  28.570  1.00  0.00     0.054 A 
BRANCH  88  89
ATOM     89  S   UNL A   1      42.591  39.609  27.821  1.00  0.00     0.124 S 
ATOM     90  O   UNL A   1      43.812  40.334  28.160  1.00  0.00    -0.237 OA
ATOM     91  O   UNL A   1      42.423  39.276  26.408  1.00  0.00    -0.237 OA
ATOM     92  O   UNL A   1      41.379  40.074  28.493  1.00  0.00    -0.744 OA
ENDBRANCH  88  89
ENDBRANCH  60  83
BRANCH  72  93
ATOM     93  C   UNL A   1      40.707  31.879  35.071  1.00  0.00    -0.014 A 
ATOM     94  C   UNL A   1      39.403  31.434  34.796  1.00  0.00     0.010 A 
ATOM     95  C   UNL A   1      40.979  32.492  36.309  1.00  0.00     0.010 A 
ATOM     96  C   UNL A   1      38.386  31.611  35.736  1.00  0.00     0.020 A 
ATOM     97  C   UNL A   1      39.973  32.641  37.264  1.00  0.00     0.020 A 
ATOM     98  C   UNL A   1      38.680  32.206  36.967  1.00  0.00     0.054 A 
BRANCH  98  99
ATOM     99  S   UNL A   1      37.360  32.351  38.201  1.00  0.00     0.124 S 
ATOM    100  O   UNL A   1      38.014  33.115  39.258  1.00  0.00    -0.237 OA
ATOM    101  O   UNL A   1      36.315  33.060  37.467  1.00  0.00    -0.237 OA
ATOM    102  O   UNL A   1      37.045  30.964  38.537  1.00  0.00    -0.744 OA
ENDBRANCH  98  99
ENDBRANCH  72  93
ENDBRANCH  46  47
ENDBRANCH  38  41
ENDBRANCH  36  37
ENDBRANCH  35  36
ENDBRANCH   1  35
TORSDOF 18
ENDMDL
