MODEL 1
REMARK VINA RESULT:     -13.9      0.000      0.000
REMARK SMILES Cc1ccc(-c2c(C(=O)NCCCNC(=O)c3ccc(-c4c5nc(c(-c6ccc(S(=O)(=O)[O-])cc6)c6ccc([nH]6)c(-c6ccc(S(=O)(=O)[O-])cc6)c6nc(c(-c7ccc(S(=O)(=O)[O-])cc7)c7ccc4[nH]7)C=C6)C=C5)cc3)nnn2Cc2c(F)cccc2Cl)cc1
REMARK SMILES IDX 12 1 11 2 10 3 8 4 9 5 7 7 6 8 79 9 77 10 78 11 5 12 1 13
REMARK SMILES IDX 2 14 3 15 90 16 4 17 89 18 80 19 81 20 82 21 87 22 83 23
REMARK SMILES IDX 84 24 86 25 88 26 85 27 13 28 14 29 15 30 16 32 17 33 18 34
REMARK SMILES IDX 76 35 19 36 75 37 20 38 21 39 22 40 69 41 23 42 74 43 68 44
REMARK SMILES IDX 70 45 24 46 73 47 67 48 66 49 25 51 55 52 36 53 54 54 37 55
REMARK SMILES IDX 40 56 53 57 71 58 38 59 39 60 52 62 72 63 41 64 26 65 27 66
REMARK SMILES IDX 35 67 28 68 34 69 29 70 30 71 31 72 32 73 33 74 56 75 57 76
REMARK SMILES IDX 65 77 58 78 64 79 59 80 60 81 61 82 62 83 63 84 42 85 43 86
REMARK SMILES IDX 51 87 44 88 50 89 45 90 46 91 47 92 48 93 49 94
REMARK H PARENT 10 6 14 31 70 50 40 61
REMARK Flexibility Score: inf
ROOT
ATOM      1  C   UNL A   1      33.011  30.329  26.447  1.00  0.00     0.042 C 
ENDROOT
BRANCH   1   2
ATOM      2  C   UNL A   1      32.364  29.335  25.498  1.00  0.00     0.118 C 
BRANCH   2   3
ATOM      3  N   UNL A   1      33.199  29.121  24.338  1.00  0.00    -0.351 N 
ATOM      4  C   UNL A   1      33.442  28.067  23.501  1.00  0.00     0.274 C 
ATOM      5  O   UNL A   1      34.278  28.331  22.625  1.00  0.00    -0.267 OA
ATOM      6  H   UNL A   1      33.713  29.923  24.093  1.00  0.00     0.163 HD
BRANCH   4   7
ATOM      7  C   UNL A   1      32.812  26.736  23.520  1.00  0.00     0.178 A 
ATOM      8  C   UNL A   1      33.166  25.403  23.779  1.00  0.00     0.102 A 
ATOM      9  N   UNL A   1      31.964  24.726  23.635  1.00  0.00    -0.239 N 
ATOM     10  N   UNL A   1      31.474  26.738  23.125  1.00  0.00    -0.124 NA
ATOM     11  N   UNL A   1      30.992  25.516  23.167  1.00  0.00    -0.066 NA
BRANCH   8  12
ATOM     12  C   UNL A   1      34.384  24.674  24.115  1.00  0.00     0.002 A 
ATOM     13  C   UNL A   1      37.792  22.267  25.230  1.00  0.00     0.044 C 
ATOM     14  C   UNL A   1      36.690  23.201  24.817  1.00  0.00    -0.051 A 
ATOM     15  C   UNL A   1      36.166  23.127  23.521  1.00  0.00     0.004 A 
ATOM     16  C   UNL A   1      36.093  24.067  25.742  1.00  0.00     0.004 A 
ATOM     17  C   UNL A   1      35.036  23.875  23.168  1.00  0.00     0.011 A 
ATOM     18  C   UNL A   1      34.952  24.803  25.392  1.00  0.00     0.011 A 
ENDBRANCH   8  12
BRANCH   9  19
ATOM     19  C   UNL A   1      31.640  23.317  23.827  1.00  0.00     0.187 C 
BRANCH  19  20
ATOM     20  C   UNL A   1      32.284  22.645  25.013  1.00  0.00     0.028 A 
ATOM     21  C   UNL A   1      33.065  21.509  24.751  1.00  0.00     0.129 A 
ATOM     22  C   UNL A   1      32.132  23.020  26.356  1.00  0.00     0.049 A 
ATOM     23  F   UNL A   1      33.159  21.046  23.494  1.00  0.00    -0.207 F 
ATOM     24  C   UNL A   1      33.739  20.820  25.755  1.00  0.00     0.040 A 
ATOM     25  C   UNL A   1      32.841  22.356  27.368  1.00  0.00     0.021 A 
ATOM     26  Cl  UNL A   1      31.071  24.281  26.871  1.00  0.00    -0.084 Cl
ATOM     27  C   UNL A   1      33.650  21.263  27.068  1.00  0.00     0.005 A 
ENDBRANCH  19  20
ENDBRANCH   9  19
ENDBRANCH   4   7
ENDBRANCH   2   3
ENDBRANCH   1   2
BRANCH   1  28
ATOM     28  C   UNL A   1      34.410  29.956  26.895  1.00  0.00     0.118 C 
BRANCH  28  29
ATOM     29  N   UNL A   1      35.155  31.094  27.439  1.00  0.00    -0.352 N 
ATOM     30  C   UNL A   1      36.421  31.083  28.002  1.00  0.00     0.251 C 
ATOM     31  H   UNL A   1      34.704  31.968  27.401  1.00  0.00     0.163 HD
ATOM     32  O   UNL A   1      36.922  32.059  28.529  1.00  0.00    -0.269 OA
BRANCH  30  33
ATOM     33  C   UNL A   1      37.160  29.812  27.871  1.00  0.00     0.039 A 
ATOM     34  C   UNL A   1      37.188  28.979  28.994  1.00  0.00     0.014 A 
ATOM     35  C   UNL A   1      38.123  29.726  26.872  1.00  0.00     0.014 A 
ATOM     36  C   UNL A   1      38.311  28.193  29.222  1.00  0.00     0.010 A 
ATOM     37  C   UNL A   1      39.287  29.043  27.165  1.00  0.00     0.010 A 
ATOM     38  C   UNL A   1      39.402  28.318  28.364  1.00  0.00    -0.014 A 
BRANCH  38  39
ATOM     39  C   UNL A   1      40.733  27.797  28.664  1.00  0.00     0.031 A 
ATOM     40  C   UNL A   1      41.049  26.386  28.332  1.00  0.00     0.074 A 
ATOM     41  C   UNL A   1      41.705  28.588  29.178  1.00  0.00     0.049 A 
ATOM     42  N   UNL A   1      42.006  25.703  28.865  1.00  0.00    -0.248 NA
ATOM     43  C   UNL A   1      40.230  25.598  27.415  1.00  0.00     0.031 C 
ATOM     44  C   UNL A   1      43.136  28.290  29.208  1.00  0.00     0.029 A 
ATOM     45  N   UNL A   1      41.586  29.727  29.977  1.00  0.00    -0.354 N 
ATOM     46  C   UNL A   1      42.131  24.537  28.144  1.00  0.00     0.074 A 
ATOM     47  C   UNL A   1      40.931  24.465  27.347  1.00  0.00     0.031 C 
ATOM     48  C   UNL A   1      43.701  28.993  30.199  1.00  0.00     0.029 A 
ATOM     49  C   UNL A   1      42.631  29.660  30.917  1.00  0.00     0.049 A 
ATOM     50  H   UNL A   1      40.907  30.436  29.899  1.00  0.00     0.167 HD
ATOM     51  C   UNL A   1      43.303  23.843  28.184  1.00  0.00     0.031 A 
ATOM     52  C   UNL A   1      42.463  29.644  32.272  1.00  0.00     0.031 A 
ATOM     53  C   UNL A   1      44.206  24.368  29.208  1.00  0.00     0.049 A 
ATOM     54  C   UNL A   1      43.099  28.444  32.939  1.00  0.00     0.074 A 
ATOM     55  C   UNL A   1      45.351  25.146  29.157  1.00  0.00     0.029 A 
ATOM     56  N   UNL A   1      43.821  24.323  30.544  1.00  0.00    -0.354 N 
ATOM     57  N   UNL A   1      43.511  27.390  32.291  1.00  0.00    -0.248 NA
ATOM     58  C   UNL A   1      43.271  28.305  34.383  1.00  0.00     0.031 C 
ATOM     59  C   UNL A   1      45.614  25.626  30.468  1.00  0.00     0.029 A 
ATOM     60  C   UNL A   1      44.646  25.116  31.316  1.00  0.00     0.049 A 
ATOM     61  H   UNL A   1      43.064  23.797  30.890  1.00  0.00     0.167 HD
ATOM     62  C   UNL A   1      43.969  26.449  33.175  1.00  0.00     0.074 A 
ATOM     63  C   UNL A   1      43.813  27.077  34.475  1.00  0.00     0.031 C 
ATOM     64  C   UNL A   1      44.422  25.232  32.753  1.00  0.00     0.031 A 
BRANCH  51  65
ATOM     65  C   UNL A   1      43.746  22.867  27.106  1.00  0.00    -0.014 A 
ATOM     66  C   UNL A   1      42.884  21.818  26.720  1.00  0.00     0.010 A 
ATOM     67  C   UNL A   1      45.017  22.859  26.503  1.00  0.00     0.010 A 
ATOM     68  C   UNL A   1      43.300  20.782  25.865  1.00  0.00     0.020 A 
ATOM     69  C   UNL A   1      45.455  21.825  25.663  1.00  0.00     0.020 A 
ATOM     70  C   UNL A   1      44.597  20.779  25.362  1.00  0.00     0.054 A 
BRANCH  70  71
ATOM     71  S   UNL A   1      45.159  19.403  24.328  1.00  0.00     0.124 S 
ATOM     72  O   UNL A   1      46.609  19.572  24.342  1.00  0.00    -0.237 OA
ATOM     73  O   UNL A   1      44.650  18.240  25.049  1.00  0.00    -0.237 OA
ATOM     74  O   UNL A   1      44.522  19.657  23.036  1.00  0.00    -0.744 OA
ENDBRANCH  70  71
ENDBRANCH  51  65
BRANCH  52  75
ATOM     75  C   UNL A   1      41.244  30.345  32.752  1.00  0.00    -0.014 A 
ATOM     76  C   UNL A   1      40.127  29.543  33.069  1.00  0.00     0.010 A 
ATOM     77  C   UNL A   1      41.340  31.634  33.304  1.00  0.00     0.010 A 
ATOM     78  C   UNL A   1      39.232  29.940  34.063  1.00  0.00     0.020 A 
ATOM     79  C   UNL A   1      40.440  32.035  34.302  1.00  0.00     0.020 A 
ATOM     80  C   UNL A   1      39.440  31.152  34.722  1.00  0.00     0.054 A 
BRANCH  80  81
ATOM     81  S   UNL A   1      38.538  31.435  36.275  1.00  0.00     0.124 S 
ATOM     82  O   UNL A   1      37.444  32.302  35.850  1.00  0.00    -0.237 OA
ATOM     83  O   UNL A   1      38.154  30.073  36.649  1.00  0.00    -0.237 OA
ATOM     84  O   UNL A   1      39.538  32.058  37.136  1.00  0.00    -0.744 OA
ENDBRANCH  80  81
ENDBRANCH  52  75
BRANCH  64  85
ATOM     85  C   UNL A   1      44.769  24.044  33.624  1.00  0.00    -0.014 A 
ATOM     86  C   UNL A   1      43.922  22.949  33.856  1.00  0.00     0.010 A 
ATOM     87  C   UNL A   1      46.081  23.956  34.156  1.00  0.00     0.010 A 
ATOM     88  C   UNL A   1      44.340  21.850  34.623  1.00  0.00     0.020 A 
ATOM     89  C   UNL A   1      46.523  22.847  34.884  1.00  0.00     0.020 A 
ATOM     90  C   UNL A   1      45.638  21.806  35.135  1.00  0.00     0.054 A 
BRANCH  90  91
ATOM     91  S   UNL A   1      46.194  20.354  36.063  1.00  0.00     0.124 S 
ATOM     92  O   UNL A   1      47.579  20.224  35.618  1.00  0.00    -0.237 OA
ATOM     93  O   UNL A   1      46.020  20.767  37.455  1.00  0.00    -0.237 OA
ATOM     94  O   UNL A   1      45.289  19.298  35.618  1.00  0.00    -0.744 OA
ENDBRANCH  90  91
ENDBRANCH  64  85
ENDBRANCH  38  39
ENDBRANCH  30  33
ENDBRANCH  28  29
ENDBRANCH   1  28
TORSDOF 16
ENDMDL
MODEL 2
REMARK VINA RESULT:     -13.6      4.870     11.187
REMARK SMILES Cc1ccc(-c2c(C(=O)NCCCNC(=O)c3ccc(-c4c5nc(c(-c6ccc(S(=O)(=O)[O-])cc6)c6ccc([nH]6)c(-c6ccc(S(=O)(=O)[O-])cc6)c6nc(c(-c7ccc(S(=O)(=O)[O-])cc7)c7ccc4[nH]7)C=C6)C=C5)cc3)nnn2Cc2c(F)cccc2Cl)cc1
REMARK SMILES IDX 12 1 11 2 10 3 8 4 9 5 7 7 6 8 79 9 77 10 78 11 5 12 1 13
REMARK SMILES IDX 2 14 3 15 90 16 4 17 89 18 80 19 81 20 82 21 87 22 83 23
REMARK SMILES IDX 84 24 86 25 88 26 85 27 13 28 14 29 15 30 16 32 17 33 18 34
REMARK SMILES IDX 76 35 19 36 75 37 20 38 21 39 22 40 69 41 23 42 74 43 68 44
REMARK SMILES IDX 70 45 24 46 73 47 67 48 66 49 25 51 55 52 36 53 54 54 37 55
REMARK SMILES IDX 40 56 53 57 71 58 38 59 39 60 52 62 72 63 41 64 26 65 27 66
REMARK SMILES IDX 35 67 28 68 34 69 29 70 30 71 31 72 32 73 33 74 56 75 57 76
REMARK SMILES IDX 65 77 58 78 64 79 59 80 60 81 61 82 62 83 63 84 42 85 43 86
REMARK SMILES IDX 51 87 44 88 50 89 45 90 46 91 47 92 48 93 49 94
REMARK H PARENT 10 6 14 31 70 50 40 61
REMARK Flexibility Score: inf
ROOT
ATOM      1  C   UNL A   1      37.078  22.482  26.320  1.00  0.00     0.042 C 
ENDROOT
BRANCH   1   2
ATOM      2  C   UNL A   1      35.813  23.320  26.242  1.00  0.00     0.118 C 
BRANCH   2   3
ATOM      3  N   UNL A   1      34.818  22.827  27.167  1.00  0.00    -0.351 N 
ATOM      4  C   UNL A   1      33.455  22.898  27.251  1.00  0.00     0.274 C 
ATOM      5  O   UNL A   1      33.004  22.335  28.259  1.00  0.00    -0.267 OA
ATOM      6  H   UNL A   1      35.215  22.320  27.911  1.00  0.00     0.163 HD
BRANCH   4   7
ATOM      7  C   UNL A   1      32.523  23.516  26.292  1.00  0.00     0.178 A 
ATOM      8  C   UNL A   1      32.151  24.796  25.853  1.00  0.00     0.102 A 
ATOM      9  N   UNL A   1      31.220  24.529  24.861  1.00  0.00    -0.239 N 
ATOM     10  N   UNL A   1      31.708  22.600  25.626  1.00  0.00    -0.124 NA
ATOM     11  N   UNL A   1      30.908  23.231  24.796  1.00  0.00    -0.066 NA
BRANCH   8  12
ATOM     12  C   UNL A   1      32.492  26.174  26.191  1.00  0.00     0.002 A 
ATOM     13  C   UNL A   1      33.618  30.136  27.490  1.00  0.00     0.044 C 
ATOM     14  C   UNL A   1      33.168  28.814  26.936  1.00  0.00    -0.051 A 
ATOM     15  C   UNL A   1      34.052  28.041  26.175  1.00  0.00     0.004 A 
ATOM     16  C   UNL A   1      31.915  28.282  27.267  1.00  0.00     0.004 A 
ATOM     17  C   UNL A   1      33.707  26.741  25.787  1.00  0.00     0.011 A 
ATOM     18  C   UNL A   1      31.577  26.974  26.892  1.00  0.00     0.011 A 
ENDBRANCH   8  12
BRANCH   9  19
ATOM     19  C   UNL A   1      30.497  25.432  23.972  1.00  0.00     0.187 C 
BRANCH  19  20
ATOM     20  C   UNL A   1      31.310  26.532  23.339  1.00  0.00     0.028 A 
ATOM     21  C   UNL A   1      30.868  27.847  23.548  1.00  0.00     0.129 A 
ATOM     22  C   UNL A   1      32.435  26.359  22.520  1.00  0.00     0.049 A 
ATOM     23  F   UNL A   1      29.737  28.064  24.238  1.00  0.00    -0.207 F 
ATOM     24  C   UNL A   1      31.550  28.951  23.046  1.00  0.00     0.040 A 
ATOM     25  C   UNL A   1      33.151  27.467  22.045  1.00  0.00     0.021 A 
ATOM     26  Cl  UNL A   1      33.008  24.809  22.018  1.00  0.00    -0.084 Cl
ATOM     27  C   UNL A   1      32.715  28.762  22.314  1.00  0.00     0.005 A 
ENDBRANCH  19  20
ENDBRANCH   9  19
ENDBRANCH   4   7
ENDBRANCH   2   3
ENDBRANCH   1   2
BRANCH   1  28
ATOM     28  C   UNL A   1      38.343  23.208  25.910  1.00  0.00     0.118 C 
BRANCH  28  29
ATOM     29  N   UNL A   1      39.474  22.922  26.795  1.00  0.00    -0.352 N 
ATOM     30  C   UNL A   1      40.147  23.810  27.620  1.00  0.00     0.251 C 
ATOM     31  H   UNL A   1      39.795  21.992  26.804  1.00  0.00     0.163 HD
ATOM     32  O   UNL A   1      41.148  23.510  28.242  1.00  0.00    -0.269 OA
BRANCH  30  33
ATOM     33  C   UNL A   1      39.532  25.146  27.745  1.00  0.00     0.039 A 
ATOM     34  C   UNL A   1      40.030  26.152  26.910  1.00  0.00     0.014 A 
ATOM     35  C   UNL A   1      38.866  25.441  28.930  1.00  0.00     0.014 A 
ATOM     36  C   UNL A   1      40.046  27.463  27.371  1.00  0.00     0.010 A 
ATOM     37  C   UNL A   1      38.999  26.720  29.434  1.00  0.00     0.010 A 
ATOM     38  C   UNL A   1      39.635  27.719  28.678  1.00  0.00    -0.014 A 
BRANCH  38  39
ATOM     39  C   UNL A   1      39.893  28.976  29.376  1.00  0.00     0.031 A 
ATOM     40  C   UNL A   1      38.893  30.068  29.293  1.00  0.00     0.074 A 
ATOM     41  C   UNL A   1      40.991  29.143  30.150  1.00  0.00     0.049 A 
ATOM     42  N   UNL A   1      39.145  31.314  29.523  1.00  0.00    -0.248 NA
ATOM     43  C   UNL A   1      37.521  29.839  28.847  1.00  0.00     0.031 C 
ATOM     44  C   UNL A   1      41.194  30.194  31.146  1.00  0.00     0.029 A 
ATOM     45  N   UNL A   1      42.244  28.534  30.051  1.00  0.00    -0.354 N 
ATOM     46  C   UNL A   1      37.938  31.975  29.578  1.00  0.00     0.074 A 
ATOM     47  C   UNL A   1      36.982  31.046  29.026  1.00  0.00     0.031 C 
ATOM     48  C   UNL A   1      42.511  30.367  31.326  1.00  0.00     0.029 A 
ATOM     49  C   UNL A   1      43.191  29.527  30.358  1.00  0.00     0.049 A 
ATOM     50  H   UNL A   1      42.428  27.596  29.812  1.00  0.00     0.167 HD
ATOM     51  C   UNL A   1      37.856  33.171  30.225  1.00  0.00     0.031 A 
ATOM     52  C   UNL A   1      44.191  29.938  29.524  1.00  0.00     0.031 A 
ATOM     53  C   UNL A   1      39.179  33.680  30.589  1.00  0.00     0.049 A 
ATOM     54  C   UNL A   1      44.167  31.427  29.251  1.00  0.00     0.074 A 
ATOM     55  C   UNL A   1      39.874  33.750  31.785  1.00  0.00     0.029 A 
ATOM     56  N   UNL A   1      40.092  33.981  29.585  1.00  0.00    -0.354 N 
ATOM     57  N   UNL A   1      43.154  32.197  29.532  1.00  0.00    -0.248 NA
ATOM     58  C   UNL A   1      45.248  32.155  28.592  1.00  0.00     0.031 C 
ATOM     59  C   UNL A   1      41.234  34.029  31.485  1.00  0.00     0.029 A 
ATOM     60  C   UNL A   1      41.356  34.157  30.113  1.00  0.00     0.049 A 
ATOM     61  H   UNL A   1      39.867  34.058  28.629  1.00  0.00     0.167 HD
ATOM     62  C   UNL A   1      43.405  33.473  29.100  1.00  0.00     0.074 A 
ATOM     63  C   UNL A   1      44.739  33.400  28.532  1.00  0.00     0.031 C 
ATOM     64  C   UNL A   1      42.482  34.470  29.239  1.00  0.00     0.031 A 
BRANCH  51  65
ATOM     65  C   UNL A   1      36.563  33.745  30.780  1.00  0.00    -0.014 A 
ATOM     66  C   UNL A   1      35.456  33.925  29.921  1.00  0.00     0.010 A 
ATOM     67  C   UNL A   1      36.390  34.216  32.095  1.00  0.00     0.010 A 
ATOM     68  C   UNL A   1      34.298  34.613  30.325  1.00  0.00     0.020 A 
ATOM     69  C   UNL A   1      35.251  34.919  32.510  1.00  0.00     0.020 A 
ATOM     70  C   UNL A   1      34.214  35.131  31.613  1.00  0.00     0.054 A 
BRANCH  70  71
ATOM     71  S   UNL A   1      32.759  36.087  32.107  1.00  0.00     0.124 S 
ATOM     72  O   UNL A   1      32.448  36.835  30.891  1.00  0.00    -0.237 OA
ATOM     73  O   UNL A   1      31.805  35.044  32.470  1.00  0.00    -0.237 OA
ATOM     74  O   UNL A   1      33.240  36.901  33.223  1.00  0.00    -0.744 OA
ENDBRANCH  70  71
ENDBRANCH  51  65
BRANCH  52  75
ATOM     75  C   UNL A   1      44.669  28.901  28.574  1.00  0.00    -0.014 A 
ATOM     76  C   UNL A   1      44.052  28.860  27.306  1.00  0.00     0.010 A 
ATOM     77  C   UNL A   1      45.942  28.327  28.735  1.00  0.00     0.010 A 
ATOM     78  C   UNL A   1      44.768  28.436  26.185  1.00  0.00     0.020 A 
ATOM     79  C   UNL A   1      46.662  27.899  27.611  1.00  0.00     0.020 A 
ATOM     80  C   UNL A   1      46.093  28.027  26.339  1.00  0.00     0.054 A 
BRANCH  80  81
ATOM     81  S   UNL A   1      47.117  27.900  24.841  1.00  0.00     0.124 S 
ATOM     82  O   UNL A   1      46.839  26.542  24.385  1.00  0.00    -0.237 OA
ATOM     83  O   UNL A   1      46.564  28.970  24.011  1.00  0.00    -0.237 OA
ATOM     84  O   UNL A   1      48.469  28.134  25.338  1.00  0.00    -0.744 OA
ENDBRANCH  80  81
ENDBRANCH  52  75
BRANCH  64  85
ATOM     85  C   UNL A   1      42.551  35.857  28.640  1.00  0.00    -0.014 A 
ATOM     86  C   UNL A   1      41.944  36.238  27.433  1.00  0.00     0.010 A 
ATOM     87  C   UNL A   1      43.169  36.889  29.392  1.00  0.00     0.010 A 
ATOM     88  C   UNL A   1      41.996  37.564  26.974  1.00  0.00     0.020 A 
ATOM     89  C   UNL A   1      43.189  38.221  28.966  1.00  0.00     0.020 A 
ATOM     90  C   UNL A   1      42.621  38.547  27.742  1.00  0.00     0.054 A 
BRANCH  90  91
ATOM     91  S   UNL A   1      42.623  40.268  27.178  1.00  0.00     0.124 S 
ATOM     92  O   UNL A   1      43.663  40.248  26.154  1.00  0.00    -0.237 OA
ATOM     93  O   UNL A   1      41.260  40.454  26.683  1.00  0.00    -0.237 OA
ATOM     94  O   UNL A   1      42.944  41.023  28.387  1.00  0.00    -0.744 OA
ENDBRANCH  90  91
ENDBRANCH  64  85
ENDBRANCH  38  39
ENDBRANCH  30  33
ENDBRANCH  28  29
ENDBRANCH   1  28
TORSDOF 16
ENDMDL
MODEL 3
REMARK VINA RESULT:     -13.6      2.046      2.648
REMARK SMILES Cc1ccc(-c2c(C(=O)NCCCNC(=O)c3ccc(-c4c5nc(c(-c6ccc(S(=O)(=O)[O-])cc6)c6ccc([nH]6)c(-c6ccc(S(=O)(=O)[O-])cc6)c6nc(c(-c7ccc(S(=O)(=O)[O-])cc7)c7ccc4[nH]7)C=C6)C=C5)cc3)nnn2Cc2c(F)cccc2Cl)cc1
REMARK SMILES IDX 12 1 11 2 10 3 8 4 9 5 7 7 6 8 79 9 77 10 78 11 5 12 1 13
REMARK SMILES IDX 2 14 3 15 90 16 4 17 89 18 80 19 81 20 82 21 87 22 83 23
REMARK SMILES IDX 84 24 86 25 88 26 85 27 13 28 14 29 15 30 16 32 17 33 18 34
REMARK SMILES IDX 76 35 19 36 75 37 20 38 21 39 22 40 69 41 23 42 74 43 68 44
REMARK SMILES IDX 70 45 24 46 73 47 67 48 66 49 25 51 55 52 36 53 54 54 37 55
REMARK SMILES IDX 40 56 53 57 71 58 38 59 39 60 52 62 72 63 41 64 26 65 27 66
REMARK SMILES IDX 35 67 28 68 34 69 29 70 30 71 31 72 32 73 33 74 56 75 57 76
REMARK SMILES IDX 65 77 58 78 64 79 59 80 60 81 61 82 62 83 63 84 42 85 43 86
REMARK SMILES IDX 51 87 44 88 50 89 45 90 46 91 47 92 48 93 49 94
REMARK H PARENT 10 6 14 31 70 50 40 61
REMARK Flexibility Score: inf
ROOT
ATOM      1  C   UNL A   1      33.377  28.693  25.878  1.00  0.00     0.042 C 
ENDROOT
BRANCH   1   2
ATOM      2  C   UNL A   1      32.618  29.210  24.668  1.00  0.00     0.118 C 
BRANCH   2   3
ATOM      3  N   UNL A   1      33.304  28.855  23.446  1.00  0.00    -0.351 N 
ATOM      4  C   UNL A   1      33.435  27.712  22.707  1.00  0.00     0.274 C 
ATOM      5  O   UNL A   1      34.162  27.861  21.714  1.00  0.00    -0.267 OA
ATOM      6  H   UNL A   1      33.791  29.615  23.055  1.00  0.00     0.163 HD
BRANCH   4   7
ATOM      7  C   UNL A   1      32.802  26.404  22.946  1.00  0.00     0.178 A 
ATOM      8  C   UNL A   1      33.156  25.126  23.404  1.00  0.00     0.102 A 
ATOM      9  N   UNL A   1      31.949  24.443  23.391  1.00  0.00    -0.239 N 
ATOM     10  N   UNL A   1      31.456  26.353  22.583  1.00  0.00    -0.124 NA
ATOM     11  N   UNL A   1      30.971  25.156  22.825  1.00  0.00    -0.066 NA
BRANCH   8  12
ATOM     12  C   UNL A   1      34.379  24.451  23.825  1.00  0.00     0.002 A 
ATOM     13  C   UNL A   1      37.802  22.212  25.214  1.00  0.00     0.044 C 
ATOM     14  C   UNL A   1      36.694  23.086  24.697  1.00  0.00    -0.051 A 
ATOM     15  C   UNL A   1      36.188  22.878  23.408  1.00  0.00     0.004 A 
ATOM     16  C   UNL A   1      36.073  24.030  25.524  1.00  0.00     0.004 A 
ATOM     17  C   UNL A   1      35.054  23.572  22.969  1.00  0.00     0.011 A 
ATOM     18  C   UNL A   1      34.928  24.712  25.090  1.00  0.00     0.011 A 
ENDBRANCH   8  12
BRANCH   9  19
ATOM     19  C   UNL A   1      31.625  23.083  23.809  1.00  0.00     0.187 C 
BRANCH  19  20
ATOM     20  C   UNL A   1      32.238  22.624  25.107  1.00  0.00     0.028 A 
ATOM     21  C   UNL A   1      33.082  21.505  25.048  1.00  0.00     0.129 A 
ATOM     22  C   UNL A   1      32.003  23.180  26.373  1.00  0.00     0.049 A 
ATOM     23  F   UNL A   1      33.260  20.870  23.879  1.00  0.00    -0.207 F 
ATOM     24  C   UNL A   1      33.735  21.004  26.170  1.00  0.00     0.040 A 
ATOM     25  C   UNL A   1      32.689  22.708  27.500  1.00  0.00     0.021 A 
ATOM     26  Cl  UNL A   1      30.862  24.446  26.650  1.00  0.00    -0.084 Cl
ATOM     27  C   UNL A   1      33.560  21.627  27.400  1.00  0.00     0.005 A 
ENDBRANCH  19  20
ENDBRANCH   9  19
ENDBRANCH   4   7
ENDBRANCH   2   3
ENDBRANCH   1   2
BRANCH   1  28
ATOM     28  C   UNL A   1      33.048  29.400  27.177  1.00  0.00     0.118 C 
BRANCH  28  29
ATOM     29  N   UNL A   1      33.576  30.766  27.230  1.00  0.00    -0.352 N 
ATOM     30  C   UNL A   1      34.815  31.175  27.695  1.00  0.00     0.251 C 
ATOM     31  H   UNL A   1      32.980  31.475  26.898  1.00  0.00     0.163 HD
ATOM     32  O   UNL A   1      35.130  32.345  27.803  1.00  0.00    -0.269 OA
BRANCH  30  33
ATOM     33  C   UNL A   1      35.766  30.088  28.001  1.00  0.00     0.039 A 
ATOM     34  C   UNL A   1      35.876  29.703  29.341  1.00  0.00     0.014 A 
ATOM     35  C   UNL A   1      36.782  29.842  27.083  1.00  0.00     0.014 A 
ATOM     36  C   UNL A   1      37.103  29.255  29.815  1.00  0.00     0.010 A 
ATOM     37  C   UNL A   1      38.027  29.518  27.583  1.00  0.00     0.010 A 
ATOM     38  C   UNL A   1      38.201  29.275  28.956  1.00  0.00    -0.014 A 
BRANCH  38  39
ATOM     39  C   UNL A   1      39.583  29.132  29.406  1.00  0.00     0.031 A 
ATOM     40  C   UNL A   1      40.330  27.897  29.065  1.00  0.00     0.074 A 
ATOM     41  C   UNL A   1      40.219  30.127  30.068  1.00  0.00     0.049 A 
ATOM     42  N   UNL A   1      41.379  27.477  29.692  1.00  0.00    -0.248 NA
ATOM     43  C   UNL A   1      39.884  26.977  28.022  1.00  0.00     0.031 C 
ATOM     44  C   UNL A   1      41.662  30.246  30.271  1.00  0.00     0.029 A 
ATOM     45  N   UNL A   1      39.686  31.125  30.887  1.00  0.00    -0.354 N 
ATOM     46  C   UNL A   1      41.916  26.449  28.950  1.00  0.00     0.074 A 
ATOM     47  C   UNL A   1      40.887  26.097  28.004  1.00  0.00     0.031 C 
ATOM     48  C   UNL A   1      41.884  31.007  31.352  1.00  0.00     0.029 A 
ATOM     49  C   UNL A   1      40.592  31.290  31.950  1.00  0.00     0.049 A 
ATOM     50  H   UNL A   1      38.843  31.616  30.749  1.00  0.00     0.167 HD
ATOM     51  C   UNL A   1      43.228  26.115  29.116  1.00  0.00     0.031 A 
ATOM     52  C   UNL A   1      40.285  31.129  33.271  1.00  0.00     0.031 A 
ATOM     53  C   UNL A   1      43.818  26.800  30.265  1.00  0.00     0.049 A 
ATOM     54  C   UNL A   1      41.163  30.114  33.970  1.00  0.00     0.074 A 
ATOM     55  C   UNL A   1      44.686  27.872  30.390  1.00  0.00     0.029 A 
ATOM     56  N   UNL A   1      43.315  26.551  31.538  1.00  0.00    -0.354 N 
ATOM     57  N   UNL A   1      41.933  29.270  33.342  1.00  0.00    -0.248 NA
ATOM     58  C   UNL A   1      41.204  29.926  35.417  1.00  0.00     0.031 C 
ATOM     59  C   UNL A   1      44.649  28.311  31.741  1.00  0.00     0.029 A 
ATOM     60  C   UNL A   1      43.782  27.488  32.438  1.00  0.00     0.049 A 
ATOM     61  H   UNL A   1      42.709  25.808  31.764  1.00  0.00     0.167 HD
ATOM     62  C   UNL A   1      42.543  28.437  34.243  1.00  0.00     0.074 A 
ATOM     63  C   UNL A   1      42.066  28.899  35.534  1.00  0.00     0.031 C 
ATOM     64  C   UNL A   1      43.374  27.431  33.838  1.00  0.00     0.031 A 
BRANCH  51  65
ATOM     65  C   UNL A   1      44.053  25.385  28.068  1.00  0.00    -0.014 A 
ATOM     66  C   UNL A   1      44.431  26.059  26.887  1.00  0.00     0.010 A 
ATOM     67  C   UNL A   1      44.408  24.025  28.129  1.00  0.00     0.010 A 
ATOM     68  C   UNL A   1      45.036  25.394  25.805  1.00  0.00     0.020 A 
ATOM     69  C   UNL A   1      44.994  23.341  27.055  1.00  0.00     0.020 A 
ATOM     70  C   UNL A   1      45.289  24.028  25.887  1.00  0.00     0.054 A 
BRANCH  70  71
ATOM     71  S   UNL A   1      45.991  23.156  24.464  1.00  0.00     0.124 S 
ATOM     72  O   UNL A   1      47.006  24.094  23.991  1.00  0.00    -0.237 OA
ATOM     73  O   UNL A   1      46.497  21.927  25.068  1.00  0.00    -0.237 OA
ATOM     74  O   UNL A   1      44.850  22.981  23.567  1.00  0.00    -0.744 OA
ENDBRANCH  70  71
ENDBRANCH  51  65
BRANCH  52  75
ATOM     75  C   UNL A   1      38.869  31.419  33.616  1.00  0.00    -0.014 A 
ATOM     76  C   UNL A   1      38.557  32.745  33.980  1.00  0.00     0.010 A 
ATOM     77  C   UNL A   1      37.843  30.574  33.158  1.00  0.00     0.010 A 
ATOM     78  C   UNL A   1      37.294  33.274  33.708  1.00  0.00     0.020 A 
ATOM     79  C   UNL A   1      36.573  31.103  32.885  1.00  0.00     0.020 A 
ATOM     80  C   UNL A   1      36.335  32.466  33.095  1.00  0.00     0.054 A 
BRANCH  80  81
ATOM     81  S   UNL A   1      34.882  33.282  32.368  1.00  0.00     0.124 S 
ATOM     82  O   UNL A   1      34.488  32.346  31.320  1.00  0.00    -0.237 OA
ATOM     83  O   UNL A   1      33.979  33.359  33.517  1.00  0.00    -0.237 OA
ATOM     84  O   UNL A   1      35.410  34.561  31.906  1.00  0.00    -0.744 OA
ENDBRANCH  80  81
ENDBRANCH  52  75
BRANCH  64  85
ATOM     85  C   UNL A   1      43.951  26.331  34.702  1.00  0.00    -0.014 A 
ATOM     86  C   UNL A   1      43.219  25.245  35.206  1.00  0.00     0.010 A 
ATOM     87  C   UNL A   1      45.350  26.315  34.931  1.00  0.00     0.010 A 
ATOM     88  C   UNL A   1      43.839  24.226  35.947  1.00  0.00     0.020 A 
ATOM     89  C   UNL A   1      45.985  25.283  35.629  1.00  0.00     0.020 A 
ATOM     90  C   UNL A   1      45.219  24.252  36.156  1.00  0.00     0.054 A 
BRANCH  90  91
ATOM     91  S   UNL A   1      46.022  22.897  37.050  1.00  0.00     0.124 S 
ATOM     92  O   UNL A   1      47.436  23.185  36.826  1.00  0.00    -0.237 OA
ATOM     93  O   UNL A   1      45.554  23.086  38.422  1.00  0.00    -0.237 OA
ATOM     94  O   UNL A   1      45.511  21.700  36.387  1.00  0.00    -0.744 OA
ENDBRANCH  90  91
ENDBRANCH  64  85
ENDBRANCH  38  39
ENDBRANCH  30  33
ENDBRANCH  28  29
ENDBRANCH   1  28
TORSDOF 16
ENDMDL
