MODEL 1
REMARK VINA RESULT:     -11.3      0.000      0.000
REMARK SMILES O=C(COc1ccccc1C[NH+]1CCC2(CC[NH2+]CC2)CC1)NCCCNC(=O)c1ccc(-c2c3nc(c(-c4ccc(S(=O)(=O)[O-])cc4)c4ccc([nH]4)c(-c4ccc(S(=O)(=O)[O-])cc4)c4nc(c(-c5ccc(S(=O)(=O)[O-])cc5)c5ccc2[nH]5)C=C4)C=C3)cc1
REMARK SMILES IDX 24 1 23 2 1 3 2 4 3 6 4 7 5 8 6 9 10 10 7 11 9 12 8 13 11 14
REMARK SMILES IDX 12 15 13 16 22 17 14 19 21 20 15 21 16 22 20 23 17 24 19 25
REMARK SMILES IDX 18 26 25 29 26 30 27 31 28 32 29 34 30 35 31 36 89 37 32 38
REMARK SMILES IDX 88 39 33 40 34 41 35 42 82 43 36 44 87 45 81 46 83 47 37 48
REMARK SMILES IDX 86 49 80 50 79 51 38 53 68 54 49 55 67 56 50 57 53 58 66 59
REMARK SMILES IDX 84 60 51 61 52 62 65 64 85 65 54 66 39 67 40 68 48 69 41 70
REMARK SMILES IDX 47 71 42 72 43 73 44 74 45 75 46 76 69 77 70 78 78 79 71 80
REMARK SMILES IDX 77 81 72 82 73 83 74 84 75 85 76 86 55 87 56 88 64 89 57 90
REMARK SMILES IDX 63 91 58 92 59 93 60 94 61 95 62 96
REMARK H PARENT 23 5 12 18 18 27 18 28 27 33 83 52 53 63
REMARK Flexibility Score: inf
ROOT
ATOM      1  C   UNL A   1      31.567  27.626  26.412  1.00  0.00     0.117 C 
ENDROOT
BRANCH   1   2
ATOM      2  N   UNL A   1      31.640  26.180  26.287  1.00  0.00    -0.353 N 
ATOM      3  O   UNL A   1      29.428  25.735  26.767  1.00  0.00    -0.271 OA
ATOM      4  C   UNL A   1      30.500  25.393  26.276  1.00  0.00     0.257 C 
ATOM      5  H   UNL A   1      32.522  25.749  26.209  1.00  0.00     0.163 HD
BRANCH   4   6
ATOM      6  C   UNL A   1      30.670  24.058  25.543  1.00  0.00     0.329 C 
BRANCH   6   7
ATOM      7  O   UNL A   1      30.513  24.239  24.130  1.00  0.00    -0.483 OA
BRANCH   7   8
ATOM      8  C   UNL A   1      31.709  24.365  23.466  1.00  0.00     0.128 A 
ATOM      9  C   UNL A   1      32.771  23.584  23.933  1.00  0.00     0.047 A 
ATOM     10  C   UNL A   1      31.935  25.370  22.506  1.00  0.00     0.048 A 
ATOM     11  C   UNL A   1      34.054  23.750  23.407  1.00  0.00     0.004 A 
ATOM     12  C   UNL A   1      33.220  25.475  21.944  1.00  0.00     0.013 A 
ATOM     13  C   UNL A   1      34.273  24.681  22.397  1.00  0.00     0.001 A 
BRANCH  10  14
ATOM     14  C   UNL A   1      30.893  26.387  22.097  1.00  0.00     0.302 C 
BRANCH  14  15
ATOM     15  N   UNL A   1      30.550  27.445  23.052  1.00  0.00    -0.331 N 
ATOM     16  C   UNL A   1      31.119  28.763  22.821  1.00  0.00     0.263 C 
ATOM     17  C   UNL A   1      29.173  27.504  23.517  1.00  0.00     0.263 C 
ATOM     18  H   UNL A   1      31.074  27.082  23.848  1.00  0.00     0.348 HD
ATOM     19  C   UNL A   1      30.291  29.674  21.923  1.00  0.00     0.069 C 
ATOM     20  C   UNL A   1      28.256  28.407  22.689  1.00  0.00     0.069 C 
ATOM     21  C   UNL A   1      28.831  29.815  22.400  1.00  0.00    -0.008 C 
ATOM     22  C   UNL A   1      28.748  30.723  23.652  1.00  0.00     0.069 C 
ATOM     23  C   UNL A   1      27.986  30.470  21.281  1.00  0.00     0.069 C 
ATOM     24  C   UNL A   1      29.077  32.189  23.340  1.00  0.00     0.261 C 
ATOM     25  C   UNL A   1      28.366  31.930  21.042  1.00  0.00     0.261 C 
ATOM     26  N   UNL A   1      28.237  32.723  22.264  1.00  0.00    -0.346 N 
ATOM     27  H   UNL A   1      28.521  33.683  22.067  1.00  0.00     0.346 HD
ATOM     28  H   UNL A   1      27.264  32.688  22.568  1.00  0.00     0.346 HD
ENDBRANCH  14  15
ENDBRANCH  10  14
ENDBRANCH   7   8
ENDBRANCH   6   7
ENDBRANCH   4   6
ENDBRANCH   1   2
BRANCH   1  29
ATOM     29  C   UNL A   1      32.596  28.249  27.341  1.00  0.00     0.042 C 
BRANCH  29  30
ATOM     30  C   UNL A   1      33.408  29.412  26.779  1.00  0.00     0.118 C 
BRANCH  30  31
ATOM     31  N   UNL A   1      33.490  30.588  27.637  1.00  0.00    -0.352 N 
ATOM     32  C   UNL A   1      34.522  31.050  28.428  1.00  0.00     0.251 C 
ATOM     33  H   UNL A   1      32.678  31.144  27.654  1.00  0.00     0.163 HD
ATOM     34  O   UNL A   1      34.369  32.079  29.083  1.00  0.00    -0.269 OA
BRANCH  32  35
ATOM     35  C   UNL A   1      35.783  30.278  28.550  1.00  0.00     0.039 A 
ATOM     36  C   UNL A   1      36.690  30.301  27.486  1.00  0.00     0.014 A 
ATOM     37  C   UNL A   1      36.109  29.598  29.723  1.00  0.00     0.014 A 
ATOM     38  C   UNL A   1      37.974  29.773  27.656  1.00  0.00     0.010 A 
ATOM     39  C   UNL A   1      37.416  29.159  29.924  1.00  0.00     0.010 A 
ATOM     40  C   UNL A   1      38.375  29.273  28.905  1.00  0.00    -0.014 A 
BRANCH  40  41
ATOM     41  C   UNL A   1      39.796  28.936  29.197  1.00  0.00     0.031 A 
ATOM     42  C   UNL A   1      40.733  29.976  29.750  1.00  0.00     0.074 A 
ATOM     43  C   UNL A   1      40.274  27.720  28.857  1.00  0.00     0.049 A 
ATOM     44  N   UNL A   1      42.026  29.903  29.939  1.00  0.00    -0.248 NA
ATOM     45  C   UNL A   1      40.145  31.276  30.108  1.00  0.00     0.031 C 
ATOM     46  C   UNL A   1      39.489  26.632  28.264  1.00  0.00     0.029 A 
ATOM     47  N   UNL A   1      41.542  27.197  28.944  1.00  0.00    -0.354 N 
ATOM     48  C   UNL A   1      42.411  31.152  30.411  1.00  0.00     0.074 A 
ATOM     49  C   UNL A   1      41.220  31.975  30.441  1.00  0.00     0.031 C 
ATOM     50  C   UNL A   1      40.286  25.569  28.066  1.00  0.00     0.029 A 
ATOM     51  C   UNL A   1      41.646  25.911  28.467  1.00  0.00     0.049 A 
ATOM     52  H   UNL A   1      42.305  27.697  29.314  1.00  0.00     0.167 HD
ATOM     53  C   UNL A   1      43.639  31.573  30.799  1.00  0.00     0.031 A 
ATOM     54  C   UNL A   1      42.714  25.097  28.348  1.00  0.00     0.031 A 
ATOM     55  C   UNL A   1      44.820  30.752  30.789  1.00  0.00     0.049 A 
ATOM     56  C   UNL A   1      44.065  25.588  28.784  1.00  0.00     0.074 A 
ATOM     57  C   UNL A   1      46.094  31.071  31.226  1.00  0.00     0.029 A 
ATOM     58  N   UNL A   1      44.875  29.450  30.316  1.00  0.00    -0.354 N 
ATOM     59  N   UNL A   1      44.395  26.755  29.284  1.00  0.00    -0.248 NA
ATOM     60  C   UNL A   1      45.190  24.652  28.640  1.00  0.00     0.031 C 
ATOM     61  C   UNL A   1      46.930  29.977  30.979  1.00  0.00     0.029 A 
ATOM     62  C   UNL A   1      46.165  28.959  30.431  1.00  0.00     0.049 A 
ATOM     63  H   UNL A   1      44.110  28.947  29.954  1.00  0.00     0.167 HD
ATOM     64  C   UNL A   1      45.762  26.686  29.531  1.00  0.00     0.074 A 
ATOM     65  C   UNL A   1      46.193  25.359  29.143  1.00  0.00     0.031 C 
ATOM     66  C   UNL A   1      46.584  27.639  30.035  1.00  0.00     0.031 A 
BRANCH  53  67
ATOM     67  C   UNL A   1      43.765  32.999  31.267  1.00  0.00    -0.014 A 
ATOM     68  C   UNL A   1      44.013  34.042  30.355  1.00  0.00     0.010 A 
ATOM     69  C   UNL A   1      43.604  33.306  32.629  1.00  0.00     0.010 A 
ATOM     70  C   UNL A   1      44.143  35.358  30.804  1.00  0.00     0.020 A 
ATOM     71  C   UNL A   1      43.707  34.625  33.080  1.00  0.00     0.020 A 
ATOM     72  C   UNL A   1      43.996  35.641  32.165  1.00  0.00     0.054 A 
BRANCH  72  73
ATOM     73  S   UNL A   1      44.161  37.360  32.719  1.00  0.00     0.124 S 
ATOM     74  O   UNL A   1      45.490  37.355  33.323  1.00  0.00    -0.237 OA
ATOM     75  O   UNL A   1      44.040  38.113  31.473  1.00  0.00    -0.237 OA
ATOM     76  O   UNL A   1      43.052  37.530  33.655  1.00  0.00    -0.744 OA
ENDBRANCH  72  73
ENDBRANCH  53  67
BRANCH  54  77
ATOM     77  C   UNL A   1      42.545  23.726  27.796  1.00  0.00    -0.014 A 
ATOM     78  C   UNL A   1      42.734  23.487  26.423  1.00  0.00     0.010 A 
ATOM     79  C   UNL A   1      42.209  22.650  28.638  1.00  0.00     0.010 A 
ATOM     80  C   UNL A   1      42.574  22.200  25.900  1.00  0.00     0.020 A 
ATOM     81  C   UNL A   1      42.074  21.358  28.122  1.00  0.00     0.020 A 
ATOM     82  C   UNL A   1      42.246  21.143  26.754  1.00  0.00     0.054 A 
BRANCH  82  83
ATOM     83  S   UNL A   1      42.101  19.471  26.062  1.00  0.00     0.124 S 
ATOM     84  O   UNL A   1      42.601  18.646  27.156  1.00  0.00    -0.237 OA
ATOM     85  O   UNL A   1      40.669  19.364  25.791  1.00  0.00    -0.237 OA
ATOM     86  O   UNL A   1      42.949  19.520  24.874  1.00  0.00    -0.744 OA
ENDBRANCH  82  83
ENDBRANCH  54  77
BRANCH  66  87
ATOM     87  C   UNL A   1      48.033  27.276  30.214  1.00  0.00    -0.014 A 
ATOM     88  C   UNL A   1      48.974  27.530  29.200  1.00  0.00     0.010 A 
ATOM     89  C   UNL A   1      48.467  26.723  31.432  1.00  0.00     0.010 A 
ATOM     90  C   UNL A   1      50.321  27.211  29.393  1.00  0.00     0.020 A 
ATOM     91  C   UNL A   1      49.816  26.425  31.637  1.00  0.00     0.020 A 
ATOM     92  C   UNL A   1      50.734  26.661  30.610  1.00  0.00     0.054 A 
BRANCH  92  93
ATOM     93  S   UNL A   1      52.495  26.302  30.856  1.00  0.00     0.124 S 
ATOM     94  O   UNL A   1      52.447  25.040  31.589  1.00  0.00    -0.237 OA
ATOM     95  O   UNL A   1      53.000  26.214  29.487  1.00  0.00    -0.237 OA
ATOM     96  O   UNL A   1      52.979  27.449  31.619  1.00  0.00    -0.744 OA
ENDBRANCH  92  93
ENDBRANCH  66  87
ENDBRANCH  40  41
ENDBRANCH  32  35
ENDBRANCH  30  31
ENDBRANCH  29  30
ENDBRANCH   1  29
TORSDOF 17
ENDMDL
MODEL 2
REMARK VINA RESULT:     -11.2      4.756     10.140
REMARK SMILES O=C(COc1ccccc1C[NH+]1CCC2(CC[NH2+]CC2)CC1)NCCCNC(=O)c1ccc(-c2c3nc(c(-c4ccc(S(=O)(=O)[O-])cc4)c4ccc([nH]4)c(-c4ccc(S(=O)(=O)[O-])cc4)c4nc(c(-c5ccc(S(=O)(=O)[O-])cc5)c5ccc2[nH]5)C=C4)C=C3)cc1
REMARK SMILES IDX 24 1 23 2 1 3 2 4 3 6 4 7 5 8 6 9 10 10 7 11 9 12 8 13 11 14
REMARK SMILES IDX 12 15 13 16 22 17 14 19 21 20 15 21 16 22 20 23 17 24 19 25
REMARK SMILES IDX 18 26 25 29 26 30 27 31 28 32 29 34 30 35 31 36 89 37 32 38
REMARK SMILES IDX 88 39 33 40 34 41 35 42 82 43 36 44 87 45 81 46 83 47 37 48
REMARK SMILES IDX 86 49 80 50 79 51 38 53 68 54 49 55 67 56 50 57 53 58 66 59
REMARK SMILES IDX 84 60 51 61 52 62 65 64 85 65 54 66 39 67 40 68 48 69 41 70
REMARK SMILES IDX 47 71 42 72 43 73 44 74 45 75 46 76 69 77 70 78 78 79 71 80
REMARK SMILES IDX 77 81 72 82 73 83 74 84 75 85 76 86 55 87 56 88 64 89 57 90
REMARK SMILES IDX 63 91 58 92 59 93 60 94 61 95 62 96
REMARK H PARENT 23 5 12 18 18 27 18 28 27 33 83 52 53 63
REMARK Flexibility Score: inf
ROOT
ATOM      1  C   UNL A   1      39.641  22.553  26.908  1.00  0.00     0.117 C 
ENDROOT
BRANCH   1   2
ATOM      2  N   UNL A   1      38.505  22.064  26.144  1.00  0.00    -0.353 N 
ATOM      3  O   UNL A   1      37.278  24.016  26.167  1.00  0.00    -0.271 OA
ATOM      4  C   UNL A   1      37.524  22.919  25.673  1.00  0.00     0.257 C 
ATOM      5  H   UNL A   1      38.432  21.099  25.958  1.00  0.00     0.163 HD
BRANCH   4   6
ATOM      6  C   UNL A   1      36.790  22.404  24.430  1.00  0.00     0.329 C 
BRANCH   6   7
ATOM      7  O   UNL A   1      35.548  23.098  24.258  1.00  0.00    -0.483 OA
BRANCH   7   8
ATOM      8  C   UNL A   1      34.458  22.261  24.252  1.00  0.00     0.128 A 
ATOM      9  C   UNL A   1      34.516  21.150  25.100  1.00  0.00     0.047 A 
ATOM     10  C   UNL A   1      33.425  22.378  23.303  1.00  0.00     0.048 A 
ATOM     11  C   UNL A   1      33.516  20.177  25.057  1.00  0.00     0.004 A 
ATOM     12  C   UNL A   1      32.395  21.420  23.321  1.00  0.00     0.013 A 
ATOM     13  C   UNL A   1      32.444  20.323  24.181  1.00  0.00     0.001 A 
BRANCH  10  14
ATOM     14  C   UNL A   1      33.398  23.433  22.220  1.00  0.00     0.302 C 
BRANCH  14  15
ATOM     15  N   UNL A   1      32.343  24.449  22.274  1.00  0.00    -0.331 N 
ATOM     16  C   UNL A   1      31.936  24.923  23.586  1.00  0.00     0.263 C 
ATOM     17  C   UNL A   1      32.393  25.515  21.285  1.00  0.00     0.263 C 
ATOM     18  H   UNL A   1      31.571  23.856  21.970  1.00  0.00     0.348 HD
ATOM     19  C   UNL A   1      32.733  26.107  24.119  1.00  0.00     0.069 C 
ATOM     20  C   UNL A   1      33.162  26.763  21.727  1.00  0.00     0.069 C 
ATOM     21  C   UNL A   1      32.776  27.291  23.131  1.00  0.00    -0.008 C 
ATOM     22  C   UNL A   1      31.415  28.028  23.098  1.00  0.00     0.069 C 
ATOM     23  C   UNL A   1      33.854  28.303  23.588  1.00  0.00     0.069 C 
ATOM     24  C   UNL A   1      31.117  28.774  24.406  1.00  0.00     0.261 C 
ATOM     25  C   UNL A   1      33.477  29.011  24.888  1.00  0.00     0.261 C 
ATOM     26  N   UNL A   1      32.194  29.702  24.766  1.00  0.00    -0.346 N 
ATOM     27  H   UNL A   1      31.968  30.141  25.659  1.00  0.00     0.346 HD
ATOM     28  H   UNL A   1      32.275  30.402  24.028  1.00  0.00     0.346 HD
ENDBRANCH  14  15
ENDBRANCH  10  14
ENDBRANCH   7   8
ENDBRANCH   6   7
ENDBRANCH   4   6
ENDBRANCH   1   2
BRANCH   1  29
ATOM     29  C   UNL A   1      41.003  22.106  26.402  1.00  0.00     0.042 C 
BRANCH  29  30
ATOM     30  C   UNL A   1      42.138  23.119  26.514  1.00  0.00     0.118 C 
BRANCH  30  31
ATOM     31  N   UNL A   1      42.098  24.211  25.549  1.00  0.00    -0.352 N 
ATOM     32  C   UNL A   1      42.082  25.577  25.741  1.00  0.00     0.251 C 
ATOM     33  H   UNL A   1      42.079  23.928  24.606  1.00  0.00     0.163 HD
ATOM     34  O   UNL A   1      42.041  26.326  24.767  1.00  0.00    -0.269 OA
BRANCH  32  35
ATOM     35  C   UNL A   1      42.040  26.145  27.111  1.00  0.00     0.039 A 
ATOM     36  C   UNL A   1      43.116  26.925  27.548  1.00  0.00     0.014 A 
ATOM     37  C   UNL A   1      40.927  25.979  27.934  1.00  0.00     0.014 A 
ATOM     38  C   UNL A   1      43.009  27.653  28.737  1.00  0.00     0.010 A 
ATOM     39  C   UNL A   1      40.783  26.777  29.067  1.00  0.00     0.010 A 
ATOM     40  C   UNL A   1      41.807  27.650  29.464  1.00  0.00    -0.014 A 
BRANCH  40  41
ATOM     41  C   UNL A   1      41.567  28.597  30.588  1.00  0.00     0.031 A 
ATOM     42  C   UNL A   1      42.376  28.507  31.853  1.00  0.00     0.074 A 
ATOM     43  C   UNL A   1      40.538  29.469  30.513  1.00  0.00     0.049 A 
ATOM     44  N   UNL A   1      42.219  29.154  32.980  1.00  0.00    -0.248 NA
ATOM     45  C   UNL A   1      43.487  27.542  31.863  1.00  0.00     0.031 C 
ATOM     46  C   UNL A   1      39.638  29.628  29.367  1.00  0.00     0.029 A 
ATOM     47  N   UNL A   1      40.063  30.377  31.430  1.00  0.00    -0.354 N 
ATOM     48  C   UNL A   1      43.190  28.657  33.841  1.00  0.00     0.074 A 
ATOM     49  C   UNL A   1      43.906  27.627  33.118  1.00  0.00     0.031 C 
ATOM     50  C   UNL A   1      38.740  30.590  29.640  1.00  0.00     0.029 A 
ATOM     51  C   UNL A   1      38.965  31.081  30.995  1.00  0.00     0.049 A 
ATOM     52  H   UNL A   1      40.472  30.510  32.316  1.00  0.00     0.167 HD
ATOM     53  C   UNL A   1      43.473  29.033  35.111  1.00  0.00     0.031 A 
ATOM     54  C   UNL A   1      38.208  32.008  31.615  1.00  0.00     0.031 A 
ATOM     55  C   UNL A   1      42.778  30.071  35.825  1.00  0.00     0.049 A 
ATOM     56  C   UNL A   1      38.541  32.407  33.025  1.00  0.00     0.074 A 
ATOM     57  C   UNL A   1      43.037  30.566  37.092  1.00  0.00     0.029 A 
ATOM     58  N   UNL A   1      41.685  30.771  35.339  1.00  0.00    -0.354 N 
ATOM     59  N   UNL A   1      39.503  31.966  33.799  1.00  0.00    -0.248 NA
ATOM     60  C   UNL A   1      37.687  33.430  33.645  1.00  0.00     0.031 C 
ATOM     61  C   UNL A   1      42.075  31.537  37.388  1.00  0.00     0.029 A 
ATOM     62  C   UNL A   1      41.245  31.679  36.288  1.00  0.00     0.049 A 
ATOM     63  H   UNL A   1      41.281  30.643  34.451  1.00  0.00     0.167 HD
ATOM     64  C   UNL A   1      39.381  32.670  34.991  1.00  0.00     0.074 A 
ATOM     65  C   UNL A   1      38.263  33.579  34.829  1.00  0.00     0.031 C 
ATOM     66  C   UNL A   1      40.127  32.573  36.119  1.00  0.00     0.031 A 
BRANCH  53  67
ATOM     67  C   UNL A   1      44.590  28.309  35.814  1.00  0.00    -0.014 A 
ATOM     68  C   UNL A   1      45.912  28.790  35.764  1.00  0.00     0.010 A 
ATOM     69  C   UNL A   1      44.313  27.150  36.561  1.00  0.00     0.010 A 
ATOM     70  C   UNL A   1      46.941  28.101  36.408  1.00  0.00     0.020 A 
ATOM     71  C   UNL A   1      45.337  26.471  37.229  1.00  0.00     0.020 A 
ATOM     72  C   UNL A   1      46.649  26.941  37.131  1.00  0.00     0.054 A 
BRANCH  72  73
ATOM     73  S   UNL A   1      48.003  26.072  37.966  1.00  0.00     0.124 S 
ATOM     74  O   UNL A   1      48.730  25.494  36.838  1.00  0.00    -0.237 OA
ATOM     75  O   UNL A   1      48.692  27.150  38.671  1.00  0.00    -0.237 OA
ATOM     76  O   UNL A   1      47.319  25.108  38.825  1.00  0.00    -0.744 OA
ENDBRANCH  72  73
ENDBRANCH  53  67
BRANCH  54  77
ATOM     77  C   UNL A   1      37.059  32.629  30.901  1.00  0.00    -0.014 A 
ATOM     78  C   UNL A   1      37.258  33.755  30.083  1.00  0.00     0.010 A 
ATOM     79  C   UNL A   1      35.764  32.092  31.023  1.00  0.00     0.010 A 
ATOM     80  C   UNL A   1      36.181  34.342  29.412  1.00  0.00     0.020 A 
ATOM     81  C   UNL A   1      34.690  32.661  30.334  1.00  0.00     0.020 A 
ATOM     82  C   UNL A   1      34.903  33.790  29.541  1.00  0.00     0.054 A 
BRANCH  82  83
ATOM     83  S   UNL A   1      33.530  34.534  28.616  1.00  0.00     0.124 S 
ATOM     84  O   UNL A   1      33.067  33.412  27.807  1.00  0.00    -0.237 OA
ATOM     85  O   UNL A   1      32.626  34.963  29.681  1.00  0.00    -0.237 OA
ATOM     86  O   UNL A   1      34.168  35.621  27.877  1.00  0.00    -0.744 OA
ENDBRANCH  82  83
ENDBRANCH  54  77
BRANCH  66  87
ATOM     87  C   UNL A   1      39.774  33.484  37.262  1.00  0.00    -0.014 A 
ATOM     88  C   UNL A   1      39.128  32.991  38.408  1.00  0.00     0.010 A 
ATOM     89  C   UNL A   1      40.142  34.841  37.210  1.00  0.00     0.010 A 
ATOM     90  C   UNL A   1      38.832  33.846  39.474  1.00  0.00     0.020 A 
ATOM     91  C   UNL A   1      39.868  35.693  38.282  1.00  0.00     0.020 A 
ATOM     92  C   UNL A   1      39.203  35.192  39.404  1.00  0.00     0.054 A 
BRANCH  92  93
ATOM     93  S   UNL A   1      38.853  36.272  40.819  1.00  0.00     0.124 S 
ATOM     94  O   UNL A   1      37.723  35.592  41.446  1.00  0.00    -0.237 OA
ATOM     95  O   UNL A   1      40.105  36.233  41.572  1.00  0.00    -0.237 OA
ATOM     96  O   UNL A   1      38.544  37.559  40.203  1.00  0.00    -0.744 OA
ENDBRANCH  92  93
ENDBRANCH  66  87
ENDBRANCH  40  41
ENDBRANCH  32  35
ENDBRANCH  30  31
ENDBRANCH  29  30
ENDBRANCH   1  29
TORSDOF 17
ENDMDL
MODEL 3
REMARK VINA RESULT:     -11.1      3.514      8.052
REMARK SMILES O=C(COc1ccccc1C[NH+]1CCC2(CC[NH2+]CC2)CC1)NCCCNC(=O)c1ccc(-c2c3nc(c(-c4ccc(S(=O)(=O)[O-])cc4)c4ccc([nH]4)c(-c4ccc(S(=O)(=O)[O-])cc4)c4nc(c(-c5ccc(S(=O)(=O)[O-])cc5)c5ccc2[nH]5)C=C4)C=C3)cc1
REMARK SMILES IDX 24 1 23 2 1 3 2 4 3 6 4 7 5 8 6 9 10 10 7 11 9 12 8 13 11 14
REMARK SMILES IDX 12 15 13 16 22 17 14 19 21 20 15 21 16 22 20 23 17 24 19 25
REMARK SMILES IDX 18 26 25 29 26 30 27 31 28 32 29 34 30 35 31 36 89 37 32 38
REMARK SMILES IDX 88 39 33 40 34 41 35 42 82 43 36 44 87 45 81 46 83 47 37 48
REMARK SMILES IDX 86 49 80 50 79 51 38 53 68 54 49 55 67 56 50 57 53 58 66 59
REMARK SMILES IDX 84 60 51 61 52 62 65 64 85 65 54 66 39 67 40 68 48 69 41 70
REMARK SMILES IDX 47 71 42 72 43 73 44 74 45 75 46 76 69 77 70 78 78 79 71 80
REMARK SMILES IDX 77 81 72 82 73 83 74 84 75 85 76 86 55 87 56 88 64 89 57 90
REMARK SMILES IDX 63 91 58 92 59 93 60 94 61 95 62 96
REMARK H PARENT 23 5 12 18 18 27 18 28 27 33 83 52 53 63
REMARK Flexibility Score: inf
ROOT
ATOM      1  C   UNL A   1      36.890  22.297  25.704  1.00  0.00     0.117 C 
ENDROOT
BRANCH   1   2
ATOM      2  N   UNL A   1      35.864  21.562  26.425  1.00  0.00    -0.353 N 
ATOM      3  O   UNL A   1      34.494  23.357  26.892  1.00  0.00    -0.271 OA
ATOM      4  C   UNL A   1      34.657  22.146  26.769  1.00  0.00     0.257 C 
ATOM      5  H   UNL A   1      36.033  20.624  26.675  1.00  0.00     0.163 HD
BRANCH   4   6
ATOM      6  C   UNL A   1      33.505  21.149  26.935  1.00  0.00     0.329 C 
BRANCH   6   7
ATOM      7  O   UNL A   1      32.411  21.501  26.079  1.00  0.00    -0.483 OA
BRANCH   7   8
ATOM      8  C   UNL A   1      32.332  20.718  24.953  1.00  0.00     0.128 A 
ATOM      9  C   UNL A   1      32.724  19.382  25.091  1.00  0.00     0.047 A 
ATOM     10  C   UNL A   1      32.079  21.257  23.678  1.00  0.00     0.048 A 
ATOM     11  C   UNL A   1      32.806  18.553  23.971  1.00  0.00     0.004 A 
ATOM     12  C   UNL A   1      32.105  20.387  22.572  1.00  0.00     0.013 A 
ATOM     13  C   UNL A   1      32.476  19.051  22.714  1.00  0.00     0.001 A 
BRANCH  10  14
ATOM     14  C   UNL A   1      31.850  22.729  23.422  1.00  0.00     0.302 C 
BRANCH  14  15
ATOM     15  N   UNL A   1      32.443  23.692  24.355  1.00  0.00    -0.331 N 
ATOM     16  C   UNL A   1      33.572  24.475  23.879  1.00  0.00     0.263 C 
ATOM     17  C   UNL A   1      31.531  24.469  25.180  1.00  0.00     0.263 C 
ATOM     18  H   UNL A   1      32.858  23.018  24.997  1.00  0.00     0.348 HD
ATOM     19  C   UNL A   1      33.204  25.780  23.185  1.00  0.00     0.069 C 
ATOM     20  C   UNL A   1      31.108  25.811  24.578  1.00  0.00     0.069 C 
ATOM     21  C   UNL A   1      32.278  26.671  24.038  1.00  0.00    -0.008 C 
ATOM     22  C   UNL A   1      33.067  27.333  25.195  1.00  0.00     0.069 C 
ATOM     23  C   UNL A   1      31.692  27.799  23.156  1.00  0.00     0.069 C 
ATOM     24  C   UNL A   1      34.072  28.381  24.699  1.00  0.00     0.261 C 
ATOM     25  C   UNL A   1      32.753  28.805  22.714  1.00  0.00     0.261 C 
ATOM     26  N   UNL A   1      33.433  29.402  23.863  1.00  0.00    -0.346 N 
ATOM     27  H   UNL A   1      34.146  30.049  23.526  1.00  0.00     0.346 HD
ATOM     28  H   UNL A   1      32.738  29.891  24.429  1.00  0.00     0.346 HD
ENDBRANCH  14  15
ENDBRANCH  10  14
ENDBRANCH   7   8
ENDBRANCH   6   7
ENDBRANCH   4   6
ENDBRANCH   1   2
BRANCH   1  29
ATOM     29  C   UNL A   1      38.049  21.458  25.189  1.00  0.00     0.042 C 
BRANCH  29  30
ATOM     30  C   UNL A   1      39.240  21.291  26.127  1.00  0.00     0.118 C 
BRANCH  30  31
ATOM     31  N   UNL A   1      40.002  20.059  25.954  1.00  0.00    -0.352 N 
ATOM     32  C   UNL A   1      41.351  19.812  26.104  1.00  0.00     0.251 C 
ATOM     33  H   UNL A   1      39.467  19.277  25.689  1.00  0.00     0.163 HD
ATOM     34  O   UNL A   1      41.786  18.680  25.899  1.00  0.00    -0.269 OA
BRANCH  32  35
ATOM     35  C   UNL A   1      42.287  20.913  26.438  1.00  0.00     0.039 A 
ATOM     36  C   UNL A   1      42.890  21.622  25.394  1.00  0.00     0.014 A 
ATOM     37  C   UNL A   1      42.517  21.297  27.759  1.00  0.00     0.014 A 
ATOM     38  C   UNL A   1      43.596  22.798  25.669  1.00  0.00     0.010 A 
ATOM     39  C   UNL A   1      43.136  22.517  28.023  1.00  0.00     0.010 A 
ATOM     40  C   UNL A   1      43.653  23.300  26.979  1.00  0.00    -0.014 A 
BRANCH  40  41
ATOM     41  C   UNL A   1      44.173  24.663  27.276  1.00  0.00     0.031 A 
ATOM     42  C   UNL A   1      43.241  25.762  27.709  1.00  0.00     0.074 A 
ATOM     43  C   UNL A   1      45.474  24.943  27.044  1.00  0.00     0.049 A 
ATOM     44  N   UNL A   1      43.491  27.036  27.880  1.00  0.00    -0.248 NA
ATOM     45  C   UNL A   1      41.839  25.387  27.952  1.00  0.00     0.031 C 
ATOM     46  C   UNL A   1      46.480  23.986  26.573  1.00  0.00     0.029 A 
ATOM     47  N   UNL A   1      46.172  26.121  27.158  1.00  0.00    -0.354 N 
ATOM     48  C   UNL A   1      42.277  27.617  28.223  1.00  0.00     0.074 A 
ATOM     49  C   UNL A   1      41.283  26.565  28.197  1.00  0.00     0.031 C 
ATOM     50  C   UNL A   1      47.665  24.608  26.463  1.00  0.00     0.029 A 
ATOM     51  C   UNL A   1      47.497  26.017  26.805  1.00  0.00     0.049 A 
ATOM     52  H   UNL A   1      45.762  26.962  27.465  1.00  0.00     0.167 HD
ATOM     53  C   UNL A   1      42.012  28.906  28.547  1.00  0.00     0.031 A 
ATOM     54  C   UNL A   1      48.471  26.947  26.745  1.00  0.00     0.031 A 
ATOM     55  C   UNL A   1      43.001  29.951  28.594  1.00  0.00     0.049 A 
ATOM     56  C   UNL A   1      48.153  28.370  27.106  1.00  0.00     0.074 A 
ATOM     57  C   UNL A   1      42.839  31.272  28.975  1.00  0.00     0.029 A 
ATOM     58  N   UNL A   1      44.334  29.796  28.247  1.00  0.00    -0.354 N 
ATOM     59  N   UNL A   1      47.008  28.886  27.486  1.00  0.00    -0.248 NA
ATOM     60  C   UNL A   1      49.258  29.337  27.032  1.00  0.00     0.031 C 
ATOM     61  C   UNL A   1      44.066  31.927  28.818  1.00  0.00     0.029 A 
ATOM     62  C   UNL A   1      45.002  31.001  28.385  1.00  0.00     0.049 A 
ATOM     63  H   UNL A   1      44.746  28.954  27.948  1.00  0.00     0.167 HD
ATOM     64  C   UNL A   1      47.260  30.234  27.714  1.00  0.00     0.074 A 
ATOM     65  C   UNL A   1      48.668  30.450  27.446  1.00  0.00     0.031 C 
ATOM     66  C   UNL A   1      46.401  31.206  28.109  1.00  0.00     0.031 A 
BRANCH  53  67
ATOM     67  C   UNL A   1      40.586  29.259  28.874  1.00  0.00    -0.014 A 
ATOM     68  C   UNL A   1      40.194  29.542  30.195  1.00  0.00     0.010 A 
ATOM     69  C   UNL A   1      39.630  29.339  27.845  1.00  0.00     0.010 A 
ATOM     70  C   UNL A   1      38.864  29.854  30.488  1.00  0.00     0.020 A 
ATOM     71  C   UNL A   1      38.303  29.676  28.130  1.00  0.00     0.020 A 
ATOM     72  C   UNL A   1      37.925  29.912  29.454  1.00  0.00     0.054 A 
BRANCH  72  73
ATOM     73  S   UNL A   1      36.208  30.328  29.861  1.00  0.00     0.124 S 
ATOM     74  O   UNL A   1      35.485  29.770  28.721  1.00  0.00    -0.237 OA
ATOM     75  O   UNL A   1      36.003  29.641  31.134  1.00  0.00    -0.237 OA
ATOM     76  O   UNL A   1      36.214  31.788  29.940  1.00  0.00    -0.744 OA
ENDBRANCH  72  73
ENDBRANCH  53  67
BRANCH  54  77
ATOM     77  C   UNL A   1      49.846  26.558  26.329  1.00  0.00    -0.014 A 
ATOM     78  C   UNL A   1      50.738  26.001  27.262  1.00  0.00     0.010 A 
ATOM     79  C   UNL A   1      50.268  26.729  24.998  1.00  0.00     0.010 A 
ATOM     80  C   UNL A   1      52.031  25.636  26.876  1.00  0.00     0.020 A 
ATOM     81  C   UNL A   1      51.552  26.342  24.602  1.00  0.00     0.020 A 
ATOM     82  C   UNL A   1      52.429  25.808  25.547  1.00  0.00     0.054 A 
BRANCH  82  83
ATOM     83  S   UNL A   1      54.093  25.274  25.055  1.00  0.00     0.124 S 
ATOM     84  O   UNL A   1      54.911  25.782  26.151  1.00  0.00    -0.237 OA
ATOM     85  O   UNL A   1      53.953  23.821  24.990  1.00  0.00    -0.237 OA
ATOM     86  O   UNL A   1      54.292  25.931  23.765  1.00  0.00    -0.744 OA
ENDBRANCH  82  83
ENDBRANCH  54  77
BRANCH  66  87
ATOM     87  C   UNL A   1      46.962  32.589  28.295  1.00  0.00    -0.014 A 
ATOM     88  C   UNL A   1      47.517  32.986  29.524  1.00  0.00     0.010 A 
ATOM     89  C   UNL A   1      46.980  33.485  27.211  1.00  0.00     0.010 A 
ATOM     90  C   UNL A   1      48.059  34.267  29.672  1.00  0.00     0.020 A 
ATOM     91  C   UNL A   1      47.541  34.757  27.349  1.00  0.00     0.020 A 
ATOM     92  C   UNL A   1      48.067  35.144  28.584  1.00  0.00     0.054 A 
BRANCH  92  93
ATOM     93  S   UNL A   1      48.819  36.783  28.786  1.00  0.00     0.124 S 
ATOM     94  O   UNL A   1      49.157  36.788  30.206  1.00  0.00    -0.237 OA
ATOM     95  O   UNL A   1      49.957  36.729  27.870  1.00  0.00    -0.237 OA
ATOM     96  O   UNL A   1      47.755  37.703  28.393  1.00  0.00    -0.744 OA
ENDBRANCH  92  93
ENDBRANCH  66  87
ENDBRANCH  40  41
ENDBRANCH  32  35
ENDBRANCH  30  31
ENDBRANCH  29  30
ENDBRANCH   1  29
TORSDOF 17
ENDMDL
