MODEL 1
REMARK VINA RESULT:      -8.4      0.000      0.000
REMARK SMILES COCCCNC(=O)/C(C#N)=C/c1ccc(C(=O)NCCCNC(=O)c2ccc(-c3c4nc(c(-c5ccc(S(=O)(=O)[O-])cc5)c5ccc([nH]5)c(-c5ccc(S(=O)(=O)[O-])cc5)c5nc(c(-c6ccc(S(=O)(=O)[O-])cc6)c6ccc3[nH]6)C=C5)C=C4)cc2)cc1
REMARK SMILES IDX 17 1 18 2 19 3 16 5 13 6 14 7 87 8 15 9 86 10 12 11 9 12
REMARK SMILES IDX 7 13 6 14 8 16 5 17 4 18 3 19 2 20 1 21 10 22 11 23 20 24
REMARK SMILES IDX 21 25 22 26 23 27 24 28 25 30 26 31 27 32 85 33 28 34 84 35
REMARK SMILES IDX 29 36 30 37 31 38 78 39 32 40 83 41 77 42 79 43 33 44 82 45
REMARK SMILES IDX 76 46 75 47 34 49 64 50 45 51 63 52 46 53 49 54 62 55 80 56
REMARK SMILES IDX 47 57 48 58 61 60 81 61 50 62 35 63 36 64 44 65 37 66 43 67
REMARK SMILES IDX 38 68 39 69 40 70 41 71 42 72 65 73 66 74 74 75 67 76 73 77
REMARK SMILES IDX 68 78 69 79 70 80 71 81 72 82 51 83 52 84 60 85 53 86 59 87
REMARK SMILES IDX 54 88 55 89 56 90 57 91 58 92
REMARK H PARENT 19 4 6 15 23 29 79 48 49 59
REMARK Flexibility Score: inf
ROOT
ATOM      1  C   UNL A   1      38.033  34.221  29.482  1.00  0.00     0.251 C 
ATOM      2  O   UNL A   1      38.946  34.227  28.659  1.00  0.00    -0.269 OA
ATOM      3  N   UNL A   1      36.773  34.591  29.080  1.00  0.00    -0.352 N 
ATOM      4  H   UNL A   1      36.727  34.956  28.166  1.00  0.00     0.163 HD
ENDROOT
BRANCH   1   5
ATOM      5  C   UNL A   1      38.310  33.757  30.865  1.00  0.00     0.039 A 
ATOM      6  C   UNL A   1      38.658  32.839  33.489  1.00  0.00    -0.024 A 
ATOM      7  C   UNL A   1      37.922  32.079  32.574  1.00  0.00     0.009 A 
ATOM      8  C   UNL A   1      39.286  34.012  33.067  1.00  0.00     0.009 A 
ATOM      9  C   UNL A   1      37.748  32.539  31.267  1.00  0.00     0.014 A 
ATOM     10  C   UNL A   1      39.126  34.457  31.755  1.00  0.00     0.014 A 
BRANCH   6  11
ATOM     11  C   UNL A   1      38.741  32.415  34.883  1.00  0.00     0.033 C 
ATOM     12  C   UNL A   1      37.792  32.686  35.798  1.00  0.00     0.117 C 
BRANCH  12  13
ATOM     13  C   UNL A   1      37.958  32.126  37.187  1.00  0.00     0.261 C 
ATOM     14  N   UNL A   1      38.525  32.828  38.220  1.00  0.00    -0.351 N 
ATOM     15  H   UNL A   1      38.526  32.343  39.077  1.00  0.00     0.163 HD
ATOM     16  O   UNL A   1      37.558  30.988  37.450  1.00  0.00    -0.268 OA
BRANCH  14  17
ATOM     17  C   UNL A   1      39.128  34.156  38.290  1.00  0.00     0.118 C 
BRANCH  17  18
ATOM     18  C   UNL A   1      40.565  34.253  37.786  1.00  0.00     0.050 C 
BRANCH  18  19
ATOM     19  C   UNL A   1      41.130  35.649  37.546  1.00  0.00     0.161 C 
BRANCH  19  20
ATOM     20  O   UNL A   1      42.493  35.782  37.927  1.00  0.00    -0.385 OA
ATOM     21  C   UNL A   1      42.955  37.122  38.014  1.00  0.00     0.194 C 
ENDBRANCH  19  20
ENDBRANCH  18  19
ENDBRANCH  17  18
ENDBRANCH  14  17
ENDBRANCH  12  13
BRANCH  12  22
ATOM     22  C   UNL A   1      36.525  33.464  35.481  1.00  0.00     0.105 C 
ATOM     23  N   UNL A   1      35.474  34.110  35.219  1.00  0.00    -0.192 NA
ENDBRANCH  12  22
ENDBRANCH   6  11
ENDBRANCH   1   5
BRANCH   3  24
ATOM     24  C   UNL A   1      35.496  34.535  29.774  1.00  0.00     0.118 C 
BRANCH  24  25
ATOM     25  C   UNL A   1      34.491  33.644  29.044  1.00  0.00     0.042 C 
BRANCH  25  26
ATOM     26  C   UNL A   1      34.490  32.195  29.516  1.00  0.00     0.118 C 
BRANCH  26  27
ATOM     27  N   UNL A   1      33.997  31.285  28.497  1.00  0.00    -0.352 N 
ATOM     28  C   UNL A   1      34.660  30.331  27.767  1.00  0.00     0.251 C 
ATOM     29  H   UNL A   1      33.037  31.366  28.299  1.00  0.00     0.163 HD
ATOM     30  O   UNL A   1      34.080  29.807  26.818  1.00  0.00    -0.269 OA
BRANCH  28  31
ATOM     31  C   UNL A   1      36.052  29.937  28.089  1.00  0.00     0.039 A 
ATOM     32  C   UNL A   1      36.305  29.377  29.347  1.00  0.00     0.014 A 
ATOM     33  C   UNL A   1      37.115  30.167  27.211  1.00  0.00     0.014 A 
ATOM     34  C   UNL A   1      37.607  29.023  29.707  1.00  0.00     0.010 A 
ATOM     35  C   UNL A   1      38.406  29.747  27.543  1.00  0.00     0.010 A 
ATOM     36  C   UNL A   1      38.668  29.187  28.801  1.00  0.00    -0.014 A 
BRANCH  36  37
ATOM     37  C   UNL A   1      40.047  28.779  29.177  1.00  0.00     0.031 A 
ATOM     38  C   UNL A   1      40.937  29.705  29.963  1.00  0.00     0.074 A 
ATOM     39  C   UNL A   1      40.505  27.569  28.796  1.00  0.00     0.049 A 
ATOM     40  N   UNL A   1      42.146  29.495  30.420  1.00  0.00    -0.248 NA
ATOM     41  C   UNL A   1      40.411  31.048  30.258  1.00  0.00     0.031 C 
ATOM     42  C   UNL A   1      39.762  26.602  27.985  1.00  0.00     0.029 A 
ATOM     43  N   UNL A   1      41.700  26.944  29.047  1.00  0.00    -0.354 N 
ATOM     44  C   UNL A   1      42.529  30.677  31.044  1.00  0.00     0.074 A 
ATOM     45  C   UNL A   1      41.444  31.616  30.865  1.00  0.00     0.031 C 
ATOM     46  C   UNL A   1      40.502  25.490  27.840  1.00  0.00     0.029 A 
ATOM     47  C   UNL A   1      41.777  25.674  28.524  1.00  0.00     0.049 A 
ATOM     48  H   UNL A   1      42.432  27.364  29.555  1.00  0.00     0.167 HD
ATOM     49  C   UNL A   1      43.669  30.951  31.724  1.00  0.00     0.031 A 
ATOM     50  C   UNL A   1      42.758  24.755  28.598  1.00  0.00     0.031 A 
ATOM     51  C   UNL A   1      44.744  30.012  31.910  1.00  0.00     0.049 A 
ATOM     52  C   UNL A   1      43.999  25.068  29.386  1.00  0.00     0.074 A 
ATOM     53  C   UNL A   1      45.919  30.175  32.625  1.00  0.00     0.029 A 
ATOM     54  N   UNL A   1      44.776  28.731  31.380  1.00  0.00    -0.354 N 
ATOM     55  N   UNL A   1      44.312  26.169  30.027  1.00  0.00    -0.248 NA
ATOM     56  C   UNL A   1      45.009  24.006  29.479  1.00  0.00     0.031 C 
ATOM     57  C   UNL A   1      46.679  29.006  32.494  1.00  0.00     0.029 A 
ATOM     58  C   UNL A   1      45.955  28.097  31.739  1.00  0.00     0.049 A 
ATOM     59  H   UNL A   1      44.066  28.330  30.828  1.00  0.00     0.167 HD
ATOM     60  C   UNL A   1      45.545  25.923  30.619  1.00  0.00     0.074 A 
ATOM     61  C   UNL A   1      45.909  24.563  30.276  1.00  0.00     0.031 C 
ATOM     62  C   UNL A   1      46.308  26.748  31.379  1.00  0.00     0.031 A 
BRANCH  49  63
ATOM     63  C   UNL A   1      43.810  32.330  32.316  1.00  0.00    -0.014 A 
ATOM     64  C   UNL A   1      44.341  33.392  31.560  1.00  0.00     0.010 A 
ATOM     65  C   UNL A   1      43.376  32.577  33.630  1.00  0.00     0.010 A 
ATOM     66  C   UNL A   1      44.477  34.664  32.122  1.00  0.00     0.020 A 
ATOM     67  C   UNL A   1      43.486  33.856  34.188  1.00  0.00     0.020 A 
ATOM     68  C   UNL A   1      44.054  34.887  33.436  1.00  0.00     0.054 A 
BRANCH  68  69
ATOM     69  S   UNL A   1      44.227  36.551  34.137  1.00  0.00     0.124 S 
ATOM     70  O   UNL A   1      44.956  36.281  35.374  1.00  0.00    -0.237 OA
ATOM     71  O   UNL A   1      44.981  37.257  33.105  1.00  0.00    -0.237 OA
ATOM     72  O   UNL A   1      42.847  36.998  34.312  1.00  0.00    -0.744 OA
ENDBRANCH  68  69
ENDBRANCH  49  63
BRANCH  50  73
ATOM     73  C   UNL A   1      42.584  23.432  27.941  1.00  0.00    -0.014 A 
ATOM     74  C   UNL A   1      43.259  23.134  26.744  1.00  0.00     0.010 A 
ATOM     75  C   UNL A   1      41.757  22.454  28.523  1.00  0.00     0.010 A 
ATOM     76  C   UNL A   1      43.097  21.889  26.131  1.00  0.00     0.020 A 
ATOM     77  C   UNL A   1      41.613  21.198  27.926  1.00  0.00     0.020 A 
ATOM     78  C   UNL A   1      42.277  20.927  26.726  1.00  0.00     0.054 A 
BRANCH  78  79
ATOM     79  S   UNL A   1      42.127  19.295  25.947  1.00  0.00     0.124 S 
ATOM     80  O   UNL A   1      40.692  19.208  25.701  1.00  0.00    -0.237 OA
ATOM     81  O   UNL A   1      42.968  19.432  24.760  1.00  0.00    -0.237 OA
ATOM     82  O   UNL A   1      42.646  18.384  26.965  1.00  0.00    -0.744 OA
ENDBRANCH  78  79
ENDBRANCH  50  73
BRANCH  62  83
ATOM     83  C   UNL A   1      47.599  26.185  31.911  1.00  0.00    -0.014 A 
ATOM     84  C   UNL A   1      48.791  26.263  31.165  1.00  0.00     0.010 A 
ATOM     85  C   UNL A   1      47.621  25.575  33.177  1.00  0.00     0.010 A 
ATOM     86  C   UNL A   1      49.967  25.690  31.654  1.00  0.00     0.020 A 
ATOM     87  C   UNL A   1      48.803  25.024  33.682  1.00  0.00     0.020 A 
ATOM     88  C   UNL A   1      49.963  25.065  32.906  1.00  0.00     0.054 A 
BRANCH  88  89
ATOM     89  S   UNL A   1      51.500  24.327  33.522  1.00  0.00     0.124 S 
ATOM     90  O   UNL A   1      51.942  23.544  32.370  1.00  0.00    -0.237 OA
ATOM     91  O   UNL A   1      52.317  25.495  33.839  1.00  0.00    -0.237 OA
ATOM     92  O   UNL A   1      51.068  23.544  34.678  1.00  0.00    -0.744 OA
ENDBRANCH  88  89
ENDBRANCH  62  83
ENDBRANCH  36  37
ENDBRANCH  28  31
ENDBRANCH  26  27
ENDBRANCH  25  26
ENDBRANCH  24  25
ENDBRANCH   3  24
TORSDOF 20
ENDMDL
MODEL 2
REMARK VINA RESULT:      -8.3      1.922      8.427
REMARK SMILES COCCCNC(=O)/C(C#N)=C/c1ccc(C(=O)NCCCNC(=O)c2ccc(-c3c4nc(c(-c5ccc(S(=O)(=O)[O-])cc5)c5ccc([nH]5)c(-c5ccc(S(=O)(=O)[O-])cc5)c5nc(c(-c6ccc(S(=O)(=O)[O-])cc6)c6ccc3[nH]6)C=C5)C=C4)cc2)cc1
REMARK SMILES IDX 17 1 18 2 19 3 16 5 13 6 14 7 87 8 15 9 86 10 12 11 9 12
REMARK SMILES IDX 7 13 6 14 8 16 5 17 4 18 3 19 2 20 1 21 10 22 11 23 20 24
REMARK SMILES IDX 21 25 22 26 23 27 24 28 25 30 26 31 27 32 85 33 28 34 84 35
REMARK SMILES IDX 29 36 30 37 31 38 78 39 32 40 83 41 77 42 79 43 33 44 82 45
REMARK SMILES IDX 76 46 75 47 34 49 64 50 45 51 63 52 46 53 49 54 62 55 80 56
REMARK SMILES IDX 47 57 48 58 61 60 81 61 50 62 35 63 36 64 44 65 37 66 43 67
REMARK SMILES IDX 38 68 39 69 40 70 41 71 42 72 65 73 66 74 74 75 67 76 73 77
REMARK SMILES IDX 68 78 69 79 70 80 71 81 72 82 51 83 52 84 60 85 53 86 59 87
REMARK SMILES IDX 54 88 55 89 56 90 57 91 58 92
REMARK H PARENT 19 4 6 15 23 29 79 48 49 59
REMARK Flexibility Score: inf
ROOT
ATOM      1  C   UNL A   1      38.876  34.393  29.641  1.00  0.00     0.251 C 
ATOM      2  O   UNL A   1      39.884  34.632  28.981  1.00  0.00    -0.269 OA
ATOM      3  N   UNL A   1      37.643  34.590  29.069  1.00  0.00    -0.352 N 
ATOM      4  H   UNL A   1      37.668  35.033  28.189  1.00  0.00     0.163 HD
ENDROOT
BRANCH   1   5
ATOM      5  C   UNL A   1      39.024  33.841  31.012  1.00  0.00     0.039 A 
ATOM      6  C   UNL A   1      39.132  32.749  33.589  1.00  0.00    -0.024 A 
ATOM      7  C   UNL A   1      38.547  32.024  32.546  1.00  0.00     0.009 A 
ATOM      8  C   UNL A   1      39.734  33.980  33.323  1.00  0.00     0.009 A 
ATOM      9  C   UNL A   1      38.492  32.570  31.263  1.00  0.00     0.014 A 
ATOM     10  C   UNL A   1      39.695  34.512  32.035  1.00  0.00     0.014 A 
BRANCH   6  11
ATOM     11  C   UNL A   1      39.084  32.227  34.952  1.00  0.00     0.033 C 
ATOM     12  C   UNL A   1      38.032  32.395  35.773  1.00  0.00     0.117 C 
BRANCH  12  13
ATOM     13  C   UNL A   1      38.074  31.742  37.130  1.00  0.00     0.261 C 
ATOM     14  N   UNL A   1      38.812  32.228  38.179  1.00  0.00    -0.351 N 
ATOM     15  H   UNL A   1      38.704  31.715  39.012  1.00  0.00     0.163 HD
ATOM     16  O   UNL A   1      37.408  30.726  37.351  1.00  0.00    -0.268 OA
BRANCH  14  17
ATOM     17  C   UNL A   1      39.726  33.361  38.295  1.00  0.00     0.118 C 
BRANCH  17  18
ATOM     18  C   UNL A   1      39.090  34.739  38.127  1.00  0.00     0.050 C 
BRANCH  18  19
ATOM     19  C   UNL A   1      39.584  35.601  36.972  1.00  0.00     0.161 C 
BRANCH  19  20
ATOM     20  O   UNL A   1      40.219  36.802  37.392  1.00  0.00    -0.385 OA
ATOM     21  C   UNL A   1      40.809  36.740  38.681  1.00  0.00     0.194 C 
ENDBRANCH  19  20
ENDBRANCH  18  19
ENDBRANCH  17  18
ENDBRANCH  14  17
ENDBRANCH  12  13
BRANCH  12  22
ATOM     22  C   UNL A   1      36.773  33.148  35.374  1.00  0.00     0.105 C 
ATOM     23  N   UNL A   1      35.729  33.772  35.043  1.00  0.00    -0.192 NA
ENDBRANCH  12  22
ENDBRANCH   6  11
ENDBRANCH   1   5
BRANCH   3  24
ATOM     24  C   UNL A   1      36.309  34.255  29.539  1.00  0.00     0.118 C 
BRANCH  24  25
ATOM     25  C   UNL A   1      35.701  33.096  28.748  1.00  0.00     0.042 C 
BRANCH  25  26
ATOM     26  C   UNL A   1      35.006  32.051  29.613  1.00  0.00     0.118 C 
BRANCH  26  27
ATOM     27  N   UNL A   1      34.452  30.965  28.824  1.00  0.00    -0.352 N 
ATOM     28  C   UNL A   1      35.080  29.925  28.185  1.00  0.00     0.251 C 
ATOM     29  H   UNL A   1      33.473  30.976  28.734  1.00  0.00     0.163 HD
ATOM     30  O   UNL A   1      34.426  29.228  27.413  1.00  0.00    -0.269 OA
BRANCH  28  31
ATOM     31  C   UNL A   1      36.520  29.642  28.396  1.00  0.00     0.039 A 
ATOM     32  C   UNL A   1      37.395  29.840  27.321  1.00  0.00     0.014 A 
ATOM     33  C   UNL A   1      37.011  29.126  29.599  1.00  0.00     0.014 A 
ATOM     34  C   UNL A   1      38.754  29.553  27.463  1.00  0.00     0.010 A 
ATOM     35  C   UNL A   1      38.381  28.907  29.763  1.00  0.00     0.010 A 
ATOM     36  C   UNL A   1      39.264  29.102  28.692  1.00  0.00    -0.014 A 
BRANCH  36  37
ATOM     37  C   UNL A   1      40.717  28.828  28.847  1.00  0.00     0.031 A 
ATOM     38  C   UNL A   1      41.294  27.491  28.465  1.00  0.00     0.074 A 
ATOM     39  C   UNL A   1      41.520  29.788  29.350  1.00  0.00     0.049 A 
ATOM     40  N   UNL A   1      42.542  27.096  28.486  1.00  0.00    -0.248 NA
ATOM     41  C   UNL A   1      40.347  26.456  28.021  1.00  0.00     0.031 C 
ATOM     42  C   UNL A   1      41.076  31.106  29.809  1.00  0.00     0.029 A 
ATOM     43  N   UNL A   1      42.876  29.807  29.549  1.00  0.00    -0.354 N 
ATOM     44  C   UNL A   1      42.530  25.769  28.070  1.00  0.00     0.074 A 
ATOM     45  C   UNL A   1      41.146  25.412  27.850  1.00  0.00     0.031 C 
ATOM     46  C   UNL A   1      42.145  31.819  30.198  1.00  0.00     0.029 A 
ATOM     47  C   UNL A   1      43.344  31.004  30.040  1.00  0.00     0.049 A 
ATOM     48  H   UNL A   1      43.461  29.037  29.357  1.00  0.00     0.167 HD
ATOM     49  C   UNL A   1      43.576  24.930  27.868  1.00  0.00     0.031 A 
ATOM     50  C   UNL A   1      44.598  31.406  30.319  1.00  0.00     0.031 A 
ATOM     51  C   UNL A   1      44.953  25.291  28.077  1.00  0.00     0.049 A 
ATOM     52  C   UNL A   1      45.744  30.470  30.054  1.00  0.00     0.074 A 
ATOM     53  C   UNL A   1      46.088  24.530  27.853  1.00  0.00     0.029 A 
ATOM     54  N   UNL A   1      45.386  26.517  28.558  1.00  0.00    -0.354 N 
ATOM     55  N   UNL A   1      45.716  29.241  29.595  1.00  0.00    -0.248 NA
ATOM     56  C   UNL A   1      47.094  30.985  30.323  1.00  0.00     0.031 C 
ATOM     57  C   UNL A   1      47.204  25.283  28.235  1.00  0.00     0.029 A 
ATOM     58  C   UNL A   1      46.768  26.531  28.651  1.00  0.00     0.049 A 
ATOM     59  H   UNL A   1      44.797  27.269  28.799  1.00  0.00     0.167 HD
ATOM     60  C   UNL A   1      47.045  28.844  29.499  1.00  0.00     0.074 A 
ATOM     61  C   UNL A   1      47.850  29.971  29.927  1.00  0.00     0.031 C 
ATOM     62  C   UNL A   1      47.554  27.654  29.092  1.00  0.00     0.031 A 
BRANCH  49  63
ATOM     63  C   UNL A   1      43.263  23.533  27.396  1.00  0.00    -0.014 A 
ATOM     64  C   UNL A   1      43.407  23.176  26.042  1.00  0.00     0.010 A 
ATOM     65  C   UNL A   1      42.853  22.556  28.320  1.00  0.00     0.010 A 
ATOM     66  C   UNL A   1      43.103  21.881  25.614  1.00  0.00     0.020 A 
ATOM     67  C   UNL A   1      42.574  21.251  27.900  1.00  0.00     0.020 A 
ATOM     68  C   UNL A   1      42.683  20.927  26.546  1.00  0.00     0.054 A 
BRANCH  68  69
ATOM     69  S   UNL A   1      42.310  19.248  25.967  1.00  0.00     0.124 S 
ATOM     70  O   UNL A   1      40.878  19.335  25.698  1.00  0.00    -0.237 OA
ATOM     71  O   UNL A   1      43.164  19.118  24.789  1.00  0.00    -0.237 OA
ATOM     72  O   UNL A   1      42.683  18.402  27.099  1.00  0.00    -0.744 OA
ENDBRANCH  68  69
ENDBRANCH  49  63
BRANCH  50  73
ATOM     73  C   UNL A   1      44.837  32.779  30.841  1.00  0.00    -0.014 A 
ATOM     74  C   UNL A   1      44.869  33.021  32.225  1.00  0.00     0.010 A 
ATOM     75  C   UNL A   1      45.056  33.847  29.952  1.00  0.00     0.010 A 
ATOM     76  C   UNL A   1      45.098  34.310  32.713  1.00  0.00     0.020 A 
ATOM     77  C   UNL A   1      45.311  35.133  30.437  1.00  0.00     0.020 A 
ATOM     78  C   UNL A   1      45.320  35.359  31.816  1.00  0.00     0.054 A 
BRANCH  78  79
ATOM     79  S   UNL A   1      45.675  37.015  32.469  1.00  0.00     0.124 S 
ATOM     80  O   UNL A   1      46.988  37.290  31.896  1.00  0.00    -0.237 OA
ATOM     81  O   UNL A   1      44.571  37.809  31.936  1.00  0.00    -0.237 OA
ATOM     82  O   UNL A   1      45.650  36.821  33.916  1.00  0.00    -0.744 OA
ENDBRANCH  78  79
ENDBRANCH  50  73
BRANCH  62  83
ATOM     83  C   UNL A   1      49.054  27.527  29.068  1.00  0.00    -0.014 A 
ATOM     84  C   UNL A   1      49.759  27.010  30.170  1.00  0.00     0.010 A 
ATOM     85  C   UNL A   1      49.765  27.925  27.922  1.00  0.00     0.010 A 
ATOM     86  C   UNL A   1      51.155  26.947  30.147  1.00  0.00     0.020 A 
ATOM     87  C   UNL A   1      51.160  27.838  27.885  1.00  0.00     0.020 A 
ATOM     88  C   UNL A   1      51.847  27.372  29.008  1.00  0.00     0.054 A 
BRANCH  88  89
ATOM     89  S   UNL A   1      53.658  27.282  28.999  1.00  0.00     0.124 S 
ATOM     90  O   UNL A   1      53.998  27.914  30.271  1.00  0.00    -0.237 OA
ATOM     91  O   UNL A   1      53.912  25.845  28.922  1.00  0.00    -0.237 OA
ATOM     92  O   UNL A   1      54.035  28.039  27.806  1.00  0.00    -0.744 OA
ENDBRANCH  88  89
ENDBRANCH  62  83
ENDBRANCH  36  37
ENDBRANCH  28  31
ENDBRANCH  26  27
ENDBRANCH  25  26
ENDBRANCH  24  25
ENDBRANCH   3  24
TORSDOF 20
ENDMDL
MODEL 3
REMARK VINA RESULT:      -8.1      3.620      9.763
REMARK SMILES COCCCNC(=O)/C(C#N)=C/c1ccc(C(=O)NCCCNC(=O)c2ccc(-c3c4nc(c(-c5ccc(S(=O)(=O)[O-])cc5)c5ccc([nH]5)c(-c5ccc(S(=O)(=O)[O-])cc5)c5nc(c(-c6ccc(S(=O)(=O)[O-])cc6)c6ccc3[nH]6)C=C5)C=C4)cc2)cc1
REMARK SMILES IDX 17 1 18 2 19 3 16 5 13 6 14 7 87 8 15 9 86 10 12 11 9 12
REMARK SMILES IDX 7 13 6 14 8 16 5 17 4 18 3 19 2 20 1 21 10 22 11 23 20 24
REMARK SMILES IDX 21 25 22 26 23 27 24 28 25 30 26 31 27 32 85 33 28 34 84 35
REMARK SMILES IDX 29 36 30 37 31 38 78 39 32 40 83 41 77 42 79 43 33 44 82 45
REMARK SMILES IDX 76 46 75 47 34 49 64 50 45 51 63 52 46 53 49 54 62 55 80 56
REMARK SMILES IDX 47 57 48 58 61 60 81 61 50 62 35 63 36 64 44 65 37 66 43 67
REMARK SMILES IDX 38 68 39 69 40 70 41 71 42 72 65 73 66 74 74 75 67 76 73 77
REMARK SMILES IDX 68 78 69 79 70 80 71 81 72 82 51 83 52 84 60 85 53 86 59 87
REMARK SMILES IDX 54 88 55 89 56 90 57 91 58 92
REMARK H PARENT 19 4 6 15 23 29 79 48 49 59
REMARK Flexibility Score: inf
ROOT
ATOM      1  C   UNL A   1      38.685  34.175  32.475  1.00  0.00     0.251 C 
ATOM      2  O   UNL A   1      38.696  34.945  33.433  1.00  0.00    -0.269 OA
ATOM      3  N   UNL A   1      37.782  33.142  32.463  1.00  0.00    -0.352 N 
ATOM      4  H   UNL A   1      37.282  33.027  33.303  1.00  0.00     0.163 HD
ENDROOT
BRANCH   1   5
ATOM      5  C   UNL A   1      39.606  34.426  31.337  1.00  0.00     0.039 A 
ATOM      6  C   UNL A   1      41.436  35.007  29.298  1.00  0.00    -0.024 A 
ATOM      7  C   UNL A   1      41.895  34.690  30.580  1.00  0.00     0.009 A 
ATOM      8  C   UNL A   1      40.070  34.952  29.019  1.00  0.00     0.009 A 
ATOM      9  C   UNL A   1      40.982  34.402  31.596  1.00  0.00     0.014 A 
ATOM     10  C   UNL A   1      39.162  34.644  30.032  1.00  0.00     0.014 A 
BRANCH   6  11
ATOM     11  C   UNL A   1      42.386  35.421  28.269  1.00  0.00     0.033 C 
ATOM     12  C   UNL A   1      43.203  36.482  28.398  1.00  0.00     0.117 C 
BRANCH  12  13
ATOM     13  C   UNL A   1      44.192  36.760  27.296  1.00  0.00     0.261 C 
ATOM     14  N   UNL A   1      44.266  37.958  26.634  1.00  0.00    -0.351 N 
ATOM     15  H   UNL A   1      44.990  38.001  25.968  1.00  0.00     0.163 HD
ATOM     16  O   UNL A   1      45.005  35.894  26.959  1.00  0.00    -0.268 OA
BRANCH  14  17
ATOM     17  C   UNL A   1      43.475  39.182  26.726  1.00  0.00     0.118 C 
BRANCH  17  18
ATOM     18  C   UNL A   1      44.122  40.429  26.128  1.00  0.00     0.050 C 
BRANCH  18  19
ATOM     19  C   UNL A   1      43.203  41.429  25.435  1.00  0.00     0.161 C 
BRANCH  19  20
ATOM     20  O   UNL A   1      43.668  41.832  24.153  1.00  0.00    -0.385 OA
ATOM     21  C   UNL A   1      43.021  42.979  23.622  1.00  0.00     0.194 C 
ENDBRANCH  19  20
ENDBRANCH  18  19
ENDBRANCH  17  18
ENDBRANCH  14  17
ENDBRANCH  12  13
BRANCH  12  22
ATOM     22  C   UNL A   1      43.230  37.370  29.631  1.00  0.00     0.105 C 
ATOM     23  N   UNL A   1      43.252  38.107  30.654  1.00  0.00    -0.192 NA
ENDBRANCH  12  22
ENDBRANCH   6  11
ENDBRANCH   1   5
BRANCH   3  24
ATOM     24  C   UNL A   1      37.439  32.188  31.420  1.00  0.00     0.118 C 
BRANCH  24  25
ATOM     25  C   UNL A   1      35.964  32.280  31.029  1.00  0.00     0.042 C 
BRANCH  25  26
ATOM     26  C   UNL A   1      35.723  32.343  29.525  1.00  0.00     0.118 C 
BRANCH  26  27
ATOM     27  N   UNL A   1      35.038  31.163  29.028  1.00  0.00    -0.352 N 
ATOM     28  C   UNL A   1      35.543  29.978  28.559  1.00  0.00     0.251 C 
ATOM     29  H   UNL A   1      34.055  31.224  29.028  1.00  0.00     0.163 HD
ATOM     30  O   UNL A   1      34.778  29.188  28.008  1.00  0.00    -0.269 OA
BRANCH  28  31
ATOM     31  C   UNL A   1      36.982  29.643  28.689  1.00  0.00     0.039 A 
ATOM     32  C   UNL A   1      37.824  29.918  27.605  1.00  0.00     0.014 A 
ATOM     33  C   UNL A   1      37.500  29.007  29.821  1.00  0.00     0.014 A 
ATOM     34  C   UNL A   1      39.179  29.587  27.670  1.00  0.00     0.010 A 
ATOM     35  C   UNL A   1      38.869  28.742  29.913  1.00  0.00     0.010 A 
ATOM     36  C   UNL A   1      39.719  29.013  28.833  1.00  0.00    -0.014 A 
BRANCH  36  37
ATOM     37  C   UNL A   1      41.169  28.693  28.908  1.00  0.00     0.031 A 
ATOM     38  C   UNL A   1      41.680  27.339  28.495  1.00  0.00     0.074 A 
ATOM     39  C   UNL A   1      42.028  29.626  29.366  1.00  0.00     0.049 A 
ATOM     40  N   UNL A   1      42.915  26.904  28.448  1.00  0.00    -0.248 NA
ATOM     41  C   UNL A   1      40.678  26.335  28.103  1.00  0.00     0.031 C 
ATOM     42  C   UNL A   1      41.653  30.957  29.849  1.00  0.00     0.029 A 
ATOM     43  N   UNL A   1      43.394  29.600  29.491  1.00  0.00    -0.354 N 
ATOM     44  C   UNL A   1      42.837  25.578  28.033  1.00  0.00     0.074 A 
ATOM     45  C   UNL A   1      41.432  25.266  27.890  1.00  0.00     0.031 C 
ATOM     46  C   UNL A   1      42.764  31.634  30.178  1.00  0.00     0.029 A 
ATOM     47  C   UNL A   1      43.926  30.781  29.955  1.00  0.00     0.049 A 
ATOM     48  H   UNL A   1      43.942  28.813  29.267  1.00  0.00     0.167 HD
ATOM     49  C   UNL A   1      43.842  24.706  27.774  1.00  0.00     0.031 A 
ATOM     50  C   UNL A   1      45.206  31.141  30.165  1.00  0.00     0.031 A 
ATOM     51  C   UNL A   1      45.240  25.022  27.908  1.00  0.00     0.049 A 
ATOM     52  C   UNL A   1      46.305  30.170  29.838  1.00  0.00     0.074 A 
ATOM     53  C   UNL A   1      46.336  24.225  27.622  1.00  0.00     0.029 A 
ATOM     54  N   UNL A   1      45.737  26.233  28.364  1.00  0.00    -0.354 N 
ATOM     55  N   UNL A   1      46.212  28.943  29.381  1.00  0.00    -0.248 NA
ATOM     56  C   UNL A   1      47.683  30.640  30.033  1.00  0.00     0.031 C 
ATOM     57  C   UNL A   1      47.495  24.941  27.943  1.00  0.00     0.029 A 
ATOM     58  C   UNL A   1      47.123  26.202  28.381  1.00  0.00     0.049 A 
ATOM     59  H   UNL A   1      45.187  27.003  28.637  1.00  0.00     0.167 HD
ATOM     60  C   UNL A   1      47.520  28.503  29.213  1.00  0.00     0.074 A 
ATOM     61  C   UNL A   1      48.383  29.603  29.596  1.00  0.00     0.031 C 
ATOM     62  C   UNL A   1      47.967  27.299  28.778  1.00  0.00     0.031 A 
BRANCH  49  63
ATOM     63  C   UNL A   1      43.459  23.321  27.320  1.00  0.00    -0.014 A 
ATOM     64  C   UNL A   1      42.942  22.378  28.228  1.00  0.00     0.010 A 
ATOM     65  C   UNL A   1      43.583  22.967  25.965  1.00  0.00     0.010 A 
ATOM     66  C   UNL A   1      42.601  21.093  27.798  1.00  0.00     0.020 A 
ATOM     67  C   UNL A   1      43.217  21.690  25.525  1.00  0.00     0.020 A 
ATOM     68  C   UNL A   1      42.746  20.755  26.449  1.00  0.00     0.054 A 
BRANCH  68  69
ATOM     69  S   UNL A   1      42.280  19.085  25.914  1.00  0.00     0.124 S 
ATOM     70  O   UNL A   1      43.075  18.927  24.699  1.00  0.00    -0.237 OA
ATOM     71  O   UNL A   1      42.692  18.259  27.046  1.00  0.00    -0.237 OA
ATOM     72  O   UNL A   1      40.836  19.178  25.708  1.00  0.00    -0.744 OA
ENDBRANCH  68  69
ENDBRANCH  49  63
BRANCH  50  73
ATOM     73  C   UNL A   1      45.517  32.505  30.673  1.00  0.00    -0.014 A 
ATOM     74  C   UNL A   1      45.670  33.581  29.781  1.00  0.00     0.010 A 
ATOM     75  C   UNL A   1      45.639  32.737  32.055  1.00  0.00     0.010 A 
ATOM     76  C   UNL A   1      45.957  34.862  30.260  1.00  0.00     0.020 A 
ATOM     77  C   UNL A   1      45.901  34.022  32.539  1.00  0.00     0.020 A 
ATOM     78  C   UNL A   1      46.070  35.075  31.637  1.00  0.00     0.054 A 
BRANCH  78  79
ATOM     79  S   UNL A   1      46.383  36.757  32.243  1.00  0.00     0.124 S 
ATOM     80  O   UNL A   1      47.620  36.581  32.996  1.00  0.00    -0.237 OA
ATOM     81  O   UNL A   1      46.497  37.524  31.005  1.00  0.00    -0.237 OA
ATOM     82  O   UNL A   1      45.198  37.056  33.043  1.00  0.00    -0.744 OA
ENDBRANCH  78  79
ENDBRANCH  50  73
BRANCH  62  83
ATOM     83  C   UNL A   1      49.459  27.124  28.672  1.00  0.00    -0.014 A 
ATOM     84  C   UNL A   1      50.146  27.431  27.484  1.00  0.00     0.010 A 
ATOM     85  C   UNL A   1      50.182  26.650  29.781  1.00  0.00     0.010 A 
ATOM     86  C   UNL A   1      51.523  27.215  27.389  1.00  0.00     0.020 A 
ATOM     87  C   UNL A   1      51.564  26.458  29.699  1.00  0.00     0.020 A 
ATOM     88  C   UNL A   1      52.222  26.719  28.495  1.00  0.00     0.054 A 
BRANCH  88  89
ATOM     89  S   UNL A   1      54.008  26.445  28.351  1.00  0.00     0.124 S 
ATOM     90  O   UNL A   1      54.348  25.961  29.687  1.00  0.00    -0.237 OA
ATOM     91  O   UNL A   1      54.100  25.454  27.282  1.00  0.00    -0.237 OA
ATOM     92  O   UNL A   1      54.535  27.766  28.015  1.00  0.00    -0.744 OA
ENDBRANCH  88  89
ENDBRANCH  62  83
ENDBRANCH  36  37
ENDBRANCH  28  31
ENDBRANCH  26  27
ENDBRANCH  25  26
ENDBRANCH  24  25
ENDBRANCH   3  24
TORSDOF 20
ENDMDL
