MODEL 1
REMARK VINA RESULT:     -11.4      0.000      0.000
REMARK SMILES CN(C)c1ccc(CCC(=O)N2C[C@@H](C(=O)NCCCNC(=O)c3ccc(-c4c5nc(c(-c6ccc(S(=O)(=O)[O-])cc6)c6ccc([nH]6)c(-c6ccc(S(=O)(=O)[O-])cc6)c6nc(c(-c7ccc(S(=O)(=O)[O-])cc7)c7ccc4[nH]7)C=C6)C=C5)cc3)[C@H](c3cccnc3)C2)cc1
REMARK SMILES IDX 18 1 17 2 15 3 16 4 14 6 12 7 13 8 91 9 84 10 10 11 11 12
REMARK SMILES IDX 9 13 8 14 7 15 4 16 5 17 93 18 6 19 92 20 2 21 1 22 3 23
REMARK SMILES IDX 85 24 86 25 90 26 87 27 89 28 88 29 19 30 20 31 21 32 22 33
REMARK SMILES IDX 23 35 24 36 25 37 83 38 26 39 82 40 27 41 28 42 29 43 76 44
REMARK SMILES IDX 30 45 81 46 75 47 77 48 31 49 80 50 74 51 73 52 32 54 62 55
REMARK SMILES IDX 43 56 61 57 44 58 47 59 60 60 78 61 45 62 46 63 59 65 79 66
REMARK SMILES IDX 48 67 33 68 34 69 42 70 35 71 41 72 36 73 37 74 38 75 39 76
REMARK SMILES IDX 40 77 63 78 64 79 72 80 65 81 71 82 66 83 67 84 68 85 69 86
REMARK SMILES IDX 70 87 49 88 50 89 58 90 51 91 57 92 52 93 53 94 54 95 55 96
REMARK SMILES IDX 56 97
REMARK H PARENT 17 5 21 34 77 53 47 64
REMARK Flexibility Score: inf
ROOT
ATOM      1  C   UNL A   1      32.853  26.869  26.843  1.00  0.00     0.117 C 
ENDROOT
BRANCH   1   2
ATOM      2  N   UNL A   1      31.617  26.112  26.843  1.00  0.00    -0.356 N 
ATOM      3  C   UNL A   1      30.725  25.867  25.850  1.00  0.00     0.225 C 
ATOM      4  O   UNL A   1      29.545  25.682  26.157  1.00  0.00    -0.275 OA
ATOM      5  H   UNL A   1      31.385  25.707  27.710  1.00  0.00     0.163 HD
BRANCH   3   6
ATOM      6  C   UNL A   1      31.138  25.710  24.410  1.00  0.00     0.107 C 
ATOM      7  N   UNL A   1      32.791  24.681  23.129  1.00  0.00    -0.341 N 
ATOM      8  C   UNL A   1      32.084  24.560  24.352  1.00  0.00     0.133 C 
ATOM      9  C   UNL A   1      32.761  26.068  22.654  1.00  0.00     0.128 C 
ATOM     10  C   UNL A   1      31.789  26.843  23.612  1.00  0.00     0.054 C 
BRANCH   7  11
ATOM     11  C   UNL A   1      33.509  23.634  22.595  1.00  0.00     0.222 C 
ATOM     12  O   UNL A   1      33.057  22.938  21.684  1.00  0.00    -0.275 OA
BRANCH  11  13
ATOM     13  C   UNL A   1      34.847  23.259  23.284  1.00  0.00     0.105 C 
BRANCH  13  14
ATOM     14  C   UNL A   1      34.858  22.580  24.674  1.00  0.00     0.045 C 
BRANCH  14  15
ATOM     15  C   UNL A   1      34.789  21.059  24.754  1.00  0.00    -0.047 A 
ATOM     16  C   UNL A   1      34.669  18.206  24.541  1.00  0.00     0.036 A 
ATOM     17  C   UNL A   1      33.516  18.995  24.450  1.00  0.00     0.026 A 
ATOM     18  C   UNL A   1      35.872  18.863  24.823  1.00  0.00     0.026 A 
ATOM     19  C   UNL A   1      33.569  20.397  24.556  1.00  0.00     0.006 A 
ATOM     20  C   UNL A   1      35.930  20.265  24.957  1.00  0.00     0.006 A 
BRANCH  16  21
ATOM     21  N   UNL A   1      34.569  16.819  24.410  1.00  0.00    -0.378 N 
ATOM     22  C   UNL A   1      33.235  16.339  24.074  1.00  0.00     0.143 C 
ATOM     23  C   UNL A   1      35.338  15.958  25.308  1.00  0.00     0.143 C 
ENDBRANCH  16  21
ENDBRANCH  14  15
ENDBRANCH  13  14
ENDBRANCH  11  13
ENDBRANCH   7  11
BRANCH  10  24
ATOM     24  C   UNL A   1      30.639  27.676  23.065  1.00  0.00    -0.024 A 
ATOM     25  C   UNL A   1      30.933  28.875  22.384  1.00  0.00     0.007 A 
ATOM     26  C   UNL A   1      29.295  27.429  23.306  1.00  0.00     0.115 A 
ATOM     27  C   UNL A   1      29.938  29.794  22.083  1.00  0.00     0.020 A 
ATOM     28  N   UNL A   1      28.296  28.293  22.999  1.00  0.00    -0.264 NA
ATOM     29  C   UNL A   1      28.642  29.463  22.417  1.00  0.00     0.111 A 
ENDBRANCH  10  24
ENDBRANCH   3   6
ENDBRANCH   1   2
BRANCH   1  30
ATOM     30  C   UNL A   1      32.539  28.362  26.777  1.00  0.00     0.042 C 
BRANCH  30  31
ATOM     31  C   UNL A   1      33.740  29.207  26.352  1.00  0.00     0.118 C 
BRANCH  31  32
ATOM     32  N   UNL A   1      33.543  30.611  26.669  1.00  0.00    -0.352 N 
ATOM     33  C   UNL A   1      34.195  31.384  27.598  1.00  0.00     0.251 C 
ATOM     34  H   UNL A   1      32.847  31.071  26.146  1.00  0.00     0.163 HD
ATOM     35  O   UNL A   1      33.716  32.466  27.922  1.00  0.00    -0.269 OA
BRANCH  33  36
ATOM     36  C   UNL A   1      35.465  30.919  28.206  1.00  0.00     0.039 A 
ATOM     37  C   UNL A   1      35.444  29.785  29.022  1.00  0.00     0.014 A 
ATOM     38  C   UNL A   1      36.657  31.629  28.031  1.00  0.00     0.014 A 
ATOM     39  C   UNL A   1      36.619  29.353  29.644  1.00  0.00     0.010 A 
ATOM     40  C   UNL A   1      37.841  31.158  28.598  1.00  0.00     0.010 A 
ATOM     41  C   UNL A   1      37.831  30.029  29.432  1.00  0.00    -0.014 A 
BRANCH  41  42
ATOM     42  C   UNL A   1      39.081  29.601  30.116  1.00  0.00     0.031 A 
ATOM     43  C   UNL A   1      39.521  30.293  31.381  1.00  0.00     0.074 A 
ATOM     44  C   UNL A   1      39.837  28.617  29.591  1.00  0.00     0.049 A 
ATOM     45  N   UNL A   1      40.598  30.097  32.098  1.00  0.00    -0.248 NA
ATOM     46  C   UNL A   1      38.645  31.359  31.896  1.00  0.00     0.031 C 
ATOM     47  C   UNL A   1      39.537  27.881  28.362  1.00  0.00     0.029 A 
ATOM     48  N   UNL A   1      41.016  28.066  30.028  1.00  0.00    -0.354 N 
ATOM     49  C   UNL A   1      40.537  31.021  33.136  1.00  0.00     0.074 A 
ATOM     50  C   UNL A   1      39.343  31.812  32.927  1.00  0.00     0.031 C 
ATOM     51  C   UNL A   1      40.493  26.958  28.158  1.00  0.00     0.029 A 
ATOM     52  C   UNL A   1      41.490  27.061  29.219  1.00  0.00     0.049 A 
ATOM     53  H   UNL A   1      41.479  28.364  30.844  1.00  0.00     0.167 HD
ATOM     54  C   UNL A   1      41.383  31.186  34.181  1.00  0.00     0.031 A 
ATOM     55  C   UNL A   1      42.602  26.306  29.318  1.00  0.00     0.031 A 
ATOM     56  C   UNL A   1      42.562  30.391  34.400  1.00  0.00     0.049 A 
ATOM     57  C   UNL A   1      43.532  26.514  30.484  1.00  0.00     0.074 A 
ATOM     58  C   UNL A   1      43.464  30.458  35.447  1.00  0.00     0.029 A 
ATOM     59  N   UNL A   1      42.999  29.376  33.562  1.00  0.00    -0.354 N 
ATOM     60  N   UNL A   1      43.435  27.368  31.475  1.00  0.00    -0.248 NA
ATOM     61  C   UNL A   1      44.715  25.643  30.552  1.00  0.00     0.031 C 
ATOM     62  C   UNL A   1      44.469  29.511  35.222  1.00  0.00     0.029 A 
ATOM     63  C   UNL A   1      44.162  28.817  34.063  1.00  0.00     0.049 A 
ATOM     64  H   UNL A   1      42.548  29.095  32.733  1.00  0.00     0.167 HD
ATOM     65  C   UNL A   1      44.523  27.111  32.303  1.00  0.00     0.074 A 
ATOM     66  C   UNL A   1      45.258  26.017  31.702  1.00  0.00     0.031 C 
ATOM     67  C   UNL A   1      44.877  27.721  33.461  1.00  0.00     0.031 A 
BRANCH  54  68
ATOM     68  C   UNL A   1      41.061  32.275  35.172  1.00  0.00    -0.014 A 
ATOM     69  C   UNL A   1      40.199  32.033  36.258  1.00  0.00     0.010 A 
ATOM     70  C   UNL A   1      41.655  33.543  35.039  1.00  0.00     0.010 A 
ATOM     71  C   UNL A   1      39.904  33.052  37.168  1.00  0.00     0.020 A 
ATOM     72  C   UNL A   1      41.384  34.557  35.963  1.00  0.00     0.020 A 
ATOM     73  C   UNL A   1      40.495  34.310  37.011  1.00  0.00     0.054 A 
BRANCH  73  74
ATOM     74  S   UNL A   1      40.106  35.608  38.217  1.00  0.00     0.124 S 
ATOM     75  O   UNL A   1      41.361  35.718  38.955  1.00  0.00    -0.237 OA
ATOM     76  O   UNL A   1      39.775  36.749  37.366  1.00  0.00    -0.237 OA
ATOM     77  O   UNL A   1      38.985  35.055  38.973  1.00  0.00    -0.744 OA
ENDBRANCH  73  74
ENDBRANCH  54  68
BRANCH  55  78
ATOM     78  C   UNL A   1      42.890  25.263  28.295  1.00  0.00    -0.014 A 
ATOM     79  C   UNL A   1      42.379  23.961  28.443  1.00  0.00     0.010 A 
ATOM     80  C   UNL A   1      43.682  25.564  27.173  1.00  0.00     0.010 A 
ATOM     81  C   UNL A   1      42.675  22.973  27.500  1.00  0.00     0.020 A 
ATOM     82  C   UNL A   1      43.957  24.586  26.213  1.00  0.00     0.020 A 
ATOM     83  C   UNL A   1      43.465  23.292  26.391  1.00  0.00     0.054 A 
BRANCH  83  84
ATOM     84  S   UNL A   1      43.807  22.003  25.162  1.00  0.00     0.124 S 
ATOM     85  O   UNL A   1      43.595  22.717  23.907  1.00  0.00    -0.237 OA
ATOM     86  O   UNL A   1      45.191  21.641  25.459  1.00  0.00    -0.237 OA
ATOM     87  O   UNL A   1      42.823  20.968  25.469  1.00  0.00    -0.744 OA
ENDBRANCH  83  84
ENDBRANCH  55  78
BRANCH  67  88
ATOM     88  C   UNL A   1      46.082  27.188  34.188  1.00  0.00    -0.014 A 
ATOM     89  C   UNL A   1      47.366  27.715  33.965  1.00  0.00     0.010 A 
ATOM     90  C   UNL A   1      45.914  26.171  35.147  1.00  0.00     0.010 A 
ATOM     91  C   UNL A   1      48.467  27.211  34.666  1.00  0.00     0.020 A 
ATOM     92  C   UNL A   1      47.008  25.685  35.868  1.00  0.00     0.020 A 
ATOM     93  C   UNL A   1      48.280  26.197  35.611  1.00  0.00     0.054 A 
BRANCH  93  94
ATOM     94  S   UNL A   1      49.717  25.586  36.535  1.00  0.00     0.124 S 
ATOM     95  O   UNL A   1      50.511  24.961  35.483  1.00  0.00    -0.237 OA
ATOM     96  O   UNL A   1      50.278  26.811  37.103  1.00  0.00    -0.237 OA
ATOM     97  O   UNL A   1      49.136  24.665  37.509  1.00  0.00    -0.744 OA
ENDBRANCH  93  94
ENDBRANCH  67  88
ENDBRANCH  41  42
ENDBRANCH  33  36
ENDBRANCH  31  32
ENDBRANCH  30  31
ENDBRANCH   1  30
TORSDOF 19
ENDMDL
MODEL 2
REMARK VINA RESULT:     -11.4      4.790      6.005
REMARK SMILES CN(C)c1ccc(CCC(=O)N2C[C@@H](C(=O)NCCCNC(=O)c3ccc(-c4c5nc(c(-c6ccc(S(=O)(=O)[O-])cc6)c6ccc([nH]6)c(-c6ccc(S(=O)(=O)[O-])cc6)c6nc(c(-c7ccc(S(=O)(=O)[O-])cc7)c7ccc4[nH]7)C=C6)C=C5)cc3)[C@H](c3cccnc3)C2)cc1
REMARK SMILES IDX 18 1 17 2 15 3 16 4 14 6 12 7 13 8 91 9 84 10 10 11 11 12
REMARK SMILES IDX 9 13 8 14 7 15 4 16 5 17 93 18 6 19 92 20 2 21 1 22 3 23
REMARK SMILES IDX 85 24 86 25 90 26 87 27 89 28 88 29 19 30 20 31 21 32 22 33
REMARK SMILES IDX 23 35 24 36 25 37 83 38 26 39 82 40 27 41 28 42 29 43 76 44
REMARK SMILES IDX 30 45 81 46 75 47 77 48 31 49 80 50 74 51 73 52 32 54 62 55
REMARK SMILES IDX 43 56 61 57 44 58 47 59 60 60 78 61 45 62 46 63 59 65 79 66
REMARK SMILES IDX 48 67 33 68 34 69 42 70 35 71 41 72 36 73 37 74 38 75 39 76
REMARK SMILES IDX 40 77 63 78 64 79 72 80 65 81 71 82 66 83 67 84 68 85 69 86
REMARK SMILES IDX 70 87 49 88 50 89 58 90 51 91 57 92 52 93 53 94 54 95 55 96
REMARK SMILES IDX 56 97
REMARK H PARENT 17 5 21 34 77 53 47 64
REMARK Flexibility Score: inf
ROOT
ATOM      1  C   UNL A   1      33.507  29.075  26.279  1.00  0.00     0.117 C 
ENDROOT
BRANCH   1   2
ATOM      2  N   UNL A   1      32.630  28.104  26.903  1.00  0.00    -0.356 N 
ATOM      3  C   UNL A   1      31.687  27.286  26.369  1.00  0.00     0.225 C 
ATOM      4  O   UNL A   1      30.732  26.957  27.075  1.00  0.00    -0.275 OA
ATOM      5  H   UNL A   1      32.735  28.024  27.878  1.00  0.00     0.163 HD
BRANCH   3   6
ATOM      6  C   UNL A   1      31.820  26.687  24.993  1.00  0.00     0.107 C 
ATOM      7  N   UNL A   1      33.373  25.542  23.685  1.00  0.00    -0.341 N 
ATOM      8  C   UNL A   1      32.986  25.760  25.032  1.00  0.00     0.133 C 
ATOM      9  C   UNL A   1      32.906  26.641  22.833  1.00  0.00     0.128 C 
ATOM     10  C   UNL A   1      31.993  27.544  23.735  1.00  0.00     0.054 C 
BRANCH   7  11
ATOM     11  C   UNL A   1      34.199  24.502  23.323  1.00  0.00     0.222 C 
ATOM     12  O   UNL A   1      34.019  23.864  22.286  1.00  0.00    -0.275 OA
BRANCH  11  13
ATOM     13  C   UNL A   1      35.278  24.057  24.346  1.00  0.00     0.105 C 
BRANCH  13  14
ATOM     14  C   UNL A   1      34.908  23.142  25.538  1.00  0.00     0.045 C 
BRANCH  14  15
ATOM     15  C   UNL A   1      34.309  21.769  25.256  1.00  0.00    -0.047 A 
ATOM     16  C   UNL A   1      33.167  19.292  24.381  1.00  0.00     0.036 A 
ATOM     17  C   UNL A   1      32.366  20.402  24.680  1.00  0.00     0.026 A 
ATOM     18  C   UNL A   1      34.542  19.419  24.608  1.00  0.00     0.026 A 
ATOM     19  C   UNL A   1      32.922  21.620  25.112  1.00  0.00     0.006 A 
ATOM     20  C   UNL A   1      35.105  20.627  25.066  1.00  0.00     0.006 A 
BRANCH  16  21
ATOM     21  N   UNL A   1      32.572  18.110  23.936  1.00  0.00    -0.378 N 
ATOM     22  C   UNL A   1      33.001  16.914  24.648  1.00  0.00     0.143 C 
ATOM     23  C   UNL A   1      32.313  17.932  22.507  1.00  0.00     0.143 C 
ENDBRANCH  16  21
ENDBRANCH  14  15
ENDBRANCH  13  14
ENDBRANCH  11  13
ENDBRANCH   7  11
BRANCH  10  24
ATOM     24  C   UNL A   1      30.586  27.928  23.301  1.00  0.00    -0.024 A 
ATOM     25  C   UNL A   1      30.356  29.235  22.823  1.00  0.00     0.007 A 
ATOM     26  C   UNL A   1      29.459  27.137  23.471  1.00  0.00     0.115 A 
ATOM     27  C   UNL A   1      29.068  29.720  22.648  1.00  0.00     0.020 A 
ATOM     28  N   UNL A   1      28.189  27.573  23.282  1.00  0.00    -0.264 NA
ATOM     29  C   UNL A   1      28.022  28.859  22.898  1.00  0.00     0.111 A 
ENDBRANCH  10  24
ENDBRANCH   3   6
ENDBRANCH   1   2
BRANCH   1  30
ATOM     30  C   UNL A   1      33.882  30.153  27.294  1.00  0.00     0.042 C 
BRANCH  30  31
ATOM     31  C   UNL A   1      35.251  29.923  27.934  1.00  0.00     0.118 C 
BRANCH  31  32
ATOM     32  N   UNL A   1      35.348  30.566  29.232  1.00  0.00    -0.352 N 
ATOM     33  C   UNL A   1      36.382  30.534  30.135  1.00  0.00     0.251 C 
ATOM     34  H   UNL A   1      34.564  31.098  29.502  1.00  0.00     0.163 HD
ATOM     35  O   UNL A   1      36.185  30.902  31.288  1.00  0.00    -0.269 OA
BRANCH  33  36
ATOM     36  C   UNL A   1      37.726  30.060  29.724  1.00  0.00     0.039 A 
ATOM     37  C   UNL A   1      38.656  29.736  30.714  1.00  0.00     0.014 A 
ATOM     38  C   UNL A   1      38.093  29.996  28.376  1.00  0.00     0.014 A 
ATOM     39  C   UNL A   1      39.945  29.329  30.353  1.00  0.00     0.010 A 
ATOM     40  C   UNL A   1      39.356  29.527  28.016  1.00  0.00     0.010 A 
ATOM     41  C   UNL A   1      40.305  29.212  29.001  1.00  0.00    -0.014 A 
BRANCH  41  42
ATOM     42  C   UNL A   1      41.683  28.816  28.604  1.00  0.00     0.031 A 
ATOM     43  C   UNL A   1      42.785  29.845  28.581  1.00  0.00     0.074 A 
ATOM     44  C   UNL A   1      41.942  27.547  28.235  1.00  0.00     0.049 A 
ATOM     45  N   UNL A   1      44.036  29.708  28.222  1.00  0.00    -0.248 NA
ATOM     46  C   UNL A   1      42.428  31.212  28.997  1.00  0.00     0.031 C 
ATOM     47  C   UNL A   1      40.963  26.459  28.191  1.00  0.00     0.029 A 
ATOM     48  N   UNL A   1      43.112  26.957  27.825  1.00  0.00    -0.354 N 
ATOM     49  C   UNL A   1      44.609  30.968  28.354  1.00  0.00     0.074 A 
ATOM     50  C   UNL A   1      43.557  31.868  28.777  1.00  0.00     0.031 C 
ATOM     51  C   UNL A   1      41.578  25.329  27.803  1.00  0.00     0.029 A 
ATOM     52  C   UNL A   1      42.984  25.618  27.535  1.00  0.00     0.049 A 
ATOM     53  H   UNL A   1      43.962  27.446  27.745  1.00  0.00     0.167 HD
ATOM     54  C   UNL A   1      45.897  31.343  28.162  1.00  0.00     0.031 A 
ATOM     55  C   UNL A   1      43.895  24.724  27.102  1.00  0.00     0.031 A 
ATOM     56  C   UNL A   1      46.947  30.448  27.757  1.00  0.00     0.049 A 
ATOM     57  C   UNL A   1      45.318  25.166  26.888  1.00  0.00     0.074 A 
ATOM     58  C   UNL A   1      48.290  30.725  27.570  1.00  0.00     0.029 A 
ATOM     59  N   UNL A   1      46.776  29.099  27.485  1.00  0.00    -0.354 N 
ATOM     60  N   UNL A   1      45.847  26.354  27.056  1.00  0.00    -0.248 NA
ATOM     61  C   UNL A   1      46.270  24.140  26.440  1.00  0.00     0.031 C 
ATOM     62  C   UNL A   1      48.925  29.552  27.146  1.00  0.00     0.029 A 
ATOM     63  C   UNL A   1      47.987  28.533  27.123  1.00  0.00     0.049 A 
ATOM     64  H   UNL A   1      45.921  28.615  27.542  1.00  0.00     0.167 HD
ATOM     65  C   UNL A   1      47.201  26.209  26.771  1.00  0.00     0.074 A 
ATOM     66  C   UNL A   1      47.410  24.817  26.430  1.00  0.00     0.031 C 
ATOM     67  C   UNL A   1      48.183  27.143  26.797  1.00  0.00     0.031 A 
BRANCH  54  68
ATOM     68  C   UNL A   1      46.241  32.793  28.390  1.00  0.00    -0.014 A 
ATOM     69  C   UNL A   1      46.286  33.704  27.319  1.00  0.00     0.010 A 
ATOM     70  C   UNL A   1      46.485  33.258  29.695  1.00  0.00     0.010 A 
ATOM     71  C   UNL A   1      46.611  35.044  27.543  1.00  0.00     0.020 A 
ATOM     72  C   UNL A   1      46.783  34.604  29.927  1.00  0.00     0.020 A 
ATOM     73  C   UNL A   1      46.863  35.485  28.846  1.00  0.00     0.054 A 
BRANCH  73  74
ATOM     74  S   UNL A   1      47.266  37.234  29.109  1.00  0.00     0.124 S 
ATOM     75  O   UNL A   1      48.374  37.147  30.056  1.00  0.00    -0.237 OA
ATOM     76  O   UNL A   1      47.621  37.688  27.767  1.00  0.00    -0.237 OA
ATOM     77  O   UNL A   1      46.030  37.798  29.647  1.00  0.00    -0.744 OA
ENDBRANCH  73  74
ENDBRANCH  54  68
BRANCH  55  78
ATOM     78  C   UNL A   1      43.496  23.309  26.864  1.00  0.00    -0.014 A 
ATOM     79  C   UNL A   1      43.267  22.442  27.946  1.00  0.00     0.010 A 
ATOM     80  C   UNL A   1      43.351  22.821  25.552  1.00  0.00     0.010 A 
ATOM     81  C   UNL A   1      42.924  21.105  27.723  1.00  0.00     0.020 A 
ATOM     82  C   UNL A   1      42.981  21.492  25.326  1.00  0.00     0.020 A 
ATOM     83  C   UNL A   1      42.785  20.638  26.413  1.00  0.00     0.054 A 
BRANCH  83  84
ATOM     84  S   UNL A   1      42.305  18.909  26.147  1.00  0.00     0.124 S 
ATOM     85  O   UNL A   1      42.477  18.339  27.479  1.00  0.00    -0.237 OA
ATOM     86  O   UNL A   1      40.926  19.031  25.683  1.00  0.00    -0.237 OA
ATOM     87  O   UNL A   1      43.253  18.444  25.137  1.00  0.00    -0.744 OA
ENDBRANCH  83  84
ENDBRANCH  55  78
BRANCH  67  88
ATOM     88  C   UNL A   1      49.586  26.685  26.501  1.00  0.00    -0.014 A 
ATOM     89  C   UNL A   1      50.425  26.188  27.514  1.00  0.00     0.010 A 
ATOM     90  C   UNL A   1      50.052  26.709  25.173  1.00  0.00     0.010 A 
ATOM     91  C   UNL A   1      51.719  25.754  27.208  1.00  0.00     0.020 A 
ATOM     92  C   UNL A   1      51.335  26.250  24.861  1.00  0.00     0.020 A 
ATOM     93  C   UNL A   1      52.166  25.791  25.884  1.00  0.00     0.054 A 
BRANCH  93  94
ATOM     94  S   UNL A   1      53.834  25.186  25.505  1.00  0.00     0.124 S 
ATOM     95  O   UNL A   1      53.555  24.062  24.617  1.00  0.00    -0.237 OA
ATOM     96  O   UNL A   1      54.460  26.346  24.874  1.00  0.00    -0.237 OA
ATOM     97  O   UNL A   1      54.378  24.829  26.813  1.00  0.00    -0.744 OA
ENDBRANCH  93  94
ENDBRANCH  67  88
ENDBRANCH  41  42
ENDBRANCH  33  36
ENDBRANCH  31  32
ENDBRANCH  30  31
ENDBRANCH   1  30
TORSDOF 19
ENDMDL
MODEL 3
REMARK VINA RESULT:     -10.9      1.726      2.639
REMARK SMILES CN(C)c1ccc(CCC(=O)N2C[C@@H](C(=O)NCCCNC(=O)c3ccc(-c4c5nc(c(-c6ccc(S(=O)(=O)[O-])cc6)c6ccc([nH]6)c(-c6ccc(S(=O)(=O)[O-])cc6)c6nc(c(-c7ccc(S(=O)(=O)[O-])cc7)c7ccc4[nH]7)C=C6)C=C5)cc3)[C@H](c3cccnc3)C2)cc1
REMARK SMILES IDX 18 1 17 2 15 3 16 4 14 6 12 7 13 8 91 9 84 10 10 11 11 12
REMARK SMILES IDX 9 13 8 14 7 15 4 16 5 17 93 18 6 19 92 20 2 21 1 22 3 23
REMARK SMILES IDX 85 24 86 25 90 26 87 27 89 28 88 29 19 30 20 31 21 32 22 33
REMARK SMILES IDX 23 35 24 36 25 37 83 38 26 39 82 40 27 41 28 42 29 43 76 44
REMARK SMILES IDX 30 45 81 46 75 47 77 48 31 49 80 50 74 51 73 52 32 54 62 55
REMARK SMILES IDX 43 56 61 57 44 58 47 59 60 60 78 61 45 62 46 63 59 65 79 66
REMARK SMILES IDX 48 67 33 68 34 69 42 70 35 71 41 72 36 73 37 74 38 75 39 76
REMARK SMILES IDX 40 77 63 78 64 79 72 80 65 81 71 82 66 83 67 84 68 85 69 86
REMARK SMILES IDX 70 87 49 88 50 89 58 90 51 91 57 92 52 93 53 94 54 95 55 96
REMARK SMILES IDX 56 97
REMARK H PARENT 17 5 21 34 77 53 47 64
REMARK Flexibility Score: inf
ROOT
ATOM      1  C   UNL A   1      32.083  27.263  27.336  1.00  0.00     0.117 C 
ENDROOT
BRANCH   1   2
ATOM      2  N   UNL A   1      30.884  26.734  26.719  1.00  0.00    -0.356 N 
ATOM      3  C   UNL A   1      30.704  26.076  25.545  1.00  0.00     0.225 C 
ATOM      4  O   UNL A   1      29.617  26.187  24.974  1.00  0.00    -0.275 OA
ATOM      5  H   UNL A   1      30.060  26.874  27.239  1.00  0.00     0.163 HD
BRANCH   3   6
ATOM      6  C   UNL A   1      31.738  25.142  24.974  1.00  0.00     0.107 C 
ATOM      7  N   UNL A   1      32.675  23.047  25.387  1.00  0.00    -0.341 N 
ATOM      8  C   UNL A   1      31.486  23.798  25.567  1.00  0.00     0.133 C 
ATOM      9  C   UNL A   1      33.824  23.941  25.209  1.00  0.00     0.128 C 
ATOM     10  C   UNL A   1      33.242  25.396  25.108  1.00  0.00     0.054 C 
BRANCH   7  11
ATOM     11  C   UNL A   1      32.700  21.677  25.521  1.00  0.00     0.222 C 
ATOM     12  O   UNL A   1      31.667  21.006  25.488  1.00  0.00    -0.275 OA
BRANCH  11  13
ATOM     13  C   UNL A   1      34.060  21.017  25.869  1.00  0.00     0.105 C 
BRANCH  13  14
ATOM     14  C   UNL A   1      35.047  20.603  24.751  1.00  0.00     0.045 C 
BRANCH  14  15
ATOM     15  C   UNL A   1      36.545  20.662  25.030  1.00  0.00    -0.047 A 
ATOM     16  C   UNL A   1      39.272  20.725  25.903  1.00  0.00     0.036 A 
ATOM     17  C   UNL A   1      38.470  21.873  25.924  1.00  0.00     0.026 A 
ATOM     18  C   UNL A   1      38.710  19.564  25.359  1.00  0.00     0.026 A 
ATOM     19  C   UNL A   1      37.131  21.847  25.495  1.00  0.00     0.006 A 
ATOM     20  C   UNL A   1      37.377  19.536  24.902  1.00  0.00     0.006 A 
BRANCH  16  21
ATOM     21  N   UNL A   1      40.590  20.795  26.357  1.00  0.00    -0.378 N 
ATOM     22  C   UNL A   1      41.408  19.638  26.017  1.00  0.00     0.143 C 
ATOM     23  C   UNL A   1      40.868  21.398  27.661  1.00  0.00     0.143 C 
ENDBRANCH  16  21
ENDBRANCH  14  15
ENDBRANCH  13  14
ENDBRANCH  11  13
ENDBRANCH   7  11
BRANCH  10  24
ATOM     24  C   UNL A   1      33.610  26.315  23.953  1.00  0.00    -0.024 A 
ATOM     25  C   UNL A   1      33.913  27.664  24.229  1.00  0.00     0.007 A 
ATOM     26  C   UNL A   1      33.535  25.972  22.611  1.00  0.00     0.115 A 
ATOM     27  C   UNL A   1      34.011  28.602  23.210  1.00  0.00     0.020 A 
ATOM     28  N   UNL A   1      33.654  26.858  21.592  1.00  0.00    -0.264 NA
ATOM     29  C   UNL A   1      33.866  28.154  21.915  1.00  0.00     0.111 A 
ENDBRANCH  10  24
ENDBRANCH   3   6
ENDBRANCH   1   2
BRANCH   1  30
ATOM     30  C   UNL A   1      32.076  28.788  27.247  1.00  0.00     0.042 C 
BRANCH  30  31
ATOM     31  C   UNL A   1      33.475  29.399  27.319  1.00  0.00     0.118 C 
BRANCH  31  32
ATOM     32  N   UNL A   1      33.424  30.850  27.322  1.00  0.00    -0.352 N 
ATOM     33  C   UNL A   1      34.227  31.739  27.994  1.00  0.00     0.251 C 
ATOM     34  H   UNL A   1      32.718  31.251  26.766  1.00  0.00     0.163 HD
ATOM     35  O   UNL A   1      33.871  32.908  28.100  1.00  0.00    -0.269 OA
BRANCH  33  36
ATOM     36  C   UNL A   1      35.511  31.295  28.588  1.00  0.00     0.039 A 
ATOM     37  C   UNL A   1      35.508  30.191  29.444  1.00  0.00     0.014 A 
ATOM     38  C   UNL A   1      36.699  31.996  28.358  1.00  0.00     0.014 A 
ATOM     39  C   UNL A   1      36.698  29.779  30.053  1.00  0.00     0.010 A 
ATOM     40  C   UNL A   1      37.896  31.543  28.913  1.00  0.00     0.010 A 
ATOM     41  C   UNL A   1      37.905  30.445  29.787  1.00  0.00    -0.014 A 
BRANCH  41  42
ATOM     42  C   UNL A   1      39.171  30.040  30.456  1.00  0.00     0.031 A 
ATOM     43  C   UNL A   1      39.571  30.681  31.760  1.00  0.00     0.074 A 
ATOM     44  C   UNL A   1      39.975  29.123  29.884  1.00  0.00     0.049 A 
ATOM     45  N   UNL A   1      40.653  30.498  32.473  1.00  0.00    -0.248 NA
ATOM     46  C   UNL A   1      38.643  31.675  32.326  1.00  0.00     0.031 C 
ATOM     47  C   UNL A   1      39.716  28.442  28.614  1.00  0.00     0.029 A 
ATOM     48  N   UNL A   1      41.177  28.606  30.298  1.00  0.00    -0.354 N 
ATOM     49  C   UNL A   1      40.544  31.359  33.559  1.00  0.00     0.074 A 
ATOM     50  C   UNL A   1      39.314  32.103  33.385  1.00  0.00     0.031 C 
ATOM     51  C   UNL A   1      40.716  27.578  28.366  1.00  0.00     0.029 A 
ATOM     52  C   UNL A   1      41.702  27.670  29.439  1.00  0.00     0.049 A 
ATOM     53  H   UNL A   1      41.622  28.879  31.133  1.00  0.00     0.167 HD
ATOM     54  C   UNL A   1      41.377  31.507  34.617  1.00  0.00     0.031 A 
ATOM     55  C   UNL A   1      42.849  26.964  29.504  1.00  0.00     0.031 A 
ATOM     56  C   UNL A   1      42.591  30.757  34.801  1.00  0.00     0.049 A 
ATOM     57  C   UNL A   1      43.763  27.151  30.687  1.00  0.00     0.074 A 
ATOM     58  C   UNL A   1      43.484  30.810  35.857  1.00  0.00     0.029 A 
ATOM     59  N   UNL A   1      43.079  29.812  33.912  1.00  0.00    -0.354 N 
ATOM     60  N   UNL A   1      43.620  27.944  31.722  1.00  0.00    -0.248 NA
ATOM     61  C   UNL A   1      44.985  26.335  30.715  1.00  0.00     0.031 C 
ATOM     62  C   UNL A   1      44.534  29.925  35.588  1.00  0.00     0.029 A 
ATOM     63  C   UNL A   1      44.265  29.282  34.391  1.00  0.00     0.049 A 
ATOM     64  H   UNL A   1      42.646  29.556  33.066  1.00  0.00     0.167 HD
ATOM     65  C   UNL A   1      44.715  27.694  32.543  1.00  0.00     0.074 A 
ATOM     66  C   UNL A   1      45.505  26.671  31.888  1.00  0.00     0.031 C 
ATOM     67  C   UNL A   1      45.034  28.255  33.734  1.00  0.00     0.031 A 
BRANCH  54  68
ATOM     68  C   UNL A   1      40.998  32.523  35.664  1.00  0.00    -0.014 A 
ATOM     69  C   UNL A   1      41.657  33.763  35.742  1.00  0.00     0.010 A 
ATOM     70  C   UNL A   1      39.946  32.250  36.557  1.00  0.00     0.010 A 
ATOM     71  C   UNL A   1      41.300  34.695  36.720  1.00  0.00     0.020 A 
ATOM     72  C   UNL A   1      39.567  33.191  37.520  1.00  0.00     0.020 A 
ATOM     73  C   UNL A   1      40.259  34.401  37.607  1.00  0.00     0.054 A 
BRANCH  73  74
ATOM     74  S   UNL A   1      39.807  35.636  38.856  1.00  0.00     0.124 S 
ATOM     75  O   UNL A   1      38.823  34.909  39.653  1.00  0.00    -0.237 OA
ATOM     76  O   UNL A   1      41.080  35.903  39.520  1.00  0.00    -0.237 OA
ATOM     77  O   UNL A   1      39.275  36.746  38.069  1.00  0.00    -0.744 OA
ENDBRANCH  73  74
ENDBRANCH  54  68
BRANCH  55  78
ATOM     78  C   UNL A   1      43.191  25.993  28.428  1.00  0.00    -0.014 A 
ATOM     79  C   UNL A   1      42.997  24.615  28.626  1.00  0.00     0.010 A 
ATOM     80  C   UNL A   1      43.718  26.443  27.204  1.00  0.00     0.010 A 
ATOM     81  C   UNL A   1      43.348  23.700  27.628  1.00  0.00     0.020 A 
ATOM     82  C   UNL A   1      44.043  25.533  26.193  1.00  0.00     0.020 A 
ATOM     83  C   UNL A   1      43.870  24.166  26.418  1.00  0.00     0.054 A 
BRANCH  83  84
ATOM     84  S   UNL A   1      44.285  22.964  25.124  1.00  0.00     0.124 S 
ATOM     85  O   UNL A   1      44.995  21.938  25.881  1.00  0.00    -0.237 OA
ATOM     86  O   UNL A   1      42.971  22.581  24.615  1.00  0.00    -0.237 OA
ATOM     87  O   UNL A   1      45.104  23.736  24.192  1.00  0.00    -0.744 OA
ENDBRANCH  83  84
ENDBRANCH  55  78
BRANCH  67  88
ATOM     88  C   UNL A   1      46.261  27.741  34.439  1.00  0.00    -0.014 A 
ATOM     89  C   UNL A   1      46.192  26.664  35.340  1.00  0.00     0.010 A 
ATOM     90  C   UNL A   1      47.512  28.319  34.155  1.00  0.00     0.010 A 
ATOM     91  C   UNL A   1      47.350  26.195  35.969  1.00  0.00     0.020 A 
ATOM     92  C   UNL A   1      48.674  27.836  34.761  1.00  0.00     0.020 A 
ATOM     93  C   UNL A   1      48.583  26.787  35.677  1.00  0.00     0.054 A 
BRANCH  93  94
ATOM     94  S   UNL A   1      50.077  26.137  36.476  1.00  0.00     0.124 S 
ATOM     95  O   UNL A   1      50.525  27.285  37.259  1.00  0.00    -0.237 OA
ATOM     96  O   UNL A   1      49.563  25.010  37.251  1.00  0.00    -0.237 OA
ATOM     97  O   UNL A   1      50.939  25.773  35.354  1.00  0.00    -0.744 OA
ENDBRANCH  93  94
ENDBRANCH  67  88
ENDBRANCH  41  42
ENDBRANCH  33  36
ENDBRANCH  31  32
ENDBRANCH  30  31
ENDBRANCH   1  30
TORSDOF 19
ENDMDL
