MODEL 1
REMARK VINA RESULT:     -11.7      0.000      0.000
REMARK SMILES C[C@H](NC(=O)c1cccc(NC(=O)c2ccccc2C(=O)NCCCNC(=O)c2ccc(-c3c4nc(c(-c5ccc(S(=O)(=O)[O-])cc5)c5ccc([nH]5)c(-c5ccc(S(=O)(=O)[O-])cc5)c5nc(c(-c6ccc(S(=O)(=O)[O-])cc6)c6ccc3[nH]6)C=C5)C=C4)cc2)c1)c1ccccc1
REMARK SMILES IDX 23 1 22 2 20 3 21 4 19 6 14 7 15 8 16 9 18 10 17 11 12 12
REMARK SMILES IDX 11 13 13 15 10 16 6 17 7 18 89 19 8 20 9 21 4 22 3 23 5 25
REMARK SMILES IDX 2 26 1 27 90 28 91 29 95 30 92 31 94 32 93 33 24 34 25 35
REMARK SMILES IDX 26 36 27 37 28 39 29 40 30 41 88 42 31 43 87 44 32 45 33 46
REMARK SMILES IDX 34 47 81 48 35 49 86 50 80 51 82 52 36 53 85 54 79 55 78 56
REMARK SMILES IDX 37 58 67 59 48 60 66 61 49 62 52 63 65 64 83 65 50 66 51 67
REMARK SMILES IDX 64 69 84 70 53 71 38 72 39 73 47 74 40 75 46 76 41 77 42 78
REMARK SMILES IDX 43 79 44 80 45 81 68 82 69 83 77 84 70 85 76 86 71 87 72 88
REMARK SMILES IDX 73 89 74 90 75 91 54 92 55 93 63 94 56 95 62 96 57 97 58 98
REMARK SMILES IDX 59 99 60 100 61 101
REMARK H PARENT 22 5 11 14 3 24 26 38 82 57 52 68
REMARK Flexibility Score: inf
ROOT
ATOM      1  C   UNL A   1      37.123  22.202  24.205  1.00  0.00     0.118 C 
ENDROOT
BRANCH   1   2
ATOM      2  N   UNL A   1      36.473  23.465  24.494  1.00  0.00    -0.352 N 
ATOM      3  C   UNL A   1      35.165  23.851  24.420  1.00  0.00     0.252 C 
ATOM      4  O   UNL A   1      34.892  25.006  24.751  1.00  0.00    -0.269 OA
ATOM      5  H   UNL A   1      37.086  24.175  24.798  1.00  0.00     0.163 HD
BRANCH   3   6
ATOM      6  C   UNL A   1      34.083  22.993  23.882  1.00  0.00     0.052 A 
ATOM      7  C   UNL A   1      33.237  22.138  24.602  1.00  0.00     0.052 A 
ATOM      8  C   UNL A   1      32.295  21.355  23.902  1.00  0.00     0.014 A 
ATOM      9  C   UNL A   1      32.130  21.483  22.523  1.00  0.00     0.001 A 
ATOM     10  C   UNL A   1      33.876  23.137  22.493  1.00  0.00     0.014 A 
ATOM     11  C   UNL A   1      32.904  22.395  21.820  1.00  0.00     0.001 A 
BRANCH   7  12
ATOM     12  C   UNL A   1      33.237  21.926  26.064  1.00  0.00     0.256 C 
ATOM     13  N   UNL A   1      32.598  22.742  26.968  1.00  0.00    -0.322 N 
ATOM     14  H   UNL A   1      32.823  22.545  27.906  1.00  0.00     0.170 HD
ATOM     15  O   UNL A   1      33.902  20.982  26.495  1.00  0.00    -0.269 OA
BRANCH  13  16
ATOM     16  C   UNL A   1      31.691  23.797  26.818  1.00  0.00     0.042 A 
ATOM     17  C   UNL A   1      31.370  26.174  26.534  1.00  0.00     0.041 A 
ATOM     18  C   UNL A   1      29.995  25.974  26.372  1.00  0.00     0.014 A 
ATOM     19  C   UNL A   1      32.219  25.098  26.792  1.00  0.00     0.040 A 
ATOM     20  C   UNL A   1      29.466  24.691  26.462  1.00  0.00     0.003 A 
ATOM     21  C   UNL A   1      30.311  23.608  26.699  1.00  0.00     0.026 A 
BRANCH  17  22
ATOM     22  C   UNL A   1      31.845  27.563  26.493  1.00  0.00     0.251 C 
ATOM     23  N   UNL A   1      31.424  28.459  25.552  1.00  0.00    -0.346 N 
ATOM     24  H   UNL A   1      31.649  29.387  25.788  1.00  0.00     0.164 HD
ATOM     25  O   UNL A   1      32.568  27.947  27.410  1.00  0.00    -0.269 OA
BRANCH  23  26
ATOM     26  C   UNL A   1      30.710  28.359  24.264  1.00  0.00     0.109 C 
ATOM     27  C   UNL A   1      30.260  29.737  23.761  1.00  0.00     0.036 C 
BRANCH  26  28
ATOM     28  C   UNL A   1      31.561  27.598  23.220  1.00  0.00    -0.026 A 
ATOM     29  C   UNL A   1      32.954  27.801  23.116  1.00  0.00     0.006 A 
ATOM     30  C   UNL A   1      31.005  26.631  22.360  1.00  0.00     0.006 A 
ATOM     31  C   UNL A   1      33.720  27.161  22.133  1.00  0.00     0.000 A 
ATOM     32  C   UNL A   1      31.775  25.970  21.394  1.00  0.00     0.000 A 
ATOM     33  C   UNL A   1      33.128  26.251  21.265  1.00  0.00     0.000 A 
ENDBRANCH  26  28
ENDBRANCH  23  26
ENDBRANCH  17  22
ENDBRANCH  13  16
ENDBRANCH   7  12
ENDBRANCH   3   6
ENDBRANCH   1   2
BRANCH   1  34
ATOM     34  C   UNL A   1      37.501  21.417  25.451  1.00  0.00     0.042 C 
BRANCH  34  35
ATOM     35  C   UNL A   1      38.971  21.523  25.847  1.00  0.00     0.118 C 
BRANCH  35  36
ATOM     36  N   UNL A   1      39.684  20.251  25.880  1.00  0.00    -0.352 N 
ATOM     37  C   UNL A   1      41.010  19.954  26.110  1.00  0.00     0.251 C 
ATOM     38  H   UNL A   1      39.118  19.464  25.708  1.00  0.00     0.163 HD
ATOM     39  O   UNL A   1      41.391  18.790  25.999  1.00  0.00    -0.269 OA
BRANCH  37  40
ATOM     40  C   UNL A   1      41.977  21.031  26.416  1.00  0.00     0.039 A 
ATOM     41  C   UNL A   1      42.545  21.758  25.367  1.00  0.00     0.014 A 
ATOM     42  C   UNL A   1      42.277  21.370  27.733  1.00  0.00     0.014 A 
ATOM     43  C   UNL A   1      43.285  22.913  25.643  1.00  0.00     0.010 A 
ATOM     44  C   UNL A   1      42.902  22.582  28.003  1.00  0.00     0.010 A 
ATOM     45  C   UNL A   1      43.395  23.382  26.961  1.00  0.00    -0.014 A 
BRANCH  45  46
ATOM     46  C   UNL A   1      43.970  24.718  27.289  1.00  0.00     0.031 A 
ATOM     47  C   UNL A   1      43.065  25.850  27.702  1.00  0.00     0.074 A 
ATOM     48  C   UNL A   1      45.283  24.953  27.083  1.00  0.00     0.049 A 
ATOM     49  N   UNL A   1      43.340  27.123  27.830  1.00  0.00    -0.248 NA
ATOM     50  C   UNL A   1      41.654  25.513  27.956  1.00  0.00     0.031 C 
ATOM     51  C   UNL A   1      46.267  23.966  26.628  1.00  0.00     0.029 A 
ATOM     52  N   UNL A   1      46.018  26.108  27.208  1.00  0.00    -0.354 N 
ATOM     53  C   UNL A   1      42.132  27.742  28.131  1.00  0.00     0.074 A 
ATOM     54  C   UNL A   1      41.117  26.713  28.122  1.00  0.00     0.031 C 
ATOM     55  C   UNL A   1      47.474  24.548  26.542  1.00  0.00     0.029 A 
ATOM     56  C   UNL A   1      47.345  25.960  26.876  1.00  0.00     0.049 A 
ATOM     57  H   UNL A   1      45.629  26.962  27.509  1.00  0.00     0.167 HD
ATOM     58  C   UNL A   1      41.891  29.046  28.406  1.00  0.00     0.031 A 
ATOM     59  C   UNL A   1      48.346  26.861  26.824  1.00  0.00     0.031 A 
ATOM     60  C   UNL A   1      42.909  30.059  28.466  1.00  0.00     0.049 A 
ATOM     61  C   UNL A   1      48.060  28.298  27.158  1.00  0.00     0.074 A 
ATOM     62  C   UNL A   1      42.779  31.387  28.831  1.00  0.00     0.029 A 
ATOM     63  N   UNL A   1      44.245  29.857  28.158  1.00  0.00    -0.354 N 
ATOM     64  N   UNL A   1      46.921  28.850  27.502  1.00  0.00    -0.248 NA
ATOM     65  C   UNL A   1      49.191  29.235  27.092  1.00  0.00     0.031 C 
ATOM     66  C   UNL A   1      44.031  31.999  28.703  1.00  0.00     0.029 A 
ATOM     67  C   UNL A   1      44.947  31.041  28.299  1.00  0.00     0.049 A 
ATOM     68  H   UNL A   1      44.636  28.997  27.878  1.00  0.00     0.167 HD
ATOM     69  C   UNL A   1      47.201  30.196  27.702  1.00  0.00     0.074 A 
ATOM     70  C   UNL A   1      48.619  30.372  27.464  1.00  0.00     0.031 C 
ATOM     71  C   UNL A   1      46.357  31.199  28.050  1.00  0.00     0.031 A 
BRANCH  58  72
ATOM     72  C   UNL A   1      40.463  29.447  28.669  1.00  0.00    -0.014 A 
ATOM     73  C   UNL A   1      39.498  29.412  27.646  1.00  0.00     0.010 A 
ATOM     74  C   UNL A   1      40.075  29.842  29.962  1.00  0.00     0.010 A 
ATOM     75  C   UNL A   1      38.185  29.818  27.897  1.00  0.00     0.020 A 
ATOM     76  C   UNL A   1      38.755  30.222  30.225  1.00  0.00     0.020 A 
ATOM     77  C   UNL A   1      37.824  30.228  29.184  1.00  0.00     0.054 A 
BRANCH  77  78
ATOM     78  S   UNL A   1      36.112  30.745  29.484  1.00  0.00     0.124 S 
ATOM     79  O   UNL A   1      35.359  29.735  28.741  1.00  0.00    -0.237 OA
ATOM     80  O   UNL A   1      36.002  30.663  30.939  1.00  0.00    -0.237 OA
ATOM     81  O   UNL A   1      36.055  32.096  28.932  1.00  0.00    -0.744 OA
ENDBRANCH  77  78
ENDBRANCH  58  72
BRANCH  59  82
ATOM     82  C   UNL A   1      49.717  26.427  26.438  1.00  0.00    -0.014 A 
ATOM     83  C   UNL A   1      50.590  25.897  27.404  1.00  0.00     0.010 A 
ATOM     84  C   UNL A   1      50.149  26.520  25.102  1.00  0.00     0.010 A 
ATOM     85  C   UNL A   1      51.873  25.476  27.045  1.00  0.00     0.020 A 
ATOM     86  C   UNL A   1      51.424  26.078  24.735  1.00  0.00     0.020 A 
ATOM     87  C   UNL A   1      52.282  25.567  25.711  1.00  0.00     0.054 A 
BRANCH  87  88
ATOM     88  S   UNL A   1      53.930  24.959  25.257  1.00  0.00     0.124 S 
ATOM     89  O   UNL A   1      54.696  25.219  26.471  1.00  0.00    -0.237 OA
ATOM     90  O   UNL A   1      53.678  23.552  24.956  1.00  0.00    -0.237 OA
ATOM     91  O   UNL A   1      54.289  25.779  24.102  1.00  0.00    -0.744 OA
ENDBRANCH  87  88
ENDBRANCH  59  82
BRANCH  71  92
ATOM     92  C   UNL A   1      46.941  32.577  28.198  1.00  0.00    -0.014 A 
ATOM     93  C   UNL A   1      47.458  33.009  29.431  1.00  0.00     0.010 A 
ATOM     94  C   UNL A   1      47.042  33.417  27.074  1.00  0.00     0.010 A 
ATOM     95  C   UNL A   1      48.055  34.267  29.542  1.00  0.00     0.020 A 
ATOM     96  C   UNL A   1      47.658  34.666  27.176  1.00  0.00     0.020 A 
ATOM     97  C   UNL A   1      48.154  35.087  28.412  1.00  0.00     0.054 A 
BRANCH  97  98
ATOM     98  S   UNL A   1      48.994  36.688  28.567  1.00  0.00     0.124 S 
ATOM     99  O   UNL A   1      47.870  37.620  28.585  1.00  0.00    -0.237 OA
ATOM    100  O   UNL A   1      49.717  36.550  29.829  1.00  0.00    -0.237 OA
ATOM    101  O   UNL A   1      49.838  36.751  27.376  1.00  0.00    -0.744 OA
ENDBRANCH  97  98
ENDBRANCH  71  92
ENDBRANCH  45  46
ENDBRANCH  37  40
ENDBRANCH  35  36
ENDBRANCH  34  35
ENDBRANCH   1  34
TORSDOF 18
ENDMDL
MODEL 2
REMARK VINA RESULT:     -11.2      0.807      7.912
REMARK SMILES C[C@H](NC(=O)c1cccc(NC(=O)c2ccccc2C(=O)NCCCNC(=O)c2ccc(-c3c4nc(c(-c5ccc(S(=O)(=O)[O-])cc5)c5ccc([nH]5)c(-c5ccc(S(=O)(=O)[O-])cc5)c5nc(c(-c6ccc(S(=O)(=O)[O-])cc6)c6ccc3[nH]6)C=C5)C=C4)cc2)c1)c1ccccc1
REMARK SMILES IDX 23 1 22 2 20 3 21 4 19 6 14 7 15 8 16 9 18 10 17 11 12 12
REMARK SMILES IDX 11 13 13 15 10 16 6 17 7 18 89 19 8 20 9 21 4 22 3 23 5 25
REMARK SMILES IDX 2 26 1 27 90 28 91 29 95 30 92 31 94 32 93 33 24 34 25 35
REMARK SMILES IDX 26 36 27 37 28 39 29 40 30 41 88 42 31 43 87 44 32 45 33 46
REMARK SMILES IDX 34 47 81 48 35 49 86 50 80 51 82 52 36 53 85 54 79 55 78 56
REMARK SMILES IDX 37 58 67 59 48 60 66 61 49 62 52 63 65 64 83 65 50 66 51 67
REMARK SMILES IDX 64 69 84 70 53 71 38 72 39 73 47 74 40 75 46 76 41 77 42 78
REMARK SMILES IDX 43 79 44 80 45 81 68 82 69 83 77 84 70 85 76 86 71 87 72 88
REMARK SMILES IDX 73 89 74 90 75 91 54 92 55 93 63 94 56 95 62 96 57 97 58 98
REMARK SMILES IDX 59 99 60 100 61 101
REMARK H PARENT 22 5 11 14 3 24 26 38 82 57 52 68
REMARK Flexibility Score: inf
ROOT
ATOM      1  C   UNL A   1      37.338  21.603  24.340  1.00  0.00     0.118 C 
ENDROOT
BRANCH   1   2
ATOM      2  N   UNL A   1      36.891  22.832  24.969  1.00  0.00    -0.352 N 
ATOM      3  C   UNL A   1      35.688  23.478  24.943  1.00  0.00     0.252 C 
ATOM      4  O   UNL A   1      35.586  24.517  25.598  1.00  0.00    -0.269 OA
ATOM      5  H   UNL A   1      37.579  23.281  25.511  1.00  0.00     0.163 HD
BRANCH   3   6
ATOM      6  C   UNL A   1      34.542  23.053  24.106  1.00  0.00     0.052 A 
ATOM      7  C   UNL A   1      33.387  22.378  24.523  1.00  0.00     0.052 A 
ATOM      8  C   UNL A   1      32.423  22.008  23.562  1.00  0.00     0.014 A 
ATOM      9  C   UNL A   1      32.555  22.380  22.224  1.00  0.00     0.001 A 
ATOM     10  C   UNL A   1      34.640  23.454  22.755  1.00  0.00     0.014 A 
ATOM     11  C   UNL A   1      33.653  23.127  21.824  1.00  0.00     0.001 A 
BRANCH   7  12
ATOM     12  C   UNL A   1      33.062  21.962  25.903  1.00  0.00     0.256 C 
ATOM     13  N   UNL A   1      32.369  22.734  26.806  1.00  0.00    -0.322 N 
ATOM     14  H   UNL A   1      32.370  22.369  27.720  1.00  0.00     0.170 HD
ATOM     15  O   UNL A   1      33.491  20.868  26.276  1.00  0.00    -0.269 OA
BRANCH  13  16
ATOM     16  C   UNL A   1      31.661  23.936  26.680  1.00  0.00     0.042 A 
ATOM     17  C   UNL A   1      31.759  26.318  26.296  1.00  0.00     0.041 A 
ATOM     18  C   UNL A   1      30.362  26.375  26.270  1.00  0.00     0.014 A 
ATOM     19  C   UNL A   1      32.416  25.111  26.535  1.00  0.00     0.040 A 
ATOM     20  C   UNL A   1      29.616  25.221  26.478  1.00  0.00     0.003 A 
ATOM     21  C   UNL A   1      30.266  24.007  26.697  1.00  0.00     0.026 A 
BRANCH  17  22
ATOM     22  C   UNL A   1      32.476  27.589  26.136  1.00  0.00     0.251 C 
ATOM     23  N   UNL A   1      32.435  28.319  24.983  1.00  0.00    -0.346 N 
ATOM     24  H   UNL A   1      32.768  29.237  25.106  1.00  0.00     0.164 HD
ATOM     25  O   UNL A   1      33.046  28.052  27.123  1.00  0.00    -0.269 OA
BRANCH  23  26
ATOM     26  C   UNL A   1      32.004  28.054  23.596  1.00  0.00     0.109 C 
ATOM     27  C   UNL A   1      32.286  26.603  23.186  1.00  0.00     0.036 C 
BRANCH  26  28
ATOM     28  C   UNL A   1      30.522  28.448  23.396  1.00  0.00    -0.026 A 
ATOM     29  C   UNL A   1      29.509  27.472  23.283  1.00  0.00     0.006 A 
ATOM     30  C   UNL A   1      30.100  29.793  23.368  1.00  0.00     0.006 A 
ATOM     31  C   UNL A   1      28.174  27.821  23.041  1.00  0.00     0.000 A 
ATOM     32  C   UNL A   1      28.760  30.143  23.153  1.00  0.00     0.000 A 
ATOM     33  C   UNL A   1      27.801  29.157  22.966  1.00  0.00     0.000 A 
ENDBRANCH  26  28
ENDBRANCH  23  26
ENDBRANCH  17  22
ENDBRANCH  13  16
ENDBRANCH   7  12
ENDBRANCH   3   6
ENDBRANCH   1   2
BRANCH   1  34
ATOM     34  C   UNL A   1      37.886  20.585  25.327  1.00  0.00     0.042 C 
BRANCH  34  35
ATOM     35  C   UNL A   1      39.302  20.875  25.816  1.00  0.00     0.118 C 
BRANCH  35  36
ATOM     36  N   UNL A   1      40.162  19.699  25.918  1.00  0.00    -0.352 N 
ATOM     37  C   UNL A   1      41.516  19.576  26.140  1.00  0.00     0.251 C 
ATOM     38  H   UNL A   1      39.691  18.842  25.810  1.00  0.00     0.163 HD
ATOM     39  O   UNL A   1      42.031  18.460  26.100  1.00  0.00    -0.269 OA
BRANCH  37  40
ATOM     40  C   UNL A   1      42.353  20.777  26.356  1.00  0.00     0.039 A 
ATOM     41  C   UNL A   1      42.967  21.388  25.259  1.00  0.00     0.014 A 
ATOM     42  C   UNL A   1      42.482  21.342  27.622  1.00  0.00     0.014 A 
ATOM     43  C   UNL A   1      43.575  22.638  25.411  1.00  0.00     0.010 A 
ATOM     44  C   UNL A   1      42.972  22.637  27.748  1.00  0.00     0.010 A 
ATOM     45  C   UNL A   1      43.505  23.313  26.640  1.00  0.00    -0.014 A 
BRANCH  45  46
ATOM     46  C   UNL A   1      43.930  24.733  26.798  1.00  0.00     0.031 A 
ATOM     47  C   UNL A   1      45.376  25.114  26.613  1.00  0.00     0.074 A 
ATOM     48  C   UNL A   1      43.048  25.653  27.240  1.00  0.00     0.049 A 
ATOM     49  N   UNL A   1      45.977  26.240  26.900  1.00  0.00    -0.248 NA
ATOM     50  C   UNL A   1      46.274  24.074  26.080  1.00  0.00     0.031 C 
ATOM     51  C   UNL A   1      41.628  25.413  27.518  1.00  0.00     0.029 A 
ATOM     52  N   UNL A   1      43.220  26.979  27.558  1.00  0.00    -0.354 N 
ATOM     53  C   UNL A   1      47.325  26.029  26.630  1.00  0.00     0.074 A 
ATOM     54  C   UNL A   1      47.458  24.655  26.199  1.00  0.00     0.031 C 
ATOM     55  C   UNL A   1      41.057  26.554  27.934  1.00  0.00     0.029 A 
ATOM     56  C   UNL A   1      42.075  27.594  28.012  1.00  0.00     0.049 A 
ATOM     57  H   UNL A   1      44.083  27.446  27.470  1.00  0.00     0.167 HD
ATOM     58  C   UNL A   1      48.356  26.902  26.715  1.00  0.00     0.031 A 
ATOM     59  C   UNL A   1      41.866  28.848  28.460  1.00  0.00     0.031 A 
ATOM     60  C   UNL A   1      48.215  28.282  27.094  1.00  0.00     0.049 A 
ATOM     61  C   UNL A   1      43.021  29.808  28.524  1.00  0.00     0.074 A 
ATOM     62  C   UNL A   1      49.182  29.271  27.117  1.00  0.00     0.029 A 
ATOM     63  N   UNL A   1      47.030  28.870  27.509  1.00  0.00    -0.354 N 
ATOM     64  N   UNL A   1      44.276  29.605  28.203  1.00  0.00    -0.248 NA
ATOM     65  C   UNL A   1      42.733  31.163  29.014  1.00  0.00     0.031 C 
ATOM     66  C   UNL A   1      48.591  30.448  27.588  1.00  0.00     0.029 A 
ATOM     67  C   UNL A   1      47.247  30.202  27.816  1.00  0.00     0.049 A 
ATOM     68  H   UNL A   1      46.163  28.408  27.577  1.00  0.00     0.167 HD
ATOM     69  C   UNL A   1      44.926  30.809  28.444  1.00  0.00     0.074 A 
ATOM     70  C   UNL A   1      43.923  31.742  28.915  1.00  0.00     0.031 C 
ATOM     71  C   UNL A   1      46.238  31.114  28.291  1.00  0.00     0.031 A 
BRANCH  58  72
ATOM     72  C   UNL A   1      49.732  26.386  26.388  1.00  0.00    -0.014 A 
ATOM     73  C   UNL A   1      50.535  25.780  27.373  1.00  0.00     0.010 A 
ATOM     74  C   UNL A   1      50.222  26.486  25.073  1.00  0.00     0.010 A 
ATOM     75  C   UNL A   1      51.822  25.335  27.061  1.00  0.00     0.020 A 
ATOM     76  C   UNL A   1      51.499  26.017  24.751  1.00  0.00     0.020 A 
ATOM     77  C   UNL A   1      52.298  25.463  25.753  1.00  0.00     0.054 A 
BRANCH  77  78
ATOM     78  S   UNL A   1      53.971  24.873  25.375  1.00  0.00     0.124 S 
ATOM     79  O   UNL A   1      53.732  23.460  25.085  1.00  0.00    -0.237 OA
ATOM     80  O   UNL A   1      54.349  25.693  24.226  1.00  0.00    -0.237 OA
ATOM     81  O   UNL A   1      54.719  25.140  26.601  1.00  0.00    -0.744 OA
ENDBRANCH  77  78
ENDBRANCH  58  72
BRANCH  59  82
ATOM     82  C   UNL A   1      40.503  29.267  28.887  1.00  0.00    -0.014 A 
ATOM     83  C   UNL A   1      40.232  29.523  30.242  1.00  0.00     0.010 A 
ATOM     84  C   UNL A   1      39.474  29.432  27.940  1.00  0.00     0.010 A 
ATOM     85  C   UNL A   1      38.957  29.927  30.646  1.00  0.00     0.020 A 
ATOM     86  C   UNL A   1      38.204  29.859  28.338  1.00  0.00     0.020 A 
ATOM     87  C   UNL A   1      37.950  30.095  29.691  1.00  0.00     0.054 A 
BRANCH  87  88
ATOM     88  S   UNL A   1      36.319  30.680  30.230  1.00  0.00     0.124 S 
ATOM     89  O   UNL A   1      35.590  30.752  28.969  1.00  0.00    -0.237 OA
ATOM     90  O   UNL A   1      35.892  29.628  31.149  1.00  0.00    -0.237 OA
ATOM     91  O   UNL A   1      36.610  31.966  30.861  1.00  0.00    -0.744 OA
ENDBRANCH  87  88
ENDBRANCH  59  82
BRANCH  71  92
ATOM     92  C   UNL A   1      46.668  32.514  28.633  1.00  0.00    -0.014 A 
ATOM     93  C   UNL A   1      46.637  33.532  27.663  1.00  0.00     0.010 A 
ATOM     94  C   UNL A   1      47.034  32.830  29.954  1.00  0.00     0.010 A 
ATOM     95  C   UNL A   1      46.979  34.842  28.007  1.00  0.00     0.020 A 
ATOM     96  C   UNL A   1      47.355  34.142  30.305  1.00  0.00     0.020 A 
ATOM     97  C   UNL A   1      47.333  35.139  29.327  1.00  0.00     0.054 A 
BRANCH  97  98
ATOM     98  S   UNL A   1      47.707  36.861  29.763  1.00  0.00     0.124 S 
ATOM     99  O   UNL A   1      46.856  37.070  30.930  1.00  0.00    -0.237 OA
ATOM    100  O   UNL A   1      49.143  36.820  30.030  1.00  0.00    -0.237 OA
ATOM    101  O   UNL A   1      47.323  37.610  28.568  1.00  0.00    -0.744 OA
ENDBRANCH  97  98
ENDBRANCH  71  92
ENDBRANCH  45  46
ENDBRANCH  37  40
ENDBRANCH  35  36
ENDBRANCH  34  35
ENDBRANCH   1  34
TORSDOF 18
ENDMDL
MODEL 3
REMARK VINA RESULT:     -11.0      6.329     12.029
REMARK SMILES C[C@H](NC(=O)c1cccc(NC(=O)c2ccccc2C(=O)NCCCNC(=O)c2ccc(-c3c4nc(c(-c5ccc(S(=O)(=O)[O-])cc5)c5ccc([nH]5)c(-c5ccc(S(=O)(=O)[O-])cc5)c5nc(c(-c6ccc(S(=O)(=O)[O-])cc6)c6ccc3[nH]6)C=C5)C=C4)cc2)c1)c1ccccc1
REMARK SMILES IDX 23 1 22 2 20 3 21 4 19 6 14 7 15 8 16 9 18 10 17 11 12 12
REMARK SMILES IDX 11 13 13 15 10 16 6 17 7 18 89 19 8 20 9 21 4 22 3 23 5 25
REMARK SMILES IDX 2 26 1 27 90 28 91 29 95 30 92 31 94 32 93 33 24 34 25 35
REMARK SMILES IDX 26 36 27 37 28 39 29 40 30 41 88 42 31 43 87 44 32 45 33 46
REMARK SMILES IDX 34 47 81 48 35 49 86 50 80 51 82 52 36 53 85 54 79 55 78 56
REMARK SMILES IDX 37 58 67 59 48 60 66 61 49 62 52 63 65 64 83 65 50 66 51 67
REMARK SMILES IDX 64 69 84 70 53 71 38 72 39 73 47 74 40 75 46 76 41 77 42 78
REMARK SMILES IDX 43 79 44 80 45 81 68 82 69 83 77 84 70 85 76 86 71 87 72 88
REMARK SMILES IDX 73 89 74 90 75 91 54 92 55 93 63 94 56 95 62 96 57 97 58 98
REMARK SMILES IDX 59 99 60 100 61 101
REMARK H PARENT 22 5 11 14 3 24 26 38 82 57 52 68
REMARK Flexibility Score: inf
ROOT
ATOM      1  C   UNL A   1      38.234  33.216  37.093  1.00  0.00     0.118 C 
ENDROOT
BRANCH   1   2
ATOM      2  N   UNL A   1      37.052  33.301  36.257  1.00  0.00    -0.352 N 
ATOM      3  C   UNL A   1      36.878  33.131  34.913  1.00  0.00     0.252 C 
ATOM      4  O   UNL A   1      35.735  33.250  34.467  1.00  0.00    -0.269 OA
ATOM      5  H   UNL A   1      36.226  33.522  36.746  1.00  0.00     0.163 HD
BRANCH   3   6
ATOM      6  C   UNL A   1      37.990  32.907  33.960  1.00  0.00     0.052 A 
ATOM      7  C   UNL A   1      38.638  31.697  33.677  1.00  0.00     0.052 A 
ATOM      8  C   UNL A   1      39.720  31.692  32.772  1.00  0.00     0.014 A 
ATOM      9  C   UNL A   1      40.096  32.848  32.088  1.00  0.00     0.001 A 
ATOM     10  C   UNL A   1      38.360  34.059  33.230  1.00  0.00     0.014 A 
ATOM     11  C   UNL A   1      39.398  34.029  32.299  1.00  0.00     0.001 A 
BRANCH   7  12
ATOM     12  C   UNL A   1      38.330  30.376  34.264  1.00  0.00     0.256 C 
ATOM     13  N   UNL A   1      37.987  29.262  33.535  1.00  0.00    -0.322 N 
ATOM     14  H   UNL A   1      37.670  28.511  34.087  1.00  0.00     0.170 HD
ATOM     15  O   UNL A   1      38.332  30.293  35.494  1.00  0.00    -0.269 OA
BRANCH  13  16
ATOM     16  C   UNL A   1      38.000  28.985  32.163  1.00  0.00     0.042 A 
ATOM     17  C   UNL A   1      37.065  29.459  29.987  1.00  0.00     0.041 A 
ATOM     18  C   UNL A   1      38.020  28.628  29.391  1.00  0.00     0.014 A 
ATOM     19  C   UNL A   1      37.025  29.615  31.373  1.00  0.00     0.040 A 
ATOM     20  C   UNL A   1      38.944  27.954  30.182  1.00  0.00     0.003 A 
ATOM     21  C   UNL A   1      38.923  28.122  31.566  1.00  0.00     0.026 A 
BRANCH  17  22
ATOM     22  C   UNL A   1      36.081  30.082  29.093  1.00  0.00     0.251 C 
ATOM     23  N   UNL A   1      35.927  31.435  28.994  1.00  0.00    -0.346 N 
ATOM     24  H   UNL A   1      35.403  31.698  28.204  1.00  0.00     0.164 HD
ATOM     25  O   UNL A   1      35.451  29.347  28.334  1.00  0.00    -0.269 OA
BRANCH  23  26
ATOM     26  C   UNL A   1      36.366  32.596  29.794  1.00  0.00     0.109 C 
ATOM     27  C   UNL A   1      37.655  33.210  29.236  1.00  0.00     0.036 C 
BRANCH  26  28
ATOM     28  C   UNL A   1      35.226  33.633  29.928  1.00  0.00    -0.026 A 
ATOM     29  C   UNL A   1      34.918  34.234  31.167  1.00  0.00     0.006 A 
ATOM     30  C   UNL A   1      34.475  34.070  28.819  1.00  0.00     0.006 A 
ATOM     31  C   UNL A   1      33.849  35.128  31.307  1.00  0.00     0.000 A 
ATOM     32  C   UNL A   1      33.422  34.984  28.952  1.00  0.00     0.000 A 
ATOM     33  C   UNL A   1      33.094  35.496  30.200  1.00  0.00     0.000 A 
ENDBRANCH  26  28
ENDBRANCH  23  26
ENDBRANCH  17  22
ENDBRANCH  13  16
ENDBRANCH   7  12
ENDBRANCH   3   6
ENDBRANCH   1   2
BRANCH   1  34
ATOM     34  C   UNL A   1      38.004  33.701  38.515  1.00  0.00     0.042 C 
BRANCH  34  35
ATOM     35  C   UNL A   1      39.240  34.284  39.194  1.00  0.00     0.118 C 
BRANCH  35  36
ATOM     36  N   UNL A   1      39.223  35.736  39.343  1.00  0.00    -0.352 N 
ATOM     37  C   UNL A   1      39.818  36.735  38.604  1.00  0.00     0.251 C 
ATOM     38  H   UNL A   1      38.693  36.059  40.106  1.00  0.00     0.163 HD
ATOM     39  O   UNL A   1      39.722  37.900  38.985  1.00  0.00    -0.269 OA
BRANCH  37  40
ATOM     40  C   UNL A   1      40.620  36.405  37.405  1.00  0.00     0.039 A 
ATOM     41  C   UNL A   1      41.998  36.211  37.537  1.00  0.00     0.014 A 
ATOM     42  C   UNL A   1      40.013  36.222  36.165  1.00  0.00     0.014 A 
ATOM     43  C   UNL A   1      42.731  35.688  36.467  1.00  0.00     0.010 A 
ATOM     44  C   UNL A   1      40.713  35.585  35.147  1.00  0.00     0.010 A 
ATOM     45  C   UNL A   1      42.077  35.288  35.291  1.00  0.00    -0.014 A 
BRANCH  45  46
ATOM     46  C   UNL A   1      42.765  34.519  34.216  1.00  0.00     0.031 A 
ATOM     47  C   UNL A   1      43.222  35.218  32.961  1.00  0.00     0.074 A 
ATOM     48  C   UNL A   1      42.856  33.176  34.303  1.00  0.00     0.049 A 
ATOM     49  N   UNL A   1      43.651  34.703  31.838  1.00  0.00    -0.248 NA
ATOM     50  C   UNL A   1      43.140  36.689  32.953  1.00  0.00     0.031 C 
ATOM     51  C   UNL A   1      42.403  32.360  35.433  1.00  0.00     0.029 A 
ATOM     52  N   UNL A   1      43.343  32.250  33.411  1.00  0.00    -0.354 N 
ATOM     53  C   UNL A   1      43.842  35.778  30.977  1.00  0.00     0.074 A 
ATOM     54  C   UNL A   1      43.441  36.968  31.694  1.00  0.00     0.031 C 
ATOM     55  C   UNL A   1      42.658  31.067  35.179  1.00  0.00     0.029 A 
ATOM     56  C   UNL A   1      43.238  30.949  33.848  1.00  0.00     0.049 A 
ATOM     57  H   UNL A   1      43.732  32.496  32.540  1.00  0.00     0.167 HD
ATOM     58  C   UNL A   1      44.324  35.779  29.711  1.00  0.00     0.031 A 
ATOM     59  C   UNL A   1      43.553  29.788  33.241  1.00  0.00     0.031 A 
ATOM     60  C   UNL A   1      44.771  34.602  29.018  1.00  0.00     0.049 A 
ATOM     61  C   UNL A   1      44.109  29.814  31.845  1.00  0.00     0.074 A 
ATOM     62  C   UNL A   1      45.364  34.511  27.772  1.00  0.00     0.029 A 
ATOM     63  N   UNL A   1      44.680  33.310  29.514  1.00  0.00    -0.354 N 
ATOM     64  N   UNL A   1      44.341  30.849  31.073  1.00  0.00    -0.248 NA
ATOM     65  C   UNL A   1      44.441  28.519  31.236  1.00  0.00     0.031 C 
ATOM     66  C   UNL A   1      45.594  33.159  27.495  1.00  0.00     0.029 A 
ATOM     67  C   UNL A   1      45.182  32.413  28.588  1.00  0.00     0.049 A 
ATOM     68  H   UNL A   1      44.311  33.068  30.394  1.00  0.00     0.167 HD
ATOM     69  C   UNL A   1      44.854  30.329  29.891  1.00  0.00     0.074 A 
ATOM     70  C   UNL A   1      44.921  28.892  30.057  1.00  0.00     0.031 C 
ATOM     71  C   UNL A   1      45.234  30.985  28.767  1.00  0.00     0.031 A 
BRANCH  58  72
ATOM     72  C   UNL A   1      44.393  37.102  28.997  1.00  0.00    -0.014 A 
ATOM     73  C   UNL A   1      43.320  37.564  28.213  1.00  0.00     0.010 A 
ATOM     74  C   UNL A   1      45.539  37.908  29.128  1.00  0.00     0.010 A 
ATOM     75  C   UNL A   1      43.412  38.778  27.529  1.00  0.00     0.020 A 
ATOM     76  C   UNL A   1      45.625  39.138  28.468  1.00  0.00     0.020 A 
ATOM     77  C   UNL A   1      44.568  39.554  27.656  1.00  0.00     0.054 A 
BRANCH  77  78
ATOM     78  S   UNL A   1      44.661  41.130  26.762  1.00  0.00     0.124 S 
ATOM     79  O   UNL A   1      44.818  42.086  27.856  1.00  0.00    -0.237 OA
ATOM     80  O   UNL A   1      45.837  40.949  25.914  1.00  0.00    -0.237 OA
ATOM     81  O   UNL A   1      43.387  41.200  26.050  1.00  0.00    -0.744 OA
ENDBRANCH  77  78
ENDBRANCH  58  72
BRANCH  59  82
ATOM     82  C   UNL A   1      43.347  28.498  33.955  1.00  0.00    -0.014 A 
ATOM     83  C   UNL A   1      42.116  27.826  33.862  1.00  0.00     0.010 A 
ATOM     84  C   UNL A   1      44.385  27.924  34.713  1.00  0.00     0.010 A 
ATOM     85  C   UNL A   1      41.921  26.609  34.521  1.00  0.00     0.020 A 
ATOM     86  C   UNL A   1      44.201  26.695  35.354  1.00  0.00     0.020 A 
ATOM     87  C   UNL A   1      42.967  26.049  35.262  1.00  0.00     0.054 A 
BRANCH  87  88
ATOM     88  S   UNL A   1      42.712  24.438  36.058  1.00  0.00     0.124 S 
ATOM     89  O   UNL A   1      44.078  23.945  36.191  1.00  0.00    -0.237 OA
ATOM     90  O   UNL A   1      42.046  24.803  37.306  1.00  0.00    -0.237 OA
ATOM     91  O   UNL A   1      41.874  23.715  35.103  1.00  0.00    -0.744 OA
ENDBRANCH  87  88
ENDBRANCH  59  82
BRANCH  71  92
ATOM     92  C   UNL A   1      45.759  30.157  27.626  1.00  0.00    -0.014 A 
ATOM     93  C   UNL A   1      47.141  30.059  27.386  1.00  0.00     0.010 A 
ATOM     94  C   UNL A   1      44.866  29.411  26.835  1.00  0.00     0.010 A 
ATOM     95  C   UNL A   1      47.621  29.238  26.364  1.00  0.00     0.020 A 
ATOM     96  C   UNL A   1      45.345  28.573  25.827  1.00  0.00     0.020 A 
ATOM     97  C   UNL A   1      46.720  28.498  25.591  1.00  0.00     0.054 A 
BRANCH  97  98
ATOM     98  S   UNL A   1      47.373  27.387  24.314  1.00  0.00     0.124 S 
ATOM     99  O   UNL A   1      46.496  26.228  24.441  1.00  0.00    -0.237 OA
ATOM    100  O   UNL A   1      47.207  28.171  23.092  1.00  0.00    -0.237 OA
ATOM    101  O   UNL A   1      48.759  27.168  24.723  1.00  0.00    -0.744 OA
ENDBRANCH  97  98
ENDBRANCH  71  92
ENDBRANCH  45  46
ENDBRANCH  37  40
ENDBRANCH  35  36
ENDBRANCH  34  35
ENDBRANCH   1  34
TORSDOF 18
ENDMDL
