MODEL 1
REMARK VINA RESULT:     -10.8      0.000      0.000
REMARK SMILES COc1cc(Br)c(OC)c(C(=O)NCCC(=O)NCCCNC(=O)c2ccc(-c3c4nc(c(-c5ccc(S(=O)(=O)[O-])cc5)c5ccc([nH]5)c(-c5ccc(S(=O)(=O)[O-])cc5)c5nc(c(-c6ccc(S(=O)(=O)[O-])cc6)c6ccc3[nH]6)C=C5)C=C4)cc2)c1
REMARK SMILES IDX 19 1 18 2 16 3 17 4 15 6 14 7 13 8 11 9 12 10 10 12 3 13
REMARK SMILES IDX 4 14 85 15 5 16 6 17 7 18 2 19 1 20 8 21 9 22 20 23 21 24
REMARK SMILES IDX 22 25 23 26 24 28 25 29 26 30 84 31 27 32 83 33 28 34 29 35
REMARK SMILES IDX 30 36 77 37 31 38 82 39 76 40 78 41 32 42 81 43 75 44 74 45
REMARK SMILES IDX 33 47 63 48 44 49 62 50 45 51 48 52 61 53 79 54 46 55 47 56
REMARK SMILES IDX 60 58 80 59 49 60 34 61 35 62 43 63 36 64 42 65 37 66 38 67
REMARK SMILES IDX 39 68 40 69 41 70 64 71 65 72 73 73 66 74 72 75 67 76 68 77
REMARK SMILES IDX 69 78 70 79 71 80 50 81 51 82 59 83 52 84 58 85 53 86 54 87
REMARK SMILES IDX 55 88 56 89 57 90
REMARK H PARENT 18 5 13 11 22 27 78 46 48 57
REMARK Flexibility Score: inf
ROOT
ATOM      1  C   UNL A   1      38.830  21.720  25.822  1.00  0.00     0.117 C 
ENDROOT
BRANCH   1   2
ATOM      2  N   UNL A   1      37.607  22.441  26.137  1.00  0.00    -0.356 N 
ATOM      3  C   UNL A   1      36.313  22.121  25.867  1.00  0.00     0.221 C 
ATOM      4  O   UNL A   1      35.430  22.911  26.207  1.00  0.00    -0.275 OA
ATOM      5  H   UNL A   1      37.735  23.288  26.621  1.00  0.00     0.163 HD
BRANCH   3   6
ATOM      6  C   UNL A   1      35.964  20.837  25.145  1.00  0.00     0.121 C 
BRANCH   6   7
ATOM      7  C   UNL A   1      34.473  20.550  25.237  1.00  0.00     0.126 C 
BRANCH   7   8
ATOM      8  N   UNL A   1      33.721  20.981  24.063  1.00  0.00    -0.351 N 
ATOM      9  C   UNL A   1      32.748  21.895  23.737  1.00  0.00     0.255 C 
ATOM     10  O   UNL A   1      32.264  21.731  22.614  1.00  0.00    -0.269 OA
ATOM     11  H   UNL A   1      33.990  20.464  23.269  1.00  0.00     0.163 HD
BRANCH   9  12
ATOM     12  C   UNL A   1      32.323  23.069  24.570  1.00  0.00     0.086 A 
ATOM     13  C   UNL A   1      31.083  23.952  26.465  1.00  0.00     0.121 A 
ATOM     14  C   UNL A   1      31.812  25.129  26.423  1.00  0.00     0.066 A 
ATOM     15  C   UNL A   1      31.375  22.915  25.586  1.00  0.00     0.064 A 
ATOM     16  C   UNL A   1      32.751  25.332  25.408  1.00  0.00     0.064 A 
ATOM     17  Br  UNL A   1      33.548  27.061  25.427  1.00  0.00    -0.047 Br
ATOM     18  C   UNL A   1      32.994  24.325  24.449  1.00  0.00     0.146 A 
BRANCH  13  19
ATOM     19  O   UNL A   1      30.102  23.725  27.390  1.00  0.00    -0.497 OA
ATOM     20  C   UNL A   1      29.334  22.564  27.068  1.00  0.00     0.278 C 
ENDBRANCH  13  19
BRANCH  18  21
ATOM     21  O   UNL A   1      33.706  24.540  23.293  1.00  0.00    -0.495 OA
ATOM     22  C   UNL A   1      33.058  25.219  22.220  1.00  0.00     0.278 C 
ENDBRANCH  18  21
ENDBRANCH   9  12
ENDBRANCH   7   8
ENDBRANCH   6   7
ENDBRANCH   3   6
ENDBRANCH   1   2
BRANCH   1  23
ATOM     23  C   UNL A   1      39.908  21.926  26.880  1.00  0.00     0.042 C 
BRANCH  23  24
ATOM     24  C   UNL A   1      40.209  23.382  27.202  1.00  0.00     0.118 C 
BRANCH  24  25
ATOM     25  N   UNL A   1      41.007  24.031  26.176  1.00  0.00    -0.352 N 
ATOM     26  C   UNL A   1      41.410  25.341  26.060  1.00  0.00     0.251 C 
ATOM     27  H   UNL A   1      41.307  23.439  25.448  1.00  0.00     0.163 HD
ATOM     28  O   UNL A   1      41.914  25.717  25.005  1.00  0.00    -0.269 OA
BRANCH  26  29
ATOM     29  C   UNL A   1      41.232  26.301  27.177  1.00  0.00     0.039 A 
ATOM     30  C   UNL A   1      40.288  26.010  28.168  1.00  0.00     0.014 A 
ATOM     31  C   UNL A   1      41.944  27.500  27.235  1.00  0.00     0.014 A 
ATOM     32  C   UNL A   1      40.104  26.891  29.239  1.00  0.00     0.010 A 
ATOM     33  C   UNL A   1      41.824  28.334  28.347  1.00  0.00     0.010 A 
ATOM     34  C   UNL A   1      40.893  28.046  29.356  1.00  0.00    -0.014 A 
BRANCH  34  35
ATOM     35  C   UNL A   1      40.744  28.977  30.509  1.00  0.00     0.031 A 
ATOM     36  C   UNL A   1      41.629  28.828  31.721  1.00  0.00     0.074 A 
ATOM     37  C   UNL A   1      39.778  29.916  30.494  1.00  0.00     0.049 A 
ATOM     38  N   UNL A   1      41.602  29.492  32.849  1.00  0.00    -0.248 NA
ATOM     39  C   UNL A   1      42.661  27.780  31.669  1.00  0.00     0.031 C 
ATOM     40  C   UNL A   1      38.831  30.143  29.400  1.00  0.00     0.029 A 
ATOM     41  N   UNL A   1      39.429  30.856  31.433  1.00  0.00    -0.354 N 
ATOM     42  C   UNL A   1      42.591  28.927  33.646  1.00  0.00     0.074 A 
ATOM     43  C   UNL A   1      43.169  27.836  32.892  1.00  0.00     0.031 C 
ATOM     44  C   UNL A   1      38.028  31.172  29.719  1.00  0.00     0.029 A 
ATOM     45  C   UNL A   1      38.372  31.651  31.054  1.00  0.00     0.049 A 
ATOM     46  H   UNL A   1      39.890  30.950  32.297  1.00  0.00     0.167 HD
ATOM     47  C   UNL A   1      42.999  29.293  34.885  1.00  0.00     0.031 A 
ATOM     48  C   UNL A   1      37.744  32.648  31.707  1.00  0.00     0.031 A 
ATOM     49  C   UNL A   1      42.441  30.392  35.627  1.00  0.00     0.049 A 
ATOM     50  C   UNL A   1      38.213  33.036  33.083  1.00  0.00     0.074 A 
ATOM     51  C   UNL A   1      42.824  30.877  36.865  1.00  0.00     0.029 A 
ATOM     52  N   UNL A   1      41.383  31.179  35.198  1.00  0.00    -0.354 N 
ATOM     53  N   UNL A   1      39.188  32.524  33.796  1.00  0.00    -0.248 NA
ATOM     54  C   UNL A   1      37.503  34.144  33.739  1.00  0.00     0.031 C 
ATOM     55  C   UNL A   1      41.967  31.929  37.207  1.00  0.00     0.029 A 
ATOM     56  C   UNL A   1      41.086  32.134  36.156  1.00  0.00     0.049 A 
ATOM     57  H   UNL A   1      40.912  31.075  34.340  1.00  0.00     0.167 HD
ATOM     58  C   UNL A   1      39.225  33.265  34.972  1.00  0.00     0.074 A 
ATOM     59  C   UNL A   1      38.185  34.268  34.870  1.00  0.00     0.031 C 
ATOM     60  C   UNL A   1      40.050  33.128  36.041  1.00  0.00     0.031 A 
BRANCH  47  61
ATOM     61  C   UNL A   1      44.107  28.492  35.519  1.00  0.00    -0.014 A 
ATOM     62  C   UNL A   1      43.826  27.383  36.337  1.00  0.00     0.010 A 
ATOM     63  C   UNL A   1      45.449  28.830  35.265  1.00  0.00     0.010 A 
ATOM     64  C   UNL A   1      44.863  26.655  36.926  1.00  0.00     0.020 A 
ATOM     65  C   UNL A   1      46.491  28.087  35.829  1.00  0.00     0.020 A 
ATOM     66  C   UNL A   1      46.190  27.015  36.671  1.00  0.00     0.054 A 
BRANCH  66  67
ATOM     67  S   UNL A   1      47.517  26.042  37.434  1.00  0.00     0.124 S 
ATOM     68  O   UNL A   1      46.781  25.247  38.415  1.00  0.00    -0.237 OA
ATOM     69  O   UNL A   1      48.060  25.295  36.303  1.00  0.00    -0.237 OA
ATOM     70  O   UNL A   1      48.409  27.053  37.996  1.00  0.00    -0.744 OA
ENDBRANCH  66  67
ENDBRANCH  47  61
BRANCH  48  71
ATOM     71  C   UNL A   1      36.610  33.362  31.059  1.00  0.00    -0.014 A 
ATOM     72  C   UNL A   1      36.825  34.155  29.918  1.00  0.00     0.010 A 
ATOM     73  C   UNL A   1      35.304  33.244  31.573  1.00  0.00     0.010 A 
ATOM     74  C   UNL A   1      35.760  34.830  29.313  1.00  0.00     0.020 A 
ATOM     75  C   UNL A   1      34.233  33.897  30.954  1.00  0.00     0.020 A 
ATOM     76  C   UNL A   1      34.471  34.695  29.834  1.00  0.00     0.054 A 
BRANCH  76  77
ATOM     77  S   UNL A   1      33.097  35.541  29.002  1.00  0.00     0.124 S 
ATOM     78  O   UNL A   1      33.796  36.543  28.204  1.00  0.00    -0.237 OA
ATOM     79  O   UNL A   1      32.468  34.458  28.249  1.00  0.00    -0.237 OA
ATOM     80  O   UNL A   1      32.298  36.064  30.107  1.00  0.00    -0.744 OA
ENDBRANCH  76  77
ENDBRANCH  48  71
BRANCH  60  81
ATOM     81  C   UNL A   1      39.886  34.105  37.173  1.00  0.00    -0.014 A 
ATOM     82  C   UNL A   1      40.628  35.298  37.219  1.00  0.00     0.010 A 
ATOM     83  C   UNL A   1      38.931  33.851  38.174  1.00  0.00     0.010 A 
ATOM     84  C   UNL A   1      40.435  36.209  38.262  1.00  0.00     0.020 A 
ATOM     85  C   UNL A   1      38.717  34.771  39.204  1.00  0.00     0.020 A 
ATOM     86  C   UNL A   1      39.481  35.939  39.249  1.00  0.00     0.054 A 
BRANCH  86  87
ATOM     87  S   UNL A   1      39.215  37.159  40.564  1.00  0.00     0.124 S 
ATOM     88  O   UNL A   1      38.729  36.324  41.659  1.00  0.00    -0.237 OA
ATOM     89  O   UNL A   1      40.549  37.727  40.751  1.00  0.00    -0.237 OA
ATOM     90  O   UNL A   1      38.230  38.076  39.992  1.00  0.00    -0.744 OA
ENDBRANCH  86  87
ENDBRANCH  60  81
ENDBRANCH  34  35
ENDBRANCH  26  29
ENDBRANCH  24  25
ENDBRANCH  23  24
ENDBRANCH   1  23
TORSDOF 18
ENDMDL
MODEL 2
REMARK VINA RESULT:     -10.8      4.615     10.354
REMARK SMILES COc1cc(Br)c(OC)c(C(=O)NCCC(=O)NCCCNC(=O)c2ccc(-c3c4nc(c(-c5ccc(S(=O)(=O)[O-])cc5)c5ccc([nH]5)c(-c5ccc(S(=O)(=O)[O-])cc5)c5nc(c(-c6ccc(S(=O)(=O)[O-])cc6)c6ccc3[nH]6)C=C5)C=C4)cc2)c1
REMARK SMILES IDX 19 1 18 2 16 3 17 4 15 6 14 7 13 8 11 9 12 10 10 12 3 13
REMARK SMILES IDX 4 14 85 15 5 16 6 17 7 18 2 19 1 20 8 21 9 22 20 23 21 24
REMARK SMILES IDX 22 25 23 26 24 28 25 29 26 30 84 31 27 32 83 33 28 34 29 35
REMARK SMILES IDX 30 36 77 37 31 38 82 39 76 40 78 41 32 42 81 43 75 44 74 45
REMARK SMILES IDX 33 47 63 48 44 49 62 50 45 51 48 52 61 53 79 54 46 55 47 56
REMARK SMILES IDX 60 58 80 59 49 60 34 61 35 62 43 63 36 64 42 65 37 66 38 67
REMARK SMILES IDX 39 68 40 69 41 70 64 71 65 72 73 73 66 74 72 75 67 76 68 77
REMARK SMILES IDX 69 78 70 79 71 80 50 81 51 82 59 83 52 84 58 85 53 86 54 87
REMARK SMILES IDX 55 88 56 89 57 90
REMARK H PARENT 18 5 13 11 22 27 78 46 48 57
REMARK Flexibility Score: inf
ROOT
ATOM      1  C   UNL A   1      31.515  28.194  25.552  1.00  0.00     0.117 C 
ENDROOT
BRANCH   1   2
ATOM      2  N   UNL A   1      31.338  28.177  24.108  1.00  0.00    -0.356 N 
ATOM      3  C   UNL A   1      30.667  27.292  23.324  1.00  0.00     0.221 C 
ATOM      4  O   UNL A   1      30.680  27.463  22.103  1.00  0.00    -0.275 OA
ATOM      5  H   UNL A   1      31.769  28.918  23.627  1.00  0.00     0.163 HD
BRANCH   3   6
ATOM      6  C   UNL A   1      29.939  26.111  23.930  1.00  0.00     0.121 C 
BRANCH   6   7
ATOM      7  C   UNL A   1      30.834  24.881  23.966  1.00  0.00     0.126 C 
BRANCH   7   8
ATOM      8  N   UNL A   1      31.785  24.817  22.862  1.00  0.00    -0.351 N 
ATOM      9  C   UNL A   1      32.982  24.213  22.562  1.00  0.00     0.255 C 
ATOM     10  O   UNL A   1      33.522  24.650  21.542  1.00  0.00    -0.269 OA
ATOM     11  H   UNL A   1      31.478  25.371  22.107  1.00  0.00     0.163 HD
BRANCH   9  12
ATOM     12  C   UNL A   1      33.598  23.057  23.297  1.00  0.00     0.086 A 
ATOM     13  C   UNL A   1      35.379  22.178  24.699  1.00  0.00     0.121 A 
ATOM     14  C   UNL A   1      34.605  21.081  25.035  1.00  0.00     0.066 A 
ATOM     15  C   UNL A   1      34.860  23.181  23.886  1.00  0.00     0.064 A 
ATOM     16  C   UNL A   1      33.347  20.908  24.447  1.00  0.00     0.064 A 
ATOM     17  Br  UNL A   1      32.493  19.274  24.918  1.00  0.00    -0.047 Br
ATOM     18  C   UNL A   1      32.842  21.871  23.547  1.00  0.00     0.146 A 
BRANCH  13  19
ATOM     19  O   UNL A   1      36.644  22.365  25.184  1.00  0.00    -0.497 OA
ATOM     20  C   UNL A   1      37.132  23.675  24.889  1.00  0.00     0.278 C 
ENDBRANCH  13  19
BRANCH  18  21
ATOM     21  O   UNL A   1      31.744  21.655  22.749  1.00  0.00    -0.495 OA
ATOM     22  C   UNL A   1      31.877  20.756  21.651  1.00  0.00     0.278 C 
ENDBRANCH  18  21
ENDBRANCH   9  12
ENDBRANCH   7   8
ENDBRANCH   6   7
ENDBRANCH   3   6
ENDBRANCH   1   2
BRANCH   1  23
ATOM     23  C   UNL A   1      32.749  27.414  25.990  1.00  0.00     0.042 C 
BRANCH  23  24
ATOM     24  C   UNL A   1      33.980  28.270  26.249  1.00  0.00     0.118 C 
BRANCH  24  25
ATOM     25  N   UNL A   1      33.653  29.569  26.810  1.00  0.00    -0.352 N 
ATOM     26  C   UNL A   1      34.360  30.362  27.684  1.00  0.00     0.251 C 
ATOM     27  H   UNL A   1      32.789  29.941  26.520  1.00  0.00     0.163 HD
ATOM     28  O   UNL A   1      33.806  31.336  28.185  1.00  0.00    -0.269 OA
BRANCH  26  29
ATOM     29  C   UNL A   1      35.767  30.051  28.037  1.00  0.00     0.039 A 
ATOM     30  C   UNL A   1      36.052  29.609  29.333  1.00  0.00     0.014 A 
ATOM     31  C   UNL A   1      36.810  30.234  27.127  1.00  0.00     0.014 A 
ATOM     32  C   UNL A   1      37.368  29.297  29.693  1.00  0.00     0.010 A 
ATOM     33  C   UNL A   1      38.107  29.840  27.458  1.00  0.00     0.010 A 
ATOM     34  C   UNL A   1      38.404  29.379  28.749  1.00  0.00    -0.014 A 
BRANCH  34  35
ATOM     35  C   UNL A   1      39.804  29.014  29.098  1.00  0.00     0.031 A 
ATOM     36  C   UNL A   1      40.708  30.023  29.760  1.00  0.00     0.074 A 
ATOM     37  C   UNL A   1      40.284  27.798  28.769  1.00  0.00     0.049 A 
ATOM     38  N   UNL A   1      41.975  29.918  30.073  1.00  0.00    -0.248 NA
ATOM     39  C   UNL A   1      40.118  31.332  30.089  1.00  0.00     0.031 C 
ATOM     40  C   UNL A   1      39.528  26.741  28.093  1.00  0.00     0.029 A 
ATOM     41  N   UNL A   1      41.528  27.247  28.954  1.00  0.00    -0.354 N 
ATOM     42  C   UNL A   1      42.337  31.149  30.610  1.00  0.00     0.074 A 
ATOM     43  C   UNL A   1      41.171  32.000  30.538  1.00  0.00     0.031 C 
ATOM     44  C   UNL A   1      40.314  25.663  27.946  1.00  0.00     0.029 A 
ATOM     45  C   UNL A   1      41.641  25.962  28.476  1.00  0.00     0.049 A 
ATOM     46  H   UNL A   1      42.271  27.727  29.387  1.00  0.00     0.167 HD
ATOM     47  C   UNL A   1      43.526  31.532  31.135  1.00  0.00     0.031 A 
ATOM     48  C   UNL A   1      42.693  25.120  28.457  1.00  0.00     0.031 A 
ATOM     49  C   UNL A   1      44.680  30.678  31.229  1.00  0.00     0.049 A 
ATOM     50  C   UNL A   1      44.004  25.568  29.044  1.00  0.00     0.074 A 
ATOM     51  C   UNL A   1      45.912  30.955  31.796  1.00  0.00     0.029 A 
ATOM     52  N   UNL A   1      44.745  29.379  30.745  1.00  0.00    -0.354 N 
ATOM     53  N   UNL A   1      44.309  26.717  29.599  1.00  0.00    -0.248 NA
ATOM     54  C   UNL A   1      45.110  24.601  29.014  1.00  0.00     0.031 C 
ATOM     55  C   UNL A   1      46.737  29.840  31.615  1.00  0.00     0.029 A 
ATOM     56  C   UNL A   1      46.001  28.849  30.984  1.00  0.00     0.049 A 
ATOM     57  H   UNL A   1      44.006  28.905  30.300  1.00  0.00     0.167 HD
ATOM     58  C   UNL A   1      45.633  26.601  30.006  1.00  0.00     0.074 A 
ATOM     59  C   UNL A   1      46.067  25.266  29.647  1.00  0.00     0.031 C 
ATOM     60  C   UNL A   1      46.419  27.518  30.624  1.00  0.00     0.031 A 
BRANCH  47  61
ATOM     61  C   UNL A   1      43.637  32.943  31.651  1.00  0.00    -0.014 A 
ATOM     62  C   UNL A   1      44.132  33.978  30.838  1.00  0.00     0.010 A 
ATOM     63  C   UNL A   1      43.207  33.247  32.956  1.00  0.00     0.010 A 
ATOM     64  C   UNL A   1      44.239  35.280  31.332  1.00  0.00     0.020 A 
ATOM     65  C   UNL A   1      43.285  34.555  33.446  1.00  0.00     0.020 A 
ATOM     66  C   UNL A   1      43.818  35.559  32.636  1.00  0.00     0.054 A 
BRANCH  66  67
ATOM     67  S   UNL A   1      43.951  37.262  33.247  1.00  0.00     0.124 S 
ATOM     68  O   UNL A   1      42.808  37.346  34.155  1.00  0.00    -0.237 OA
ATOM     69  O   UNL A   1      45.263  37.272  33.888  1.00  0.00    -0.237 OA
ATOM     70  O   UNL A   1      43.846  38.074  32.038  1.00  0.00    -0.744 OA
ENDBRANCH  66  67
ENDBRANCH  47  61
BRANCH  48  71
ATOM     71  C   UNL A   1      42.545  23.759  27.873  1.00  0.00    -0.014 A 
ATOM     72  C   UNL A   1      42.264  22.656  28.698  1.00  0.00     0.010 A 
ATOM     73  C   UNL A   1      42.673  23.559  26.485  1.00  0.00     0.010 A 
ATOM     74  C   UNL A   1      42.131  21.376  28.151  1.00  0.00     0.020 A 
ATOM     75  C   UNL A   1      42.513  22.284  25.932  1.00  0.00     0.020 A 
ATOM     76  C   UNL A   1      42.255  21.199  26.770  1.00  0.00     0.054 A 
BRANCH  76  77
ATOM     77  S   UNL A   1      42.028  19.538  26.077  1.00  0.00     0.124 S 
ATOM     78  O   UNL A   1      40.597  19.519  25.793  1.00  0.00    -0.237 OA
ATOM     79  O   UNL A   1      42.905  19.560  24.907  1.00  0.00    -0.237 OA
ATOM     80  O   UNL A   1      42.466  18.654  27.155  1.00  0.00    -0.744 OA
ENDBRANCH  76  77
ENDBRANCH  48  71
BRANCH  60  81
ATOM     81  C   UNL A   1      47.819  27.101  30.985  1.00  0.00    -0.014 A 
ATOM     82  C   UNL A   1      48.063  26.199  32.034  1.00  0.00     0.010 A 
ATOM     83  C   UNL A   1      48.901  27.575  30.220  1.00  0.00     0.010 A 
ATOM     84  C   UNL A   1      49.369  25.798  32.331  1.00  0.00     0.020 A 
ATOM     85  C   UNL A   1      50.205  27.156  30.497  1.00  0.00     0.020 A 
ATOM     86  C   UNL A   1      50.433  26.280  31.560  1.00  0.00     0.054 A 
BRANCH  86  87
ATOM     87  S   UNL A   1      52.112  25.707  31.933  1.00  0.00     0.124 S 
ATOM     88  O   UNL A   1      52.532  26.647  32.969  1.00  0.00    -0.237 OA
ATOM     89  O   UNL A   1      51.892  24.334  32.383  1.00  0.00    -0.237 OA
ATOM     90  O   UNL A   1      52.813  25.831  30.656  1.00  0.00    -0.744 OA
ENDBRANCH  86  87
ENDBRANCH  60  81
ENDBRANCH  34  35
ENDBRANCH  26  29
ENDBRANCH  24  25
ENDBRANCH  23  24
ENDBRANCH   1  23
TORSDOF 18
ENDMDL
MODEL 3
REMARK VINA RESULT:     -10.7      5.185     12.513
REMARK SMILES COc1cc(Br)c(OC)c(C(=O)NCCC(=O)NCCCNC(=O)c2ccc(-c3c4nc(c(-c5ccc(S(=O)(=O)[O-])cc5)c5ccc([nH]5)c(-c5ccc(S(=O)(=O)[O-])cc5)c5nc(c(-c6ccc(S(=O)(=O)[O-])cc6)c6ccc3[nH]6)C=C5)C=C4)cc2)c1
REMARK SMILES IDX 19 1 18 2 16 3 17 4 15 6 14 7 13 8 11 9 12 10 10 12 3 13
REMARK SMILES IDX 4 14 85 15 5 16 6 17 7 18 2 19 1 20 8 21 9 22 20 23 21 24
REMARK SMILES IDX 22 25 23 26 24 28 25 29 26 30 84 31 27 32 83 33 28 34 29 35
REMARK SMILES IDX 30 36 77 37 31 38 82 39 76 40 78 41 32 42 81 43 75 44 74 45
REMARK SMILES IDX 33 47 63 48 44 49 62 50 45 51 48 52 61 53 79 54 46 55 47 56
REMARK SMILES IDX 60 58 80 59 49 60 34 61 35 62 43 63 36 64 42 65 37 66 38 67
REMARK SMILES IDX 39 68 40 69 41 70 64 71 65 72 73 73 66 74 72 75 67 76 68 77
REMARK SMILES IDX 69 78 70 79 71 80 50 81 51 82 59 83 52 84 58 85 53 86 54 87
REMARK SMILES IDX 55 88 56 89 57 90
REMARK H PARENT 18 5 13 11 22 27 78 46 48 57
REMARK Flexibility Score: inf
ROOT
ATOM      1  C   UNL A   1      34.490  33.790  30.537  1.00  0.00     0.117 C 
ENDROOT
BRANCH   1   2
ATOM      2  N   UNL A   1      34.596  35.054  31.248  1.00  0.00    -0.356 N 
ATOM      3  C   UNL A   1      34.701  35.297  32.582  1.00  0.00     0.221 C 
ATOM      4  O   UNL A   1      34.745  36.468  32.963  1.00  0.00    -0.275 OA
ATOM      5  H   UNL A   1      34.590  35.855  30.677  1.00  0.00     0.163 HD
BRANCH   3   6
ATOM      6  C   UNL A   1      34.740  34.158  33.579  1.00  0.00     0.121 C 
BRANCH   6   7
ATOM      7  C   UNL A   1      36.089  34.098  34.281  1.00  0.00     0.126 C 
BRANCH   7   8
ATOM      8  N   UNL A   1      37.223  34.320  33.391  1.00  0.00    -0.351 N 
ATOM      9  C   UNL A   1      38.578  34.096  33.368  1.00  0.00     0.255 C 
ATOM     10  O   UNL A   1      39.166  34.677  32.451  1.00  0.00    -0.269 OA
ATOM     11  H   UNL A   1      36.931  34.762  32.560  1.00  0.00     0.163 HD
BRANCH   9  12
ATOM     12  C   UNL A   1      39.337  33.171  34.274  1.00  0.00     0.086 A 
ATOM     13  C   UNL A   1      40.565  31.098  34.596  1.00  0.00     0.121 A 
ATOM     14  C   UNL A   1      41.115  31.579  35.772  1.00  0.00     0.066 A 
ATOM     15  C   UNL A   1      39.733  31.906  33.829  1.00  0.00     0.064 A 
ATOM     16  C   UNL A   1      40.725  32.829  36.264  1.00  0.00     0.064 A 
ATOM     17  Br  UNL A   1      41.474  33.258  37.961  1.00  0.00    -0.047 Br
ATOM     18  C   UNL A   1      39.808  33.625  35.544  1.00  0.00     0.146 A 
BRANCH  13  19
ATOM     19  O   UNL A   1      40.852  29.855  34.102  1.00  0.00    -0.497 OA
ATOM     20  C   UNL A   1      39.766  29.331  33.335  1.00  0.00     0.278 C 
ENDBRANCH  13  19
BRANCH  18  21
ATOM     21  O   UNL A   1      39.194  34.734  36.074  1.00  0.00    -0.495 OA
ATOM     22  C   UNL A   1      39.928  35.955  36.113  1.00  0.00     0.278 C 
ENDBRANCH  18  21
ENDBRANCH   9  12
ENDBRANCH   7   8
ENDBRANCH   6   7
ENDBRANCH   3   6
ENDBRANCH   1   2
BRANCH   1  23
ATOM     23  C   UNL A   1      33.986  33.973  29.110  1.00  0.00     0.042 C 
BRANCH  23  24
ATOM     24  C   UNL A   1      34.620  33.039  28.090  1.00  0.00     0.118 C 
BRANCH  24  25
ATOM     25  N   UNL A   1      33.839  31.834  27.869  1.00  0.00    -0.352 N 
ATOM     26  C   UNL A   1      34.238  30.520  27.788  1.00  0.00     0.251 C 
ATOM     27  H   UNL A   1      32.872  31.980  27.761  1.00  0.00     0.163 HD
ATOM     28  O   UNL A   1      33.434  29.678  27.397  1.00  0.00    -0.269 OA
BRANCH  26  29
ATOM     29  C   UNL A   1      35.618  30.112  28.149  1.00  0.00     0.039 A 
ATOM     30  C   UNL A   1      36.600  30.111  27.154  1.00  0.00     0.014 A 
ATOM     31  C   UNL A   1      35.944  29.687  29.439  1.00  0.00     0.014 A 
ATOM     32  C   UNL A   1      37.913  29.741  27.466  1.00  0.00     0.010 A 
ATOM     33  C   UNL A   1      37.269  29.404  29.769  1.00  0.00     0.010 A 
ATOM     34  C   UNL A   1      38.267  29.415  28.784  1.00  0.00    -0.014 A 
BRANCH  34  35
ATOM     35  C   UNL A   1      39.666  29.058  29.148  1.00  0.00     0.031 A 
ATOM     36  C   UNL A   1      40.552  30.069  29.831  1.00  0.00     0.074 A 
ATOM     37  C   UNL A   1      40.161  27.849  28.815  1.00  0.00     0.049 A 
ATOM     38  N   UNL A   1      41.816  29.972  30.159  1.00  0.00    -0.248 NA
ATOM     39  C   UNL A   1      39.947  31.369  30.164  1.00  0.00     0.031 C 
ATOM     40  C   UNL A   1      39.423  26.792  28.120  1.00  0.00     0.029 A 
ATOM     41  N   UNL A   1      41.407  27.307  29.011  1.00  0.00    -0.354 N 
ATOM     42  C   UNL A   1      42.160  31.201  30.712  1.00  0.00     0.074 A 
ATOM     43  C   UNL A   1      40.988  32.043  30.632  1.00  0.00     0.031 C 
ATOM     44  C   UNL A   1      40.221  25.722  27.973  1.00  0.00     0.029 A 
ATOM     45  C   UNL A   1      41.537  26.027  28.523  1.00  0.00     0.049 A 
ATOM     46  H   UNL A   1      42.140  27.789  29.458  1.00  0.00     0.167 HD
ATOM     47  C   UNL A   1      43.339  31.589  31.256  1.00  0.00     0.031 A 
ATOM     48  C   UNL A   1      42.597  25.195  28.511  1.00  0.00     0.031 A 
ATOM     49  C   UNL A   1      44.499  30.744  31.358  1.00  0.00     0.049 A 
ATOM     50  C   UNL A   1      43.896  25.648  29.120  1.00  0.00     0.074 A 
ATOM     51  C   UNL A   1      45.721  31.026  31.944  1.00  0.00     0.029 A 
ATOM     52  N   UNL A   1      44.581  29.451  30.864  1.00  0.00    -0.354 N 
ATOM     53  N   UNL A   1      44.183  26.796  29.688  1.00  0.00    -0.248 NA
ATOM     54  C   UNL A   1      45.011  24.691  29.095  1.00  0.00     0.031 C 
ATOM     55  C   UNL A   1      46.558  29.920  31.764  1.00  0.00     0.029 A 
ATOM     56  C   UNL A   1      45.839  28.929  31.114  1.00  0.00     0.049 A 
ATOM     57  H   UNL A   1      43.853  28.974  30.404  1.00  0.00     0.167 HD
ATOM     58  C   UNL A   1      45.503  26.686  30.112  1.00  0.00     0.074 A 
ATOM     59  C   UNL A   1      45.953  25.359  29.748  1.00  0.00     0.031 C 
ATOM     60  C   UNL A   1      46.273  27.605  30.748  1.00  0.00     0.031 A 
BRANCH  47  61
ATOM     61  C   UNL A   1      43.431  32.997  31.786  1.00  0.00    -0.014 A 
ATOM     62  C   UNL A   1      43.133  33.289  33.129  1.00  0.00     0.010 A 
ATOM     63  C   UNL A   1      43.855  34.037  30.939  1.00  0.00     0.010 A 
ATOM     64  C   UNL A   1      43.213  34.601  33.605  1.00  0.00     0.020 A 
ATOM     65  C   UNL A   1      43.965  35.347  31.417  1.00  0.00     0.020 A 
ATOM     66  C   UNL A   1      43.625  35.622  32.744  1.00  0.00     0.054 A 
BRANCH  66  67
ATOM     67  S   UNL A   1      43.737  37.313  33.391  1.00  0.00     0.124 S 
ATOM     68  O   UNL A   1      43.891  38.094  32.166  1.00  0.00    -0.237 OA
ATOM     69  O   UNL A   1      42.463  37.478  34.084  1.00  0.00    -0.237 OA
ATOM     70  O   UNL A   1      44.914  37.276  34.256  1.00  0.00    -0.744 OA
ENDBRANCH  66  67
ENDBRANCH  47  61
BRANCH  48  71
ATOM     71  C   UNL A   1      42.469  23.838  27.913  1.00  0.00    -0.014 A 
ATOM     72  C   UNL A   1      42.707  23.636  26.542  1.00  0.00     0.010 A 
ATOM     73  C   UNL A   1      42.119  22.734  28.715  1.00  0.00     0.010 A 
ATOM     74  C   UNL A   1      42.581  22.362  25.980  1.00  0.00     0.020 A 
ATOM     75  C   UNL A   1      42.019  21.454  28.160  1.00  0.00     0.020 A 
ATOM     76  C   UNL A   1      42.239  21.279  26.794  1.00  0.00     0.054 A 
BRANCH  76  77
ATOM     77  S   UNL A   1      42.131  19.627  26.051  1.00  0.00     0.124 S 
ATOM     78  O   UNL A   1      42.549  18.769  27.155  1.00  0.00    -0.237 OA
ATOM     79  O   UNL A   1      40.721  19.538  25.680  1.00  0.00    -0.237 OA
ATOM     80  O   UNL A   1      43.059  19.696  24.925  1.00  0.00    -0.744 OA
ENDBRANCH  76  77
ENDBRANCH  48  71
BRANCH  60  81
ATOM     81  C   UNL A   1      47.672  27.197  31.124  1.00  0.00    -0.014 A 
ATOM     82  C   UNL A   1      47.931  26.490  32.312  1.00  0.00     0.010 A 
ATOM     83  C   UNL A   1      48.734  27.474  30.244  1.00  0.00     0.010 A 
ATOM     84  C   UNL A   1      49.233  26.090  32.625  1.00  0.00     0.020 A 
ATOM     85  C   UNL A   1      50.032  27.053  30.541  1.00  0.00     0.020 A 
ATOM     86  C   UNL A   1      50.276  26.375  31.737  1.00  0.00     0.054 A 
BRANCH  86  87
ATOM     87  S   UNL A   1      51.948  25.802  32.143  1.00  0.00     0.124 S 
ATOM     88  O   UNL A   1      51.740  24.370  32.340  1.00  0.00    -0.237 OA
ATOM     89  O   UNL A   1      52.712  26.168  30.952  1.00  0.00    -0.237 OA
ATOM     90  O   UNL A   1      52.290  26.555  33.349  1.00  0.00    -0.744 OA
ENDBRANCH  86  87
ENDBRANCH  60  81
ENDBRANCH  34  35
ENDBRANCH  26  29
ENDBRANCH  24  25
ENDBRANCH  23  24
ENDBRANCH   1  23
TORSDOF 18
ENDMDL
