MODEL 1
REMARK VINA RESULT:     -11.6      0.000      0.000
REMARK SMILES Cc1cc2c(c(C)c1Br)C=C(C(=O)NCCCNC(=O)c1ccc(-c3c4nc(c(-c5ccc(S(=O)(=O)[O-])cc5)c5ccc([nH]5)c(-c5ccc(S(=O)(=O)[O-])cc5)c5nc(c(-c6ccc(S(=O)(=O)[O-])cc6)c6ccc3[nH]6)C=C5)C=C4)cc1)[C@@H](C(F)(F)F)O2
REMARK SMILES IDX 17 1 16 2 15 3 14 4 12 5 13 6 11 8 1 9 2 10 3 11 8 12 4 13
REMARK SMILES IDX 6 14 9 15 5 16 86 17 7 18 10 19 81 20 82 21 83 22 84 23
REMARK SMILES IDX 85 24 18 25 19 26 20 28 21 29 22 30 80 31 23 32 79 33 24 34
REMARK SMILES IDX 25 35 26 36 73 37 27 38 78 39 72 40 74 41 28 42 77 43 71 44
REMARK SMILES IDX 70 45 29 47 59 48 40 49 58 50 41 51 44 52 57 53 75 54 42 55
REMARK SMILES IDX 43 56 56 58 76 59 45 60 30 61 31 62 39 63 32 64 38 65 33 66
REMARK SMILES IDX 34 67 35 68 36 69 37 70 60 71 61 72 69 73 62 74 68 75 63 76
REMARK SMILES IDX 64 77 65 78 66 79 67 80 46 81 47 82 55 83 48 84 54 85 49 86
REMARK SMILES IDX 50 87 51 88 52 89 53 90
REMARK H PARENT 14 7 18 27 74 46 44 57
REMARK Flexibility Score: inf
ROOT
ATOM      1  C   UNL A   1      33.850  28.294  26.459  1.00  0.00     0.118 C 
ENDROOT
BRANCH   1   2
ATOM      2  C   UNL A   1      33.957  28.209  24.942  1.00  0.00     0.042 C 
BRANCH   2   3
ATOM      3  C   UNL A   1      32.809  27.423  24.328  1.00  0.00     0.118 C 
BRANCH   3   4
ATOM      4  N   UNL A   1      31.887  26.928  25.340  1.00  0.00    -0.352 N 
ATOM      5  C   UNL A   1      31.589  25.742  25.919  1.00  0.00     0.251 C 
ATOM      6  O   UNL A   1      30.704  25.785  26.779  1.00  0.00    -0.270 OA
ATOM      7  H   UNL A   1      31.326  27.653  25.700  1.00  0.00     0.163 HD
BRANCH   5   8
ATOM      8  C   UNL A   1      32.248  24.442  25.600  1.00  0.00     0.067 C 
ATOM      9  C   UNL A   1      36.098  19.269  24.778  1.00  0.00     0.046 C 
ATOM     10  C   UNL A   1      35.525  20.625  25.095  1.00  0.00    -0.033 A 
ATOM     11  C   UNL A   1      34.138  20.767  25.011  1.00  0.00     0.051 A 
ATOM     12  C   UNL A   1      36.308  21.755  25.418  1.00  0.00     0.024 A 
ATOM     13  C   UNL A   1      33.535  21.994  25.255  1.00  0.00     0.128 A 
ATOM     14  C   UNL A   1      35.701  23.008  25.699  1.00  0.00    -0.026 A 
ATOM     15  Br  UNL A   1      38.212  21.563  25.450  1.00  0.00    -0.050 Br
ATOM     16  C   UNL A   1      34.290  23.114  25.615  1.00  0.00     0.021 A 
ATOM     17  O   UNL A   1      32.174  22.003  25.157  1.00  0.00    -0.475 OA
ATOM     18  C   UNL A   1      36.501  24.230  26.087  1.00  0.00     0.046 C 
ATOM     19  C   UNL A   1      33.552  24.347  25.920  1.00  0.00     0.026 C 
ATOM     20  C   UNL A   1      31.553  23.293  24.937  1.00  0.00     0.314 C 
BRANCH  20  21
ATOM     21  C   UNL A   1      31.347  23.517  23.427  1.00  0.00     0.429 C 
ATOM     22  F   UNL A   1      31.433  22.342  22.755  1.00  0.00    -0.167 F 
ATOM     23  F   UNL A   1      30.128  24.034  23.138  1.00  0.00    -0.167 F 
ATOM     24  F   UNL A   1      32.260  24.357  22.893  1.00  0.00    -0.167 F 
ENDBRANCH  20  21
ENDBRANCH   5   8
ENDBRANCH   3   4
ENDBRANCH   2   3
ENDBRANCH   1   2
BRANCH   1  25
ATOM     25  N   UNL A   1      33.706  29.674  26.916  1.00  0.00    -0.352 N 
ATOM     26  C   UNL A   1      34.504  30.415  27.750  1.00  0.00     0.251 C 
ATOM     27  H   UNL A   1      32.913  30.146  26.571  1.00  0.00     0.163 HD
ATOM     28  O   UNL A   1      34.068  31.453  28.246  1.00  0.00    -0.269 OA
BRANCH  26  29
ATOM     29  C   UNL A   1      35.875  29.963  28.051  1.00  0.00     0.039 A 
ATOM     30  C   UNL A   1      36.871  30.089  27.080  1.00  0.00     0.014 A 
ATOM     31  C   UNL A   1      36.169  29.394  29.292  1.00  0.00     0.014 A 
ATOM     32  C   UNL A   1      38.179  29.705  27.384  1.00  0.00     0.010 A 
ATOM     33  C   UNL A   1      37.485  29.109  29.627  1.00  0.00     0.010 A 
ATOM     34  C   UNL A   1      38.501  29.247  28.672  1.00  0.00    -0.014 A 
BRANCH  34  35
ATOM     35  C   UNL A   1      39.886  28.869  29.038  1.00  0.00     0.031 A 
ATOM     36  C   UNL A   1      40.749  29.846  29.791  1.00  0.00     0.074 A 
ATOM     37  C   UNL A   1      40.376  27.673  28.657  1.00  0.00     0.049 A 
ATOM     38  N   UNL A   1      42.001  29.731  30.151  1.00  0.00    -0.248 NA
ATOM     39  C   UNL A   1      40.134  31.132  30.167  1.00  0.00     0.031 C 
ATOM     40  C   UNL A   1      39.641  26.655  27.903  1.00  0.00     0.029 A 
ATOM     41  N   UNL A   1      41.609  27.107  28.859  1.00  0.00    -0.354 N 
ATOM     42  C   UNL A   1      42.320  30.922  30.791  1.00  0.00     0.074 A 
ATOM     43  C   UNL A   1      41.158  31.777  30.706  1.00  0.00     0.031 C 
ATOM     44  C   UNL A   1      40.418  25.570  27.753  1.00  0.00     0.029 A 
ATOM     45  C   UNL A   1      41.720  25.831  28.357  1.00  0.00     0.049 A 
ATOM     46  H   UNL A   1      42.345  27.570  29.321  1.00  0.00     0.167 HD
ATOM     47  C   UNL A   1      43.465  31.263  31.427  1.00  0.00     0.031 A 
ATOM     48  C   UNL A   1      42.755  24.969  28.386  1.00  0.00     0.031 A 
ATOM     49  C   UNL A   1      44.613  30.404  31.522  1.00  0.00     0.049 A 
ATOM     50  C   UNL A   1      44.034  25.391  29.056  1.00  0.00     0.074 A 
ATOM     51  C   UNL A   1      45.816  30.643  32.160  1.00  0.00     0.029 A 
ATOM     52  N   UNL A   1      44.695  29.132  30.973  1.00  0.00    -0.354 N 
ATOM     53  N   UNL A   1      44.306  26.513  29.679  1.00  0.00    -0.248 NA
ATOM     54  C   UNL A   1      45.145  24.429  29.030  1.00  0.00     0.031 C 
ATOM     55  C   UNL A   1      46.642  29.534  31.960  1.00  0.00     0.029 A 
ATOM     56  C   UNL A   1      45.933  28.581  31.245  1.00  0.00     0.049 A 
ATOM     57  H   UNL A   1      43.977  28.689  30.465  1.00  0.00     0.167 HD
ATOM     58  C   UNL A   1      45.610  26.381  30.142  1.00  0.00     0.074 A 
ATOM     59  C   UNL A   1      46.067  25.066  29.740  1.00  0.00     0.031 C 
ATOM     60  C   UNL A   1      46.363  27.268  30.839  1.00  0.00     0.031 A 
BRANCH  47  61
ATOM     61  C   UNL A   1      43.518  32.612  32.091  1.00  0.00    -0.014 A 
ATOM     62  C   UNL A   1      43.961  33.742  31.379  1.00  0.00     0.010 A 
ATOM     63  C   UNL A   1      43.074  32.767  33.416  1.00  0.00     0.010 A 
ATOM     64  C   UNL A   1      43.990  34.997  31.990  1.00  0.00     0.020 A 
ATOM     65  C   UNL A   1      43.075  34.028  34.022  1.00  0.00     0.020 A 
ATOM     66  C   UNL A   1      43.543  35.133  33.308  1.00  0.00     0.054 A 
BRANCH  66  67
ATOM     67  S   UNL A   1      43.555  36.784  34.057  1.00  0.00     0.124 S 
ATOM     68  O   UNL A   1      43.783  37.640  32.895  1.00  0.00    -0.237 OA
ATOM     69  O   UNL A   1      42.223  36.873  34.649  1.00  0.00    -0.237 OA
ATOM     70  O   UNL A   1      44.658  36.725  35.012  1.00  0.00    -0.744 OA
ENDBRANCH  66  67
ENDBRANCH  47  61
BRANCH  48  71
ATOM     71  C   UNL A   1      42.613  23.608  27.799  1.00  0.00    -0.014 A 
ATOM     72  C   UNL A   1      42.064  22.564  28.566  1.00  0.00     0.010 A 
ATOM     73  C   UNL A   1      43.014  23.347  26.478  1.00  0.00     0.010 A 
ATOM     74  C   UNL A   1      41.938  21.280  28.028  1.00  0.00     0.020 A 
ATOM     75  C   UNL A   1      42.863  22.071  25.926  1.00  0.00     0.020 A 
ATOM     76  C   UNL A   1      42.337  21.042  26.709  1.00  0.00     0.054 A 
BRANCH  76  77
ATOM     77  S   UNL A   1      42.126  19.376  26.023  1.00  0.00     0.124 S 
ATOM     78  O   UNL A   1      40.679  19.302  25.844  1.00  0.00    -0.237 OA
ATOM     79  O   UNL A   1      42.913  19.442  24.794  1.00  0.00    -0.237 OA
ATOM     80  O   UNL A   1      42.675  18.506  27.060  1.00  0.00    -0.744 OA
ENDBRANCH  76  77
ENDBRANCH  48  71
BRANCH  60  81
ATOM     81  C   UNL A   1      47.751  26.844  31.234  1.00  0.00    -0.014 A 
ATOM     82  C   UNL A   1      47.989  26.206  32.463  1.00  0.00     0.010 A 
ATOM     83  C   UNL A   1      48.812  27.007  30.324  1.00  0.00     0.010 A 
ATOM     84  C   UNL A   1      49.271  25.750  32.783  1.00  0.00     0.020 A 
ATOM     85  C   UNL A   1      50.087  26.527  30.628  1.00  0.00     0.020 A 
ATOM     86  C   UNL A   1      50.310  25.908  31.860  1.00  0.00     0.054 A 
BRANCH  86  87
ATOM     87  S   UNL A   1      51.945  25.243  32.274  1.00  0.00     0.124 S 
ATOM     88  O   UNL A   1      51.699  23.804  32.266  1.00  0.00    -0.237 OA
ATOM     89  O   UNL A   1      52.778  25.744  31.182  1.00  0.00    -0.237 OA
ATOM     90  O   UNL A   1      52.234  25.819  33.585  1.00  0.00    -0.744 OA
ENDBRANCH  86  87
ENDBRANCH  60  81
ENDBRANCH  34  35
ENDBRANCH  26  29
ENDBRANCH   1  25
TORSDOF 14
ENDMDL
MODEL 2
REMARK VINA RESULT:     -11.3      2.993      9.349
REMARK SMILES Cc1cc2c(c(C)c1Br)C=C(C(=O)NCCCNC(=O)c1ccc(-c3c4nc(c(-c5ccc(S(=O)(=O)[O-])cc5)c5ccc([nH]5)c(-c5ccc(S(=O)(=O)[O-])cc5)c5nc(c(-c6ccc(S(=O)(=O)[O-])cc6)c6ccc3[nH]6)C=C5)C=C4)cc1)[C@@H](C(F)(F)F)O2
REMARK SMILES IDX 17 1 16 2 15 3 14 4 12 5 13 6 11 8 1 9 2 10 3 11 8 12 4 13
REMARK SMILES IDX 6 14 9 15 5 16 86 17 7 18 10 19 81 20 82 21 83 22 84 23
REMARK SMILES IDX 85 24 18 25 19 26 20 28 21 29 22 30 80 31 23 32 79 33 24 34
REMARK SMILES IDX 25 35 26 36 73 37 27 38 78 39 72 40 74 41 28 42 77 43 71 44
REMARK SMILES IDX 70 45 29 47 59 48 40 49 58 50 41 51 44 52 57 53 75 54 42 55
REMARK SMILES IDX 43 56 56 58 76 59 45 60 30 61 31 62 39 63 32 64 38 65 33 66
REMARK SMILES IDX 34 67 35 68 36 69 37 70 60 71 61 72 69 73 62 74 68 75 63 76
REMARK SMILES IDX 64 77 65 78 66 79 67 80 46 81 47 82 55 83 48 84 54 85 49 86
REMARK SMILES IDX 50 87 51 88 52 89 53 90
REMARK H PARENT 14 7 18 27 74 46 44 57
REMARK Flexibility Score: inf
ROOT
ATOM      1  C   UNL A   1      36.085  23.853  26.278  1.00  0.00     0.118 C 
ENDROOT
BRANCH   1   2
ATOM      2  C   UNL A   1      35.563  24.320  24.925  1.00  0.00     0.042 C 
BRANCH   2   3
ATOM      3  C   UNL A   1      34.255  23.640  24.549  1.00  0.00     0.118 C 
BRANCH   3   4
ATOM      4  N   UNL A   1      33.884  23.903  23.166  1.00  0.00    -0.352 N 
ATOM      5  C   UNL A   1      33.210  24.855  22.481  1.00  0.00     0.251 C 
ATOM      6  O   UNL A   1      33.141  24.675  21.261  1.00  0.00    -0.270 OA
ATOM      7  H   UNL A   1      34.211  23.194  22.567  1.00  0.00     0.163 HD
BRANCH   5   8
ATOM      8  C   UNL A   1      32.580  26.064  23.087  1.00  0.00     0.067 C 
ATOM      9  C   UNL A   1      30.972  31.569  26.147  1.00  0.00     0.046 C 
ATOM     10  C   UNL A   1      31.675  30.350  25.612  1.00  0.00    -0.033 A 
ATOM     11  C   UNL A   1      31.017  29.618  24.620  1.00  0.00     0.051 A 
ATOM     12  C   UNL A   1      32.920  29.885  26.090  1.00  0.00     0.024 A 
ATOM     13  C   UNL A   1      31.584  28.462  24.100  1.00  0.00     0.128 A 
ATOM     14  C   UNL A   1      33.524  28.721  25.544  1.00  0.00    -0.026 A 
ATOM     15  Br  UNL A   1      33.769  30.854  27.506  1.00  0.00    -0.050 Br
ATOM     16  C   UNL A   1      32.834  28.009  24.531  1.00  0.00     0.021 A 
ATOM     17  O   UNL A   1      30.854  27.845  23.125  1.00  0.00    -0.475 OA
ATOM     18  C   UNL A   1      34.873  28.215  26.000  1.00  0.00     0.046 C 
ATOM     19  C   UNL A   1      33.378  26.816  23.868  1.00  0.00     0.026 C 
ATOM     20  C   UNL A   1      31.144  26.445  22.893  1.00  0.00     0.314 C 
BRANCH  20  21
ATOM     21  C   UNL A   1      30.183  25.574  23.725  1.00  0.00     0.429 C 
ATOM     22  F   UNL A   1      30.170  24.301  23.258  1.00  0.00    -0.167 F 
ATOM     23  F   UNL A   1      30.544  25.499  25.029  1.00  0.00    -0.167 F 
ATOM     24  F   UNL A   1      28.911  26.028  23.701  1.00  0.00    -0.167 F 
ENDBRANCH  20  21
ENDBRANCH   5   8
ENDBRANCH   3   4
ENDBRANCH   2   3
ENDBRANCH   1   2
BRANCH   1  25
ATOM     25  N   UNL A   1      37.155  22.869  26.135  1.00  0.00    -0.352 N 
ATOM     26  C   UNL A   1      38.514  23.021  26.248  1.00  0.00     0.251 C 
ATOM     27  H   UNL A   1      36.855  21.956  25.924  1.00  0.00     0.163 HD
ATOM     28  O   UNL A   1      39.263  22.149  25.809  1.00  0.00    -0.269 OA
BRANCH  26  29
ATOM     29  C   UNL A   1      39.069  24.226  26.891  1.00  0.00     0.039 A 
ATOM     30  C   UNL A   1      39.793  25.144  26.128  1.00  0.00     0.014 A 
ATOM     31  C   UNL A   1      38.889  24.436  28.260  1.00  0.00     0.014 A 
ATOM     32  C   UNL A   1      40.275  26.309  26.729  1.00  0.00     0.010 A 
ATOM     33  C   UNL A   1      39.280  25.638  28.833  1.00  0.00     0.010 A 
ATOM     34  C   UNL A   1      39.991  26.580  28.077  1.00  0.00    -0.014 A 
BRANCH  34  35
ATOM     35  C   UNL A   1      40.455  27.825  28.734  1.00  0.00     0.031 A 
ATOM     36  C   UNL A   1      41.872  27.918  29.233  1.00  0.00     0.074 A 
ATOM     37  C   UNL A   1      39.593  28.845  28.918  1.00  0.00     0.049 A 
ATOM     38  N   UNL A   1      42.452  28.892  29.885  1.00  0.00    -0.248 NA
ATOM     39  C   UNL A   1      42.746  26.756  28.991  1.00  0.00     0.031 C 
ATOM     40  C   UNL A   1      38.190  28.857  28.498  1.00  0.00     0.029 A 
ATOM     41  N   UNL A   1      39.775  30.073  29.500  1.00  0.00    -0.354 N 
ATOM     42  C   UNL A   1      43.750  28.461  30.129  1.00  0.00     0.074 A 
ATOM     43  C   UNL A   1      43.854  27.111  29.625  1.00  0.00     0.031 C 
ATOM     44  C   UNL A   1      37.654  30.054  28.789  1.00  0.00     0.029 A 
ATOM     45  C   UNL A   1      38.658  30.875  29.457  1.00  0.00     0.049 A 
ATOM     46  H   UNL A   1      40.625  30.354  29.911  1.00  0.00     0.167 HD
ATOM     47  C   UNL A   1      44.777  29.140  30.690  1.00  0.00     0.031 A 
ATOM     48  C   UNL A   1      38.470  32.133  29.900  1.00  0.00     0.031 A 
ATOM     49  C   UNL A   1      44.673  30.488  31.178  1.00  0.00     0.049 A 
ATOM     50  C   UNL A   1      39.615  32.848  30.565  1.00  0.00     0.074 A 
ATOM     51  C   UNL A   1      45.658  31.275  31.746  1.00  0.00     0.029 A 
ATOM     52  N   UNL A   1      43.517  31.253  31.142  1.00  0.00    -0.354 N 
ATOM     53  N   UNL A   1      40.843  32.432  30.763  1.00  0.00    -0.248 NA
ATOM     54  C   UNL A   1      39.348  34.205  31.064  1.00  0.00     0.031 C 
ATOM     55  C   UNL A   1      45.086  32.502  32.093  1.00  0.00     0.029 A 
ATOM     56  C   UNL A   1      43.760  32.499  31.691  1.00  0.00     0.049 A 
ATOM     57  H   UNL A   1      42.652  30.953  30.779  1.00  0.00     0.167 HD
ATOM     58  C   UNL A   1      41.503  33.486  31.384  1.00  0.00     0.074 A 
ATOM     59  C   UNL A   1      40.543  34.562  31.517  1.00  0.00     0.031 C 
ATOM     60  C   UNL A   1      42.789  33.556  31.807  1.00  0.00     0.031 A 
BRANCH  47  61
ATOM     61  C   UNL A   1      46.107  28.442  30.781  1.00  0.00    -0.014 A 
ATOM     62  C   UNL A   1      46.411  27.622  31.884  1.00  0.00     0.010 A 
ATOM     63  C   UNL A   1      47.041  28.559  29.736  1.00  0.00     0.010 A 
ATOM     64  C   UNL A   1      47.637  26.958  31.956  1.00  0.00     0.020 A 
ATOM     65  C   UNL A   1      48.258  27.873  29.792  1.00  0.00     0.020 A 
ATOM     66  C   UNL A   1      48.552  27.085  30.907  1.00  0.00     0.054 A 
BRANCH  66  67
ATOM     67  S   UNL A   1      50.117  26.175  31.014  1.00  0.00     0.124 S 
ATOM     68  O   UNL A   1      51.051  27.228  31.409  1.00  0.00    -0.237 OA
ATOM     69  O   UNL A   1      49.833  25.173  32.037  1.00  0.00    -0.237 OA
ATOM     70  O   UNL A   1      50.307  25.650  29.665  1.00  0.00    -0.744 OA
ENDBRANCH  66  67
ENDBRANCH  47  61
BRANCH  48  71
ATOM     71  C   UNL A   1      37.161  32.811  29.695  1.00  0.00    -0.014 A 
ATOM     72  C   UNL A   1      36.902  33.495  28.493  1.00  0.00     0.010 A 
ATOM     73  C   UNL A   1      36.166  32.775  30.687  1.00  0.00     0.010 A 
ATOM     74  C   UNL A   1      35.681  34.145  28.296  1.00  0.00     0.020 A 
ATOM     75  C   UNL A   1      34.932  33.400  30.483  1.00  0.00     0.020 A 
ATOM     76  C   UNL A   1      34.702  34.092  29.292  1.00  0.00     0.054 A 
BRANCH  76  77
ATOM     77  S   UNL A   1      33.111  34.912  28.995  1.00  0.00     0.124 S 
ATOM     78  O   UNL A   1      32.498  34.034  28.003  1.00  0.00    -0.237 OA
ATOM     79  O   UNL A   1      32.497  34.895  30.320  1.00  0.00    -0.237 OA
ATOM     80  O   UNL A   1      33.492  36.235  28.510  1.00  0.00    -0.744 OA
ENDBRANCH  76  77
ENDBRANCH  48  71
BRANCH  60  81
ATOM     81  C   UNL A   1      43.247  34.845  32.433  1.00  0.00    -0.014 A 
ATOM     82  C   UNL A   1      43.788  35.877  31.649  1.00  0.00     0.010 A 
ATOM     83  C   UNL A   1      43.047  35.057  33.810  1.00  0.00     0.010 A 
ATOM     84  C   UNL A   1      44.137  37.097  32.234  1.00  0.00     0.020 A 
ATOM     85  C   UNL A   1      43.369  36.285  34.393  1.00  0.00     0.020 A 
ATOM     86  C   UNL A   1      43.920  37.295  33.601  1.00  0.00     0.054 A 
BRANCH  86  87
ATOM     87  S   UNL A   1      44.317  38.912  34.317  1.00  0.00     0.124 S 
ATOM     88  O   UNL A   1      45.525  39.281  33.586  1.00  0.00    -0.237 OA
ATOM     89  O   UNL A   1      43.126  39.700  34.003  1.00  0.00    -0.237 OA
ATOM     90  O   UNL A   1      44.510  38.626  35.737  1.00  0.00    -0.744 OA
ENDBRANCH  86  87
ENDBRANCH  60  81
ENDBRANCH  34  35
ENDBRANCH  26  29
ENDBRANCH   1  25
TORSDOF 14
ENDMDL
MODEL 3
REMARK VINA RESULT:     -11.3      4.445     10.141
REMARK SMILES Cc1cc2c(c(C)c1Br)C=C(C(=O)NCCCNC(=O)c1ccc(-c3c4nc(c(-c5ccc(S(=O)(=O)[O-])cc5)c5ccc([nH]5)c(-c5ccc(S(=O)(=O)[O-])cc5)c5nc(c(-c6ccc(S(=O)(=O)[O-])cc6)c6ccc3[nH]6)C=C5)C=C4)cc1)[C@@H](C(F)(F)F)O2
REMARK SMILES IDX 17 1 16 2 15 3 14 4 12 5 13 6 11 8 1 9 2 10 3 11 8 12 4 13
REMARK SMILES IDX 6 14 9 15 5 16 86 17 7 18 10 19 81 20 82 21 83 22 84 23
REMARK SMILES IDX 85 24 18 25 19 26 20 28 21 29 22 30 80 31 23 32 79 33 24 34
REMARK SMILES IDX 25 35 26 36 73 37 27 38 78 39 72 40 74 41 28 42 77 43 71 44
REMARK SMILES IDX 70 45 29 47 59 48 40 49 58 50 41 51 44 52 57 53 75 54 42 55
REMARK SMILES IDX 43 56 56 58 76 59 45 60 30 61 31 62 39 63 32 64 38 65 33 66
REMARK SMILES IDX 34 67 35 68 36 69 37 70 60 71 61 72 69 73 62 74 68 75 63 76
REMARK SMILES IDX 64 77 65 78 66 79 67 80 46 81 47 82 55 83 48 84 54 85 49 86
REMARK SMILES IDX 50 87 51 88 52 89 53 90
REMARK H PARENT 14 7 18 27 74 46 44 57
REMARK Flexibility Score: inf
ROOT
ATOM      1  C   UNL A   1      39.474  23.724  27.005  1.00  0.00     0.118 C 
ENDROOT
BRANCH   1   2
ATOM      2  C   UNL A   1      38.064  23.730  26.430  1.00  0.00     0.042 C 
BRANCH   2   3
ATOM      3  C   UNL A   1      37.723  22.421  25.734  1.00  0.00     0.118 C 
BRANCH   3   4
ATOM      4  N   UNL A   1      37.473  22.609  24.312  1.00  0.00    -0.352 N 
ATOM      5  C   UNL A   1      36.420  22.912  23.520  1.00  0.00     0.251 C 
ATOM      6  O   UNL A   1      36.673  22.982  22.313  1.00  0.00    -0.270 OA
ATOM      7  H   UNL A   1      38.294  22.480  23.784  1.00  0.00     0.163 HD
BRANCH   5   8
ATOM      8  C   UNL A   1      35.030  23.165  23.999  1.00  0.00     0.067 C 
ATOM      9  C   UNL A   1      29.348  25.440  26.191  1.00  0.00     0.046 C 
ATOM     10  C   UNL A   1      30.781  25.263  25.765  1.00  0.00    -0.033 A 
ATOM     11  C   UNL A   1      31.109  24.074  25.108  1.00  0.00     0.051 A 
ATOM     12  C   UNL A   1      31.806  26.197  26.036  1.00  0.00     0.024 A 
ATOM     13  C   UNL A   1      32.417  23.820  24.714  1.00  0.00     0.128 A 
ATOM     14  C   UNL A   1      33.140  25.962  25.611  1.00  0.00    -0.026 A 
ATOM     15  Br  UNL A   1      31.355  27.782  27.009  1.00  0.00    -0.050 Br
ATOM     16  C   UNL A   1      33.436  24.750  24.938  1.00  0.00     0.021 A 
ATOM     17  O   UNL A   1      32.608  22.633  24.067  1.00  0.00    -0.475 OA
ATOM     18  C   UNL A   1      34.255  26.954  25.848  1.00  0.00     0.046 C 
ATOM     19  C   UNL A   1      34.769  24.417  24.420  1.00  0.00     0.026 C 
ATOM     20  C   UNL A   1      33.961  22.117  24.057  1.00  0.00     0.314 C 
BRANCH  20  21
ATOM     21  C   UNL A   1      34.151  21.143  25.236  1.00  0.00     0.429 C 
ATOM     22  F   UNL A   1      35.165  20.279  24.983  1.00  0.00    -0.167 F 
ATOM     23  F   UNL A   1      34.470  21.778  26.390  1.00  0.00    -0.167 F 
ATOM     24  F   UNL A   1      33.046  20.408  25.492  1.00  0.00    -0.167 F 
ENDBRANCH  20  21
ENDBRANCH   5   8
ENDBRANCH   3   4
ENDBRANCH   2   3
ENDBRANCH   1   2
BRANCH   1  25
ATOM     25  N   UNL A   1      40.447  24.270  26.062  1.00  0.00    -0.352 N 
ATOM     26  C   UNL A   1      41.033  25.510  26.017  1.00  0.00     0.251 C 
ATOM     27  H   UNL A   1      40.725  23.653  25.347  1.00  0.00     0.163 HD
ATOM     28  O   UNL A   1      41.599  25.879  24.990  1.00  0.00    -0.269 OA
BRANCH  26  29
ATOM     29  C   UNL A   1      40.980  26.393  27.197  1.00  0.00     0.039 A 
ATOM     30  C   UNL A   1      41.691  27.594  27.193  1.00  0.00     0.014 A 
ATOM     31  C   UNL A   1      40.238  26.018  28.319  1.00  0.00     0.014 A 
ATOM     32  C   UNL A   1      41.599  28.451  28.292  1.00  0.00     0.010 A 
ATOM     33  C   UNL A   1      40.066  26.913  29.365  1.00  0.00     0.010 A 
ATOM     34  C   UNL A   1      40.757  28.132  29.370  1.00  0.00    -0.014 A 
BRANCH  34  35
ATOM     35  C   UNL A   1      40.607  29.038  30.533  1.00  0.00     0.031 A 
ATOM     36  C   UNL A   1      41.543  28.905  31.705  1.00  0.00     0.074 A 
ATOM     37  C   UNL A   1      39.609  29.943  30.552  1.00  0.00     0.049 A 
ATOM     38  N   UNL A   1      41.541  29.558  32.838  1.00  0.00    -0.248 NA
ATOM     39  C   UNL A   1      42.606  27.889  31.601  1.00  0.00     0.031 C 
ATOM     40  C   UNL A   1      38.626  30.145  29.484  1.00  0.00     0.029 A 
ATOM     41  N   UNL A   1      39.260  30.868  31.501  1.00  0.00    -0.354 N 
ATOM     42  C   UNL A   1      42.594  29.033  33.576  1.00  0.00     0.074 A 
ATOM     43  C   UNL A   1      43.168  27.958  32.799  1.00  0.00     0.031 C 
ATOM     44  C   UNL A   1      37.820  31.167  29.816  1.00  0.00     0.029 A 
ATOM     45  C   UNL A   1      38.196  31.661  31.136  1.00  0.00     0.049 A 
ATOM     46  H   UNL A   1      39.726  30.957  32.364  1.00  0.00     0.167 HD
ATOM     47  C   UNL A   1      43.068  29.432  34.779  1.00  0.00     0.031 A 
ATOM     48  C   UNL A   1      37.598  32.674  31.791  1.00  0.00     0.031 A 
ATOM     49  C   UNL A   1      42.504  30.512  35.543  1.00  0.00     0.049 A 
ATOM     50  C   UNL A   1      38.112  33.066  33.150  1.00  0.00     0.074 A 
ATOM     51  C   UNL A   1      42.919  31.011  36.764  1.00  0.00     0.029 A 
ATOM     52  N   UNL A   1      41.408  31.268  35.150  1.00  0.00    -0.354 N 
ATOM     53  N   UNL A   1      39.127  32.574  33.819  1.00  0.00    -0.248 NA
ATOM     54  C   UNL A   1      37.403  34.154  33.838  1.00  0.00     0.031 C 
ATOM     55  C   UNL A   1      42.049  32.041  37.130  1.00  0.00     0.029 A 
ATOM     56  C   UNL A   1      41.125  32.220  36.112  1.00  0.00     0.049 A 
ATOM     57  H   UNL A   1      40.908  31.144  34.311  1.00  0.00     0.167 HD
ATOM     58  C   UNL A   1      39.194  33.310  34.997  1.00  0.00     0.074 A 
ATOM     59  C   UNL A   1      38.127  34.289  34.941  1.00  0.00     0.031 C 
ATOM     60  C   UNL A   1      40.062  33.187  36.032  1.00  0.00     0.031 A 
BRANCH  47  61
ATOM     61  C   UNL A   1      44.271  28.715  35.328  1.00  0.00    -0.014 A 
ATOM     62  C   UNL A   1      45.570  29.157  35.019  1.00  0.00     0.010 A 
ATOM     63  C   UNL A   1      44.108  27.624  36.201  1.00  0.00     0.010 A 
ATOM     64  C   UNL A   1      46.686  28.503  35.546  1.00  0.00     0.020 A 
ATOM     65  C   UNL A   1      45.222  26.984  36.753  1.00  0.00     0.020 A 
ATOM     66  C   UNL A   1      46.504  27.422  36.413  1.00  0.00     0.054 A 
BRANCH  66  67
ATOM     67  S   UNL A   1      47.973  26.622  37.113  1.00  0.00     0.124 S 
ATOM     68  O   UNL A   1      49.053  27.433  36.554  1.00  0.00    -0.237 OA
ATOM     69  O   UNL A   1      47.759  26.767  38.550  1.00  0.00    -0.237 OA
ATOM     70  O   UNL A   1      47.898  25.254  36.609  1.00  0.00    -0.744 OA
ENDBRANCH  66  67
ENDBRANCH  47  61
BRANCH  48  71
ATOM     71  C   UNL A   1      36.473  33.415  31.157  1.00  0.00    -0.014 A 
ATOM     72  C   UNL A   1      36.575  33.841  29.819  1.00  0.00     0.010 A 
ATOM     73  C   UNL A   1      35.297  33.694  31.874  1.00  0.00     0.010 A 
ATOM     74  C   UNL A   1      35.529  34.547  29.219  1.00  0.00     0.020 A 
ATOM     75  C   UNL A   1      34.237  34.376  31.269  1.00  0.00     0.020 A 
ATOM     76  C   UNL A   1      34.365  34.810  29.947  1.00  0.00     0.054 A 
BRANCH  76  77
ATOM     77  S   UNL A   1      33.007  35.694  29.132  1.00  0.00     0.124 S 
ATOM     78  O   UNL A   1      32.208  36.138  30.269  1.00  0.00    -0.237 OA
ATOM     79  O   UNL A   1      33.712  36.747  28.404  1.00  0.00    -0.237 OA
ATOM     80  O   UNL A   1      32.388  34.673  28.292  1.00  0.00    -0.744 OA
ENDBRANCH  76  77
ENDBRANCH  48  71
BRANCH  60  81
ATOM     81  C   UNL A   1      39.914  34.146  37.181  1.00  0.00    -0.014 A 
ATOM     82  C   UNL A   1      40.498  35.423  37.137  1.00  0.00     0.010 A 
ATOM     83  C   UNL A   1      39.105  33.795  38.278  1.00  0.00     0.010 A 
ATOM     84  C   UNL A   1      40.288  36.329  38.179  1.00  0.00     0.020 A 
ATOM     85  C   UNL A   1      38.871  34.708  39.308  1.00  0.00     0.020 A 
ATOM     86  C   UNL A   1      39.471  35.968  39.255  1.00  0.00     0.054 A 
BRANCH  86  87
ATOM     87  S   UNL A   1      39.159  37.191  40.557  1.00  0.00     0.124 S 
ATOM     88  O   UNL A   1      38.584  36.368  41.616  1.00  0.00    -0.237 OA
ATOM     89  O   UNL A   1      40.496  37.717  40.825  1.00  0.00    -0.237 OA
ATOM     90  O   UNL A   1      38.238  38.137  39.932  1.00  0.00    -0.744 OA
ENDBRANCH  86  87
ENDBRANCH  60  81
ENDBRANCH  34  35
ENDBRANCH  26  29
ENDBRANCH   1  25
TORSDOF 14
ENDMDL
