MODEL 1
REMARK VINA RESULT:     -11.9      0.000      0.000
REMARK SMILES O=C(NCCCNC(=O)[C@H](NC(=O)c1ccc(Br)nc1)c1ccccc1)c1ccc(-c2c3nc(c(-c4ccc(S(=O)(=O)[O-])cc4)c4ccc([nH]4)c(-c4ccc(S(=O)(=O)[O-])cc4)c4nc(c(-c5ccc(S(=O)(=O)[O-])cc5)c5ccc2[nH]5)C=C4)C=C3)cc1
REMARK SMILES IDX 4 1 3 2 1 3 2 4 27 6 28 7 86 8 29 9 85 10 30 11 31 12 32 13
REMARK SMILES IDX 79 14 33 15 84 16 78 17 80 18 34 19 83 20 77 21 76 22 35 24
REMARK SMILES IDX 65 25 46 26 64 27 47 28 50 29 63 30 81 31 48 32 49 33 62 35
REMARK SMILES IDX 82 36 51 37 36 38 37 39 45 40 38 41 44 42 39 43 40 44 41 45
REMARK SMILES IDX 42 46 43 47 66 48 67 49 75 50 68 51 74 52 69 53 70 54 71 55
REMARK SMILES IDX 72 56 73 57 52 58 53 59 61 60 54 61 60 62 55 63 56 64 57 65
REMARK SMILES IDX 58 66 59 67 5 68 6 69 7 70 8 71 9 73 10 74 21 75 22 76 26 77
REMARK SMILES IDX 23 78 25 79 24 80 11 81 12 82 13 84 14 85 15 86 20 87 16 88
REMARK SMILES IDX 19 89 17 90 18 91
REMARK H PARENT 3 5 80 23 50 34 7 72 11 83
REMARK Flexibility Score: inf
ROOT
ATOM      1  C   UNL A   1      33.840  28.342  27.159  1.00  0.00     0.118 C 
ENDROOT
BRANCH   1   2
ATOM      2  N   UNL A   1      33.725  29.779  27.396  1.00  0.00    -0.352 N 
ATOM      3  O   UNL A   1      34.111  31.700  28.512  1.00  0.00    -0.269 OA
ATOM      4  C   UNL A   1      34.532  30.607  28.136  1.00  0.00     0.251 C 
ATOM      5  H   UNL A   1      32.957  30.217  26.962  1.00  0.00     0.163 HD
BRANCH   4   6
ATOM      6  C   UNL A   1      35.905  30.176  28.459  1.00  0.00     0.039 A 
ATOM      7  C   UNL A   1      36.903  30.335  27.501  1.00  0.00     0.014 A 
ATOM      8  C   UNL A   1      36.212  29.637  29.711  1.00  0.00     0.014 A 
ATOM      9  C   UNL A   1      38.149  29.779  27.710  1.00  0.00     0.010 A 
ATOM     10  C   UNL A   1      37.521  29.219  29.979  1.00  0.00     0.010 A 
ATOM     11  C   UNL A   1      38.495  29.271  28.971  1.00  0.00    -0.014 A 
BRANCH  11  12
ATOM     12  C   UNL A   1      39.920  28.929  29.199  1.00  0.00     0.031 A 
ATOM     13  C   UNL A   1      40.494  27.607  28.782  1.00  0.00     0.074 A 
ATOM     14  C   UNL A   1      40.714  29.895  29.710  1.00  0.00     0.049 A 
ATOM     15  N   UNL A   1      41.738  27.207  28.835  1.00  0.00    -0.248 NA
ATOM     16  C   UNL A   1      39.564  26.600  28.248  1.00  0.00     0.031 C 
ATOM     17  C   UNL A   1      40.250  31.215  30.161  1.00  0.00     0.029 A 
ATOM     18  N   UNL A   1      42.070  29.951  29.885  1.00  0.00    -0.354 N 
ATOM     19  C   UNL A   1      41.743  25.904  28.355  1.00  0.00     0.074 A 
ATOM     20  C   UNL A   1      40.371  25.566  28.043  1.00  0.00     0.031 C 
ATOM     21  C   UNL A   1      41.307  31.976  30.465  1.00  0.00     0.029 A 
ATOM     22  C   UNL A   1      42.513  31.173  30.337  1.00  0.00     0.049 A 
ATOM     23  H   UNL A   1      42.671  29.192  29.706  1.00  0.00     0.167 HD
ATOM     24  C   UNL A   1      42.800  25.072  28.187  1.00  0.00     0.031 A 
ATOM     25  C   UNL A   1      43.751  31.600  30.643  1.00  0.00     0.031 A 
ATOM     26  C   UNL A   1      44.160  25.425  28.510  1.00  0.00     0.049 A 
ATOM     27  C   UNL A   1      44.893  30.645  30.473  1.00  0.00     0.074 A 
ATOM     28  C   UNL A   1      45.303  24.654  28.381  1.00  0.00     0.029 A 
ATOM     29  N   UNL A   1      44.564  26.651  29.021  1.00  0.00    -0.354 N 
ATOM     30  N   UNL A   1      44.873  29.416  30.012  1.00  0.00    -0.248 NA
ATOM     31  C   UNL A   1      46.220  31.128  30.864  1.00  0.00     0.031 C 
ATOM     32  C   UNL A   1      46.388  25.394  28.862  1.00  0.00     0.029 A 
ATOM     33  C   UNL A   1      45.934  26.650  29.231  1.00  0.00     0.049 A 
ATOM     34  H   UNL A   1      43.964  27.409  29.208  1.00  0.00     0.167 HD
ATOM     35  C   UNL A   1      46.190  28.980  30.055  1.00  0.00     0.074 A 
ATOM     36  C   UNL A   1      46.981  30.091  30.545  1.00  0.00     0.031 C 
ATOM     37  C   UNL A   1      46.698  27.764  29.734  1.00  0.00     0.031 A 
BRANCH  24  38
ATOM     38  C   UNL A   1      42.530  23.690  27.648  1.00  0.00    -0.014 A 
ATOM     39  C   UNL A   1      42.680  23.401  26.280  1.00  0.00     0.010 A 
ATOM     40  C   UNL A   1      42.196  22.647  28.533  1.00  0.00     0.010 A 
ATOM     41  C   UNL A   1      42.482  22.100  25.805  1.00  0.00     0.020 A 
ATOM     42  C   UNL A   1      42.023  21.341  28.065  1.00  0.00     0.020 A 
ATOM     43  C   UNL A   1      42.158  21.077  26.701  1.00  0.00     0.054 A 
BRANCH  43  44
ATOM     44  S   UNL A   1      41.960  19.390  26.062  1.00  0.00     0.124 S 
ATOM     45  O   UNL A   1      42.452  18.586  27.177  1.00  0.00    -0.237 OA
ATOM     46  O   UNL A   1      40.523  19.308  25.816  1.00  0.00    -0.237 OA
ATOM     47  O   UNL A   1      42.797  19.370  24.866  1.00  0.00    -0.744 OA
ENDBRANCH  43  44
ENDBRANCH  24  38
BRANCH  25  48
ATOM     48  C   UNL A   1      43.951  32.967  31.198  1.00  0.00    -0.014 A 
ATOM     49  C   UNL A   1      43.968  33.198  32.583  1.00  0.00     0.010 A 
ATOM     50  C   UNL A   1      44.134  34.055  30.323  1.00  0.00     0.010 A 
ATOM     51  C   UNL A   1      44.131  34.495  33.081  1.00  0.00     0.020 A 
ATOM     52  C   UNL A   1      44.339  35.345  30.815  1.00  0.00     0.020 A 
ATOM     53  C   UNL A   1      44.315  35.559  32.192  1.00  0.00     0.054 A 
BRANCH  53  54
ATOM     54  S   UNL A   1      44.544  37.230  32.856  1.00  0.00     0.124 S 
ATOM     55  O   UNL A   1      43.208  37.547  33.348  1.00  0.00    -0.237 OA
ATOM     56  O   UNL A   1      45.566  37.027  33.881  1.00  0.00    -0.237 OA
ATOM     57  O   UNL A   1      44.984  38.002  31.695  1.00  0.00    -0.744 OA
ENDBRANCH  53  54
ENDBRANCH  25  48
BRANCH  37  58
ATOM     58  C   UNL A   1      48.185  27.596  29.889  1.00  0.00    -0.014 A 
ATOM     59  C   UNL A   1      49.070  27.957  28.856  1.00  0.00     0.010 A 
ATOM     60  C   UNL A   1      48.704  27.067  31.083  1.00  0.00     0.010 A 
ATOM     61  C   UNL A   1      50.441  27.739  28.994  1.00  0.00     0.020 A 
ATOM     62  C   UNL A   1      50.078  26.879  31.239  1.00  0.00     0.020 A 
ATOM     63  C   UNL A   1      50.937  27.195  30.184  1.00  0.00     0.054 A 
BRANCH  63  64
ATOM     64  S   UNL A   1      52.722  26.925  30.340  1.00  0.00     0.124 S 
ATOM     65  O   UNL A   1      53.064  26.383  29.029  1.00  0.00    -0.237 OA
ATOM     66  O   UNL A   1      53.226  28.268  30.617  1.00  0.00    -0.237 OA
ATOM     67  O   UNL A   1      52.834  25.983  31.452  1.00  0.00    -0.744 OA
ENDBRANCH  63  64
ENDBRANCH  37  58
ENDBRANCH  11  12
ENDBRANCH   4   6
ENDBRANCH   1   2
BRANCH   1  68
ATOM     68  C   UNL A   1      32.740  27.849  26.232  1.00  0.00     0.042 C 
BRANCH  68  69
ATOM     69  C   UNL A   1      32.041  29.011  25.541  1.00  0.00     0.117 C 
BRANCH  69  70
ATOM     70  N   UNL A   1      32.766  29.395  24.341  1.00  0.00    -0.354 N 
ATOM     71  C   UNL A   1      32.685  28.845  23.090  1.00  0.00     0.247 C 
ATOM     72  H   UNL A   1      33.395  30.146  24.441  1.00  0.00     0.163 HD
ATOM     73  O   UNL A   1      33.578  29.112  22.281  1.00  0.00    -0.272 OA
BRANCH  71  74
ATOM     74  C   UNL A   1      31.528  27.869  22.768  1.00  0.00     0.202 C 
BRANCH  74  75
ATOM     75  C   UNL A   1      30.188  28.568  22.630  1.00  0.00    -0.016 A 
ATOM     76  C   UNL A   1      30.123  29.782  21.923  1.00  0.00     0.006 A 
ATOM     77  C   UNL A   1      29.005  28.055  23.177  1.00  0.00     0.006 A 
ATOM     78  C   UNL A   1      28.934  30.502  21.829  1.00  0.00     0.000 A 
ATOM     79  C   UNL A   1      27.802  28.756  23.044  1.00  0.00     0.000 A 
ATOM     80  C   UNL A   1      27.772  29.988  22.392  1.00  0.00     0.000 A 
ENDBRANCH  74  75
BRANCH  74  81
ATOM     81  N   UNL A   1      31.890  27.069  21.599  1.00  0.00    -0.336 N 
ATOM     82  C   UNL A   1      32.480  25.823  21.608  1.00  0.00     0.253 C 
ATOM     83  H   UNL A   1      31.692  27.458  20.716  1.00  0.00     0.165 HD
ATOM     84  O   UNL A   1      33.096  25.398  20.640  1.00  0.00    -0.269 OA
BRANCH  82  85
ATOM     85  C   UNL A   1      32.378  25.002  22.827  1.00  0.00     0.058 A 
ATOM     86  C   UNL A   1      31.181  24.378  23.171  1.00  0.00     0.018 A 
ATOM     87  C   UNL A   1      33.450  24.904  23.698  1.00  0.00     0.126 A 
ATOM     88  C   UNL A   1      31.068  23.766  24.417  1.00  0.00     0.037 A 
ATOM     89  N   UNL A   1      33.358  24.334  24.926  1.00  0.00    -0.249 NA
ATOM     90  C   UNL A   1      32.170  23.784  25.263  1.00  0.00     0.106 A 
ATOM     91  Br  UNL A   1      31.987  23.062  27.006  1.00  0.00    -0.029 Br
ENDBRANCH  82  85
ENDBRANCH  74  81
ENDBRANCH  71  74
ENDBRANCH  69  70
ENDBRANCH  68  69
ENDBRANCH   1  68
TORSDOF 16
ENDMDL
MODEL 2
REMARK VINA RESULT:     -11.6      1.698      3.662
REMARK SMILES O=C(NCCCNC(=O)[C@H](NC(=O)c1ccc(Br)nc1)c1ccccc1)c1ccc(-c2c3nc(c(-c4ccc(S(=O)(=O)[O-])cc4)c4ccc([nH]4)c(-c4ccc(S(=O)(=O)[O-])cc4)c4nc(c(-c5ccc(S(=O)(=O)[O-])cc5)c5ccc2[nH]5)C=C4)C=C3)cc1
REMARK SMILES IDX 4 1 3 2 1 3 2 4 27 6 28 7 86 8 29 9 85 10 30 11 31 12 32 13
REMARK SMILES IDX 79 14 33 15 84 16 78 17 80 18 34 19 83 20 77 21 76 22 35 24
REMARK SMILES IDX 65 25 46 26 64 27 47 28 50 29 63 30 81 31 48 32 49 33 62 35
REMARK SMILES IDX 82 36 51 37 36 38 37 39 45 40 38 41 44 42 39 43 40 44 41 45
REMARK SMILES IDX 42 46 43 47 66 48 67 49 75 50 68 51 74 52 69 53 70 54 71 55
REMARK SMILES IDX 72 56 73 57 52 58 53 59 61 60 54 61 60 62 55 63 56 64 57 65
REMARK SMILES IDX 58 66 59 67 5 68 6 69 7 70 8 71 9 73 10 74 21 75 22 76 26 77
REMARK SMILES IDX 23 78 25 79 24 80 11 81 12 82 13 84 14 85 15 86 20 87 16 88
REMARK SMILES IDX 19 89 17 90 18 91
REMARK H PARENT 3 5 80 23 50 34 7 72 11 83
REMARK Flexibility Score: inf
ROOT
ATOM      1  C   UNL A   1      33.559  28.157  27.166  1.00  0.00     0.118 C 
ENDROOT
BRANCH   1   2
ATOM      2  N   UNL A   1      33.442  29.610  27.263  1.00  0.00    -0.352 N 
ATOM      3  O   UNL A   1      33.832  31.631  28.185  1.00  0.00    -0.269 OA
ATOM      4  C   UNL A   1      34.253  30.507  27.914  1.00  0.00     0.251 C 
ATOM      5  H   UNL A   1      32.670  30.003  26.794  1.00  0.00     0.163 HD
BRANCH   4   6
ATOM      6  C   UNL A   1      35.629  30.111  28.267  1.00  0.00     0.039 A 
ATOM      7  C   UNL A   1      36.630  30.228  27.306  1.00  0.00     0.014 A 
ATOM      8  C   UNL A   1      35.935  29.646  29.549  1.00  0.00     0.014 A 
ATOM      9  C   UNL A   1      37.882  29.701  27.552  1.00  0.00     0.010 A 
ATOM     10  C   UNL A   1      37.248  29.260  29.845  1.00  0.00     0.010 A 
ATOM     11  C   UNL A   1      38.227  29.268  28.841  1.00  0.00    -0.014 A 
BRANCH  11  12
ATOM     12  C   UNL A   1      39.655  28.956  29.095  1.00  0.00     0.031 A 
ATOM     13  C   UNL A   1      40.260  27.640  28.703  1.00  0.00     0.074 A 
ATOM     14  C   UNL A   1      40.422  29.943  29.606  1.00  0.00     0.049 A 
ATOM     15  N   UNL A   1      41.511  27.266  28.780  1.00  0.00    -0.248 NA
ATOM     16  C   UNL A   1      39.357  26.609  28.167  1.00  0.00     0.031 C 
ATOM     17  C   UNL A   1      39.925  31.259  30.033  1.00  0.00     0.029 A 
ATOM     18  N   UNL A   1      41.774  30.028  29.801  1.00  0.00    -0.354 N 
ATOM     19  C   UNL A   1      41.548  25.957  28.316  1.00  0.00     0.074 A 
ATOM     20  C   UNL A   1      40.188  25.589  27.988  1.00  0.00     0.031 C 
ATOM     21  C   UNL A   1      40.963  32.045  30.344  1.00  0.00     0.029 A 
ATOM     22  C   UNL A   1      42.186  31.264  30.245  1.00  0.00     0.049 A 
ATOM     23  H   UNL A   1      42.391  29.278  29.640  1.00  0.00     0.167 HD
ATOM     24  C   UNL A   1      42.623  25.144  28.175  1.00  0.00     0.031 A 
ATOM     25  C   UNL A   1      43.410  31.718  30.564  1.00  0.00     0.031 A 
ATOM     26  C   UNL A   1      43.971  25.527  28.514  1.00  0.00     0.049 A 
ATOM     27  C   UNL A   1      44.573  30.783  30.423  1.00  0.00     0.074 A 
ATOM     28  C   UNL A   1      45.131  24.777  28.411  1.00  0.00     0.029 A 
ATOM     29  N   UNL A   1      44.343  26.767  29.016  1.00  0.00    -0.354 N 
ATOM     30  N   UNL A   1      44.584  29.550  29.977  1.00  0.00    -0.248 NA
ATOM     31  C   UNL A   1      45.884  31.298  30.828  1.00  0.00     0.031 C 
ATOM     32  C   UNL A   1      46.193  25.544  28.900  1.00  0.00     0.029 A 
ATOM     33  C   UNL A   1      45.710  26.796  29.246  1.00  0.00     0.049 A 
ATOM     34  H   UNL A   1      43.726  27.515  29.184  1.00  0.00     0.167 HD
ATOM     35  C   UNL A   1      45.908  29.139  30.046  1.00  0.00     0.074 A 
ATOM     36  C   UNL A   1      46.670  30.272  30.534  1.00  0.00     0.031 C 
ATOM     37  C   UNL A   1      46.444  27.930  29.747  1.00  0.00     0.031 A 
BRANCH  24  38
ATOM     38  C   UNL A   1      42.388  23.751  27.649  1.00  0.00    -0.014 A 
ATOM     39  C   UNL A   1      42.421  23.479  26.269  1.00  0.00     0.010 A 
ATOM     40  C   UNL A   1      42.209  22.684  28.550  1.00  0.00     0.010 A 
ATOM     41  C   UNL A   1      42.258  22.171  25.800  1.00  0.00     0.020 A 
ATOM     42  C   UNL A   1      42.072  21.372  28.086  1.00  0.00     0.020 A 
ATOM     43  C   UNL A   1      42.088  21.125  26.712  1.00  0.00     0.054 A 
BRANCH  43  44
ATOM     44  S   UNL A   1      41.934  19.432  26.076  1.00  0.00     0.124 S 
ATOM     45  O   UNL A   1      42.794  19.474  24.896  1.00  0.00    -0.237 OA
ATOM     46  O   UNL A   1      42.434  18.627  27.188  1.00  0.00    -0.237 OA
ATOM     47  O   UNL A   1      40.507  19.291  25.801  1.00  0.00    -0.744 OA
ENDBRANCH  43  44
ENDBRANCH  24  38
BRANCH  25  48
ATOM     48  C   UNL A   1      43.576  33.095  31.105  1.00  0.00    -0.014 A 
ATOM     49  C   UNL A   1      43.828  34.187  30.259  1.00  0.00     0.010 A 
ATOM     50  C   UNL A   1      43.473  33.317  32.493  1.00  0.00     0.010 A 
ATOM     51  C   UNL A   1      44.006  35.468  30.793  1.00  0.00     0.020 A 
ATOM     52  C   UNL A   1      43.609  34.599  33.026  1.00  0.00     0.020 A 
ATOM     53  C   UNL A   1      43.896  35.664  32.173  1.00  0.00     0.054 A 
BRANCH  53  54
ATOM     54  S   UNL A   1      44.111  37.334  32.845  1.00  0.00     0.124 S 
ATOM     55  O   UNL A   1      43.027  37.409  33.819  1.00  0.00    -0.237 OA
ATOM     56  O   UNL A   1      45.461  37.281  33.401  1.00  0.00    -0.237 OA
ATOM     57  O   UNL A   1      43.962  38.195  31.674  1.00  0.00    -0.744 OA
ENDBRANCH  53  54
ENDBRANCH  25  48
BRANCH  37  58
ATOM     58  C   UNL A   1      47.932  27.792  29.926  1.00  0.00    -0.014 A 
ATOM     59  C   UNL A   1      48.481  27.351  31.145  1.00  0.00     0.010 A 
ATOM     60  C   UNL A   1      48.792  28.110  28.861  1.00  0.00     0.010 A 
ATOM     61  C   UNL A   1      49.865  27.286  31.312  1.00  0.00     0.020 A 
ATOM     62  C   UNL A   1      50.176  28.013  29.013  1.00  0.00     0.020 A 
ATOM     63  C   UNL A   1      50.705  27.623  30.246  1.00  0.00     0.054 A 
BRANCH  63  64
ATOM     64  S   UNL A   1      52.499  27.527  30.486  1.00  0.00     0.124 S 
ATOM     65  O   UNL A   1      52.595  27.048  31.862  1.00  0.00    -0.237 OA
ATOM     66  O   UNL A   1      52.909  26.573  29.458  1.00  0.00    -0.237 OA
ATOM     67  O   UNL A   1      52.951  28.900  30.270  1.00  0.00    -0.744 OA
ENDBRANCH  63  64
ENDBRANCH  37  58
ENDBRANCH  11  12
ENDBRANCH   4   6
ENDBRANCH   1   2
BRANCH   1  68
ATOM     68  C   UNL A   1      32.944  27.643  25.874  1.00  0.00     0.042 C 
BRANCH  68  69
ATOM     69  C   UNL A   1      33.703  26.434  25.345  1.00  0.00     0.117 C 
BRANCH  69  70
ATOM     70  N   UNL A   1      33.365  25.249  26.117  1.00  0.00    -0.354 N 
ATOM     71  C   UNL A   1      33.547  23.936  25.776  1.00  0.00     0.247 C 
ATOM     72  H   UNL A   1      32.953  25.412  26.997  1.00  0.00     0.163 HD
ATOM     73  O   UNL A   1      32.941  23.079  26.425  1.00  0.00    -0.272 OA
BRANCH  71  74
ATOM     74  C   UNL A   1      34.441  23.589  24.561  1.00  0.00     0.202 C 
BRANCH  74  75
ATOM     75  C   UNL A   1      35.845  23.175  24.961  1.00  0.00    -0.016 A 
ATOM     76  C   UNL A   1      36.332  21.924  24.544  1.00  0.00     0.006 A 
ATOM     77  C   UNL A   1      36.685  23.990  25.731  1.00  0.00     0.006 A 
ATOM     78  C   UNL A   1      37.584  21.464  24.943  1.00  0.00     0.000 A 
ATOM     79  C   UNL A   1      37.960  23.547  26.096  1.00  0.00     0.000 A 
ATOM     80  C   UNL A   1      38.400  22.277  25.722  1.00  0.00     0.000 A 
ENDBRANCH  74  75
BRANCH  74  81
ATOM     81  N   UNL A   1      33.756  22.597  23.733  1.00  0.00    -0.336 N 
ATOM     82  C   UNL A   1      32.557  22.765  23.074  1.00  0.00     0.253 C 
ATOM     83  H   UNL A   1      34.195  21.721  23.635  1.00  0.00     0.165 HD
ATOM     84  O   UNL A   1      31.869  21.809  22.740  1.00  0.00    -0.269 OA
BRANCH  82  85
ATOM     85  C   UNL A   1      32.093  24.134  22.790  1.00  0.00     0.058 A 
ATOM     86  C   UNL A   1      32.822  24.979  21.957  1.00  0.00     0.018 A 
ATOM     87  C   UNL A   1      30.962  24.634  23.414  1.00  0.00     0.126 A 
ATOM     88  C   UNL A   1      32.455  26.319  21.859  1.00  0.00     0.037 A 
ATOM     89  N   UNL A   1      30.598  25.939  23.353  1.00  0.00    -0.249 NA
ATOM     90  C   UNL A   1      31.354  26.755  22.584  1.00  0.00     0.106 A 
ATOM     91  Br  UNL A   1      30.920  28.601  22.552  1.00  0.00    -0.029 Br
ENDBRANCH  82  85
ENDBRANCH  74  81
ENDBRANCH  71  74
ENDBRANCH  69  70
ENDBRANCH  68  69
ENDBRANCH   1  68
TORSDOF 16
ENDMDL
MODEL 3
REMARK VINA RESULT:     -11.4      3.488      9.607
REMARK SMILES O=C(NCCCNC(=O)[C@H](NC(=O)c1ccc(Br)nc1)c1ccccc1)c1ccc(-c2c3nc(c(-c4ccc(S(=O)(=O)[O-])cc4)c4ccc([nH]4)c(-c4ccc(S(=O)(=O)[O-])cc4)c4nc(c(-c5ccc(S(=O)(=O)[O-])cc5)c5ccc2[nH]5)C=C4)C=C3)cc1
REMARK SMILES IDX 4 1 3 2 1 3 2 4 27 6 28 7 86 8 29 9 85 10 30 11 31 12 32 13
REMARK SMILES IDX 79 14 33 15 84 16 78 17 80 18 34 19 83 20 77 21 76 22 35 24
REMARK SMILES IDX 65 25 46 26 64 27 47 28 50 29 63 30 81 31 48 32 49 33 62 35
REMARK SMILES IDX 82 36 51 37 36 38 37 39 45 40 38 41 44 42 39 43 40 44 41 45
REMARK SMILES IDX 42 46 43 47 66 48 67 49 75 50 68 51 74 52 69 53 70 54 71 55
REMARK SMILES IDX 72 56 73 57 52 58 53 59 61 60 54 61 60 62 55 63 56 64 57 65
REMARK SMILES IDX 58 66 59 67 5 68 6 69 7 70 8 71 9 73 10 74 21 75 22 76 26 77
REMARK SMILES IDX 23 78 25 79 24 80 11 81 12 82 13 84 14 85 15 86 20 87 16 88
REMARK SMILES IDX 19 89 17 90 18 91
REMARK H PARENT 3 5 80 23 50 34 7 72 11 83
REMARK Flexibility Score: inf
ROOT
ATOM      1  C   UNL A   1      37.122  23.939  25.342  1.00  0.00     0.118 C 
ENDROOT
BRANCH   1   2
ATOM      2  N   UNL A   1      38.116  22.914  25.653  1.00  0.00    -0.352 N 
ATOM      3  O   UNL A   1      40.201  22.142  26.028  1.00  0.00    -0.269 OA
ATOM      4  C   UNL A   1      39.389  23.057  26.149  1.00  0.00     0.251 C 
ATOM      5  H   UNL A   1      37.832  21.987  25.483  1.00  0.00     0.163 HD
BRANCH   4   6
ATOM      6  C   UNL A   1      39.759  24.309  26.835  1.00  0.00     0.039 A 
ATOM      7  C   UNL A   1      39.461  24.448  28.189  1.00  0.00     0.014 A 
ATOM      8  C   UNL A   1      40.417  25.335  26.151  1.00  0.00     0.014 A 
ATOM      9  C   UNL A   1      39.634  25.670  28.807  1.00  0.00     0.010 A 
ATOM     10  C   UNL A   1      40.737  26.518  26.827  1.00  0.00     0.010 A 
ATOM     11  C   UNL A   1      40.330  26.700  28.157  1.00  0.00    -0.014 A 
BRANCH  11  12
ATOM     12  C   UNL A   1      40.703  27.886  28.967  1.00  0.00     0.031 A 
ATOM     13  C   UNL A   1      39.759  29.034  29.172  1.00  0.00     0.074 A 
ATOM     14  C   UNL A   1      41.895  27.852  29.601  1.00  0.00     0.049 A 
ATOM     15  N   UNL A   1      39.915  30.090  29.927  1.00  0.00    -0.248 NA
ATOM     16  C   UNL A   1      38.485  29.006  28.436  1.00  0.00     0.031 C 
ATOM     17  C   UNL A   1      42.894  26.783  29.457  1.00  0.00     0.029 A 
ATOM     18  N   UNL A   1      42.450  28.692  30.528  1.00  0.00    -0.354 N 
ATOM     19  C   UNL A   1      38.772  30.859  29.752  1.00  0.00     0.074 A 
ATOM     20  C   UNL A   1      37.940  30.163  28.794  1.00  0.00     0.031 C 
ATOM     21  C   UNL A   1      43.885  26.982  30.333  1.00  0.00     0.029 A 
ATOM     22  C   UNL A   1      43.652  28.241  31.024  1.00  0.00     0.049 A 
ATOM     23  H   UNL A   1      42.030  29.535  30.813  1.00  0.00     0.167 HD
ATOM     24  C   UNL A   1      38.448  32.034  30.344  1.00  0.00     0.031 A 
ATOM     25  C   UNL A   1      44.494  28.790  31.917  1.00  0.00     0.031 A 
ATOM     26  C   UNL A   1      39.293  32.715  31.293  1.00  0.00     0.049 A 
ATOM     27  C   UNL A   1      44.119  30.105  32.531  1.00  0.00     0.074 A 
ATOM     28  C   UNL A   1      39.060  33.913  31.949  1.00  0.00     0.029 A 
ATOM     29  N   UNL A   1      40.531  32.260  31.727  1.00  0.00    -0.354 N 
ATOM     30  N   UNL A   1      43.028  30.812  32.353  1.00  0.00    -0.248 NA
ATOM     31  C   UNL A   1      45.084  30.696  33.461  1.00  0.00     0.031 C 
ATOM     32  C   UNL A   1      40.178  34.206  32.737  1.00  0.00     0.029 A 
ATOM     33  C   UNL A   1      41.080  33.161  32.626  1.00  0.00     0.049 A 
ATOM     34  H   UNL A   1      40.955  31.420  31.438  1.00  0.00     0.167 HD
ATOM     35  C   UNL A   1      43.175  31.935  33.154  1.00  0.00     0.074 A 
ATOM     36  C   UNL A   1      44.439  31.787  33.849  1.00  0.00     0.031 C 
ATOM     37  C   UNL A   1      42.348  33.000  33.293  1.00  0.00     0.031 A 
BRANCH  24  38
ATOM     38  C   UNL A   1      37.134  32.673  29.971  1.00  0.00    -0.014 A 
ATOM     39  C   UNL A   1      35.991  32.506  30.773  1.00  0.00     0.010 A 
ATOM     40  C   UNL A   1      37.061  33.515  28.846  1.00  0.00     0.010 A 
ATOM     41  C   UNL A   1      34.794  33.151  30.444  1.00  0.00     0.020 A 
ATOM     42  C   UNL A   1      35.874  34.183  28.529  1.00  0.00     0.020 A 
ATOM     43  C   UNL A   1      34.744  33.989  29.326  1.00  0.00     0.054 A 
BRANCH  43  44
ATOM     44  S   UNL A   1      33.193  34.856  28.957  1.00  0.00     0.124 S 
ATOM     45  O   UNL A   1      32.573  33.963  27.982  1.00  0.00    -0.237 OA
ATOM     46  O   UNL A   1      32.540  34.911  30.262  1.00  0.00    -0.237 OA
ATOM     47  O   UNL A   1      33.631  36.144  28.427  1.00  0.00    -0.744 OA
ENDBRANCH  43  44
ENDBRANCH  24  38
BRANCH  25  48
ATOM     48  C   UNL A   1      45.791  28.126  32.224  1.00  0.00    -0.014 A 
ATOM     49  C   UNL A   1      46.948  28.402  31.477  1.00  0.00     0.010 A 
ATOM     50  C   UNL A   1      45.868  27.205  33.287  1.00  0.00     0.010 A 
ATOM     51  C   UNL A   1      48.149  27.745  31.767  1.00  0.00     0.020 A 
ATOM     52  C   UNL A   1      47.073  26.579  33.606  1.00  0.00     0.020 A 
ATOM     53  C   UNL A   1      48.201  26.837  32.829  1.00  0.00     0.054 A 
BRANCH  53  54
ATOM     54  S   UNL A   1      49.771  26.011  33.203  1.00  0.00     0.124 S 
ATOM     55  O   UNL A   1      49.840  25.003  32.151  1.00  0.00    -0.237 OA
ATOM     56  O   UNL A   1      50.737  27.103  33.100  1.00  0.00    -0.237 OA
ATOM     57  O   UNL A   1      49.572  25.493  34.555  1.00  0.00    -0.744 OA
ENDBRANCH  53  54
ENDBRANCH  25  48
BRANCH  37  58
ATOM     58  C   UNL A   1      42.789  34.073  34.251  1.00  0.00    -0.014 A 
ATOM     59  C   UNL A   1      42.404  34.044  35.604  1.00  0.00     0.010 A 
ATOM     60  C   UNL A   1      43.599  35.126  33.791  1.00  0.00     0.010 A 
ATOM     61  C   UNL A   1      42.774  35.079  36.465  1.00  0.00     0.020 A 
ATOM     62  C   UNL A   1      44.000  36.145  34.656  1.00  0.00     0.020 A 
ATOM     63  C   UNL A   1      43.565  36.127  35.984  1.00  0.00     0.054 A 
BRANCH  63  64
ATOM     64  S   UNL A   1      44.035  37.456  37.122  1.00  0.00     0.124 S 
ATOM     65  O   UNL A   1      44.150  38.600  36.222  1.00  0.00    -0.237 OA
ATOM     66  O   UNL A   1      42.908  37.497  38.050  1.00  0.00    -0.237 OA
ATOM     67  O   UNL A   1      45.293  36.989  37.700  1.00  0.00    -0.744 OA
ENDBRANCH  63  64
ENDBRANCH  37  58
ENDBRANCH  11  12
ENDBRANCH   4   6
ENDBRANCH   1   2
BRANCH   1  68
ATOM     68  C   UNL A   1      35.809  23.313  24.902  1.00  0.00     0.042 C 
BRANCH  68  69
ATOM     69  C   UNL A   1      35.797  21.814  25.165  1.00  0.00     0.117 C 
BRANCH  69  70
ATOM     70  N   UNL A   1      35.196  21.533  26.458  1.00  0.00    -0.354 N 
ATOM     71  C   UNL A   1      33.868  21.522  26.791  1.00  0.00     0.247 C 
ATOM     72  H   UNL A   1      35.825  21.324  27.188  1.00  0.00     0.163 HD
ATOM     73  O   UNL A   1      33.571  21.546  27.988  1.00  0.00    -0.272 OA
BRANCH  71  74
ATOM     74  C   UNL A   1      32.808  21.548  25.664  1.00  0.00     0.202 C 
BRANCH  74  75
ATOM     75  C   UNL A   1      32.685  20.221  24.939  1.00  0.00    -0.016 A 
ATOM     76  C   UNL A   1      32.469  20.221  23.550  1.00  0.00     0.006 A 
ATOM     77  C   UNL A   1      32.781  18.986  25.595  1.00  0.00     0.006 A 
ATOM     78  C   UNL A   1      32.276  19.035  22.846  1.00  0.00     0.000 A 
ATOM     79  C   UNL A   1      32.631  17.793  24.882  1.00  0.00     0.000 A 
ATOM     80  C   UNL A   1      32.356  17.818  23.515  1.00  0.00     0.000 A 
ENDBRANCH  74  75
BRANCH  74  81
ATOM     81  N   UNL A   1      31.541  22.031  26.212  1.00  0.00    -0.336 N 
ATOM     82  C   UNL A   1      31.182  23.347  26.412  1.00  0.00     0.253 C 
ATOM     83  H   UNL A   1      30.877  21.349  26.463  1.00  0.00     0.165 HD
ATOM     84  O   UNL A   1      30.308  23.660  27.209  1.00  0.00    -0.269 OA
BRANCH  82  85
ATOM     85  C   UNL A   1      31.890  24.395  25.657  1.00  0.00     0.058 A 
ATOM     86  C   UNL A   1      32.950  25.096  26.227  1.00  0.00     0.018 A 
ATOM     87  C   UNL A   1      31.459  24.760  24.392  1.00  0.00     0.126 A 
ATOM     88  C   UNL A   1      33.473  26.200  25.557  1.00  0.00     0.037 A 
ATOM     89  N   UNL A   1      31.936  25.844  23.730  1.00  0.00    -0.249 NA
ATOM     90  C   UNL A   1      32.926  26.545  24.328  1.00  0.00     0.106 A 
ATOM     91  Br  UNL A   1      33.548  28.116  23.467  1.00  0.00    -0.029 Br
ENDBRANCH  82  85
ENDBRANCH  74  81
ENDBRANCH  71  74
ENDBRANCH  69  70
ENDBRANCH  68  69
ENDBRANCH   1  68
TORSDOF 16
ENDMDL
