MODEL 1
REMARK VINA RESULT:     -10.6      0.000      0.000
REMARK SMILES O=C(CC1(C[S@](=O)C[C@H]2Cc3ccccc3S2)CC1)NCCCNC(=O)c1ccc(-c2c3nc(c(-c4ccc(S(=O)(=O)[O-])cc4)c4ccc([nH]4)c(-c4ccc(S(=O)(=O)[O-])cc4)c4nc(c(-c5ccc(S(=O)(=O)[O-])cc5)c5ccc2[nH]5)C=C4)C=C3)cc1
REMARK SMILES IDX 21 1 20 2 1 3 2 4 3 6 4 7 18 8 19 9 5 10 6 11 7 12 8 13 9 14
REMARK SMILES IDX 10 15 17 16 11 17 16 18 12 19 15 20 13 21 14 22 22 23 23 24
REMARK SMILES IDX 24 25 25 26 26 28 27 29 28 30 86 31 29 32 85 33 30 34 31 35
REMARK SMILES IDX 32 36 79 37 33 38 84 39 78 40 80 41 34 42 83 43 77 44 76 45
REMARK SMILES IDX 35 47 65 48 46 49 64 50 47 51 50 52 63 53 81 54 48 55 49 56
REMARK SMILES IDX 62 58 82 59 51 60 36 61 37 62 45 63 38 64 44 65 39 66 40 67
REMARK SMILES IDX 41 68 42 69 43 70 66 71 67 72 75 73 68 74 74 75 69 76 70 77
REMARK SMILES IDX 71 78 72 79 73 80 52 81 53 82 61 83 54 84 60 85 55 86 56 87
REMARK SMILES IDX 57 88 58 89 59 90
REMARK H PARENT 20 5 24 27 80 46 50 57
REMARK Flexibility Score: inf
ROOT
ATOM      1  C   UNL A   1      34.448  30.117  27.371  1.00  0.00     0.117 C 
ENDROOT
BRANCH   1   2
ATOM      2  N   UNL A   1      33.771  29.851  26.118  1.00  0.00    -0.356 N 
ATOM      3  O   UNL A   1      31.716  29.384  27.034  1.00  0.00    -0.275 OA
ATOM      4  C   UNL A   1      32.437  29.527  26.051  1.00  0.00     0.220 C 
ATOM      5  H   UNL A   1      34.287  29.905  25.281  1.00  0.00     0.163 HD
BRANCH   4   6
ATOM      6  C   UNL A   1      31.928  29.265  24.651  1.00  0.00     0.108 C 
BRANCH   6   7
ATOM      7  C   UNL A   1      32.456  28.024  23.938  1.00  0.00    -0.009 C 
ATOM      8  C   UNL A   1      31.732  27.630  22.655  1.00  0.00     0.009 C 
ATOM      9  C   UNL A   1      33.143  28.106  22.574  1.00  0.00     0.009 C 
BRANCH   7  10
ATOM     10  C   UNL A   1      32.820  26.891  24.875  1.00  0.00     0.112 C 
BRANCH  10  11
ATOM     11  S   UNL A   1      31.449  25.736  25.170  1.00  0.00     0.023 S 
ATOM     12  O   UNL A   1      30.800  26.028  26.488  1.00  0.00    -0.260 OA
BRANCH  11  13
ATOM     13  C   UNL A   1      32.438  24.208  25.297  1.00  0.00     0.120 C 
BRANCH  13  14
ATOM     14  C   UNL A   1      32.471  23.302  24.051  1.00  0.00     0.068 C 
ATOM     15  C   UNL A   1      33.744  23.592  23.209  1.00  0.00     0.052 C 
ATOM     16  S   UNL A   1      32.614  21.512  24.428  1.00  0.00    -0.121 SA
ATOM     17  C   UNL A   1      34.842  22.714  23.753  1.00  0.00    -0.033 A 
ATOM     18  C   UNL A   1      34.376  21.592  24.441  1.00  0.00     0.011 A 
ATOM     19  C   UNL A   1      36.207  22.904  23.577  1.00  0.00     0.005 A 
ATOM     20  C   UNL A   1      35.246  20.695  25.039  1.00  0.00     0.015 A 
ATOM     21  C   UNL A   1      37.096  21.992  24.157  1.00  0.00     0.000 A 
ATOM     22  C   UNL A   1      36.619  20.905  24.901  1.00  0.00     0.001 A 
ENDBRANCH  13  14
ENDBRANCH  11  13
ENDBRANCH  10  11
ENDBRANCH   7  10
ENDBRANCH   6   7
ENDBRANCH   4   6
ENDBRANCH   1   2
BRANCH   1  23
ATOM     23  C   UNL A   1      34.325  31.577  27.780  1.00  0.00     0.042 C 
BRANCH  23  24
ATOM     24  C   UNL A   1      35.453  32.066  28.682  1.00  0.00     0.118 C 
BRANCH  24  25
ATOM     25  N   UNL A   1      35.279  31.693  30.081  1.00  0.00    -0.352 N 
ATOM     26  C   UNL A   1      36.039  30.881  30.889  1.00  0.00     0.251 C 
ATOM     27  H   UNL A   1      34.488  32.085  30.516  1.00  0.00     0.163 HD
ATOM     28  O   UNL A   1      35.630  30.584  32.009  1.00  0.00    -0.269 OA
BRANCH  26  29
ATOM     29  C   UNL A   1      37.328  30.333  30.407  1.00  0.00     0.039 A 
ATOM     30  C   UNL A   1      38.211  29.692  31.276  1.00  0.00     0.014 A 
ATOM     31  C   UNL A   1      37.661  30.465  29.054  1.00  0.00     0.014 A 
ATOM     32  C   UNL A   1      39.494  29.368  30.844  1.00  0.00     0.010 A 
ATOM     33  C   UNL A   1      38.914  30.041  28.598  1.00  0.00     0.010 A 
ATOM     34  C   UNL A   1      39.865  29.544  29.501  1.00  0.00    -0.014 A 
BRANCH  34  35
ATOM     35  C   UNL A   1      41.251  29.206  29.072  1.00  0.00     0.031 A 
ATOM     36  C   UNL A   1      42.371  30.203  29.229  1.00  0.00     0.074 A 
ATOM     37  C   UNL A   1      41.514  27.972  28.596  1.00  0.00     0.049 A 
ATOM     38  N   UNL A   1      43.644  30.057  28.952  1.00  0.00    -0.248 NA
ATOM     39  C   UNL A   1      42.028  31.532  29.761  1.00  0.00     0.031 C 
ATOM     40  C   UNL A   1      40.518  26.914  28.415  1.00  0.00     0.029 A 
ATOM     41  N   UNL A   1      42.695  27.385  28.212  1.00  0.00    -0.354 N 
ATOM     42  C   UNL A   1      44.245  31.271  29.264  1.00  0.00     0.074 A 
ATOM     43  C   UNL A   1      43.196  32.158  29.713  1.00  0.00     0.031 C 
ATOM     44  C   UNL A   1      41.137  25.791  28.021  1.00  0.00     0.029 A 
ATOM     45  C   UNL A   1      42.561  26.065  27.848  1.00  0.00     0.049 A 
ATOM     46  H   UNL A   1      43.554  27.863  28.198  1.00  0.00     0.167 HD
ATOM     47  C   UNL A   1      45.555  31.608  29.203  1.00  0.00     0.031 A 
ATOM     48  C   UNL A   1      43.471  25.168  27.418  1.00  0.00     0.031 A 
ATOM     49  C   UNL A   1      46.599  30.712  28.773  1.00  0.00     0.049 A 
ATOM     50  C   UNL A   1      44.911  25.582  27.306  1.00  0.00     0.074 A 
ATOM     51  C   UNL A   1      47.959  30.959  28.703  1.00  0.00     0.029 A 
ATOM     52  N   UNL A   1      46.409  29.406  28.346  1.00  0.00    -0.354 N 
ATOM     53  N   UNL A   1      45.460  26.728  27.628  1.00  0.00    -0.248 NA
ATOM     54  C   UNL A   1      45.854  24.587  26.779  1.00  0.00     0.031 C 
ATOM     55  C   UNL A   1      48.581  29.831  28.166  1.00  0.00     0.029 A 
ATOM     56  C   UNL A   1      47.622  28.848  27.978  1.00  0.00     0.049 A 
ATOM     57  H   UNL A   1      45.539  28.945  28.310  1.00  0.00     0.167 HD
ATOM     58  C   UNL A   1      46.816  26.590  27.351  1.00  0.00     0.074 A 
ATOM     59  C   UNL A   1      47.007  25.240  26.861  1.00  0.00     0.031 C 
ATOM     60  C   UNL A   1      47.808  27.505  27.487  1.00  0.00     0.031 A 
BRANCH  47  61
ATOM     61  C   UNL A   1      45.962  33.001  29.618  1.00  0.00    -0.014 A 
ATOM     62  C   UNL A   1      46.050  34.021  28.652  1.00  0.00     0.010 A 
ATOM     63  C   UNL A   1      46.385  33.270  30.932  1.00  0.00     0.010 A 
ATOM     64  C   UNL A   1      46.588  35.268  28.979  1.00  0.00     0.020 A 
ATOM     65  C   UNL A   1      46.894  34.528  31.272  1.00  0.00     0.020 A 
ATOM     66  C   UNL A   1      47.017  35.510  30.287  1.00  0.00     0.054 A 
BRANCH  66  67
ATOM     67  S   UNL A   1      47.749  37.122  30.683  1.00  0.00     0.124 S 
ATOM     68  O   UNL A   1      47.026  38.018  29.787  1.00  0.00    -0.237 OA
ATOM     69  O   UNL A   1      47.447  37.270  32.105  1.00  0.00    -0.237 OA
ATOM     70  O   UNL A   1      49.166  36.939  30.374  1.00  0.00    -0.744 OA
ENDBRANCH  66  67
ENDBRANCH  47  61
BRANCH  48  71
ATOM     71  C   UNL A   1      43.026  23.784  27.090  1.00  0.00    -0.014 A 
ATOM     72  C   UNL A   1      42.905  22.815  28.104  1.00  0.00     0.010 A 
ATOM     73  C   UNL A   1      42.817  23.399  25.753  1.00  0.00     0.010 A 
ATOM     74  C   UNL A   1      42.658  21.478  27.787  1.00  0.00     0.020 A 
ATOM     75  C   UNL A   1      42.534  22.068  25.434  1.00  0.00     0.020 A 
ATOM     76  C   UNL A   1      42.491  21.110  26.450  1.00  0.00     0.054 A 
BRANCH  76  77
ATOM     77  S   UNL A   1      42.248  19.357  26.054  1.00  0.00     0.124 S 
ATOM     78  O   UNL A   1      42.636  18.711  27.306  1.00  0.00    -0.237 OA
ATOM     79  O   UNL A   1      40.825  19.297  25.730  1.00  0.00    -0.237 OA
ATOM     80  O   UNL A   1      43.151  19.131  24.928  1.00  0.00    -0.744 OA
ENDBRANCH  76  77
ENDBRANCH  48  71
BRANCH  60  81
ATOM     81  C   UNL A   1      49.207  27.105  27.095  1.00  0.00    -0.014 A 
ATOM     82  C   UNL A   1      49.573  27.077  25.736  1.00  0.00     0.010 A 
ATOM     83  C   UNL A   1      50.112  26.621  28.056  1.00  0.00     0.010 A 
ATOM     84  C   UNL A   1      50.796  26.531  25.340  1.00  0.00     0.020 A 
ATOM     85  C   UNL A   1      51.352  26.104  27.667  1.00  0.00     0.020 A 
ATOM     86  C   UNL A   1      51.673  26.036  26.309  1.00  0.00     0.054 A 
BRANCH  86  87
ATOM     87  S   UNL A   1      53.235  25.287  25.771  1.00  0.00     0.124 S 
ATOM     88  O   UNL A   1      54.080  25.459  26.950  1.00  0.00    -0.237 OA
ATOM     89  O   UNL A   1      52.845  23.912  25.470  1.00  0.00    -0.237 OA
ATOM     90  O   UNL A   1      53.617  26.087  24.609  1.00  0.00    -0.744 OA
ENDBRANCH  86  87
ENDBRANCH  60  81
ENDBRANCH  34  35
ENDBRANCH  26  29
ENDBRANCH  24  25
ENDBRANCH  23  24
ENDBRANCH   1  23
TORSDOF 18
ENDMDL
MODEL 2
REMARK VINA RESULT:     -10.6      2.382      8.825
REMARK SMILES O=C(CC1(C[S@](=O)C[C@H]2Cc3ccccc3S2)CC1)NCCCNC(=O)c1ccc(-c2c3nc(c(-c4ccc(S(=O)(=O)[O-])cc4)c4ccc([nH]4)c(-c4ccc(S(=O)(=O)[O-])cc4)c4nc(c(-c5ccc(S(=O)(=O)[O-])cc5)c5ccc2[nH]5)C=C4)C=C3)cc1
REMARK SMILES IDX 21 1 20 2 1 3 2 4 3 6 4 7 18 8 19 9 5 10 6 11 7 12 8 13 9 14
REMARK SMILES IDX 10 15 17 16 11 17 16 18 12 19 15 20 13 21 14 22 22 23 23 24
REMARK SMILES IDX 24 25 25 26 26 28 27 29 28 30 86 31 29 32 85 33 30 34 31 35
REMARK SMILES IDX 32 36 79 37 33 38 84 39 78 40 80 41 34 42 83 43 77 44 76 45
REMARK SMILES IDX 35 47 65 48 46 49 64 50 47 51 50 52 63 53 81 54 48 55 49 56
REMARK SMILES IDX 62 58 82 59 51 60 36 61 37 62 45 63 38 64 44 65 39 66 40 67
REMARK SMILES IDX 41 68 42 69 43 70 66 71 67 72 75 73 68 74 74 75 69 76 70 77
REMARK SMILES IDX 71 78 72 79 73 80 52 81 53 82 61 83 54 84 60 85 55 86 56 87
REMARK SMILES IDX 57 88 58 89 59 90
REMARK H PARENT 20 5 24 27 80 46 50 57
REMARK Flexibility Score: inf
ROOT
ATOM      1  C   UNL A   1      37.318  21.233  24.845  1.00  0.00     0.117 C 
ENDROOT
BRANCH   1   2
ATOM      2  N   UNL A   1      36.005  20.938  25.381  1.00  0.00    -0.356 N 
ATOM      3  O   UNL A   1      35.525  23.079  26.065  1.00  0.00    -0.275 OA
ATOM      4  C   UNL A   1      35.196  21.904  25.932  1.00  0.00     0.220 C 
ATOM      5  H   UNL A   1      35.679  20.010  25.351  1.00  0.00     0.163 HD
BRANCH   4   6
ATOM      6  C   UNL A   1      33.874  21.387  26.456  1.00  0.00     0.108 C 
BRANCH   6   7
ATOM      7  C   UNL A   1      32.781  21.104  25.432  1.00  0.00    -0.009 C 
ATOM      8  C   UNL A   1      33.250  20.569  24.082  1.00  0.00     0.009 C 
ATOM      9  C   UNL A   1      32.449  19.683  24.975  1.00  0.00     0.009 C 
BRANCH   7  10
ATOM     10  C   UNL A   1      31.696  22.161  25.389  1.00  0.00     0.112 C 
BRANCH  10  11
ATOM     11  S   UNL A   1      31.657  23.209  26.872  1.00  0.00     0.023 S 
ATOM     12  O   UNL A   1      30.406  22.951  27.655  1.00  0.00    -0.260 OA
BRANCH  11  13
ATOM     13  C   UNL A   1      31.533  24.822  26.029  1.00  0.00     0.120 C 
BRANCH  13  14
ATOM     14  C   UNL A   1      32.437  25.950  26.563  1.00  0.00     0.068 C 
ATOM     15  C   UNL A   1      33.662  26.146  25.628  1.00  0.00     0.052 C 
ATOM     16  S   UNL A   1      31.645  27.606  26.570  1.00  0.00    -0.121 SA
ATOM     17  C   UNL A   1      33.248  27.121  24.556  1.00  0.00    -0.033 A 
ATOM     18  C   UNL A   1      32.175  27.936  24.920  1.00  0.00     0.011 A 
ATOM     19  C   UNL A   1      33.864  27.293  23.322  1.00  0.00     0.005 A 
ATOM     20  C   UNL A   1      31.639  28.864  24.044  1.00  0.00     0.015 A 
ATOM     21  C   UNL A   1      33.346  28.244  22.436  1.00  0.00     0.000 A 
ATOM     22  C   UNL A   1      32.227  29.012  22.787  1.00  0.00     0.001 A 
ENDBRANCH  13  14
ENDBRANCH  11  13
ENDBRANCH  10  11
ENDBRANCH   7  10
ENDBRANCH   6   7
ENDBRANCH   4   6
ENDBRANCH   1   2
BRANCH   1  23
ATOM     23  C   UNL A   1      38.300  20.100  25.101  1.00  0.00     0.042 C 
BRANCH  23  24
ATOM     24  C   UNL A   1      39.482  20.491  25.980  1.00  0.00     0.118 C 
BRANCH  24  25
ATOM     25  N   UNL A   1      40.466  19.427  26.136  1.00  0.00    -0.352 N 
ATOM     26  C   UNL A   1      41.827  19.489  26.323  1.00  0.00     0.251 C 
ATOM     27  H   UNL A   1      40.096  18.515  26.100  1.00  0.00     0.163 HD
ATOM     28  O   UNL A   1      42.494  18.458  26.286  1.00  0.00    -0.269 OA
BRANCH  26  29
ATOM     29  C   UNL A   1      42.499  20.793  26.533  1.00  0.00     0.039 A 
ATOM     30  C   UNL A   1      42.626  21.343  27.808  1.00  0.00     0.014 A 
ATOM     31  C   UNL A   1      43.013  21.479  25.428  1.00  0.00     0.014 A 
ATOM     32  C   UNL A   1      43.077  22.651  27.955  1.00  0.00     0.010 A 
ATOM     33  C   UNL A   1      43.564  22.755  25.592  1.00  0.00     0.010 A 
ATOM     34  C   UNL A   1      43.547  23.378  26.849  1.00  0.00    -0.014 A 
BRANCH  34  35
ATOM     35  C   UNL A   1      44.006  24.783  27.033  1.00  0.00     0.031 A 
ATOM     36  C   UNL A   1      43.054  25.847  27.516  1.00  0.00     0.074 A 
ATOM     37  C   UNL A   1      45.303  25.087  26.824  1.00  0.00     0.049 A 
ATOM     38  N   UNL A   1      43.299  27.108  27.777  1.00  0.00    -0.248 NA
ATOM     39  C   UNL A   1      41.652  25.456  27.736  1.00  0.00     0.031 C 
ATOM     40  C   UNL A   1      46.324  24.140  26.373  1.00  0.00     0.029 A 
ATOM     41  N   UNL A   1      45.993  26.262  26.994  1.00  0.00    -0.354 N 
ATOM     42  C   UNL A   1      42.085  27.658  28.177  1.00  0.00     0.074 A 
ATOM     43  C   UNL A   1      41.097  26.608  28.087  1.00  0.00     0.031 C 
ATOM     44  C   UNL A   1      47.518  24.752  26.368  1.00  0.00     0.029 A 
ATOM     45  C   UNL A   1      47.341  26.152  26.740  1.00  0.00     0.049 A 
ATOM     46  H   UNL A   1      45.564  27.104  27.271  1.00  0.00     0.167 HD
ATOM     47  C   UNL A   1      41.825  28.917  28.601  1.00  0.00     0.031 A 
ATOM     48  C   UNL A   1      48.330  27.067  26.793  1.00  0.00     0.031 A 
ATOM     49  C   UNL A   1      42.820  29.955  28.707  1.00  0.00     0.049 A 
ATOM     50  C   UNL A   1      48.006  28.472  27.215  1.00  0.00     0.074 A 
ATOM     51  C   UNL A   1      42.653  31.255  29.151  1.00  0.00     0.029 A 
ATOM     52  N   UNL A   1      44.159  29.818  28.372  1.00  0.00    -0.354 N 
ATOM     53  N   UNL A   1      46.857  28.964  27.610  1.00  0.00    -0.248 NA
ATOM     54  C   UNL A   1      49.107  29.444  27.202  1.00  0.00     0.031 C 
ATOM     55  C   UNL A   1      43.870  31.923  29.016  1.00  0.00     0.029 A 
ATOM     56  C   UNL A   1      44.820  31.019  28.566  1.00  0.00     0.049 A 
ATOM     57  H   UNL A   1      44.577  28.988  28.044  1.00  0.00     0.167 HD
ATOM     58  C   UNL A   1      47.097  30.302  27.902  1.00  0.00     0.074 A 
ATOM     59  C   UNL A   1      48.507  30.535  27.664  1.00  0.00     0.031 C 
ATOM     60  C   UNL A   1      46.223  31.249  28.324  1.00  0.00     0.031 A 
BRANCH  47  61
ATOM     61  C   UNL A   1      40.412  29.266  29.001  1.00  0.00    -0.014 A 
ATOM     62  C   UNL A   1      39.475  29.626  28.014  1.00  0.00     0.010 A 
ATOM     63  C   UNL A   1      40.048  29.367  30.355  1.00  0.00     0.010 A 
ATOM     64  C   UNL A   1      38.217  30.118  28.373  1.00  0.00     0.020 A 
ATOM     65  C   UNL A   1      38.778  29.828  30.718  1.00  0.00     0.020 A 
ATOM     66  C   UNL A   1      37.881  30.226  29.725  1.00  0.00     0.054 A 
BRANCH  66  67
ATOM     67  S   UNL A   1      36.257  30.903  30.171  1.00  0.00     0.124 S 
ATOM     68  O   UNL A   1      35.472  30.637  28.970  1.00  0.00    -0.237 OA
ATOM     69  O   UNL A   1      35.897  30.120  31.350  1.00  0.00    -0.237 OA
ATOM     70  O   UNL A   1      36.537  32.314  30.434  1.00  0.00    -0.744 OA
ENDBRANCH  66  67
ENDBRANCH  47  61
BRANCH  48  71
ATOM     71  C   UNL A   1      49.721  26.650  26.457  1.00  0.00    -0.014 A 
ATOM     72  C   UNL A   1      50.214  26.801  25.147  1.00  0.00     0.010 A 
ATOM     73  C   UNL A   1      50.525  26.009  27.417  1.00  0.00     0.010 A 
ATOM     74  C   UNL A   1      51.447  26.256  24.783  1.00  0.00     0.020 A 
ATOM     75  C   UNL A   1      51.777  25.494  27.065  1.00  0.00     0.020 A 
ATOM     76  C   UNL A   1      52.213  25.591  25.742  1.00  0.00     0.054 A 
BRANCH  76  77
ATOM     77  S   UNL A   1      53.776  24.826  25.229  1.00  0.00     0.124 S 
ATOM     78  O   UNL A   1      54.061  25.535  23.983  1.00  0.00    -0.237 OA
ATOM     79  O   UNL A   1      54.665  25.135  26.346  1.00  0.00    -0.237 OA
ATOM     80  O   UNL A   1      53.434  23.414  25.080  1.00  0.00    -0.744 OA
ENDBRANCH  76  77
ENDBRANCH  48  71
BRANCH  60  81
ATOM     81  C   UNL A   1      46.740  32.646  28.555  1.00  0.00    -0.014 A 
ATOM     82  C   UNL A   1      47.143  33.039  29.845  1.00  0.00     0.010 A 
ATOM     83  C   UNL A   1      46.692  33.608  27.531  1.00  0.00     0.010 A 
ATOM     84  C   UNL A   1      47.443  34.375  30.120  1.00  0.00     0.020 A 
ATOM     85  C   UNL A   1      47.024  34.941  27.794  1.00  0.00     0.020 A 
ATOM     86  C   UNL A   1      47.369  35.321  29.094  1.00  0.00     0.054 A 
BRANCH  86  87
ATOM     87  S   UNL A   1      47.716  37.058  29.481  1.00  0.00     0.124 S 
ATOM     88  O   UNL A   1      48.285  36.967  30.822  1.00  0.00    -0.237 OA
ATOM     89  O   UNL A   1      48.650  37.442  28.425  1.00  0.00    -0.237 OA
ATOM     90  O   UNL A   1      46.404  37.696  29.402  1.00  0.00    -0.744 OA
ENDBRANCH  86  87
ENDBRANCH  60  81
ENDBRANCH  34  35
ENDBRANCH  26  29
ENDBRANCH  24  25
ENDBRANCH  23  24
ENDBRANCH   1  23
TORSDOF 18
ENDMDL
MODEL 3
REMARK VINA RESULT:     -10.5      5.974     11.431
REMARK SMILES O=C(CC1(C[S@](=O)C[C@H]2Cc3ccccc3S2)CC1)NCCCNC(=O)c1ccc(-c2c3nc(c(-c4ccc(S(=O)(=O)[O-])cc4)c4ccc([nH]4)c(-c4ccc(S(=O)(=O)[O-])cc4)c4nc(c(-c5ccc(S(=O)(=O)[O-])cc5)c5ccc2[nH]5)C=C4)C=C3)cc1
REMARK SMILES IDX 21 1 20 2 1 3 2 4 3 6 4 7 18 8 19 9 5 10 6 11 7 12 8 13 9 14
REMARK SMILES IDX 10 15 17 16 11 17 16 18 12 19 15 20 13 21 14 22 22 23 23 24
REMARK SMILES IDX 24 25 25 26 26 28 27 29 28 30 86 31 29 32 85 33 30 34 31 35
REMARK SMILES IDX 32 36 79 37 33 38 84 39 78 40 80 41 34 42 83 43 77 44 76 45
REMARK SMILES IDX 35 47 65 48 46 49 64 50 47 51 50 52 63 53 81 54 48 55 49 56
REMARK SMILES IDX 62 58 82 59 51 60 36 61 37 62 45 63 38 64 44 65 39 66 40 67
REMARK SMILES IDX 41 68 42 69 43 70 66 71 67 72 75 73 68 74 74 75 69 76 70 77
REMARK SMILES IDX 71 78 72 79 73 80 52 81 53 82 61 83 54 84 60 85 55 86 56 87
REMARK SMILES IDX 57 88 58 89 59 90
REMARK H PARENT 20 5 24 27 80 46 50 57
REMARK Flexibility Score: inf
ROOT
ATOM      1  C   UNL A   1      38.420  23.518  26.237  1.00  0.00     0.117 C 
ENDROOT
BRANCH   1   2
ATOM      2  N   UNL A   1      37.097  22.932  26.316  1.00  0.00    -0.356 N 
ATOM      3  O   UNL A   1      36.941  22.360  24.096  1.00  0.00    -0.275 OA
ATOM      4  C   UNL A   1      36.470  22.371  25.229  1.00  0.00     0.220 C 
ATOM      5  H   UNL A   1      36.630  22.935  27.182  1.00  0.00     0.163 HD
BRANCH   4   6
ATOM      6  C   UNL A   1      35.085  21.834  25.516  1.00  0.00     0.108 C 
BRANCH   6   7
ATOM      7  C   UNL A   1      34.037  22.833  25.995  1.00  0.00    -0.009 C 
ATOM      8  C   UNL A   1      32.642  22.269  26.252  1.00  0.00     0.009 C 
ATOM      9  C   UNL A   1      33.445  22.771  27.404  1.00  0.00     0.009 C 
BRANCH   7  10
ATOM     10  C   UNL A   1      34.095  24.169  25.283  1.00  0.00     0.112 C 
BRANCH  10  11
ATOM     11  S   UNL A   1      33.123  24.207  23.749  1.00  0.00     0.023 S 
ATOM     12  O   UNL A   1      33.728  23.290  22.730  1.00  0.00    -0.260 OA
BRANCH  11  13
ATOM     13  C   UNL A   1      33.457  25.942  23.290  1.00  0.00     0.120 C 
BRANCH  13  14
ATOM     14  C   UNL A   1      32.229  26.845  23.068  1.00  0.00     0.068 C 
ATOM     15  C   UNL A   1      31.204  26.651  24.218  1.00  0.00     0.052 C 
ATOM     16  S   UNL A   1      32.597  28.642  23.131  1.00  0.00    -0.121 SA
ATOM     17  C   UNL A   1      31.586  27.611  25.316  1.00  0.00    -0.033 A 
ATOM     18  C   UNL A   1      32.346  28.695  24.876  1.00  0.00     0.011 A 
ATOM     19  C   UNL A   1      31.206  27.524  26.650  1.00  0.00     0.005 A 
ATOM     20  C   UNL A   1      32.815  29.656  25.756  1.00  0.00     0.015 A 
ATOM     21  C   UNL A   1      31.655  28.502  27.545  1.00  0.00     0.000 A 
ATOM     22  C   UNL A   1      32.471  29.552  27.104  1.00  0.00     0.001 A 
ENDBRANCH  13  14
ENDBRANCH  11  13
ENDBRANCH  10  11
ENDBRANCH   7  10
ENDBRANCH   6   7
ENDBRANCH   4   6
ENDBRANCH   1   2
BRANCH   1  23
ATOM     23  C   UNL A   1      39.502  22.524  26.628  1.00  0.00     0.042 C 
BRANCH  23  24
ATOM     24  C   UNL A   1      40.825  23.170  27.023  1.00  0.00     0.118 C 
BRANCH  24  25
ATOM     25  N   UNL A   1      41.394  24.012  25.978  1.00  0.00    -0.352 N 
ATOM     26  C   UNL A   1      41.732  25.345  25.991  1.00  0.00     0.251 C 
ATOM     27  H   UNL A   1      41.563  23.552  25.125  1.00  0.00     0.163 HD
ATOM     28  O   UNL A   1      42.068  25.898  24.946  1.00  0.00    -0.269 OA
BRANCH  26  29
ATOM     29  C   UNL A   1      41.661  26.127  27.247  1.00  0.00     0.039 A 
ATOM     30  C   UNL A   1      40.655  25.897  28.186  1.00  0.00     0.014 A 
ATOM     31  C   UNL A   1      42.623  27.113  27.491  1.00  0.00     0.014 A 
ATOM     32  C   UNL A   1      40.491  26.774  29.253  1.00  0.00     0.010 A 
ATOM     33  C   UNL A   1      42.517  27.928  28.624  1.00  0.00     0.010 A 
ATOM     34  C   UNL A   1      41.416  27.806  29.484  1.00  0.00    -0.014 A 
BRANCH  34  35
ATOM     35  C   UNL A   1      41.205  28.741  30.624  1.00  0.00     0.031 A 
ATOM     36  C   UNL A   1      40.074  29.737  30.605  1.00  0.00     0.074 A 
ATOM     37  C   UNL A   1      41.999  28.649  31.710  1.00  0.00     0.049 A 
ATOM     38  N   UNL A   1      39.718  30.591  31.532  1.00  0.00    -0.248 NA
ATOM     39  C   UNL A   1      39.235  29.788  29.396  1.00  0.00     0.031 C 
ATOM     40  C   UNL A   1      43.116  27.713  31.856  1.00  0.00     0.029 A 
ATOM     41  N   UNL A   1      41.972  29.321  32.908  1.00  0.00    -0.354 N 
ATOM     42  C   UNL A   1      38.627  31.283  31.016  1.00  0.00     0.074 A 
ATOM     43  C   UNL A   1      38.403  30.781  29.680  1.00  0.00     0.031 C 
ATOM     44  C   UNL A   1      43.622  27.823  33.093  1.00  0.00     0.029 A 
ATOM     45  C   UNL A   1      42.920  28.886  33.805  1.00  0.00     0.049 A 
ATOM     46  H   UNL A   1      41.337  30.046  33.104  1.00  0.00     0.167 HD
ATOM     47  C   UNL A   1      37.870  32.234  31.612  1.00  0.00     0.031 A 
ATOM     48  C   UNL A   1      43.204  29.292  35.059  1.00  0.00     0.031 A 
ATOM     49  C   UNL A   1      38.087  32.717  32.952  1.00  0.00     0.049 A 
ATOM     50  C   UNL A   1      42.383  30.387  35.678  1.00  0.00     0.074 A 
ATOM     51  C   UNL A   1      37.353  33.663  33.648  1.00  0.00     0.029 A 
ATOM     52  N   UNL A   1      39.102  32.299  33.800  1.00  0.00    -0.354 N 
ATOM     53  N   UNL A   1      41.343  31.011  35.181  1.00  0.00    -0.248 NA
ATOM     54  C   UNL A   1      42.768  30.833  37.025  1.00  0.00     0.031 C 
ATOM     55  C   UNL A   1      37.965  33.869  34.884  1.00  0.00     0.029 A 
ATOM     56  C   UNL A   1      39.034  32.992  34.997  1.00  0.00     0.049 A 
ATOM     57  H   UNL A   1      39.772  31.610  33.581  1.00  0.00     0.167 HD
ATOM     58  C   UNL A   1      40.942  31.918  36.157  1.00  0.00     0.074 A 
ATOM     59  C   UNL A   1      41.835  31.741  37.283  1.00  0.00     0.031 C 
ATOM     60  C   UNL A   1      39.928  32.817  36.115  1.00  0.00     0.031 A 
BRANCH  47  61
ATOM     61  C   UNL A   1      36.716  32.826  30.838  1.00  0.00    -0.014 A 
ATOM     62  C   UNL A   1      36.947  33.887  29.942  1.00  0.00     0.010 A 
ATOM     63  C   UNL A   1      35.393  32.426  31.094  1.00  0.00     0.010 A 
ATOM     64  C   UNL A   1      35.877  34.562  29.348  1.00  0.00     0.020 A 
ATOM     65  C   UNL A   1      34.320  33.078  30.476  1.00  0.00     0.020 A 
ATOM     66  C   UNL A   1      34.569  34.159  29.628  1.00  0.00     0.054 A 
BRANCH  66  67
ATOM     67  S   UNL A   1      33.192  35.074  28.878  1.00  0.00     0.124 S 
ATOM     68  O   UNL A   1      32.651  34.099  27.937  1.00  0.00    -0.237 OA
ATOM     69  O   UNL A   1      32.347  35.380  30.029  1.00  0.00    -0.237 OA
ATOM     70  O   UNL A   1      33.844  36.234  28.271  1.00  0.00    -0.744 OA
ENDBRANCH  66  67
ENDBRANCH  47  61
BRANCH  48  71
ATOM     71  C   UNL A   1      44.308  28.623  35.805  1.00  0.00    -0.014 A 
ATOM     72  C   UNL A   1      44.036  27.539  36.661  1.00  0.00     0.010 A 
ATOM     73  C   UNL A   1      45.620  29.127  35.740  1.00  0.00     0.010 A 
ATOM     74  C   UNL A   1      45.031  27.020  37.492  1.00  0.00     0.020 A 
ATOM     75  C   UNL A   1      46.628  28.586  36.545  1.00  0.00     0.020 A 
ATOM     76  C   UNL A   1      46.318  27.560  37.440  1.00  0.00     0.054 A 
BRANCH  76  77
ATOM     77  S   UNL A   1      47.575  26.922  38.582  1.00  0.00     0.124 S 
ATOM     78  O   UNL A   1      48.515  28.039  38.647  1.00  0.00    -0.237 OA
ATOM     79  O   UNL A   1      46.805  26.676  39.799  1.00  0.00    -0.237 OA
ATOM     80  O   UNL A   1      48.072  25.725  37.909  1.00  0.00    -0.744 OA
ENDBRANCH  76  77
ENDBRANCH  48  71
BRANCH  60  81
ATOM     81  C   UNL A   1      39.711  33.706  37.313  1.00  0.00    -0.014 A 
ATOM     82  C   UNL A   1      40.410  34.923  37.417  1.00  0.00     0.010 A 
ATOM     83  C   UNL A   1      38.930  33.272  38.398  1.00  0.00     0.010 A 
ATOM     84  C   UNL A   1      40.371  35.668  38.597  1.00  0.00     0.020 A 
ATOM     85  C   UNL A   1      38.860  34.031  39.570  1.00  0.00     0.020 A 
ATOM     86  C   UNL A   1      39.604  35.209  39.673  1.00  0.00     0.054 A 
BRANCH  86  87
ATOM     87  S   UNL A   1      39.604  36.165  41.214  1.00  0.00     0.124 S 
ATOM     88  O   UNL A   1      38.939  35.254  42.141  1.00  0.00    -0.237 OA
ATOM     89  O   UNL A   1      41.028  36.383  41.457  1.00  0.00    -0.237 OA
ATOM     90  O   UNL A   1      38.848  37.368  40.872  1.00  0.00    -0.744 OA
ENDBRANCH  86  87
ENDBRANCH  60  81
ENDBRANCH  34  35
ENDBRANCH  26  29
ENDBRANCH  24  25
ENDBRANCH  23  24
ENDBRANCH   1  23
TORSDOF 18
ENDMDL
