MODEL 1
REMARK VINA RESULT:     -11.5      0.000      0.000
REMARK SMILES O=C(NCCCNC(=O)c1cccnc1C[N@@H+]1CCC[C@H]1c1ccccn1)c1ccc(-c2c3nc(c(-c4ccc(S(=O)(=O)[O-])cc4)c4ccc([nH]4)c(-c4ccc(S(=O)(=O)[O-])cc4)c4nc(c(-c5ccc(S(=O)(=O)[O-])cc5)c5ccc2[nH]5)C=C4)C=C3)cc1
REMARK SMILES IDX 5 1 4 2 3 3 1 4 2 5 28 7 29 8 87 9 30 10 86 11 31 12 32 13
REMARK SMILES IDX 33 14 80 15 34 16 85 17 79 18 81 19 35 20 84 21 78 22 77 23
REMARK SMILES IDX 36 25 66 26 47 27 65 28 48 29 51 30 64 31 82 32 49 33 50 34
REMARK SMILES IDX 63 36 83 37 52 38 37 39 38 40 46 41 39 42 45 43 40 44 41 45
REMARK SMILES IDX 42 46 43 47 44 48 67 49 68 50 76 51 69 52 75 53 70 54 71 55
REMARK SMILES IDX 72 56 73 57 74 58 53 59 54 60 62 61 55 62 61 63 56 64 57 65
REMARK SMILES IDX 58 66 59 67 60 68 6 69 7 70 8 71 9 73 10 74 11 75 15 76
REMARK SMILES IDX 12 77 14 78 13 79 16 80 17 81 18 82 21 83 19 85 20 86 22 87
REMARK SMILES IDX 23 88 27 89 24 90 26 91 25 92
REMARK H PARENT 3 6 81 24 51 35 7 72 17 84
REMARK Flexibility Score: inf
ROOT
ATOM      1  C   UNL A   1      32.186  27.894  27.614  1.00  0.00     0.042 C 
ENDROOT
BRANCH   1   2
ATOM      2  C   UNL A   1      33.508  28.585  27.305  1.00  0.00     0.118 C 
BRANCH   2   3
ATOM      3  N   UNL A   1      33.537  29.990  27.696  1.00  0.00    -0.352 N 
ATOM      4  O   UNL A   1      34.291  31.892  28.628  1.00  0.00    -0.269 OA
ATOM      5  C   UNL A   1      34.540  30.747  28.255  1.00  0.00     0.251 C 
ATOM      6  H   UNL A   1      32.697  30.478  27.534  1.00  0.00     0.163 HD
BRANCH   5   7
ATOM      7  C   UNL A   1      35.898  30.188  28.445  1.00  0.00     0.039 A 
ATOM      8  C   UNL A   1      36.281  29.620  29.659  1.00  0.00     0.014 A 
ATOM      9  C   UNL A   1      36.807  30.229  27.383  1.00  0.00     0.014 A 
ATOM     10  C   UNL A   1      37.615  29.286  29.876  1.00  0.00     0.010 A 
ATOM     11  C   UNL A   1      38.123  29.793  27.570  1.00  0.00     0.010 A 
ATOM     12  C   UNL A   1      38.555  29.371  28.836  1.00  0.00    -0.014 A 
BRANCH  12  13
ATOM     13  C   UNL A   1      39.972  29.005  29.108  1.00  0.00     0.031 A 
ATOM     14  C   UNL A   1      40.884  29.934  29.868  1.00  0.00     0.074 A 
ATOM     15  C   UNL A   1      40.423  27.798  28.714  1.00  0.00     0.049 A 
ATOM     16  N   UNL A   1      42.121  29.740  30.252  1.00  0.00    -0.248 NA
ATOM     17  C   UNL A   1      40.345  31.253  30.239  1.00  0.00     0.031 C 
ATOM     18  C   UNL A   1      39.643  26.809  27.964  1.00  0.00     0.029 A 
ATOM     19  N   UNL A   1      41.632  27.180  28.917  1.00  0.00    -0.354 N 
ATOM     20  C   UNL A   1      42.518  30.917  30.878  1.00  0.00     0.074 A 
ATOM     21  C   UNL A   1      41.396  31.828  30.807  1.00  0.00     0.031 C 
ATOM     22  C   UNL A   1      40.366  25.686  27.833  1.00  0.00     0.029 A 
ATOM     23  C   UNL A   1      41.678  25.894  28.433  1.00  0.00     0.049 A 
ATOM     24  H   UNL A   1      42.391  27.616  29.366  1.00  0.00     0.167 HD
ATOM     25  C   UNL A   1      43.705  31.212  31.464  1.00  0.00     0.031 A 
ATOM     26  C   UNL A   1      42.665  24.978  28.465  1.00  0.00     0.031 A 
ATOM     27  C   UNL A   1      44.813  30.297  31.554  1.00  0.00     0.049 A 
ATOM     28  C   UNL A   1      43.966  25.327  29.128  1.00  0.00     0.074 A 
ATOM     29  C   UNL A   1      46.043  30.492  32.162  1.00  0.00     0.029 A 
ATOM     30  N   UNL A   1      44.830  29.016  31.024  1.00  0.00    -0.354 N 
ATOM     31  N   UNL A   1      44.308  26.436  29.738  1.00  0.00    -0.248 NA
ATOM     32  C   UNL A   1      45.012  24.296  29.110  1.00  0.00     0.031 C 
ATOM     33  C   UNL A   1      46.816  29.343  31.963  1.00  0.00     0.029 A 
ATOM     34  C   UNL A   1      46.052  28.415  31.276  1.00  0.00     0.049 A 
ATOM     35  H   UNL A   1      44.082  28.596  30.541  1.00  0.00     0.167 HD
ATOM     36  C   UNL A   1      45.604  26.229  30.196  1.00  0.00     0.074 A 
ATOM     37  C   UNL A   1      45.976  24.883  29.806  1.00  0.00     0.031 C 
ATOM     38  C   UNL A   1      46.410  27.077  30.881  1.00  0.00     0.031 A 
BRANCH  25  39
ATOM     39  C   UNL A   1      43.876  32.597  32.031  1.00  0.00    -0.014 A 
ATOM     40  C   UNL A   1      44.355  33.658  31.242  1.00  0.00     0.010 A 
ATOM     41  C   UNL A   1      43.518  32.848  33.369  1.00  0.00     0.010 A 
ATOM     42  C   UNL A   1      44.515  34.934  31.793  1.00  0.00     0.020 A 
ATOM     43  C   UNL A   1      43.654  34.127  33.916  1.00  0.00     0.020 A 
ATOM     44  C   UNL A   1      44.172  35.158  33.130  1.00  0.00     0.054 A 
BRANCH  44  45
ATOM     45  S   UNL A   1      44.383  36.822  33.820  1.00  0.00     0.124 S 
ATOM     46  O   UNL A   1      45.682  37.210  33.274  1.00  0.00    -0.237 OA
ATOM     47  O   UNL A   1      43.235  37.546  33.280  1.00  0.00    -0.237 OA
ATOM     48  O   UNL A   1      44.355  36.605  35.265  1.00  0.00    -0.744 OA
ENDBRANCH  44  45
ENDBRANCH  25  39
BRANCH  26  49
ATOM     49  C   UNL A   1      42.445  23.638  27.862  1.00  0.00    -0.014 A 
ATOM     50  C   UNL A   1      42.932  23.345  26.577  1.00  0.00     0.010 A 
ATOM     51  C   UNL A   1      41.772  22.636  28.585  1.00  0.00     0.010 A 
ATOM     52  C   UNL A   1      42.741  22.077  26.020  1.00  0.00     0.020 A 
ATOM     53  C   UNL A   1      41.604  21.360  28.044  1.00  0.00     0.020 A 
ATOM     54  C   UNL A   1      42.081  21.091  26.759  1.00  0.00     0.054 A 
BRANCH  54  55
ATOM     55  S   UNL A   1      41.898  19.433  26.046  1.00  0.00     0.124 S 
ATOM     56  O   UNL A   1      40.461  19.365  25.804  1.00  0.00    -0.237 OA
ATOM     57  O   UNL A   1      42.739  19.506  24.854  1.00  0.00    -0.237 OA
ATOM     58  O   UNL A   1      42.401  18.553  27.099  1.00  0.00    -0.744 OA
ENDBRANCH  54  55
ENDBRANCH  26  49
BRANCH  38  59
ATOM     59  C   UNL A   1      47.762  26.557  31.285  1.00  0.00    -0.014 A 
ATOM     60  C   UNL A   1      47.948  25.876  32.501  1.00  0.00     0.010 A 
ATOM     61  C   UNL A   1      48.857  26.733  30.420  1.00  0.00     0.010 A 
ATOM     62  C   UNL A   1      49.218  25.414  32.862  1.00  0.00     0.020 A 
ATOM     63  C   UNL A   1      50.122  26.252  30.767  1.00  0.00     0.020 A 
ATOM     64  C   UNL A   1      50.297  25.611  31.996  1.00  0.00     0.054 A 
BRANCH  64  65
ATOM     65  S   UNL A   1      51.932  24.985  32.474  1.00  0.00     0.124 S 
ATOM     66  O   UNL A   1      51.729  23.539  32.419  1.00  0.00    -0.237 OA
ATOM     67  O   UNL A   1      52.804  25.537  31.441  1.00  0.00    -0.237 OA
ATOM     68  O   UNL A   1      52.134  25.537  33.812  1.00  0.00    -0.744 OA
ENDBRANCH  64  65
ENDBRANCH  38  59
ENDBRANCH  12  13
ENDBRANCH   5   7
ENDBRANCH   2   3
ENDBRANCH   1   2
BRANCH   1  69
ATOM     69  C   UNL A   1      31.433  27.382  26.396  1.00  0.00     0.118 C 
BRANCH  69  70
ATOM     70  N   UNL A   1      30.806  26.088  26.625  1.00  0.00    -0.352 N 
ATOM     71  C   UNL A   1      31.179  24.834  26.218  1.00  0.00     0.253 C 
ATOM     72  H   UNL A   1      29.980  26.119  27.159  1.00  0.00     0.163 HD
ATOM     73  O   UNL A   1      30.468  23.869  26.479  1.00  0.00    -0.269 OA
BRANCH  71  74
ATOM     74  C   UNL A   1      32.463  24.620  25.529  1.00  0.00     0.067 A 
ATOM     75  C   UNL A   1      33.600  24.366  26.309  1.00  0.00     0.017 A 
ATOM     76  C   UNL A   1      32.560  24.527  24.137  1.00  0.00     0.107 A 
ATOM     77  C   UNL A   1      34.810  24.068  25.697  1.00  0.00     0.021 A 
ATOM     78  N   UNL A   1      33.745  24.186  23.543  1.00  0.00    -0.254 NA
ATOM     79  C   UNL A   1      34.830  23.983  24.321  1.00  0.00     0.111 A 
BRANCH  76  80
ATOM     80  C   UNL A   1      31.373  24.738  23.199  1.00  0.00     0.321 C 
BRANCH  80  81
ATOM     81  N   UNL A   1      31.326  25.978  22.392  1.00  0.00    -0.322 N 
ATOM     82  C   UNL A   1      32.392  26.111  21.405  1.00  0.00     0.263 C 
ATOM     83  C   UNL A   1      31.284  27.211  23.202  1.00  0.00     0.234 C 
ATOM     84  H   UNL A   1      30.444  25.871  21.891  1.00  0.00     0.349 HD
ATOM     85  C   UNL A   1      33.366  27.155  21.922  1.00  0.00     0.068 C 
ATOM     86  C   UNL A   1      32.654  27.876  23.056  1.00  0.00     0.078 C 
BRANCH  83  87
ATOM     87  C   UNL A   1      30.148  28.159  22.811  1.00  0.00     0.098 A 
ATOM     88  C   UNL A   1      30.386  29.357  22.132  1.00  0.00     0.030 A 
ATOM     89  N   UNL A   1      28.898  27.805  23.213  1.00  0.00    -0.255 NA
ATOM     90  C   UNL A   1      29.321  30.213  21.860  1.00  0.00     0.004 A 
ATOM     91  C   UNL A   1      27.883  28.654  22.931  1.00  0.00     0.111 A 
ATOM     92  C   UNL A   1      28.044  29.858  22.268  1.00  0.00     0.020 A 
ENDBRANCH  83  87
ENDBRANCH  80  81
ENDBRANCH  76  80
ENDBRANCH  71  74
ENDBRANCH  69  70
ENDBRANCH   1  69
TORSDOF 16
ENDMDL
MODEL 2
REMARK VINA RESULT:     -11.4      4.608      7.343
REMARK SMILES O=C(NCCCNC(=O)c1cccnc1C[N@@H+]1CCC[C@H]1c1ccccn1)c1ccc(-c2c3nc(c(-c4ccc(S(=O)(=O)[O-])cc4)c4ccc([nH]4)c(-c4ccc(S(=O)(=O)[O-])cc4)c4nc(c(-c5ccc(S(=O)(=O)[O-])cc5)c5ccc2[nH]5)C=C4)C=C3)cc1
REMARK SMILES IDX 5 1 4 2 3 3 1 4 2 5 28 7 29 8 87 9 30 10 86 11 31 12 32 13
REMARK SMILES IDX 33 14 80 15 34 16 85 17 79 18 81 19 35 20 84 21 78 22 77 23
REMARK SMILES IDX 36 25 66 26 47 27 65 28 48 29 51 30 64 31 82 32 49 33 50 34
REMARK SMILES IDX 63 36 83 37 52 38 37 39 38 40 46 41 39 42 45 43 40 44 41 45
REMARK SMILES IDX 42 46 43 47 44 48 67 49 68 50 76 51 69 52 75 53 70 54 71 55
REMARK SMILES IDX 72 56 73 57 74 58 53 59 54 60 62 61 55 62 61 63 56 64 57 65
REMARK SMILES IDX 58 66 59 67 60 68 6 69 7 70 8 71 9 73 10 74 11 75 15 76
REMARK SMILES IDX 12 77 14 78 13 79 16 80 17 81 18 82 21 83 19 85 20 86 22 87
REMARK SMILES IDX 23 88 27 89 24 90 26 91 25 92
REMARK H PARENT 3 6 81 24 51 35 7 72 17 84
REMARK Flexibility Score: inf
ROOT
ATOM      1  C   UNL A   1      34.331  30.124  27.400  1.00  0.00     0.042 C 
ENDROOT
BRANCH   1   2
ATOM      2  C   UNL A   1      35.502  29.442  28.094  1.00  0.00     0.118 C 
BRANCH   2   3
ATOM      3  N   UNL A   1      35.501  29.613  29.543  1.00  0.00    -0.352 N 
ATOM      4  O   UNL A   1      36.272  29.614  31.655  1.00  0.00    -0.269 OA
ATOM      5  C   UNL A   1      36.531  29.575  30.454  1.00  0.00     0.251 C 
ATOM      6  H   UNL A   1      34.614  29.783  29.935  1.00  0.00     0.163 HD
BRANCH   5   7
ATOM      7  C   UNL A   1      37.937  29.451  30.006  1.00  0.00     0.039 A 
ATOM      8  C   UNL A   1      38.323  29.843  28.725  1.00  0.00     0.014 A 
ATOM      9  C   UNL A   1      38.891  28.934  30.888  1.00  0.00     0.014 A 
ATOM     10  C   UNL A   1      39.598  29.532  28.261  1.00  0.00     0.010 A 
ATOM     11  C   UNL A   1      40.204  28.720  30.453  1.00  0.00     0.010 A 
ATOM     12  C   UNL A   1      40.555  28.963  29.117  1.00  0.00    -0.014 A 
BRANCH  12  13
ATOM     13  C   UNL A   1      41.907  28.644  28.585  1.00  0.00     0.031 A 
ATOM     14  C   UNL A   1      43.013  29.668  28.606  1.00  0.00     0.074 A 
ATOM     15  C   UNL A   1      42.156  27.400  28.130  1.00  0.00     0.049 A 
ATOM     16  N   UNL A   1      44.267  29.533  28.250  1.00  0.00    -0.248 NA
ATOM     17  C   UNL A   1      42.672  31.019  29.081  1.00  0.00     0.031 C 
ATOM     18  C   UNL A   1      41.169  26.319  28.049  1.00  0.00     0.029 A 
ATOM     19  N   UNL A   1      43.317  26.822  27.683  1.00  0.00    -0.354 N 
ATOM     20  C   UNL A   1      44.853  30.783  28.424  1.00  0.00     0.074 A 
ATOM     21  C   UNL A   1      43.814  31.669  28.902  1.00  0.00     0.031 C 
ATOM     22  C   UNL A   1      41.781  25.193  27.650  1.00  0.00     0.029 A 
ATOM     23  C   UNL A   1      43.186  25.485  27.388  1.00  0.00     0.049 A 
ATOM     24  H   UNL A   1      44.162  27.316  27.584  1.00  0.00     0.167 HD
ATOM     25  C   UNL A   1      46.139  31.157  28.213  1.00  0.00     0.031 A 
ATOM     26  C   UNL A   1      44.092  24.588  26.955  1.00  0.00     0.031 A 
ATOM     27  C   UNL A   1      47.177  30.270  27.759  1.00  0.00     0.049 A 
ATOM     28  C   UNL A   1      45.511  25.026  26.738  1.00  0.00     0.074 A 
ATOM     29  C   UNL A   1      48.518  30.549  27.551  1.00  0.00     0.029 A 
ATOM     30  N   UNL A   1      46.995  28.932  27.442  1.00  0.00    -0.354 N 
ATOM     31  N   UNL A   1      46.048  26.206  26.937  1.00  0.00    -0.248 NA
ATOM     32  C   UNL A   1      46.447  24.009  26.241  1.00  0.00     0.031 C 
ATOM     33  C   UNL A   1      49.137  29.389  27.071  1.00  0.00     0.029 A 
ATOM     34  C   UNL A   1      48.194  28.376  27.027  1.00  0.00     0.049 A 
ATOM     35  H   UNL A   1      46.140  28.448  27.506  1.00  0.00     0.167 HD
ATOM     36  C   UNL A   1      47.391  26.068  26.610  1.00  0.00     0.074 A 
ATOM     37  C   UNL A   1      47.587  24.687  26.216  1.00  0.00     0.031 C 
ATOM     38  C   UNL A   1      48.374  27.002  26.636  1.00  0.00     0.031 A 
BRANCH  25  39
ATOM     39  C   UNL A   1      46.489  32.604  28.444  1.00  0.00    -0.014 A 
ATOM     40  C   UNL A   1      46.962  33.056  29.688  1.00  0.00     0.010 A 
ATOM     41  C   UNL A   1      46.375  33.523  27.383  1.00  0.00     0.010 A 
ATOM     42  C   UNL A   1      47.271  34.406  29.882  1.00  0.00     0.020 A 
ATOM     43  C   UNL A   1      46.706  34.869  27.565  1.00  0.00     0.020 A 
ATOM     44  C   UNL A   1      47.132  35.306  28.820  1.00  0.00     0.054 A 
BRANCH  44  45
ATOM     45  S   UNL A   1      47.544  37.051  29.094  1.00  0.00     0.124 S 
ATOM     46  O   UNL A   1      48.451  36.969  30.237  1.00  0.00    -0.237 OA
ATOM     47  O   UNL A   1      48.163  37.441  27.830  1.00  0.00    -0.237 OA
ATOM     48  O   UNL A   1      46.252  37.674  29.369  1.00  0.00    -0.744 OA
ENDBRANCH  44  45
ENDBRANCH  25  39
BRANCH  26  49
ATOM     49  C   UNL A   1      43.678  23.180  26.717  1.00  0.00    -0.014 A 
ATOM     50  C   UNL A   1      44.217  22.450  25.645  1.00  0.00     0.010 A 
ATOM     51  C   UNL A   1      42.763  22.553  27.583  1.00  0.00     0.010 A 
ATOM     52  C   UNL A   1      43.841  21.119  25.435  1.00  0.00     0.020 A 
ATOM     53  C   UNL A   1      42.406  21.217  27.393  1.00  0.00     0.020 A 
ATOM     54  C   UNL A   1      42.940  20.511  26.313  1.00  0.00     0.054 A 
BRANCH  54  55
ATOM     55  S   UNL A   1      42.513  18.766  26.063  1.00  0.00     0.124 S 
ATOM     56  O   UNL A   1      41.096  18.847  25.722  1.00  0.00    -0.237 OA
ATOM     57  O   UNL A   1      43.405  18.373  24.975  1.00  0.00    -0.237 OA
ATOM     58  O   UNL A   1      42.814  18.154  27.355  1.00  0.00    -0.744 OA
ENDBRANCH  54  55
ENDBRANCH  26  49
BRANCH  38  59
ATOM     59  C   UNL A   1      49.759  26.547  26.265  1.00  0.00    -0.014 A 
ATOM     60  C   UNL A   1      50.248  26.691  24.955  1.00  0.00     0.010 A 
ATOM     61  C   UNL A   1      50.591  25.990  27.253  1.00  0.00     0.010 A 
ATOM     62  C   UNL A   1      51.533  26.247  24.629  1.00  0.00     0.020 A 
ATOM     63  C   UNL A   1      51.885  25.567  26.937  1.00  0.00     0.020 A 
ATOM     64  C   UNL A   1      52.340  25.682  25.621  1.00  0.00     0.054 A 
BRANCH  64  65
ATOM     65  S   UNL A   1      54.014  25.133  25.184  1.00  0.00     0.124 S 
ATOM     66  O   UNL A   1      53.812  23.705  24.950  1.00  0.00    -0.237 OA
ATOM     67  O   UNL A   1      54.315  25.928  23.997  1.00  0.00    -0.237 OA
ATOM     68  O   UNL A   1      54.805  25.466  26.367  1.00  0.00    -0.744 OA
ENDBRANCH  64  65
ENDBRANCH  38  59
ENDBRANCH  12  13
ENDBRANCH   5   7
ENDBRANCH   2   3
ENDBRANCH   1   2
BRANCH   1  69
ATOM     69  C   UNL A   1      34.298  31.638  27.541  1.00  0.00     0.118 C 
BRANCH  69  70
ATOM     70  N   UNL A   1      35.611  32.207  27.805  1.00  0.00    -0.352 N 
ATOM     71  C   UNL A   1      35.965  33.380  28.420  1.00  0.00     0.253 C 
ATOM     72  H   UNL A   1      36.368  31.661  27.492  1.00  0.00     0.163 HD
ATOM     73  O   UNL A   1      37.148  33.700  28.492  1.00  0.00    -0.269 OA
BRANCH  71  74
ATOM     74  C   UNL A   1      34.946  34.229  29.058  1.00  0.00     0.067 A 
ATOM     75  C   UNL A   1      34.525  35.383  28.381  1.00  0.00     0.017 A 
ATOM     76  C   UNL A   1      34.292  33.858  30.237  1.00  0.00     0.107 A 
ATOM     77  C   UNL A   1      33.501  36.161  28.905  1.00  0.00     0.021 A 
ATOM     78  N   UNL A   1      33.253  34.604  30.722  1.00  0.00    -0.254 NA
ATOM     79  C   UNL A   1      32.896  35.729  30.066  1.00  0.00     0.111 A 
BRANCH  76  80
ATOM     80  C   UNL A   1      34.641  32.597  31.026  1.00  0.00     0.321 C 
BRANCH  80  81
ATOM     81  N   UNL A   1      35.585  32.714  32.160  1.00  0.00    -0.322 N 
ATOM     82  C   UNL A   1      34.969  33.040  33.442  1.00  0.00     0.263 C 
ATOM     83  C   UNL A   1      36.688  33.665  31.918  1.00  0.00     0.234 C 
ATOM     84  H   UNL A   1      35.960  31.768  32.222  1.00  0.00     0.349 HD
ATOM     85  C   UNL A   1      35.298  34.490  33.751  1.00  0.00     0.068 C 
ATOM     86  C   UNL A   1      36.411  34.887  32.795  1.00  0.00     0.078 C 
BRANCH  83  87
ATOM     87  C   UNL A   1      38.073  33.074  32.188  1.00  0.00     0.098 A 
ATOM     88  C   UNL A   1      39.014  32.901  31.171  1.00  0.00     0.030 A 
ATOM     89  N   UNL A   1      38.319  32.666  33.462  1.00  0.00    -0.255 NA
ATOM     90  C   UNL A   1      40.236  32.298  31.462  1.00  0.00     0.004 A 
ATOM     91  C   UNL A   1      39.515  32.087  33.716  1.00  0.00     0.111 A 
ATOM     92  C   UNL A   1      40.493  31.879  32.759  1.00  0.00     0.020 A 
ENDBRANCH  83  87
ENDBRANCH  80  81
ENDBRANCH  76  80
ENDBRANCH  71  74
ENDBRANCH  69  70
ENDBRANCH   1  69
TORSDOF 16
ENDMDL
MODEL 3
REMARK VINA RESULT:     -11.3      2.551      8.974
REMARK SMILES O=C(NCCCNC(=O)c1cccnc1C[N@@H+]1CCC[C@H]1c1ccccn1)c1ccc(-c2c3nc(c(-c4ccc(S(=O)(=O)[O-])cc4)c4ccc([nH]4)c(-c4ccc(S(=O)(=O)[O-])cc4)c4nc(c(-c5ccc(S(=O)(=O)[O-])cc5)c5ccc2[nH]5)C=C4)C=C3)cc1
REMARK SMILES IDX 5 1 4 2 3 3 1 4 2 5 28 7 29 8 87 9 30 10 86 11 31 12 32 13
REMARK SMILES IDX 33 14 80 15 34 16 85 17 79 18 81 19 35 20 84 21 78 22 77 23
REMARK SMILES IDX 36 25 66 26 47 27 65 28 48 29 51 30 64 31 82 32 49 33 50 34
REMARK SMILES IDX 63 36 83 37 52 38 37 39 38 40 46 41 39 42 45 43 40 44 41 45
REMARK SMILES IDX 42 46 43 47 44 48 67 49 68 50 76 51 69 52 75 53 70 54 71 55
REMARK SMILES IDX 72 56 73 57 74 58 53 59 54 60 62 61 55 62 61 63 56 64 57 65
REMARK SMILES IDX 58 66 59 67 60 68 6 69 7 70 8 71 9 73 10 74 11 75 15 76
REMARK SMILES IDX 12 77 14 78 13 79 16 80 17 81 18 82 21 83 19 85 20 86 22 87
REMARK SMILES IDX 23 88 27 89 24 90 26 91 25 92
REMARK H PARENT 3 6 81 24 51 35 7 72 17 84
REMARK Flexibility Score: inf
ROOT
ATOM      1  C   UNL A   1      36.239  23.802  24.597  1.00  0.00     0.042 C 
ENDROOT
BRANCH   1   2
ATOM      2  C   UNL A   1      36.571  23.185  25.949  1.00  0.00     0.118 C 
BRANCH   2   3
ATOM      3  N   UNL A   1      37.818  22.427  25.954  1.00  0.00    -0.352 N 
ATOM      4  O   UNL A   1      40.024  22.019  26.110  1.00  0.00    -0.269 OA
ATOM      5  C   UNL A   1      39.092  22.794  26.319  1.00  0.00     0.251 C 
ATOM      6  H   UNL A   1      37.733  21.497  25.642  1.00  0.00     0.163 HD
BRANCH   5   7
ATOM      7  C   UNL A   1      39.357  24.120  26.923  1.00  0.00     0.039 A 
ATOM      8  C   UNL A   1      40.007  25.123  26.205  1.00  0.00     0.014 A 
ATOM      9  C   UNL A   1      38.943  24.367  28.235  1.00  0.00     0.014 A 
ATOM     10  C   UNL A   1      40.421  26.282  26.855  1.00  0.00     0.010 A 
ATOM     11  C   UNL A   1      39.267  25.578  28.856  1.00  0.00     0.010 A 
ATOM     12  C   UNL A   1      40.060  26.524  28.190  1.00  0.00    -0.014 A 
BRANCH  12  13
ATOM     13  C   UNL A   1      40.521  27.775  28.851  1.00  0.00     0.031 A 
ATOM     14  C   UNL A   1      41.954  27.941  29.289  1.00  0.00     0.074 A 
ATOM     15  C   UNL A   1      39.651  28.793  29.006  1.00  0.00     0.049 A 
ATOM     16  N   UNL A   1      42.538  28.991  29.812  1.00  0.00    -0.248 NA
ATOM     17  C   UNL A   1      42.847  26.782  29.127  1.00  0.00     0.031 C 
ATOM     18  C   UNL A   1      38.235  28.757  28.630  1.00  0.00     0.029 A 
ATOM     19  N   UNL A   1      39.834  30.066  29.484  1.00  0.00    -0.354 N 
ATOM     20  C   UNL A   1      43.850  28.611  30.072  1.00  0.00     0.074 A 
ATOM     21  C   UNL A   1      43.974  27.227  29.665  1.00  0.00     0.031 C 
ATOM     22  C   UNL A   1      37.696  29.970  28.826  1.00  0.00     0.029 A 
ATOM     23  C   UNL A   1      38.709  30.852  29.396  1.00  0.00     0.049 A 
ATOM     24  H   UNL A   1      40.688  30.386  29.854  1.00  0.00     0.167 HD
ATOM     25  C   UNL A   1      44.862  29.346  30.595  1.00  0.00     0.031 A 
ATOM     26  C   UNL A   1      38.508  32.139  29.735  1.00  0.00     0.031 A 
ATOM     27  C   UNL A   1      44.745  30.728  30.979  1.00  0.00     0.049 A 
ATOM     28  C   UNL A   1      39.647  32.934  30.303  1.00  0.00     0.074 A 
ATOM     29  C   UNL A   1      45.725  31.568  31.483  1.00  0.00     0.029 A 
ATOM     30  N   UNL A   1      43.581  31.477  30.903  1.00  0.00    -0.354 N 
ATOM     31  N   UNL A   1      40.887  32.561  30.513  1.00  0.00    -0.248 NA
ATOM     32  C   UNL A   1      39.360  34.325  30.677  1.00  0.00     0.031 C 
ATOM     33  C   UNL A   1      45.142  32.812  31.749  1.00  0.00     0.029 A 
ATOM     34  C   UNL A   1      43.813  32.762  31.364  1.00  0.00     0.049 A 
ATOM     35  H   UNL A   1      42.717  31.144  30.568  1.00  0.00     0.167 HD
ATOM     36  C   UNL A   1      41.535  33.680  31.024  1.00  0.00     0.074 A 
ATOM     37  C   UNL A   1      40.553  34.745  31.075  1.00  0.00     0.031 C 
ATOM     38  C   UNL A   1      42.827  33.811  31.412  1.00  0.00     0.031 A 
BRANCH  25  39
ATOM     39  C   UNL A   1      46.184  28.656  30.811  1.00  0.00    -0.014 A 
ATOM     40  C   UNL A   1      46.495  28.029  32.030  1.00  0.00     0.010 A 
ATOM     41  C   UNL A   1      47.119  28.605  29.759  1.00  0.00     0.010 A 
ATOM     42  C   UNL A   1      47.732  27.404  32.210  1.00  0.00     0.020 A 
ATOM     43  C   UNL A   1      48.348  27.960  29.928  1.00  0.00     0.020 A 
ATOM     44  C   UNL A   1      48.655  27.381  31.160  1.00  0.00     0.054 A 
BRANCH  44  45
ATOM     45  S   UNL A   1      50.252  26.559  31.416  1.00  0.00     0.124 S 
ATOM     46  O   UNL A   1      51.149  27.391  30.617  1.00  0.00    -0.237 OA
ATOM     47  O   UNL A   1      50.435  26.651  32.863  1.00  0.00    -0.237 OA
ATOM     48  O   UNL A   1      50.033  25.209  30.905  1.00  0.00    -0.744 OA
ENDBRANCH  44  45
ENDBRANCH  25  39
BRANCH  26  49
ATOM     49  C   UNL A   1      37.171  32.755  29.525  1.00  0.00    -0.014 A 
ATOM     50  C   UNL A   1      36.244  32.825  30.579  1.00  0.00     0.010 A 
ATOM     51  C   UNL A   1      36.831  33.304  28.275  1.00  0.00     0.010 A 
ATOM     52  C   UNL A   1      34.996  33.423  30.384  1.00  0.00     0.020 A 
ATOM     53  C   UNL A   1      35.595  33.926  28.085  1.00  0.00     0.020 A 
ATOM     54  C   UNL A   1      34.681  33.973  29.138  1.00  0.00     0.054 A 
BRANCH  54  55
ATOM     55  S   UNL A   1      33.081  34.801  28.923  1.00  0.00     0.124 S 
ATOM     56  O   UNL A   1      33.481  36.093  28.377  1.00  0.00    -0.237 OA
ATOM     57  O   UNL A   1      32.384  33.910  27.998  1.00  0.00    -0.237 OA
ATOM     58  O   UNL A   1      32.531  34.833  30.276  1.00  0.00    -0.744 OA
ENDBRANCH  54  55
ENDBRANCH  26  49
BRANCH  38  59
ATOM     59  C   UNL A   1      43.261  35.170  31.890  1.00  0.00    -0.014 A 
ATOM     60  C   UNL A   1      43.879  36.086  31.021  1.00  0.00     0.010 A 
ATOM     61  C   UNL A   1      43.023  35.541  33.225  1.00  0.00     0.010 A 
ATOM     62  C   UNL A   1      44.288  37.338  31.491  1.00  0.00     0.020 A 
ATOM     63  C   UNL A   1      43.408  36.800  33.693  1.00  0.00     0.020 A 
ATOM     64  C   UNL A   1      44.055  37.684  32.825  1.00  0.00     0.054 A 
BRANCH  64  65
ATOM     65  S   UNL A   1      44.573  39.321  33.411  1.00  0.00     0.124 S 
ATOM     66  O   UNL A   1      45.351  39.815  32.278  1.00  0.00    -0.237 OA
ATOM     67  O   UNL A   1      43.300  39.999  33.643  1.00  0.00    -0.237 OA
ATOM     68  O   UNL A   1      45.344  39.027  34.617  1.00  0.00    -0.744 OA
ENDBRANCH  64  65
ENDBRANCH  38  59
ENDBRANCH  12  13
ENDBRANCH   5   7
ENDBRANCH   2   3
ENDBRANCH   1   2
BRANCH   1  69
ATOM     69  C   UNL A   1      35.192  23.048  23.791  1.00  0.00     0.118 C 
BRANCH  69  70
ATOM     70  N   UNL A   1      34.312  23.935  23.044  1.00  0.00    -0.352 N 
ATOM     71  C   UNL A   1      33.024  24.328  23.297  1.00  0.00     0.253 C 
ATOM     72  H   UNL A   1      34.705  24.312  22.225  1.00  0.00     0.163 HD
ATOM     73  O   UNL A   1      32.437  25.051  22.498  1.00  0.00    -0.269 OA
BRANCH  71  74
ATOM     74  C   UNL A   1      32.358  23.952  24.555  1.00  0.00     0.067 A 
ATOM     75  C   UNL A   1      31.483  22.856  24.540  1.00  0.00     0.017 A 
ATOM     76  C   UNL A   1      32.668  24.555  25.778  1.00  0.00     0.107 A 
ATOM     77  C   UNL A   1      30.906  22.411  25.722  1.00  0.00     0.021 A 
ATOM     78  N   UNL A   1      32.132  24.082  26.944  1.00  0.00    -0.254 NA
ATOM     79  C   UNL A   1      31.265  23.048  26.891  1.00  0.00     0.111 A 
BRANCH  76  80
ATOM     80  C   UNL A   1      33.644  25.723  25.910  1.00  0.00     0.321 C 
BRANCH  80  81
ATOM     81  N   UNL A   1      33.167  27.082  25.568  1.00  0.00    -0.322 N 
ATOM     82  C   UNL A   1      34.018  28.170  26.036  1.00  0.00     0.263 C 
ATOM     83  C   UNL A   1      31.783  27.352  26.005  1.00  0.00     0.234 C 
ATOM     84  H   UNL A   1      33.204  27.069  24.549  1.00  0.00     0.349 HD
ATOM     85  C   UNL A   1      33.314  28.829  27.209  1.00  0.00     0.068 C 
ATOM     86  C   UNL A   1      31.879  28.327  27.180  1.00  0.00     0.078 C 
BRANCH  83  87
ATOM     87  C   UNL A   1      30.885  27.893  24.890  1.00  0.00     0.098 A 
ATOM     88  C   UNL A   1      30.012  27.067  24.178  1.00  0.00     0.030 A 
ATOM     89  N   UNL A   1      31.027  29.211  24.585  1.00  0.00    -0.255 NA
ATOM     90  C   UNL A   1      29.267  27.601  23.129  1.00  0.00     0.004 A 
ATOM     91  C   UNL A   1      30.288  29.702  23.563  1.00  0.00     0.111 A 
ATOM     92  C   UNL A   1      29.407  28.943  22.812  1.00  0.00     0.020 A 
ENDBRANCH  83  87
ENDBRANCH  80  81
ENDBRANCH  76  80
ENDBRANCH  71  74
ENDBRANCH  69  70
ENDBRANCH   1  69
TORSDOF 16
ENDMDL
