MODEL 1
REMARK VINA RESULT:     -12.0      0.000      0.000
REMARK SMILES CC(=O)NS(=O)(=O)c1cc(-c2ccn(C(F)F)c(=O)c2)ccc1C(=O)NCCCNC(=O)c1ccc(-c2c3nc(c(-c4ccc(S(=O)(=O)[O-])cc4)c4ccc([nH]4)c(-c4ccc(S(=O)(=O)[O-])cc4)c4nc(c(-c5ccc(S(=O)(=O)[O-])cc5)c5ccc2[nH]5)C=C4)C=C3)cc1
REMARK SMILES IDX 28 1 27 2 26 3 24 4 25 5 23 7 8 8 9 9 10 10 22 11 21 12 5 13
REMARK SMILES IDX 6 14 7 15 4 16 1 17 2 18 3 19 11 21 12 22 20 23 13 24 18 25
REMARK SMILES IDX 14 26 19 27 15 28 16 29 17 30 29 31 30 32 31 33 32 35 33 36
REMARK SMILES IDX 34 37 92 38 35 39 91 40 36 41 37 42 38 43 85 44 39 45 90 46
REMARK SMILES IDX 84 47 86 48 40 49 89 50 83 51 82 52 41 54 71 55 52 56 70 57
REMARK SMILES IDX 53 58 56 59 69 60 87 61 54 62 55 63 68 65 88 66 57 67 42 68
REMARK SMILES IDX 43 69 51 70 44 71 50 72 45 73 46 74 47 75 48 76 49 77 72 78
REMARK SMILES IDX 73 79 81 80 74 81 80 82 75 83 76 84 77 85 78 86 79 87 58 88
REMARK SMILES IDX 59 89 67 90 60 91 66 92 61 93 62 94 63 95 64 96 65 97
REMARK H PARENT 26 6 4 20 30 34 86 53 56 64
REMARK Flexibility Score: inf
ROOT
ATOM      1  C   UNL A   1      36.254  22.494  23.885  1.00  0.00     0.042 C 
ENDROOT
BRANCH   1   2
ATOM      2  C   UNL A   1      35.151  23.339  23.224  1.00  0.00     0.118 C 
BRANCH   2   3
ATOM      3  N   UNL A   1      33.854  22.680  23.243  1.00  0.00    -0.352 N 
ATOM      4  C   UNL A   1      32.580  23.163  23.177  1.00  0.00     0.252 C 
ATOM      5  O   UNL A   1      31.639  22.380  23.057  1.00  0.00    -0.269 OA
ATOM      6  H   UNL A   1      33.906  21.700  23.319  1.00  0.00     0.163 HD
BRANCH   4   7
ATOM      7  C   UNL A   1      32.260  24.602  23.171  1.00  0.00     0.060 A 
ATOM      8  C   UNL A   1      31.835  25.325  24.288  1.00  0.00     0.101 A 
ATOM      9  C   UNL A   1      31.283  26.608  24.123  1.00  0.00     0.031 A 
ATOM     10  C   UNL A   1      31.081  27.139  22.841  1.00  0.00    -0.017 A 
ATOM     11  C   UNL A   1      32.143  25.182  21.895  1.00  0.00     0.016 A 
ATOM     12  C   UNL A   1      31.553  26.439  21.728  1.00  0.00     0.009 A 
BRANCH   8  13
ATOM     13  S   UNL A   1      31.851  24.618  25.908  1.00  0.00     0.264 S 
ATOM     14  O   UNL A   1      33.237  24.312  26.176  1.00  0.00    -0.201 OA
ATOM     15  O   UNL A   1      30.812  23.623  26.017  1.00  0.00    -0.201 OA
BRANCH  13  16
ATOM     16  N   UNL A   1      31.460  25.866  26.924  1.00  0.00    -0.249 N 
ATOM     17  C   UNL A   1      33.441  27.377  26.527  1.00  0.00     0.115 C 
ATOM     18  C   UNL A   1      32.069  27.118  27.097  1.00  0.00     0.230 C 
ATOM     19  O   UNL A   1      31.516  27.930  27.829  1.00  0.00    -0.274 OA
ATOM     20  H   UNL A   1      30.676  25.705  27.497  1.00  0.00     0.183 HD
ENDBRANCH  13  16
ENDBRANCH   8  13
BRANCH  10  21
ATOM     21  C   UNL A   1      30.170  28.291  22.688  1.00  0.00    -0.011 A 
ATOM     22  C   UNL A   1      30.603  29.482  21.975  1.00  0.00     0.027 A 
ATOM     23  C   UNL A   1      28.894  28.206  23.099  1.00  0.00     0.080 A 
ATOM     24  C   UNL A   1      29.731  30.447  21.664  1.00  0.00     0.095 A 
ATOM     25  C   UNL A   1      27.923  29.304  22.806  1.00  0.00     0.255 A 
ATOM     26  N   UNL A   1      28.406  30.358  22.045  1.00  0.00    -0.258 N 
ATOM     27  O   UNL A   1      26.776  29.198  23.229  1.00  0.00    -0.269 OA
BRANCH  26  28
ATOM     28  C   UNL A   1      27.470  31.390  21.667  1.00  0.00     0.451 C 
ATOM     29  F   UNL A   1      27.735  32.556  22.305  1.00  0.00    -0.185 F 
ATOM     30  F   UNL A   1      27.515  31.624  20.332  1.00  0.00    -0.185 F 
ENDBRANCH  26  28
ENDBRANCH  10  21
ENDBRANCH   4   7
ENDBRANCH   2   3
ENDBRANCH   1   2
BRANCH   1  31
ATOM     31  C   UNL A   1      37.103  23.281  24.893  1.00  0.00     0.118 C 
BRANCH  31  32
ATOM     32  N   UNL A   1      38.180  22.466  25.433  1.00  0.00    -0.352 N 
ATOM     33  C   UNL A   1      39.303  22.797  26.143  1.00  0.00     0.251 C 
ATOM     34  H   UNL A   1      38.084  21.502  25.254  1.00  0.00     0.163 HD
ATOM     35  O   UNL A   1      40.196  21.957  26.248  1.00  0.00    -0.269 OA
BRANCH  33  36
ATOM     36  C   UNL A   1      39.476  24.119  26.795  1.00  0.00     0.039 A 
ATOM     37  C   UNL A   1      40.212  25.097  26.112  1.00  0.00     0.014 A 
ATOM     38  C   UNL A   1      39.078  24.357  28.114  1.00  0.00     0.014 A 
ATOM     39  C   UNL A   1      40.544  26.302  26.740  1.00  0.00     0.010 A 
ATOM     40  C   UNL A   1      39.387  25.573  28.734  1.00  0.00     0.010 A 
ATOM     41  C   UNL A   1      40.141  26.548  28.060  1.00  0.00    -0.014 A 
BRANCH  41  42
ATOM     42  C   UNL A   1      40.583  27.777  28.770  1.00  0.00     0.031 A 
ATOM     43  C   UNL A   1      41.981  27.868  29.319  1.00  0.00     0.074 A 
ATOM     44  C   UNL A   1      39.743  28.817  28.930  1.00  0.00     0.049 A 
ATOM     45  N   UNL A   1      42.521  28.808  30.053  1.00  0.00    -0.248 NA
ATOM     46  C   UNL A   1      42.887  26.750  29.011  1.00  0.00     0.031 C 
ATOM     47  C   UNL A   1      38.363  28.876  28.447  1.00  0.00     0.029 A 
ATOM     48  N   UNL A   1      39.934  30.026  29.551  1.00  0.00    -0.354 N 
ATOM     49  C   UNL A   1      43.808  28.372  30.341  1.00  0.00     0.074 A 
ATOM     50  C   UNL A   1      43.978  27.094  29.681  1.00  0.00     0.031 C 
ATOM     51  C   UNL A   1      37.836  30.068  28.779  1.00  0.00     0.029 A 
ATOM     52  C   UNL A   1      38.833  30.844  29.514  1.00  0.00     0.049 A 
ATOM     53  H   UNL A   1      40.783  30.283  29.980  1.00  0.00     0.167 HD
ATOM     54  C   UNL A   1      44.760  28.967  31.100  1.00  0.00     0.031 A 
ATOM     55  C   UNL A   1      38.641  32.078  30.020  1.00  0.00     0.031 A 
ATOM     56  C   UNL A   1      44.627  30.252  31.726  1.00  0.00     0.049 A 
ATOM     57  C   UNL A   1      39.743  32.761  30.777  1.00  0.00     0.074 A 
ATOM     58  C   UNL A   1      45.535  30.923  32.529  1.00  0.00     0.029 A 
ATOM     59  N   UNL A   1      43.520  31.075  31.602  1.00  0.00    -0.354 N 
ATOM     60  N   UNL A   1      40.935  32.309  31.078  1.00  0.00    -0.248 NA
ATOM     61  C   UNL A   1      39.468  34.122  31.265  1.00  0.00     0.031 C 
ATOM     62  C   UNL A   1      44.979  32.160  32.881  1.00  0.00     0.029 A 
ATOM     63  C   UNL A   1      43.727  32.255  32.295  1.00  0.00     0.049 A 
ATOM     64  H   UNL A   1      42.706  30.853  31.094  1.00  0.00     0.167 HD
ATOM     65  C   UNL A   1      41.552  33.326  31.795  1.00  0.00     0.074 A 
ATOM     66  C   UNL A   1      40.609  34.423  31.874  1.00  0.00     0.031 C 
ATOM     67  C   UNL A   1      42.788  33.342  32.351  1.00  0.00     0.031 A 
BRANCH  54  68
ATOM     68  C   UNL A   1      46.026  28.191  31.315  1.00  0.00    -0.014 A 
ATOM     69  C   UNL A   1      46.182  27.356  32.432  1.00  0.00     0.010 A 
ATOM     70  C   UNL A   1      47.082  28.324  30.394  1.00  0.00     0.010 A 
ATOM     71  C   UNL A   1      47.394  26.693  32.649  1.00  0.00     0.020 A 
ATOM     72  C   UNL A   1      48.291  27.660  30.606  1.00  0.00     0.020 A 
ATOM     73  C   UNL A   1      48.448  26.866  31.744  1.00  0.00     0.054 A 
BRANCH  73  74
ATOM     74  S   UNL A   1      50.032  26.028  32.027  1.00  0.00     0.124 S 
ATOM     75  O   UNL A   1      50.618  26.036  30.689  1.00  0.00    -0.237 OA
ATOM     76  O   UNL A   1      50.696  26.886  33.006  1.00  0.00    -0.237 OA
ATOM     77  O   UNL A   1      49.632  24.715  32.528  1.00  0.00    -0.744 OA
ENDBRANCH  73  74
ENDBRANCH  54  68
BRANCH  55  78
ATOM     78  C   UNL A   1      37.335  32.752  29.824  1.00  0.00    -0.014 A 
ATOM     79  C   UNL A   1      36.344  32.666  30.815  1.00  0.00     0.010 A 
ATOM     80  C   UNL A   1      37.090  33.499  28.660  1.00  0.00     0.010 A 
ATOM     81  C   UNL A   1      35.118  33.316  30.646  1.00  0.00     0.020 A 
ATOM     82  C   UNL A   1      35.869  34.155  28.491  1.00  0.00     0.020 A 
ATOM     83  C   UNL A   1      34.887  34.054  29.482  1.00  0.00     0.054 A 
BRANCH  83  84
ATOM     84  S   UNL A   1      33.324  34.955  29.286  1.00  0.00     0.124 S 
ATOM     85  O   UNL A   1      32.755  34.869  30.627  1.00  0.00    -0.237 OA
ATOM     86  O   UNL A   1      33.757  36.286  28.868  1.00  0.00    -0.237 OA
ATOM     87  O   UNL A   1      32.631  34.184  28.255  1.00  0.00    -0.744 OA
ENDBRANCH  83  84
ENDBRANCH  55  78
BRANCH  67  88
ATOM     88  C   UNL A   1      43.193  34.588  33.080  1.00  0.00    -0.014 A 
ATOM     89  C   UNL A   1      43.691  35.696  32.374  1.00  0.00     0.010 A 
ATOM     90  C   UNL A   1      43.043  34.667  34.475  1.00  0.00     0.010 A 
ATOM     91  C   UNL A   1      44.049  36.863  33.055  1.00  0.00     0.020 A 
ATOM     92  C   UNL A   1      43.399  35.833  35.158  1.00  0.00     0.020 A 
ATOM     93  C   UNL A   1      43.909  36.921  34.444  1.00  0.00     0.054 A 
BRANCH  93  94
ATOM     94  S   UNL A   1      44.337  38.449  35.326  1.00  0.00     0.124 S 
ATOM     95  O   UNL A   1      45.797  38.398  35.331  1.00  0.00    -0.237 OA
ATOM     96  O   UNL A   1      43.749  39.493  34.490  1.00  0.00    -0.237 OA
ATOM     97  O   UNL A   1      43.699  38.274  36.629  1.00  0.00    -0.744 OA
ENDBRANCH  93  94
ENDBRANCH  67  88
ENDBRANCH  41  42
ENDBRANCH  33  36
ENDBRANCH  31  32
ENDBRANCH   1  31
TORSDOF 17
ENDMDL
MODEL 2
REMARK VINA RESULT:     -12.0      5.132     10.089
REMARK SMILES CC(=O)NS(=O)(=O)c1cc(-c2ccn(C(F)F)c(=O)c2)ccc1C(=O)NCCCNC(=O)c1ccc(-c2c3nc(c(-c4ccc(S(=O)(=O)[O-])cc4)c4ccc([nH]4)c(-c4ccc(S(=O)(=O)[O-])cc4)c4nc(c(-c5ccc(S(=O)(=O)[O-])cc5)c5ccc2[nH]5)C=C4)C=C3)cc1
REMARK SMILES IDX 28 1 27 2 26 3 24 4 25 5 23 7 8 8 9 9 10 10 22 11 21 12 5 13
REMARK SMILES IDX 6 14 7 15 4 16 1 17 2 18 3 19 11 21 12 22 20 23 13 24 18 25
REMARK SMILES IDX 14 26 19 27 15 28 16 29 17 30 29 31 30 32 31 33 32 35 33 36
REMARK SMILES IDX 34 37 92 38 35 39 91 40 36 41 37 42 38 43 85 44 39 45 90 46
REMARK SMILES IDX 84 47 86 48 40 49 89 50 83 51 82 52 41 54 71 55 52 56 70 57
REMARK SMILES IDX 53 58 56 59 69 60 87 61 54 62 55 63 68 65 88 66 57 67 42 68
REMARK SMILES IDX 43 69 51 70 44 71 50 72 45 73 46 74 47 75 48 76 49 77 72 78
REMARK SMILES IDX 73 79 81 80 74 81 80 82 75 83 76 84 77 85 78 86 79 87 58 88
REMARK SMILES IDX 59 89 67 90 60 91 66 92 61 93 62 94 63 95 64 96 65 97
REMARK H PARENT 26 6 4 20 30 34 86 53 56 64
REMARK Flexibility Score: inf
ROOT
ATOM      1  C   UNL A   1      34.110  29.377  26.847  1.00  0.00     0.042 C 
ENDROOT
BRANCH   1   2
ATOM      2  C   UNL A   1      33.728  28.122  26.042  1.00  0.00     0.118 C 
BRANCH   2   3
ATOM      3  N   UNL A   1      32.441  27.574  26.439  1.00  0.00    -0.352 N 
ATOM      4  C   UNL A   1      31.911  26.320  26.349  1.00  0.00     0.252 C 
ATOM      5  O   UNL A   1      30.843  26.070  26.903  1.00  0.00    -0.269 OA
ATOM      6  H   UNL A   1      31.837  28.232  26.852  1.00  0.00     0.163 HD
BRANCH   4   7
ATOM      7  C   UNL A   1      32.591  25.203  25.668  1.00  0.00     0.060 A 
ATOM      8  C   UNL A   1      32.239  24.707  24.410  1.00  0.00     0.101 A 
ATOM      9  C   UNL A   1      32.751  23.471  23.976  1.00  0.00     0.031 A 
ATOM     10  C   UNL A   1      33.549  22.691  24.825  1.00  0.00    -0.017 A 
ATOM     11  C   UNL A   1      33.471  24.458  26.475  1.00  0.00     0.016 A 
ATOM     12  C   UNL A   1      33.943  23.209  26.061  1.00  0.00     0.009 A 
BRANCH   8  13
ATOM     13  S   UNL A   1      31.056  25.534  23.388  1.00  0.00     0.264 S 
ATOM     14  O   UNL A   1      31.180  26.935  23.721  1.00  0.00    -0.201 OA
ATOM     15  O   UNL A   1      29.792  24.841  23.447  1.00  0.00    -0.201 OA
BRANCH  13  16
ATOM     16  N   UNL A   1      31.642  25.382  21.847  1.00  0.00    -0.249 N 
ATOM     17  C   UNL A   1      33.558  27.020  21.954  1.00  0.00     0.115 C 
ATOM     18  C   UNL A   1      32.799  25.916  21.261  1.00  0.00     0.230 C 
ATOM     19  O   UNL A   1      33.087  25.557  20.126  1.00  0.00    -0.274 OA
ATOM     20  H   UNL A   1      31.091  24.830  21.246  1.00  0.00     0.183 HD
ENDBRANCH  13  16
ENDBRANCH   8  13
BRANCH  10  21
ATOM     21  C   UNL A   1      33.746  21.265  24.497  1.00  0.00    -0.011 A 
ATOM     22  C   UNL A   1      34.947  20.569  24.929  1.00  0.00     0.027 A 
ATOM     23  C   UNL A   1      32.766  20.564  23.901  1.00  0.00     0.080 A 
ATOM     24  C   UNL A   1      35.049  19.242  24.808  1.00  0.00     0.095 A 
ATOM     25  C   UNL A   1      32.892  19.087  23.710  1.00  0.00     0.255 A 
ATOM     26  N   UNL A   1      34.034  18.500  24.234  1.00  0.00    -0.258 N 
ATOM     27  O   UNL A   1      31.987  18.493  23.133  1.00  0.00    -0.269 OA
BRANCH  26  28
ATOM     28  C   UNL A   1      34.144  17.063  24.147  1.00  0.00     0.451 C 
ATOM     29  F   UNL A   1      34.368  16.660  22.872  1.00  0.00    -0.185 F 
ATOM     30  F   UNL A   1      35.162  16.605  24.915  1.00  0.00    -0.185 F 
ENDBRANCH  26  28
ENDBRANCH  10  21
ENDBRANCH   4   7
ENDBRANCH   2   3
ENDBRANCH   1   2
BRANCH   1  31
ATOM     31  C   UNL A   1      35.503  29.290  27.485  1.00  0.00     0.118 C 
BRANCH  31  32
ATOM     32  N   UNL A   1      35.463  29.633  28.898  1.00  0.00    -0.352 N 
ATOM     33  C   UNL A   1      36.443  29.661  29.855  1.00  0.00     0.251 C 
ATOM     34  H   UNL A   1      34.571  29.891  29.225  1.00  0.00     0.163 HD
ATOM     35  O   UNL A   1      36.102  29.723  31.036  1.00  0.00    -0.269 OA
BRANCH  33  36
ATOM     36  C   UNL A   1      37.888  29.631  29.522  1.00  0.00     0.039 A 
ATOM     37  C   UNL A   1      38.255  29.774  28.177  1.00  0.00     0.014 A 
ATOM     38  C   UNL A   1      38.864  29.303  30.468  1.00  0.00     0.014 A 
ATOM     39  C   UNL A   1      39.585  29.594  27.782  1.00  0.00     0.010 A 
ATOM     40  C   UNL A   1      40.200  29.150  30.078  1.00  0.00     0.010 A 
ATOM     41  C   UNL A   1      40.569  29.273  28.728  1.00  0.00    -0.014 A 
BRANCH  41  42
ATOM     42  C   UNL A   1      41.961  28.974  28.301  1.00  0.00     0.031 A 
ATOM     43  C   UNL A   1      42.326  27.588  27.842  1.00  0.00     0.074 A 
ATOM     44  C   UNL A   1      42.906  29.932  28.321  1.00  0.00     0.049 A 
ATOM     45  N   UNL A   1      43.502  27.104  27.529  1.00  0.00    -0.248 NA
ATOM     46  C   UNL A   1      41.226  26.616  27.732  1.00  0.00     0.031 C 
ATOM     47  C   UNL A   1      42.700  31.320  28.734  1.00  0.00     0.029 A 
ATOM     48  N   UNL A   1      44.236  29.875  27.984  1.00  0.00    -0.354 N 
ATOM     49  C   UNL A   1      43.293  25.762  27.239  1.00  0.00     0.074 A 
ATOM     50  C   UNL A   1      41.875  25.513  27.387  1.00  0.00     0.031 C 
ATOM     51  C   UNL A   1      43.861  31.987  28.614  1.00  0.00     0.029 A 
ATOM     52  C   UNL A   1      44.893  31.070  28.136  1.00  0.00     0.049 A 
ATOM     53  H   UNL A   1      44.675  29.055  27.663  1.00  0.00     0.167 HD
ATOM     54  C   UNL A   1      44.199  24.814  26.895  1.00  0.00     0.031 A 
ATOM     55  C   UNL A   1      46.183  31.393  27.923  1.00  0.00     0.031 A 
ATOM     56  C   UNL A   1      45.602  25.049  26.701  1.00  0.00     0.049 A 
ATOM     57  C   UNL A   1      47.153  30.349  27.451  1.00  0.00     0.074 A 
ATOM     58  C   UNL A   1      46.595  24.141  26.372  1.00  0.00     0.029 A 
ATOM     59  N   UNL A   1      46.210  26.290  26.797  1.00  0.00    -0.354 N 
ATOM     60  N   UNL A   1      46.944  29.074  27.229  1.00  0.00    -0.248 NA
ATOM     61  C   UNL A   1      48.536  30.788  27.204  1.00  0.00     0.031 C 
ATOM     62  C   UNL A   1      47.805  24.839  26.256  1.00  0.00     0.029 A 
ATOM     63  C   UNL A   1      47.560  26.178  26.514  1.00  0.00     0.049 A 
ATOM     64  H   UNL A   1      45.749  27.128  27.030  1.00  0.00     0.167 HD
ATOM     65  C   UNL A   1      48.168  28.558  26.822  1.00  0.00     0.074 A 
ATOM     66  C   UNL A   1      49.111  29.657  26.815  1.00  0.00     0.031 C 
ATOM     67  C   UNL A   1      48.482  27.281  26.495  1.00  0.00     0.031 A 
BRANCH  54  68
ATOM     68  C   UNL A   1      43.679  23.414  26.747  1.00  0.00    -0.014 A 
ATOM     69  C   UNL A   1      43.587  22.806  25.484  1.00  0.00     0.010 A 
ATOM     70  C   UNL A   1      43.251  22.711  27.888  1.00  0.00     0.010 A 
ATOM     71  C   UNL A   1      43.038  21.527  25.360  1.00  0.00     0.020 A 
ATOM     72  C   UNL A   1      42.707  21.432  27.767  1.00  0.00     0.020 A 
ATOM     73  C   UNL A   1      42.583  20.856  26.500  1.00  0.00     0.054 A 
BRANCH  73  74
ATOM     74  S   UNL A   1      41.848  19.204  26.348  1.00  0.00     0.124 S 
ATOM     75  O   UNL A   1      42.712  18.585  25.345  1.00  0.00    -0.237 OA
ATOM     76  O   UNL A   1      41.966  18.658  27.698  1.00  0.00    -0.237 OA
ATOM     77  O   UNL A   1      40.483  19.483  25.912  1.00  0.00    -0.744 OA
ENDBRANCH  73  74
ENDBRANCH  54  68
BRANCH  55  78
ATOM     78  C   UNL A   1      46.637  32.785  28.159  1.00  0.00    -0.014 A 
ATOM     79  C   UNL A   1      46.571  33.732  27.124  1.00  0.00     0.010 A 
ATOM     80  C   UNL A   1      47.113  33.170  29.423  1.00  0.00     0.010 A 
ATOM     81  C   UNL A   1      46.979  35.050  27.345  1.00  0.00     0.020 A 
ATOM     82  C   UNL A   1      47.515  34.489  29.649  1.00  0.00     0.020 A 
ATOM     83  C   UNL A   1      47.451  35.419  28.607  1.00  0.00     0.054 A 
BRANCH  83  84
ATOM     84  S   UNL A   1      47.919  37.145  28.921  1.00  0.00     0.124 S 
ATOM     85  O   UNL A   1      49.232  37.222  28.289  1.00  0.00    -0.237 OA
ATOM     86  O   UNL A   1      46.857  37.902  28.264  1.00  0.00    -0.237 OA
ATOM     87  O   UNL A   1      47.915  37.222  30.381  1.00  0.00    -0.744 OA
ENDBRANCH  83  84
ENDBRANCH  55  78
BRANCH  67  88
ATOM     88  C   UNL A   1      49.901  27.009  26.092  1.00  0.00    -0.014 A 
ATOM     89  C   UNL A   1      50.838  26.571  27.043  1.00  0.00     0.010 A 
ATOM     90  C   UNL A   1      50.292  27.156  24.751  1.00  0.00     0.010 A 
ATOM     91  C   UNL A   1      52.155  26.300  26.660  1.00  0.00     0.020 A 
ATOM     92  C   UNL A   1      51.607  26.883  24.366  1.00  0.00     0.020 A 
ATOM     93  C   UNL A   1      52.533  26.467  25.325  1.00  0.00     0.054 A 
BRANCH  93  94
ATOM     94  S   UNL A   1      54.233  26.077  24.819  1.00  0.00     0.124 S 
ATOM     95  O   UNL A   1      54.316  24.648  25.110  1.00  0.00    -0.237 OA
ATOM     96  O   UNL A   1      54.249  26.431  23.402  1.00  0.00    -0.237 OA
ATOM     97  O   UNL A   1      55.043  26.939  25.677  1.00  0.00    -0.744 OA
ENDBRANCH  93  94
ENDBRANCH  67  88
ENDBRANCH  41  42
ENDBRANCH  33  36
ENDBRANCH  31  32
ENDBRANCH   1  31
TORSDOF 17
ENDMDL
MODEL 3
REMARK VINA RESULT:     -11.7      3.135      4.179
REMARK SMILES CC(=O)NS(=O)(=O)c1cc(-c2ccn(C(F)F)c(=O)c2)ccc1C(=O)NCCCNC(=O)c1ccc(-c2c3nc(c(-c4ccc(S(=O)(=O)[O-])cc4)c4ccc([nH]4)c(-c4ccc(S(=O)(=O)[O-])cc4)c4nc(c(-c5ccc(S(=O)(=O)[O-])cc5)c5ccc2[nH]5)C=C4)C=C3)cc1
REMARK SMILES IDX 28 1 27 2 26 3 24 4 25 5 23 7 8 8 9 9 10 10 22 11 21 12 5 13
REMARK SMILES IDX 6 14 7 15 4 16 1 17 2 18 3 19 11 21 12 22 20 23 13 24 18 25
REMARK SMILES IDX 14 26 19 27 15 28 16 29 17 30 29 31 30 32 31 33 32 35 33 36
REMARK SMILES IDX 34 37 92 38 35 39 91 40 36 41 37 42 38 43 85 44 39 45 90 46
REMARK SMILES IDX 84 47 86 48 40 49 89 50 83 51 82 52 41 54 71 55 52 56 70 57
REMARK SMILES IDX 53 58 56 59 69 60 87 61 54 62 55 63 68 65 88 66 57 67 42 68
REMARK SMILES IDX 43 69 51 70 44 71 50 72 45 73 46 74 47 75 48 76 49 77 72 78
REMARK SMILES IDX 73 79 81 80 74 81 80 82 75 83 76 84 77 85 78 86 79 87 58 88
REMARK SMILES IDX 59 89 67 90 60 91 66 92 61 93 62 94 63 95 64 96 65 97
REMARK H PARENT 26 6 4 20 30 34 86 53 56 64
REMARK Flexibility Score: inf
ROOT
ATOM      1  C   UNL A   1      37.203  23.638  25.170  1.00  0.00     0.042 C 
ENDROOT
BRANCH   1   2
ATOM      2  C   UNL A   1      35.680  23.806  25.308  1.00  0.00     0.118 C 
BRANCH   2   3
ATOM      3  N   UNL A   1      35.084  22.803  26.178  1.00  0.00    -0.352 N 
ATOM      4  C   UNL A   1      33.787  22.475  26.445  1.00  0.00     0.252 C 
ATOM      5  O   UNL A   1      33.539  21.473  27.112  1.00  0.00    -0.269 OA
ATOM      6  H   UNL A   1      35.741  22.258  26.667  1.00  0.00     0.163 HD
BRANCH   4   7
ATOM      7  C   UNL A   1      32.637  23.228  25.911  1.00  0.00     0.060 A 
ATOM      8  C   UNL A   1      32.054  23.007  24.662  1.00  0.00     0.101 A 
ATOM      9  C   UNL A   1      31.161  23.954  24.127  1.00  0.00     0.031 A 
ATOM     10  C   UNL A   1      30.911  25.157  24.801  1.00  0.00    -0.017 A 
ATOM     11  C   UNL A   1      32.305  24.395  26.624  1.00  0.00     0.016 A 
ATOM     12  C   UNL A   1      31.453  25.356  26.072  1.00  0.00     0.009 A 
BRANCH   8  13
ATOM     13  S   UNL A   1      32.506  21.619  23.663  1.00  0.00     0.264 S 
ATOM     14  O   UNL A   1      33.945  21.686  23.549  1.00  0.00    -0.201 OA
ATOM     15  O   UNL A   1      31.648  21.551  22.506  1.00  0.00    -0.201 OA
BRANCH  13  16
ATOM     16  N   UNL A   1      32.188  20.293  24.603  1.00  0.00    -0.249 N 
ATOM     17  C   UNL A   1      32.515  18.468  22.893  1.00  0.00     0.115 C 
ATOM     18  C   UNL A   1      32.321  18.927  24.317  1.00  0.00     0.230 C 
ATOM     19  O   UNL A   1      32.138  18.128  25.227  1.00  0.00    -0.274 OA
ATOM     20  H   UNL A   1      31.854  20.496  25.507  1.00  0.00     0.183 HD
ENDBRANCH  13  16
ENDBRANCH   8  13
BRANCH  10  21
ATOM     21  C   UNL A   1      30.290  26.270  24.053  1.00  0.00    -0.011 A 
ATOM     22  C   UNL A   1      28.844  26.416  24.018  1.00  0.00     0.027 A 
ATOM     23  C   UNL A   1      31.055  27.226  23.500  1.00  0.00     0.080 A 
ATOM     24  C   UNL A   1      28.280  27.517  23.512  1.00  0.00     0.095 A 
ATOM     25  C   UNL A   1      30.435  28.437  22.881  1.00  0.00     0.255 A 
ATOM     26  N   UNL A   1      29.053  28.529  22.974  1.00  0.00    -0.258 N 
ATOM     27  O   UNL A   1      31.170  29.269  22.360  1.00  0.00    -0.269 OA
BRANCH  26  28
ATOM     28  C   UNL A   1      28.431  29.729  22.468  1.00  0.00     0.451 C 
ATOM     29  F   UNL A   1      28.280  29.678  21.121  1.00  0.00    -0.185 F 
ATOM     30  F   UNL A   1      27.206  29.912  23.018  1.00  0.00    -0.185 F 
ENDBRANCH  26  28
ENDBRANCH  10  21
ENDBRANCH   4   7
ENDBRANCH   2   3
ENDBRANCH   1   2
BRANCH   1  31
ATOM     31  C   UNL A   1      37.984  24.132  26.396  1.00  0.00     0.118 C 
BRANCH  31  32
ATOM     32  N   UNL A   1      39.417  24.138  26.148  1.00  0.00    -0.352 N 
ATOM     33  C   UNL A   1      40.395  25.034  26.487  1.00  0.00     0.251 C 
ATOM     34  H   UNL A   1      39.741  23.356  25.644  1.00  0.00     0.163 HD
ATOM     35  O   UNL A   1      41.487  24.946  25.925  1.00  0.00    -0.269 OA
BRANCH  33  36
ATOM     36  C   UNL A   1      40.192  26.092  27.507  1.00  0.00     0.039 A 
ATOM     37  C   UNL A   1      40.945  27.269  27.392  1.00  0.00     0.014 A 
ATOM     38  C   UNL A   1      39.411  25.885  28.648  1.00  0.00     0.014 A 
ATOM     39  C   UNL A   1      40.915  28.231  28.407  1.00  0.00     0.010 A 
ATOM     40  C   UNL A   1      39.360  26.860  29.652  1.00  0.00     0.010 A 
ATOM     41  C   UNL A   1      40.128  28.032  29.551  1.00  0.00    -0.014 A 
BRANCH  41  42
ATOM     42  C   UNL A   1      40.177  28.997  30.680  1.00  0.00     0.031 A 
ATOM     43  C   UNL A   1      41.267  28.893  31.712  1.00  0.00     0.074 A 
ATOM     44  C   UNL A   1      39.251  29.968  30.793  1.00  0.00     0.049 A 
ATOM     45  N   UNL A   1      41.422  29.573  32.821  1.00  0.00    -0.248 NA
ATOM     46  C   UNL A   1      42.314  27.888  31.471  1.00  0.00     0.031 C 
ATOM     47  C   UNL A   1      38.141  30.196  29.869  1.00  0.00     0.029 A 
ATOM     48  N   UNL A   1      39.101  30.945  31.746  1.00  0.00    -0.354 N 
ATOM     49  C   UNL A   1      42.548  29.041  33.436  1.00  0.00     0.074 A 
ATOM     50  C   UNL A   1      43.054  28.001  32.565  1.00  0.00     0.031 C 
ATOM     51  C   UNL A   1      37.431  31.256  30.293  1.00  0.00     0.029 A 
ATOM     52  C   UNL A   1      38.024  31.766  31.527  1.00  0.00     0.049 A 
ATOM     53  H   UNL A   1      39.711  31.048  32.512  1.00  0.00     0.167 HD
ATOM     54  C   UNL A   1      43.106  29.372  34.626  1.00  0.00     0.031 A 
ATOM     55  C   UNL A   1      37.558  32.809  32.241  1.00  0.00     0.031 A 
ATOM     56  C   UNL A   1      42.647  30.428  35.483  1.00  0.00     0.049 A 
ATOM     57  C   UNL A   1      38.247  33.221  33.510  1.00  0.00     0.074 A 
ATOM     58  C   UNL A   1      43.141  30.820  36.717  1.00  0.00     0.029 A 
ATOM     59  N   UNL A   1      41.595  31.279  35.186  1.00  0.00    -0.354 N 
ATOM     60  N   UNL A   1      39.282  32.673  34.097  1.00  0.00    -0.248 NA
ATOM     61  C   UNL A   1      37.700  34.393  34.212  1.00  0.00     0.031 C 
ATOM     62  C   UNL A   1      42.393  31.919  37.160  1.00  0.00     0.029 A 
ATOM     63  C   UNL A   1      41.436  32.207  36.200  1.00  0.00     0.049 A 
ATOM     64  H   UNL A   1      41.043  31.231  34.372  1.00  0.00     0.167 HD
ATOM     65  C   UNL A   1      39.508  33.429  35.241  1.00  0.00     0.074 A 
ATOM     66  C   UNL A   1      38.512  34.480  35.259  1.00  0.00     0.031 C 
ATOM     67  C   UNL A   1      40.453  33.256  36.198  1.00  0.00     0.031 A 
BRANCH  54  68
ATOM     68  C   UNL A   1      44.268  28.537  35.075  1.00  0.00    -0.014 A 
ATOM     69  C   UNL A   1      44.072  27.371  35.832  1.00  0.00     0.010 A 
ATOM     70  C   UNL A   1      45.577  28.945  34.756  1.00  0.00     0.010 A 
ATOM     71  C   UNL A   1      45.171  26.643  36.297  1.00  0.00     0.020 A 
ATOM     72  C   UNL A   1      46.676  28.217  35.215  1.00  0.00     0.020 A 
ATOM     73  C   UNL A   1      46.467  27.082  36.002  1.00  0.00     0.054 A 
BRANCH  73  74
ATOM     74  S   UNL A   1      47.901  26.157  36.619  1.00  0.00     0.124 S 
ATOM     75  O   UNL A   1      48.679  27.211  37.268  1.00  0.00    -0.237 OA
ATOM     76  O   UNL A   1      47.304  25.174  37.520  1.00  0.00    -0.237 OA
ATOM     77  O   UNL A   1      48.490  25.602  35.404  1.00  0.00    -0.744 OA
ENDBRANCH  73  74
ENDBRANCH  54  68
BRANCH  55  78
ATOM     78  C   UNL A   1      36.360  33.542  31.767  1.00  0.00    -0.014 A 
ATOM     79  C   UNL A   1      35.380  33.959  32.684  1.00  0.00     0.010 A 
ATOM     80  C   UNL A   1      36.208  33.845  30.404  1.00  0.00     0.010 A 
ATOM     81  C   UNL A   1      34.259  34.667  32.245  1.00  0.00     0.020 A 
ATOM     82  C   UNL A   1      35.091  34.559  29.963  1.00  0.00     0.020 A 
ATOM     83  C   UNL A   1      34.120  34.960  30.886  1.00  0.00     0.054 A 
BRANCH  83  84
ATOM     84  S   UNL A   1      32.700  35.939  30.319  1.00  0.00     0.124 S 
ATOM     85  O   UNL A   1      32.471  35.394  28.985  1.00  0.00    -0.237 OA
ATOM     86  O   UNL A   1      31.669  35.635  31.309  1.00  0.00    -0.237 OA
ATOM     87  O   UNL A   1      33.209  37.308  30.364  1.00  0.00    -0.744 OA
ENDBRANCH  83  84
ENDBRANCH  55  78
BRANCH  67  88
ATOM     88  C   UNL A   1      40.458  34.233  37.335  1.00  0.00    -0.014 A 
ATOM     89  C   UNL A   1      41.215  35.413  37.256  1.00  0.00     0.010 A 
ATOM     90  C   UNL A   1      39.676  33.988  38.476  1.00  0.00     0.010 A 
ATOM     91  C   UNL A   1      41.203  36.330  38.310  1.00  0.00     0.020 A 
ATOM     92  C   UNL A   1      39.660  34.904  39.531  1.00  0.00     0.020 A 
ATOM     93  C   UNL A   1      40.432  36.065  39.446  1.00  0.00     0.054 A 
BRANCH  93  94
ATOM     94  S   UNL A   1      40.384  37.274  40.799  1.00  0.00     0.124 S 
ATOM     95  O   UNL A   1      41.113  36.576  41.855  1.00  0.00    -0.237 OA
ATOM     96  O   UNL A   1      41.061  38.438  40.232  1.00  0.00    -0.237 OA
ATOM     97  O   UNL A   1      38.953  37.452  41.038  1.00  0.00    -0.744 OA
ENDBRANCH  93  94
ENDBRANCH  67  88
ENDBRANCH  41  42
ENDBRANCH  33  36
ENDBRANCH  31  32
ENDBRANCH   1  31
TORSDOF 17
ENDMDL
