MODEL 1
REMARK VINA RESULT:     -12.2      0.000      0.000
REMARK SMILES Cc1ccc(S(=O)(=O)Nc2cc(C(=O)NCCCNC(=O)c3ccc(-c4c5nc(c(-c6ccc(S(=O)(=O)[O-])cc6)c6ccc([nH]6)c(-c6ccc(S(=O)(=O)[O-])cc6)c6nc(c(-c7ccc(S(=O)(=O)[O-])cc7)c7ccc4[nH]7)C=C6)C=C5)cc3)cnc2N2CCCC2)c(C)c1
REMARK SMILES IDX 17 1 16 2 15 3 13 4 14 5 12 7 10 8 11 9 84 10 83 11 82 12
REMARK SMILES IDX 9 13 6 15 7 16 8 17 5 18 1 19 2 20 3 21 92 22 4 23 90 24
REMARK SMILES IDX 91 25 85 26 86 27 89 28 87 29 88 30 18 31 19 32 20 33 21 35
REMARK SMILES IDX 22 36 23 37 81 38 24 39 80 40 25 41 26 42 27 43 74 44 28 45
REMARK SMILES IDX 79 46 73 47 75 48 29 49 78 50 72 51 71 52 30 54 60 55 41 56
REMARK SMILES IDX 59 57 42 58 45 59 58 60 76 61 43 62 44 63 57 65 77 66 46 67
REMARK SMILES IDX 31 68 32 69 40 70 33 71 39 72 34 73 35 74 36 75 37 76 38 77
REMARK SMILES IDX 61 78 62 79 70 80 63 81 69 82 64 83 65 84 66 85 67 86 68 87
REMARK SMILES IDX 47 88 48 89 56 90 49 91 55 92 50 93 51 94 52 95 53 96 54 97
REMARK H PARENT 15 6 9 14 19 34 75 53 45 64
REMARK Flexibility Score: inf
ROOT
ATOM      1  C   UNL A   1      40.038  22.116  27.068  1.00  0.00     0.042 C 
ENDROOT
BRANCH   1   2
ATOM      2  C   UNL A   1      38.888  22.373  26.098  1.00  0.00     0.118 C 
BRANCH   2   3
ATOM      3  N   UNL A   1      38.180  21.149  25.766  1.00  0.00    -0.352 N 
ATOM      4  C   UNL A   1      36.977  20.922  25.146  1.00  0.00     0.252 C 
ATOM      5  O   UNL A   1      36.669  19.757  24.899  1.00  0.00    -0.269 OA
ATOM      6  H   UNL A   1      38.651  20.327  26.036  1.00  0.00     0.163 HD
BRANCH   4   7
ATOM      7  C   UNL A   1      36.067  22.006  24.705  1.00  0.00     0.060 A 
ATOM      8  C   UNL A   1      34.398  23.708  24.983  1.00  0.00     0.092 A 
ATOM      9  C   UNL A   1      35.068  22.591  25.473  1.00  0.00     0.046 A 
ATOM     10  C   UNL A   1      34.598  24.118  23.645  1.00  0.00     0.153 A 
ATOM     11  N   UNL A   1      35.495  23.494  22.857  1.00  0.00    -0.236 NA
ATOM     12  C   UNL A   1      36.225  22.486  23.407  1.00  0.00     0.127 A 
BRANCH   8  13
ATOM     13  N   UNL A   1      33.509  24.464  25.795  1.00  0.00    -0.276 N 
ATOM     14  H   UNL A   1      33.895  25.206  26.314  1.00  0.00     0.180 HD
BRANCH  13  15
ATOM     15  S   UNL A   1      31.869  24.204  25.946  1.00  0.00     0.262 S 
ATOM     16  O   UNL A   1      31.607  24.127  27.372  1.00  0.00    -0.201 OA
ATOM     17  O   UNL A   1      31.589  23.095  25.063  1.00  0.00    -0.201 OA
BRANCH  15  18
ATOM     18  C   UNL A   1      30.899  25.589  25.343  1.00  0.00     0.090 A 
ATOM     19  C   UNL A   1      29.564  28.924  22.958  1.00  0.00     0.044 C 
ATOM     20  C   UNL A   1      29.955  27.776  23.842  1.00  0.00    -0.051 A 
ATOM     21  C   UNL A   1      29.393  26.509  23.675  1.00  0.00     0.005 A 
ATOM     22  C   UNL A   1      30.874  27.971  24.877  1.00  0.00     0.008 A 
ATOM     23  C   UNL A   1      29.847  25.423  24.435  1.00  0.00     0.023 A 
ATOM     24  C   UNL A   1      31.343  26.893  25.649  1.00  0.00    -0.030 A 
ATOM     25  C   UNL A   1      32.302  27.218  26.764  1.00  0.00     0.046 C 
ENDBRANCH  15  18
ENDBRANCH  13  15
ENDBRANCH   8  13
BRANCH  10  26
ATOM     26  N   UNL A   1      33.847  25.116  23.088  1.00  0.00    -0.355 N 
ATOM     27  C   UNL A   1      32.697  24.994  22.216  1.00  0.00     0.118 C 
ATOM     28  C   UNL A   1      34.191  26.502  23.369  1.00  0.00     0.118 C 
ATOM     29  C   UNL A   1      32.788  26.291  21.415  1.00  0.00     0.023 C 
ATOM     30  C   UNL A   1      33.247  27.300  22.464  1.00  0.00     0.023 C 
ENDBRANCH  10  26
ENDBRANCH   4   7
ENDBRANCH   2   3
ENDBRANCH   1   2
BRANCH   1  31
ATOM     31  C   UNL A   1      40.794  23.385  27.442  1.00  0.00     0.118 C 
BRANCH  31  32
ATOM     32  N   UNL A   1      41.063  24.216  26.278  1.00  0.00    -0.352 N 
ATOM     33  C   UNL A   1      41.057  25.583  26.161  1.00  0.00     0.251 C 
ATOM     34  H   UNL A   1      41.282  23.726  25.453  1.00  0.00     0.163 HD
ATOM     35  O   UNL A   1      41.118  26.088  25.042  1.00  0.00    -0.269 OA
BRANCH  33  36
ATOM     36  C   UNL A   1      40.964  26.445  27.362  1.00  0.00     0.039 A 
ATOM     37  C   UNL A   1      39.924  26.217  28.269  1.00  0.00     0.014 A 
ATOM     38  C   UNL A   1      41.856  27.500  27.575  1.00  0.00     0.014 A 
ATOM     39  C   UNL A   1      39.799  27.023  29.403  1.00  0.00     0.010 A 
ATOM     40  C   UNL A   1      41.770  28.261  28.739  1.00  0.00     0.010 A 
ATOM     41  C   UNL A   1      40.732  28.042  29.655  1.00  0.00    -0.014 A 
BRANCH  41  42
ATOM     42  C   UNL A   1      40.610  28.911  30.852  1.00  0.00     0.031 A 
ATOM     43  C   UNL A   1      39.549  29.978  30.903  1.00  0.00     0.074 A 
ATOM     44  C   UNL A   1      41.482  28.775  31.869  1.00  0.00     0.049 A 
ATOM     45  N   UNL A   1      39.315  30.864  31.837  1.00  0.00    -0.248 NA
ATOM     46  C   UNL A   1      38.650  30.078  29.741  1.00  0.00     0.031 C 
ATOM     47  C   UNL A   1      42.583  27.810  31.921  1.00  0.00     0.029 A 
ATOM     48  N   UNL A   1      41.581  29.457  33.056  1.00  0.00    -0.354 N 
ATOM     49  C   UNL A   1      38.265  31.643  31.364  1.00  0.00     0.074 A 
ATOM     50  C   UNL A   1      37.932  31.148  30.046  1.00  0.00     0.031 C 
ATOM     51  C   UNL A   1      43.230  27.946  33.090  1.00  0.00     0.029 A 
ATOM     52  C   UNL A   1      42.610  29.020  33.857  1.00  0.00     0.049 A 
ATOM     53  H   UNL A   1      40.973  30.188  33.310  1.00  0.00     0.167 HD
ATOM     54  C   UNL A   1      37.624  32.667  31.976  1.00  0.00     0.031 A 
ATOM     55  C   UNL A   1      43.006  29.438  35.075  1.00  0.00     0.031 A 
ATOM     56  C   UNL A   1      37.935  33.140  33.298  1.00  0.00     0.049 A 
ATOM     57  C   UNL A   1      42.249  30.544  35.755  1.00  0.00     0.074 A 
ATOM     58  C   UNL A   1      37.309  34.135  34.028  1.00  0.00     0.029 A 
ATOM     59  N   UNL A   1      38.956  32.643  34.092  1.00  0.00    -0.354 N 
ATOM     60  N   UNL A   1      41.226  31.234  35.312  1.00  0.00    -0.248 NA
ATOM     61  C   UNL A   1      42.691  30.915  37.106  1.00  0.00     0.031 C 
ATOM     62  C   UNL A   1      37.969  34.256  35.257  1.00  0.00     0.029 A 
ATOM     63  C   UNL A   1      38.982  33.312  35.303  1.00  0.00     0.049 A 
ATOM     64  H   UNL A   1      39.573  31.920  33.834  1.00  0.00     0.167 HD
ATOM     65  C   UNL A   1      40.888  32.108  36.338  1.00  0.00     0.074 A 
ATOM     66  C   UNL A   1      41.807  31.850  37.429  1.00  0.00     0.031 C 
ATOM     67  C   UNL A   1      39.904  33.040  36.376  1.00  0.00     0.031 A 
BRANCH  54  68
ATOM     68  C   UNL A   1      36.521  33.344  31.209  1.00  0.00    -0.014 A 
ATOM     69  C   UNL A   1      36.734  33.820  29.903  1.00  0.00     0.010 A 
ATOM     70  C   UNL A   1      35.251  33.499  31.796  1.00  0.00     0.010 A 
ATOM     71  C   UNL A   1      35.714  34.483  29.215  1.00  0.00     0.020 A 
ATOM     72  C   UNL A   1      34.221  34.140  31.103  1.00  0.00     0.020 A 
ATOM     73  C   UNL A   1      34.467  34.648  29.824  1.00  0.00     0.054 A 
BRANCH  73  74
ATOM     74  S   UNL A   1      33.156  35.512  28.915  1.00  0.00     0.124 S 
ATOM     75  O   UNL A   1      32.564  34.426  28.139  1.00  0.00    -0.237 OA
ATOM     76  O   UNL A   1      32.318  36.049  29.984  1.00  0.00    -0.237 OA
ATOM     77  O   UNL A   1      33.880  36.514  28.135  1.00  0.00    -0.744 OA
ENDBRANCH  73  74
ENDBRANCH  54  68
BRANCH  55  78
ATOM     78  C   UNL A   1      44.157  28.776  35.743  1.00  0.00    -0.014 A 
ATOM     79  C   UNL A   1      45.460  29.267  35.559  1.00  0.00     0.010 A 
ATOM     80  C   UNL A   1      43.952  27.669  36.585  1.00  0.00     0.010 A 
ATOM     81  C   UNL A   1      46.543  28.657  36.197  1.00  0.00     0.020 A 
ATOM     82  C   UNL A   1      45.030  27.067  37.241  1.00  0.00     0.020 A 
ATOM     83  C   UNL A   1      46.321  27.560  37.034  1.00  0.00     0.054 A 
BRANCH  83  84
ATOM     84  S   UNL A   1      47.730  26.817  37.904  1.00  0.00     0.124 S 
ATOM     85  O   UNL A   1      47.300  25.430  38.050  1.00  0.00    -0.237 OA
ATOM     86  O   UNL A   1      48.834  27.042  36.973  1.00  0.00    -0.237 OA
ATOM     87  O   UNL A   1      47.808  27.586  39.144  1.00  0.00    -0.744 OA
ENDBRANCH  83  84
ENDBRANCH  55  78
BRANCH  67  88
ATOM     88  C   UNL A   1      39.754  33.828  37.647  1.00  0.00    -0.014 A 
ATOM     89  C   UNL A   1      40.336  35.099  37.784  1.00  0.00     0.010 A 
ATOM     90  C   UNL A   1      38.983  33.305  38.700  1.00  0.00     0.010 A 
ATOM     91  C   UNL A   1      40.175  35.824  38.966  1.00  0.00     0.020 A 
ATOM     92  C   UNL A   1      38.804  34.035  39.878  1.00  0.00     0.020 A 
ATOM     93  C   UNL A   1      39.415  35.284  40.009  1.00  0.00     0.054 A 
BRANCH  93  94
ATOM     94  S   UNL A   1      39.185  36.256  41.524  1.00  0.00     0.124 S 
ATOM     95  O   UNL A   1      37.955  35.684  42.066  1.00  0.00    -0.237 OA
ATOM     96  O   UNL A   1      40.399  35.967  42.283  1.00  0.00    -0.237 OA
ATOM     97  O   UNL A   1      39.074  37.630  41.038  1.00  0.00    -0.744 OA
ENDBRANCH  93  94
ENDBRANCH  67  88
ENDBRANCH  41  42
ENDBRANCH  33  36
ENDBRANCH  31  32
ENDBRANCH   1  31
TORSDOF 17
ENDMDL
MODEL 2
REMARK VINA RESULT:     -11.9      5.977     11.225
REMARK SMILES Cc1ccc(S(=O)(=O)Nc2cc(C(=O)NCCCNC(=O)c3ccc(-c4c5nc(c(-c6ccc(S(=O)(=O)[O-])cc6)c6ccc([nH]6)c(-c6ccc(S(=O)(=O)[O-])cc6)c6nc(c(-c7ccc(S(=O)(=O)[O-])cc7)c7ccc4[nH]7)C=C6)C=C5)cc3)cnc2N2CCCC2)c(C)c1
REMARK SMILES IDX 17 1 16 2 15 3 13 4 14 5 12 7 10 8 11 9 84 10 83 11 82 12
REMARK SMILES IDX 9 13 6 15 7 16 8 17 5 18 1 19 2 20 3 21 92 22 4 23 90 24
REMARK SMILES IDX 91 25 85 26 86 27 89 28 87 29 88 30 18 31 19 32 20 33 21 35
REMARK SMILES IDX 22 36 23 37 81 38 24 39 80 40 25 41 26 42 27 43 74 44 28 45
REMARK SMILES IDX 79 46 73 47 75 48 29 49 78 50 72 51 71 52 30 54 60 55 41 56
REMARK SMILES IDX 59 57 42 58 45 59 58 60 76 61 43 62 44 63 57 65 77 66 46 67
REMARK SMILES IDX 31 68 32 69 40 70 33 71 39 72 34 73 35 74 36 75 37 76 38 77
REMARK SMILES IDX 61 78 62 79 70 80 63 81 69 82 64 83 65 84 66 85 67 86 68 87
REMARK SMILES IDX 47 88 48 89 56 90 49 91 55 92 50 93 51 94 52 95 53 96 54 97
REMARK H PARENT 15 6 9 14 19 34 75 53 45 64
REMARK Flexibility Score: inf
ROOT
ATOM      1  C   UNL A   1      34.212  31.900  27.874  1.00  0.00     0.042 C 
ENDROOT
BRANCH   1   2
ATOM      2  C   UNL A   1      33.566  30.537  27.641  1.00  0.00     0.118 C 
BRANCH   2   3
ATOM      3  N   UNL A   1      32.530  30.598  26.625  1.00  0.00    -0.352 N 
ATOM      4  C   UNL A   1      32.110  29.691  25.685  1.00  0.00     0.252 C 
ATOM      5  O   UNL A   1      31.122  29.978  25.011  1.00  0.00    -0.269 OA
ATOM      6  H   UNL A   1      32.037  31.450  26.607  1.00  0.00     0.163 HD
BRANCH   4   7
ATOM      7  C   UNL A   1      32.743  28.365  25.487  1.00  0.00     0.060 A 
ATOM      8  C   UNL A   1      33.120  26.035  25.922  1.00  0.00     0.092 A 
ATOM      9  C   UNL A   1      32.595  27.262  26.319  1.00  0.00     0.046 A 
ATOM     10  C   UNL A   1      33.956  25.961  24.786  1.00  0.00     0.153 A 
ATOM     11  N   UNL A   1      34.189  27.050  24.025  1.00  0.00    -0.236 NA
ATOM     12  C   UNL A   1      33.558  28.205  24.369  1.00  0.00     0.127 A 
BRANCH   8  13
ATOM     13  N   UNL A   1      32.835  24.835  26.631  1.00  0.00    -0.276 N 
ATOM     14  H   UNL A   1      33.375  24.648  27.432  1.00  0.00     0.180 HD
BRANCH  13  15
ATOM     15  S   UNL A   1      31.666  23.718  26.223  1.00  0.00     0.262 S 
ATOM     16  O   UNL A   1      30.854  24.348  25.197  1.00  0.00    -0.201 OA
ATOM     17  O   UNL A   1      31.102  23.298  27.485  1.00  0.00    -0.201 OA
BRANCH  15  18
ATOM     18  C   UNL A   1      32.363  22.248  25.463  1.00  0.00     0.090 A 
ATOM     19  C   UNL A   1      32.995  18.142  24.310  1.00  0.00     0.044 C 
ATOM     20  C   UNL A   1      32.848  19.594  24.660  1.00  0.00    -0.051 A 
ATOM     21  C   UNL A   1      32.198  20.484  23.803  1.00  0.00     0.005 A 
ATOM     22  C   UNL A   1      33.395  20.085  25.848  1.00  0.00     0.008 A 
ATOM     23  C   UNL A   1      31.973  21.811  24.192  1.00  0.00     0.023 A 
ATOM     24  C   UNL A   1      33.179  21.414  26.256  1.00  0.00    -0.030 A 
ATOM     25  C   UNL A   1      33.846  21.854  27.533  1.00  0.00     0.046 C 
ENDBRANCH  15  18
ENDBRANCH  13  15
ENDBRANCH   8  13
BRANCH  10  26
ATOM     26  N   UNL A   1      34.607  24.804  24.456  1.00  0.00    -0.355 N 
ATOM     27  C   UNL A   1      35.609  24.089  25.219  1.00  0.00     0.118 C 
ATOM     28  C   UNL A   1      34.297  24.154  23.192  1.00  0.00     0.118 C 
ATOM     29  C   UNL A   1      36.403  23.407  24.108  1.00  0.00     0.023 C 
ATOM     30  C   UNL A   1      35.314  23.011  23.114  1.00  0.00     0.023 C 
ENDBRANCH  10  26
ENDBRANCH   4   7
ENDBRANCH   2   3
ENDBRANCH   1   2
BRANCH   1  31
ATOM     31  C   UNL A   1      35.559  31.806  28.578  1.00  0.00     0.118 C 
BRANCH  31  32
ATOM     32  N   UNL A   1      35.412  31.476  29.987  1.00  0.00    -0.352 N 
ATOM     33  C   UNL A   1      36.249  30.766  30.811  1.00  0.00     0.251 C 
ATOM     34  H   UNL A   1      34.591  31.813  30.414  1.00  0.00     0.163 HD
ATOM     35  O   UNL A   1      35.849  30.429  31.923  1.00  0.00    -0.269 OA
BRANCH  33  36
ATOM     36  C   UNL A   1      37.612  30.394  30.366  1.00  0.00     0.039 A 
ATOM     37  C   UNL A   1      37.800  30.016  29.032  1.00  0.00     0.014 A 
ATOM     38  C   UNL A   1      38.689  30.367  31.256  1.00  0.00     0.014 A 
ATOM     39  C   UNL A   1      39.070  29.644  28.586  1.00  0.00     0.010 A 
ATOM     40  C   UNL A   1      39.967  30.059  30.796  1.00  0.00     0.010 A 
ATOM     41  C   UNL A   1      40.167  29.678  29.461  1.00  0.00    -0.014 A 
BRANCH  41  42
ATOM     42  C   UNL A   1      41.522  29.280  29.004  1.00  0.00     0.031 A 
ATOM     43  C   UNL A   1      42.630  30.299  28.956  1.00  0.00     0.074 A 
ATOM     44  C   UNL A   1      41.745  28.019  28.587  1.00  0.00     0.049 A 
ATOM     45  N   UNL A   1      43.863  30.157  28.544  1.00  0.00    -0.248 NA
ATOM     46  C   UNL A   1      42.300  31.662  29.407  1.00  0.00     0.031 C 
ATOM     47  C   UNL A   1      40.743  26.951  28.542  1.00  0.00     0.029 A 
ATOM     48  N   UNL A   1      42.888  27.424  28.116  1.00  0.00    -0.354 N 
ATOM     49  C   UNL A   1      44.446  31.414  28.657  1.00  0.00     0.074 A 
ATOM     50  C   UNL A   1      43.422  32.313  29.143  1.00  0.00     0.031 C 
ATOM     51  C   UNL A   1      41.324  25.826  28.092  1.00  0.00     0.029 A 
ATOM     52  C   UNL A   1      42.726  26.098  27.793  1.00  0.00     0.049 A 
ATOM     53  H   UNL A   1      43.743  27.902  28.018  1.00  0.00     0.167 HD
ATOM     54  C   UNL A   1      45.723  31.786  28.397  1.00  0.00     0.031 A 
ATOM     55  C   UNL A   1      43.609  25.201  27.314  1.00  0.00     0.031 A 
ATOM     56  C   UNL A   1      46.749  30.886  27.944  1.00  0.00     0.049 A 
ATOM     57  C   UNL A   1      45.031  25.624  27.078  1.00  0.00     0.074 A 
ATOM     58  C   UNL A   1      48.086  31.153  27.704  1.00  0.00     0.029 A 
ATOM     59  N   UNL A   1      46.553  29.542  27.669  1.00  0.00    -0.354 N 
ATOM     60  N   UNL A   1      45.576  26.806  27.240  1.00  0.00    -0.248 NA
ATOM     61  C   UNL A   1      45.962  24.587  26.612  1.00  0.00     0.031 C 
ATOM     62  C   UNL A   1      48.693  29.972  27.261  1.00  0.00     0.029 A 
ATOM     63  C   UNL A   1      47.742  28.965  27.260  1.00  0.00     0.049 A 
ATOM     64  H   UNL A   1      45.695  29.067  27.755  1.00  0.00     0.167 HD
ATOM     65  C   UNL A   1      46.918  26.650  26.915  1.00  0.00     0.074 A 
ATOM     66  C   UNL A   1      47.105  25.258  26.559  1.00  0.00     0.031 C 
ATOM     67  C   UNL A   1      47.908  27.577  26.911  1.00  0.00     0.031 A 
BRANCH  54  68
ATOM     68  C   UNL A   1      46.072  33.235  28.598  1.00  0.00    -0.014 A 
ATOM     69  C   UNL A   1      46.512  33.708  29.848  1.00  0.00     0.010 A 
ATOM     70  C   UNL A   1      45.968  34.136  27.522  1.00  0.00     0.010 A 
ATOM     71  C   UNL A   1      46.794  35.064  30.032  1.00  0.00     0.020 A 
ATOM     72  C   UNL A   1      46.272  35.489  27.697  1.00  0.00     0.020 A 
ATOM     73  C   UNL A   1      46.662  35.948  28.958  1.00  0.00     0.054 A 
BRANCH  73  74
ATOM     74  S   UNL A   1      47.033  37.704  29.220  1.00  0.00     0.124 S 
ATOM     75  O   UNL A   1      45.836  38.346  28.681  1.00  0.00    -0.237 OA
ATOM     76  O   UNL A   1      47.193  37.790  30.669  1.00  0.00    -0.237 OA
ATOM     77  O   UNL A   1      48.256  37.918  28.450  1.00  0.00    -0.744 OA
ENDBRANCH  73  74
ENDBRANCH  54  68
BRANCH  55  78
ATOM     78  C   UNL A   1      43.175  23.802  27.062  1.00  0.00    -0.014 A 
ATOM     79  C   UNL A   1      42.809  23.397  25.767  1.00  0.00     0.010 A 
ATOM     80  C   UNL A   1      43.151  22.863  28.108  1.00  0.00     0.010 A 
ATOM     81  C   UNL A   1      42.416  22.078  25.523  1.00  0.00     0.020 A 
ATOM     82  C   UNL A   1      42.777  21.539  27.865  1.00  0.00     0.020 A 
ATOM     83  C   UNL A   1      42.402  21.157  26.574  1.00  0.00     0.054 A 
BRANCH  83  84
ATOM     84  S   UNL A   1      41.947  19.435  26.228  1.00  0.00     0.124 S 
ATOM     85  O   UNL A   1      42.714  19.156  25.017  1.00  0.00    -0.237 OA
ATOM     86  O   UNL A   1      42.393  18.739  27.433  1.00  0.00    -0.237 OA
ATOM     87  O   UNL A   1      40.497  19.494  26.055  1.00  0.00    -0.744 OA
ENDBRANCH  83  84
ENDBRANCH  55  78
BRANCH  67  88
ATOM     88  C   UNL A   1      49.286  27.107  26.539  1.00  0.00    -0.014 A 
ATOM     89  C   UNL A   1      49.727  27.140  25.205  1.00  0.00     0.010 A 
ATOM     90  C   UNL A   1      50.164  26.667  27.545  1.00  0.00     0.010 A 
ATOM     91  C   UNL A   1      51.015  26.712  24.878  1.00  0.00     0.020 A 
ATOM     92  C   UNL A   1      51.460  26.256  27.224  1.00  0.00     0.020 A 
ATOM     93  C   UNL A   1      51.872  26.267  25.890  1.00  0.00     0.054 A 
BRANCH  93  94
ATOM     94  S   UNL A   1      53.556  25.750  25.452  1.00  0.00     0.124 S 
ATOM     95  O   UNL A   1      54.051  25.227  26.723  1.00  0.00    -0.237 OA
ATOM     96  O   UNL A   1      53.329  24.754  24.408  1.00  0.00    -0.237 OA
ATOM     97  O   UNL A   1      54.188  26.987  24.997  1.00  0.00    -0.744 OA
ENDBRANCH  93  94
ENDBRANCH  67  88
ENDBRANCH  41  42
ENDBRANCH  33  36
ENDBRANCH  31  32
ENDBRANCH   1  31
TORSDOF 17
ENDMDL
MODEL 3
REMARK VINA RESULT:     -11.9      5.904     10.575
REMARK SMILES Cc1ccc(S(=O)(=O)Nc2cc(C(=O)NCCCNC(=O)c3ccc(-c4c5nc(c(-c6ccc(S(=O)(=O)[O-])cc6)c6ccc([nH]6)c(-c6ccc(S(=O)(=O)[O-])cc6)c6nc(c(-c7ccc(S(=O)(=O)[O-])cc7)c7ccc4[nH]7)C=C6)C=C5)cc3)cnc2N2CCCC2)c(C)c1
REMARK SMILES IDX 17 1 16 2 15 3 13 4 14 5 12 7 10 8 11 9 84 10 83 11 82 12
REMARK SMILES IDX 9 13 6 15 7 16 8 17 5 18 1 19 2 20 3 21 92 22 4 23 90 24
REMARK SMILES IDX 91 25 85 26 86 27 89 28 87 29 88 30 18 31 19 32 20 33 21 35
REMARK SMILES IDX 22 36 23 37 81 38 24 39 80 40 25 41 26 42 27 43 74 44 28 45
REMARK SMILES IDX 79 46 73 47 75 48 29 49 78 50 72 51 71 52 30 54 60 55 41 56
REMARK SMILES IDX 59 57 42 58 45 59 58 60 76 61 43 62 44 63 57 65 77 66 46 67
REMARK SMILES IDX 31 68 32 69 40 70 33 71 39 72 34 73 35 74 36 75 37 76 38 77
REMARK SMILES IDX 61 78 62 79 70 80 63 81 69 82 64 83 65 84 66 85 67 86 68 87
REMARK SMILES IDX 47 88 48 89 56 90 49 91 55 92 50 93 51 94 52 95 53 96 54 97
REMARK H PARENT 15 6 9 14 19 34 75 53 45 64
REMARK Flexibility Score: inf
ROOT
ATOM      1  C   UNL A   1      38.259  19.942  24.986  1.00  0.00     0.042 C 
ENDROOT
BRANCH   1   2
ATOM      2  C   UNL A   1      36.868  20.496  25.281  1.00  0.00     0.118 C 
BRANCH   2   3
ATOM      3  N   UNL A   1      35.823  19.568  24.885  1.00  0.00    -0.352 N 
ATOM      4  C   UNL A   1      34.474  19.730  24.692  1.00  0.00     0.252 C 
ATOM      5  O   UNL A   1      33.838  18.776  24.247  1.00  0.00    -0.269 OA
ATOM      6  H   UNL A   1      36.142  18.651  24.724  1.00  0.00     0.163 HD
BRANCH   4   7
ATOM      7  C   UNL A   1      33.762  21.008  24.931  1.00  0.00     0.060 A 
ATOM      8  C   UNL A   1      32.800  23.122  24.325  1.00  0.00     0.092 A 
ATOM      9  C   UNL A   1      33.634  22.050  24.020  1.00  0.00     0.046 A 
ATOM     10  C   UNL A   1      32.249  23.239  25.621  1.00  0.00     0.153 A 
ATOM     11  N   UNL A   1      32.450  22.281  26.548  1.00  0.00    -0.236 NA
ATOM     12  C   UNL A   1      33.164  21.184  26.177  1.00  0.00     0.127 A 
BRANCH   8  13
ATOM     13  N   UNL A   1      32.477  24.116  23.361  1.00  0.00    -0.276 N 
ATOM     14  H   UNL A   1      31.544  24.152  23.048  1.00  0.00     0.180 HD
BRANCH  13  15
ATOM     15  S   UNL A   1      33.539  25.227  22.715  1.00  0.00     0.262 S 
ATOM     16  O   UNL A   1      33.341  25.178  21.277  1.00  0.00    -0.201 OA
ATOM     17  O   UNL A   1      34.815  24.910  23.315  1.00  0.00    -0.201 OA
BRANCH  15  18
ATOM     18  C   UNL A   1      33.151  26.910  23.206  1.00  0.00     0.090 A 
ATOM     19  C   UNL A   1      31.625  30.281  25.418  1.00  0.00     0.044 C 
ATOM     20  C   UNL A   1      32.191  29.167  24.587  1.00  0.00    -0.051 A 
ATOM     21  C   UNL A   1      33.528  28.780  24.706  1.00  0.00     0.005 A 
ATOM     22  C   UNL A   1      31.386  28.516  23.649  1.00  0.00     0.008 A 
ATOM     23  C   UNL A   1      34.013  27.670  24.004  1.00  0.00     0.023 A 
ATOM     24  C   UNL A   1      31.855  27.398  22.936  1.00  0.00    -0.030 A 
ATOM     25  C   UNL A   1      30.921  26.794  21.920  1.00  0.00     0.046 C 
ENDBRANCH  15  18
ENDBRANCH  13  15
ENDBRANCH   8  13
BRANCH  10  26
ATOM     26  N   UNL A   1      31.551  24.353  25.998  1.00  0.00    -0.355 N 
ATOM     27  C   UNL A   1      30.116  24.548  26.024  1.00  0.00     0.118 C 
ATOM     28  C   UNL A   1      32.283  25.529  26.446  1.00  0.00     0.118 C 
ATOM     29  C   UNL A   1      30.013  26.056  25.812  1.00  0.00     0.023 C 
ATOM     30  C   UNL A   1      31.191  26.589  26.624  1.00  0.00     0.023 C 
ENDBRANCH  10  26
ENDBRANCH   4   7
ENDBRANCH   2   3
ENDBRANCH   1   2
BRANCH   1  31
ATOM     31  C   UNL A   1      39.319  20.455  25.952  1.00  0.00     0.118 C 
BRANCH  31  32
ATOM     32  N   UNL A   1      40.402  19.498  26.124  1.00  0.00    -0.352 N 
ATOM     33  C   UNL A   1      41.747  19.722  26.287  1.00  0.00     0.251 C 
ATOM     34  H   UNL A   1      40.132  18.552  26.123  1.00  0.00     0.163 HD
ATOM     35  O   UNL A   1      42.523  18.771  26.219  1.00  0.00    -0.269 OA
BRANCH  33  36
ATOM     36  C   UNL A   1      42.263  21.088  26.528  1.00  0.00     0.039 A 
ATOM     37  C   UNL A   1      42.532  21.479  27.844  1.00  0.00     0.014 A 
ATOM     38  C   UNL A   1      42.437  21.999  25.482  1.00  0.00     0.014 A 
ATOM     39  C   UNL A   1      43.005  22.766  28.107  1.00  0.00     0.010 A 
ATOM     40  C   UNL A   1      42.969  23.261  25.737  1.00  0.00     0.010 A 
ATOM     41  C   UNL A   1      43.242  23.663  27.053  1.00  0.00    -0.014 A 
BRANCH  41  42
ATOM     42  C   UNL A   1      43.739  25.037  27.315  1.00  0.00     0.031 A 
ATOM     43  C   UNL A   1      45.181  25.379  27.052  1.00  0.00     0.074 A 
ATOM     44  C   UNL A   1      42.907  25.962  27.833  1.00  0.00     0.049 A 
ATOM     45  N   UNL A   1      45.813  26.506  27.261  1.00  0.00    -0.248 NA
ATOM     46  C   UNL A   1      46.031  24.307  26.508  1.00  0.00     0.031 C 
ATOM     47  C   UNL A   1      41.500  25.742  28.174  1.00  0.00     0.029 A 
ATOM     48  N   UNL A   1      43.131  27.273  28.169  1.00  0.00    -0.354 N 
ATOM     49  C   UNL A   1      47.135  26.270  26.903  1.00  0.00     0.074 A 
ATOM     50  C   UNL A   1      47.222  24.885  26.498  1.00  0.00     0.031 C 
ATOM     51  C   UNL A   1      40.980  26.887  28.647  1.00  0.00     0.029 A 
ATOM     52  C   UNL A   1      42.019  27.910  28.667  1.00  0.00     0.049 A 
ATOM     53  H   UNL A   1      44.003  27.716  28.061  1.00  0.00     0.167 HD
ATOM     54  C   UNL A   1      48.180  27.132  26.896  1.00  0.00     0.031 A 
ATOM     55  C   UNL A   1      41.856  29.178  29.091  1.00  0.00     0.031 A 
ATOM     56  C   UNL A   1      48.087  28.517  27.270  1.00  0.00     0.049 A 
ATOM     57  C   UNL A   1      43.018  30.130  29.028  1.00  0.00     0.074 A 
ATOM     58  C   UNL A   1      49.075  29.486  27.245  1.00  0.00     0.029 A 
ATOM     59  N   UNL A   1      46.934  29.134  27.730  1.00  0.00    -0.354 N 
ATOM     60  N   UNL A   1      44.248  29.901  28.638  1.00  0.00    -0.248 NA
ATOM     61  C   UNL A   1      42.763  31.514  29.448  1.00  0.00     0.031 C 
ATOM     62  C   UNL A   1      48.523  30.684  27.713  1.00  0.00     0.029 A 
ATOM     63  C   UNL A   1      47.184  30.468  27.995  1.00  0.00     0.049 A 
ATOM     64  H   UNL A   1      46.064  28.688  27.849  1.00  0.00     0.167 HD
ATOM     65  C   UNL A   1      44.910  31.118  28.745  1.00  0.00     0.074 A 
ATOM     66  C   UNL A   1      43.941  32.083  29.225  1.00  0.00     0.031 C 
ATOM     67  C   UNL A   1      46.205  31.412  28.471  1.00  0.00     0.031 A 
BRANCH  54  68
ATOM     68  C   UNL A   1      49.517  26.588  26.469  1.00  0.00    -0.014 A 
ATOM     69  C   UNL A   1      50.350  25.918  27.383  1.00  0.00     0.010 A 
ATOM     70  C   UNL A   1      49.942  26.740  25.137  1.00  0.00     0.010 A 
ATOM     71  C   UNL A   1      51.606  25.452  26.985  1.00  0.00     0.020 A 
ATOM     72  C   UNL A   1      51.188  26.255  24.729  1.00  0.00     0.020 A 
ATOM     73  C   UNL A   1      52.021  25.633  25.662  1.00  0.00     0.054 A 
BRANCH  73  74
ATOM     74  S   UNL A   1      53.656  25.022  25.167  1.00  0.00     0.124 S 
ATOM     75  O   UNL A   1      54.525  25.658  26.154  1.00  0.00    -0.237 OA
ATOM     76  O   UNL A   1      53.514  23.574  25.295  1.00  0.00    -0.237 OA
ATOM     77  O   UNL A   1      53.806  25.509  23.797  1.00  0.00    -0.744 OA
ENDBRANCH  73  74
ENDBRANCH  54  68
BRANCH  55  78
ATOM     78  C   UNL A   1      40.525  29.628  29.576  1.00  0.00    -0.014 A 
ATOM     79  C   UNL A   1      40.295  29.804  30.951  1.00  0.00     0.010 A 
ATOM     80  C   UNL A   1      39.491  29.906  28.665  1.00  0.00     0.010 A 
ATOM     81  C   UNL A   1      39.050  30.241  31.410  1.00  0.00     0.020 A 
ATOM     82  C   UNL A   1      38.250  30.362  29.118  1.00  0.00     0.020 A 
ATOM     83  C   UNL A   1      38.034  30.517  30.490  1.00  0.00     0.054 A 
BRANCH  83  84
ATOM     84  S   UNL A   1      36.443  31.143  31.099  1.00  0.00     0.124 S 
ATOM     85  O   UNL A   1      35.666  31.245  29.867  1.00  0.00    -0.237 OA
ATOM     86  O   UNL A   1      36.022  30.095  32.026  1.00  0.00    -0.237 OA
ATOM     87  O   UNL A   1      36.795  32.414  31.727  1.00  0.00    -0.744 OA
ENDBRANCH  83  84
ENDBRANCH  55  78
BRANCH  67  88
ATOM     88  C   UNL A   1      46.638  32.839  28.655  1.00  0.00    -0.014 A 
ATOM     89  C   UNL A   1      47.209  33.273  29.863  1.00  0.00     0.010 A 
ATOM     90  C   UNL A   1      46.512  33.745  27.587  1.00  0.00     0.010 A 
ATOM     91  C   UNL A   1      47.618  34.600  30.013  1.00  0.00     0.020 A 
ATOM     92  C   UNL A   1      46.938  35.069  27.727  1.00  0.00     0.020 A 
ATOM     93  C   UNL A   1      47.474  35.491  28.945  1.00  0.00     0.054 A 
BRANCH  93  94
ATOM     94  S   UNL A   1      48.047  37.202  29.144  1.00  0.00     0.124 S 
ATOM     95  O   UNL A   1      48.488  37.211  30.536  1.00  0.00    -0.237 OA
ATOM     96  O   UNL A   1      49.109  37.308  28.148  1.00  0.00    -0.237 OA
ATOM     97  O   UNL A   1      46.854  37.998  28.861  1.00  0.00    -0.744 OA
ENDBRANCH  93  94
ENDBRANCH  67  88
ENDBRANCH  41  42
ENDBRANCH  33  36
ENDBRANCH  31  32
ENDBRANCH   1  31
TORSDOF 17
ENDMDL
