MODEL 1
REMARK VINA RESULT:     -12.3      0.000      0.000
REMARK SMILES O=C(COc1cccc(/C=C2\SC(=O)N(c3cccc(Cl)c3)C2=O)c1)NCCCNC(=O)c1ccc(-c2c3nc(c(-c4ccc(S(=O)(=O)[O-])cc4)c4ccc([nH]4)c(-c4ccc(S(=O)(=O)[O-])cc4)c4nc(c(-c5ccc(S(=O)(=O)[O-])cc5)c5ccc2[nH]5)C=C4)C=C3)cc1
REMARK SMILES IDX 27 1 26 2 1 3 2 4 3 6 4 7 5 8 6 9 25 10 7 11 9 12 8 13 10 14
REMARK SMILES IDX 11 15 12 16 23 17 13 18 15 19 24 20 14 21 16 22 17 23 22 24
REMARK SMILES IDX 18 25 20 26 19 27 21 28 28 29 29 30 30 31 31 32 32 34 33 35
REMARK SMILES IDX 34 36 92 37 35 38 91 39 36 40 37 41 38 42 85 43 39 44 90 45
REMARK SMILES IDX 84 46 86 47 40 48 89 49 83 50 82 51 41 53 71 54 52 55 70 56
REMARK SMILES IDX 53 57 56 58 69 59 87 60 54 61 55 62 68 64 88 65 57 66 42 67
REMARK SMILES IDX 43 68 51 69 44 70 50 71 45 72 46 73 47 74 48 75 49 76 72 77
REMARK SMILES IDX 73 78 81 79 74 80 80 81 75 82 76 83 77 84 78 85 79 86 58 87
REMARK SMILES IDX 59 88 67 89 60 90 66 91 61 92 62 93 63 94 64 95 65 96
REMARK H PARENT 26 5 30 33 86 52 56 63
REMARK Flexibility Score: inf
ROOT
ATOM      1  C   UNL A   1      40.387  21.460  26.530  1.00  0.00     0.117 C 
ENDROOT
BRANCH   1   2
ATOM      2  N   UNL A   1      39.148  21.921  25.936  1.00  0.00    -0.353 N 
ATOM      3  O   UNL A   1      38.503  19.874  25.118  1.00  0.00    -0.271 OA
ATOM      4  C   UNL A   1      38.242  21.047  25.369  1.00  0.00     0.257 C 
ATOM      5  H   UNL A   1      38.947  22.884  25.937  1.00  0.00     0.163 HD
BRANCH   4   6
ATOM      6  C   UNL A   1      36.848  21.642  25.120  1.00  0.00     0.329 C 
BRANCH   6   7
ATOM      7  O   UNL A   1      35.840  21.418  26.106  1.00  0.00    -0.484 OA
BRANCH   7   8
ATOM      8  C   UNL A   1      34.568  21.261  25.623  1.00  0.00     0.120 A 
ATOM      9  C   UNL A   1      34.292  20.102  24.901  1.00  0.00     0.046 A 
ATOM     10  C   UNL A   1      33.599  22.256  25.694  1.00  0.00     0.054 A 
ATOM     11  C   UNL A   1      33.048  19.939  24.279  1.00  0.00     0.004 A 
ATOM     12  C   UNL A   1      32.376  22.132  25.024  1.00  0.00    -0.021 A 
ATOM     13  C   UNL A   1      32.090  20.957  24.331  1.00  0.00     0.008 A 
BRANCH  12  14
ATOM     14  C   UNL A   1      31.465  23.282  25.047  1.00  0.00     0.029 C 
ATOM     15  C   UNL A   1      31.631  24.380  24.292  1.00  0.00     0.083 C 
ATOM     16  S   UNL A   1      32.772  24.618  23.032  1.00  0.00    -0.022 SA
ATOM     17  C   UNL A   1      30.819  25.611  24.492  1.00  0.00     0.272 C 
ATOM     18  C   UNL A   1      32.253  26.272  22.752  1.00  0.00     0.298 C 
ATOM     19  N   UNL A   1      31.237  26.608  23.623  1.00  0.00    -0.236 N 
ATOM     20  O   UNL A   1      29.903  25.653  25.305  1.00  0.00    -0.268 OA
ATOM     21  O   UNL A   1      32.808  26.964  21.916  1.00  0.00    -0.260 OA
BRANCH  19  22
ATOM     22  C   UNL A   1      30.645  27.908  23.620  1.00  0.00     0.054 A 
ATOM     23  C   UNL A   1      29.679  28.256  22.662  1.00  0.00     0.027 A 
ATOM     24  C   UNL A   1      31.019  28.875  24.566  1.00  0.00     0.047 A 
ATOM     25  C   UNL A   1      29.105  29.531  22.646  1.00  0.00     0.004 A 
ATOM     26  C   UNL A   1      30.470  30.159  24.523  1.00  0.00     0.043 A 
ATOM     27  C   UNL A   1      29.511  30.489  23.571  1.00  0.00     0.020 A 
ATOM     28  Cl  UNL A   1      31.011  31.355  25.637  1.00  0.00    -0.084 Cl
ENDBRANCH  19  22
ENDBRANCH  12  14
ENDBRANCH   7   8
ENDBRANCH   6   7
ENDBRANCH   4   6
ENDBRANCH   1   2
BRANCH   1  29
ATOM     29  C   UNL A   1      40.892  22.340  27.661  1.00  0.00     0.042 C 
BRANCH  29  30
ATOM     30  C   UNL A   1      42.109  23.185  27.308  1.00  0.00     0.118 C 
BRANCH  30  31
ATOM     31  N   UNL A   1      41.906  24.052  26.156  1.00  0.00    -0.352 N 
ATOM     32  C   UNL A   1      41.537  25.375  26.091  1.00  0.00     0.251 C 
ATOM     33  H   UNL A   1      42.057  23.622  25.284  1.00  0.00     0.163 HD
ATOM     34  O   UNL A   1      41.349  25.885  24.988  1.00  0.00    -0.269 OA
BRANCH  32  35
ATOM     35  C   UNL A   1      41.334  26.182  27.315  1.00  0.00     0.039 A 
ATOM     36  C   UNL A   1      42.278  27.168  27.620  1.00  0.00     0.014 A 
ATOM     37  C   UNL A   1      40.258  25.965  28.179  1.00  0.00     0.014 A 
ATOM     38  C   UNL A   1      42.109  27.970  28.751  1.00  0.00     0.010 A 
ATOM     39  C   UNL A   1      40.046  26.818  29.263  1.00  0.00     0.010 A 
ATOM     40  C   UNL A   1      40.973  27.827  29.565  1.00  0.00    -0.014 A 
BRANCH  40  41
ATOM     41  C   UNL A   1      40.749  28.737  30.719  1.00  0.00     0.031 A 
ATOM     42  C   UNL A   1      41.585  28.622  31.966  1.00  0.00     0.074 A 
ATOM     43  C   UNL A   1      39.764  29.656  30.654  1.00  0.00     0.049 A 
ATOM     44  N   UNL A   1      41.549  29.353  33.052  1.00  0.00    -0.248 NA
ATOM     45  C   UNL A   1      42.574  27.534  32.012  1.00  0.00     0.031 C 
ATOM     46  C   UNL A   1      38.842  29.830  29.528  1.00  0.00     0.029 A 
ATOM     47  N   UNL A   1      39.378  30.620  31.550  1.00  0.00    -0.354 N 
ATOM     48  C   UNL A   1      42.498  28.810  33.911  1.00  0.00     0.074 A 
ATOM     49  C   UNL A   1      43.056  27.655  33.241  1.00  0.00     0.031 C 
ATOM     50  C   UNL A   1      38.028  30.867  29.782  1.00  0.00     0.029 A 
ATOM     51  C   UNL A   1      38.347  31.411  31.098  1.00  0.00     0.049 A 
ATOM     52  H   UNL A   1      39.799  30.736  32.432  1.00  0.00     0.167 HD
ATOM     53  C   UNL A   1      42.887  29.242  35.134  1.00  0.00     0.031 A 
ATOM     54  C   UNL A   1      37.732  32.463  31.671  1.00  0.00     0.031 A 
ATOM     55  C   UNL A   1      42.337  30.397  35.796  1.00  0.00     0.049 A 
ATOM     56  C   UNL A   1      38.201  32.942  33.018  1.00  0.00     0.074 A 
ATOM     57  C   UNL A   1      42.703  30.948  37.013  1.00  0.00     0.029 A 
ATOM     58  N   UNL A   1      41.306  31.180  35.299  1.00  0.00    -0.354 N 
ATOM     59  N   UNL A   1      39.149  32.456  33.782  1.00  0.00    -0.248 NA
ATOM     60  C   UNL A   1      37.528  34.126  33.566  1.00  0.00     0.031 C 
ATOM     61  C   UNL A   1      41.863  32.038  37.271  1.00  0.00     0.029 A 
ATOM     62  C   UNL A   1      41.012  32.199  36.190  1.00  0.00     0.049 A 
ATOM     63  H   UNL A   1      40.851  31.034  34.439  1.00  0.00     0.167 HD
ATOM     64  C   UNL A   1      39.204  33.291  34.892  1.00  0.00     0.074 A 
ATOM     65  C   UNL A   1      38.208  34.323  34.687  1.00  0.00     0.031 C 
ATOM     66  C   UNL A   1      40.008  33.212  35.982  1.00  0.00     0.031 A 
BRANCH  53  67
ATOM     67  C   UNL A   1      43.963  28.457  35.839  1.00  0.00    -0.014 A 
ATOM     68  C   UNL A   1      45.323  28.786  35.682  1.00  0.00     0.010 A 
ATOM     69  C   UNL A   1      43.612  27.401  36.699  1.00  0.00     0.010 A 
ATOM     70  C   UNL A   1      46.311  28.045  36.335  1.00  0.00     0.020 A 
ATOM     71  C   UNL A   1      44.597  26.675  37.377  1.00  0.00     0.020 A 
ATOM     72  C   UNL A   1      45.942  26.991  37.175  1.00  0.00     0.054 A 
BRANCH  72  73
ATOM     73  S   UNL A   1      47.245  26.059  38.025  1.00  0.00     0.124 S 
ATOM     74  O   UNL A   1      47.374  26.798  39.279  1.00  0.00    -0.237 OA
ATOM     75  O   UNL A   1      46.664  24.724  38.140  1.00  0.00    -0.237 OA
ATOM     76  O   UNL A   1      48.390  26.160  37.122  1.00  0.00    -0.744 OA
ENDBRANCH  72  73
ENDBRANCH  53  67
BRANCH  54  77
ATOM     77  C   UNL A   1      36.632  33.162  30.952  1.00  0.00    -0.014 A 
ATOM     78  C   UNL A   1      36.899  33.905  29.789  1.00  0.00     0.010 A 
ATOM     79  C   UNL A   1      35.309  33.073  31.421  1.00  0.00     0.010 A 
ATOM     80  C   UNL A   1      35.865  34.566  29.118  1.00  0.00     0.020 A 
ATOM     81  C   UNL A   1      34.269  33.710  30.737  1.00  0.00     0.020 A 
ATOM     82  C   UNL A   1      34.555  34.461  29.596  1.00  0.00     0.054 A 
BRANCH  82  83
ATOM     83  S   UNL A   1      33.221  35.282  28.680  1.00  0.00     0.124 S 
ATOM     84  O   UNL A   1      33.963  36.179  27.801  1.00  0.00    -0.237 OA
ATOM     85  O   UNL A   1      32.552  34.161  28.023  1.00  0.00    -0.237 OA
ATOM     86  O   UNL A   1      32.440  35.935  29.729  1.00  0.00    -0.744 OA
ENDBRANCH  82  83
ENDBRANCH  54  77
BRANCH  66  87
ATOM     87  C   UNL A   1      39.859  34.292  37.020  1.00  0.00    -0.014 A 
ATOM     88  C   UNL A   1      40.466  35.551  36.858  1.00  0.00     0.010 A 
ATOM     89  C   UNL A   1      39.094  34.045  38.174  1.00  0.00     0.010 A 
ATOM     90  C   UNL A   1      40.360  36.520  37.858  1.00  0.00     0.020 A 
ATOM     91  C   UNL A   1      38.960  35.023  39.163  1.00  0.00     0.020 A 
ATOM     92  C   UNL A   1      39.615  36.246  39.010  1.00  0.00     0.054 A 
BRANCH  92  93
ATOM     93  S   UNL A   1      39.491  37.518  40.297  1.00  0.00     0.124 S 
ATOM     94  O   UNL A   1      40.883  37.935  40.444  1.00  0.00    -0.237 OA
ATOM     95  O   UNL A   1      38.600  38.504  39.693  1.00  0.00    -0.237 OA
ATOM     96  O   UNL A   1      38.932  36.800  41.439  1.00  0.00    -0.744 OA
ENDBRANCH  92  93
ENDBRANCH  66  87
ENDBRANCH  40  41
ENDBRANCH  32  35
ENDBRANCH  30  31
ENDBRANCH  29  30
ENDBRANCH   1  29
TORSDOF 17
ENDMDL
MODEL 2
REMARK VINA RESULT:     -12.1      6.034     12.117
REMARK SMILES O=C(COc1cccc(/C=C2\SC(=O)N(c3cccc(Cl)c3)C2=O)c1)NCCCNC(=O)c1ccc(-c2c3nc(c(-c4ccc(S(=O)(=O)[O-])cc4)c4ccc([nH]4)c(-c4ccc(S(=O)(=O)[O-])cc4)c4nc(c(-c5ccc(S(=O)(=O)[O-])cc5)c5ccc2[nH]5)C=C4)C=C3)cc1
REMARK SMILES IDX 27 1 26 2 1 3 2 4 3 6 4 7 5 8 6 9 25 10 7 11 9 12 8 13 10 14
REMARK SMILES IDX 11 15 12 16 23 17 13 18 15 19 24 20 14 21 16 22 17 23 22 24
REMARK SMILES IDX 18 25 20 26 19 27 21 28 28 29 29 30 30 31 31 32 32 34 33 35
REMARK SMILES IDX 34 36 92 37 35 38 91 39 36 40 37 41 38 42 85 43 39 44 90 45
REMARK SMILES IDX 84 46 86 47 40 48 89 49 83 50 82 51 41 53 71 54 52 55 70 56
REMARK SMILES IDX 53 57 56 58 69 59 87 60 54 61 55 62 68 64 88 65 57 66 42 67
REMARK SMILES IDX 43 68 51 69 44 70 50 71 45 72 46 73 47 74 48 75 49 76 72 77
REMARK SMILES IDX 73 78 81 79 74 80 80 81 75 82 76 83 77 84 78 85 79 86 58 87
REMARK SMILES IDX 59 88 67 89 60 90 66 91 61 92 62 93 63 94 64 95 65 96
REMARK H PARENT 26 5 30 33 86 52 56 63
REMARK Flexibility Score: inf
ROOT
ATOM      1  C   UNL A   1      34.535  32.161  28.487  1.00  0.00     0.117 C 
ENDROOT
BRANCH   1   2
ATOM      2  N   UNL A   1      34.233  31.477  27.245  1.00  0.00    -0.353 N 
ATOM      3  O   UNL A   1      34.744  29.371  28.005  1.00  0.00    -0.271 OA
ATOM      4  C   UNL A   1      34.256  30.100  27.146  1.00  0.00     0.257 C 
ATOM      5  H   UNL A   1      34.005  32.010  26.449  1.00  0.00     0.163 HD
BRANCH   4   6
ATOM      6  C   UNL A   1      33.571  29.536  25.893  1.00  0.00     0.329 C 
BRANCH   6   7
ATOM      7  O   UNL A   1      32.233  29.951  25.619  1.00  0.00    -0.484 OA
BRANCH   7   8
ATOM      8  C   UNL A   1      31.600  29.272  24.612  1.00  0.00     0.120 A 
ATOM      9  C   UNL A   1      30.397  29.793  24.141  1.00  0.00     0.046 A 
ATOM     10  C   UNL A   1      32.022  28.030  24.149  1.00  0.00     0.054 A 
ATOM     11  C   UNL A   1      29.641  29.082  23.201  1.00  0.00     0.004 A 
ATOM     12  C   UNL A   1      31.244  27.282  23.256  1.00  0.00    -0.021 A 
ATOM     13  C   UNL A   1      30.059  27.821  22.762  1.00  0.00     0.008 A 
BRANCH  12  14
ATOM     14  C   UNL A   1      31.702  25.929  22.920  1.00  0.00     0.029 C 
ATOM     15  C   UNL A   1      31.803  24.932  23.814  1.00  0.00     0.083 C 
ATOM     16  S   UNL A   1      31.259  24.930  25.443  1.00  0.00    -0.022 SA
ATOM     17  C   UNL A   1      32.469  23.641  23.492  1.00  0.00     0.272 C 
ATOM     18  C   UNL A   1      31.877  23.315  25.742  1.00  0.00     0.298 C 
ATOM     19  N   UNL A   1      32.488  22.818  24.608  1.00  0.00    -0.236 N 
ATOM     20  O   UNL A   1      32.889  23.396  22.367  1.00  0.00    -0.268 OA
ATOM     21  O   UNL A   1      31.777  22.807  26.845  1.00  0.00    -0.260 OA
BRANCH  19  22
ATOM     22  C   UNL A   1      33.094  21.525  24.587  1.00  0.00     0.054 A 
ATOM     23  C   UNL A   1      32.314  20.368  24.426  1.00  0.00     0.027 A 
ATOM     24  C   UNL A   1      34.480  21.374  24.738  1.00  0.00     0.047 A 
ATOM     25  C   UNL A   1      32.900  19.099  24.417  1.00  0.00     0.004 A 
ATOM     26  C   UNL A   1      35.057  20.102  24.766  1.00  0.00     0.043 A 
ATOM     27  C   UNL A   1      34.274  18.965  24.600  1.00  0.00     0.020 A 
ATOM     28  Cl  UNL A   1      36.748  19.938  25.042  1.00  0.00    -0.084 Cl
ENDBRANCH  19  22
ENDBRANCH  12  14
ENDBRANCH   7   8
ENDBRANCH   6   7
ENDBRANCH   4   6
ENDBRANCH   1   2
BRANCH   1  29
ATOM     29  C   UNL A   1      35.794  33.009  28.433  1.00  0.00     0.042 C 
BRANCH  29  30
ATOM     30  C   UNL A   1      36.663  32.928  29.682  1.00  0.00     0.118 C 
BRANCH  30  31
ATOM     31  N   UNL A   1      36.182  31.973  30.670  1.00  0.00    -0.352 N 
ATOM     32  C   UNL A   1      36.718  30.781  31.093  1.00  0.00     0.251 C 
ATOM     33  H   UNL A   1      35.335  32.222  31.105  1.00  0.00     0.163 HD
ATOM     34  O   UNL A   1      36.086  30.096  31.894  1.00  0.00    -0.269 OA
BRANCH  32  35
ATOM     35  C   UNL A   1      38.021  30.295  30.582  1.00  0.00     0.039 A 
ATOM     36  C   UNL A   1      38.195  30.204  29.197  1.00  0.00     0.014 A 
ATOM     37  C   UNL A   1      39.053  29.901  31.436  1.00  0.00     0.014 A 
ATOM     38  C   UNL A   1      39.417  29.778  28.674  1.00  0.00     0.010 A 
ATOM     39  C   UNL A   1      40.300  29.552  30.913  1.00  0.00     0.010 A 
ATOM     40  C   UNL A   1      40.494  29.481  29.526  1.00  0.00    -0.014 A 
BRANCH  40  41
ATOM     41  C   UNL A   1      41.821  29.109  28.968  1.00  0.00     0.031 A 
ATOM     42  C   UNL A   1      42.933  30.121  28.881  1.00  0.00     0.074 A 
ATOM     43  C   UNL A   1      42.016  27.856  28.509  1.00  0.00     0.049 A 
ATOM     44  N   UNL A   1      44.161  29.960  28.454  1.00  0.00    -0.248 NA
ATOM     45  C   UNL A   1      42.623  31.495  29.305  1.00  0.00     0.031 C 
ATOM     46  C   UNL A   1      41.003  26.798  28.479  1.00  0.00     0.029 A 
ATOM     47  N   UNL A   1      43.135  27.258  27.986  1.00  0.00    -0.354 N 
ATOM     48  C   UNL A   1      44.765  31.209  28.549  1.00  0.00     0.074 A 
ATOM     49  C   UNL A   1      43.753  32.129  29.022  1.00  0.00     0.031 C 
ATOM     50  C   UNL A   1      41.557  25.671  28.006  1.00  0.00     0.029 A 
ATOM     51  C   UNL A   1      42.954  25.931  27.670  1.00  0.00     0.049 A 
ATOM     52  H   UNL A   1      43.986  27.733  27.849  1.00  0.00     0.167 HD
ATOM     53  C   UNL A   1      46.048  31.557  28.287  1.00  0.00     0.031 A 
ATOM     54  C   UNL A   1      43.815  25.021  27.178  1.00  0.00     0.031 A 
ATOM     55  C   UNL A   1      47.056  30.640  27.825  1.00  0.00     0.049 A 
ATOM     56  C   UNL A   1      45.241  25.424  26.923  1.00  0.00     0.074 A 
ATOM     57  C   UNL A   1      48.398  30.884  27.584  1.00  0.00     0.029 A 
ATOM     58  N   UNL A   1      46.837  29.301  27.534  1.00  0.00    -0.354 N 
ATOM     59  N   UNL A   1      45.810  26.595  27.087  1.00  0.00    -0.248 NA
ATOM     60  C   UNL A   1      46.146  24.374  26.437  1.00  0.00     0.031 C 
ATOM     61  C   UNL A   1      48.980  29.704  27.104  1.00  0.00     0.029 A 
ATOM     62  C   UNL A   1      48.013  28.711  27.100  1.00  0.00     0.049 A 
ATOM     63  H   UNL A   1      45.973  28.839  27.622  1.00  0.00     0.167 HD
ATOM     64  C   UNL A   1      47.146  26.416  26.747  1.00  0.00     0.074 A 
ATOM     65  C   UNL A   1      47.303  25.020  26.390  1.00  0.00     0.031 C 
ATOM     66  C   UNL A   1      48.154  27.325  26.734  1.00  0.00     0.031 A 
BRANCH  53  67
ATOM     67  C   UNL A   1      46.433  32.999  28.497  1.00  0.00    -0.014 A 
ATOM     68  C   UNL A   1      46.282  33.948  27.468  1.00  0.00     0.010 A 
ATOM     69  C   UNL A   1      46.918  33.422  29.747  1.00  0.00     0.010 A 
ATOM     70  C   UNL A   1      46.651  35.280  27.672  1.00  0.00     0.020 A 
ATOM     71  C   UNL A   1      47.261  34.760  29.965  1.00  0.00     0.020 A 
ATOM     72  C   UNL A   1      47.143  35.677  28.918  1.00  0.00     0.054 A 
BRANCH  72  73
ATOM     73  S   UNL A   1      47.595  37.417  29.161  1.00  0.00     0.124 S 
ATOM     74  O   UNL A   1      47.586  37.924  27.791  1.00  0.00    -0.237 OA
ATOM     75  O   UNL A   1      46.524  37.911  30.021  1.00  0.00    -0.237 OA
ATOM     76  O   UNL A   1      48.912  37.348  29.791  1.00  0.00    -0.744 OA
ENDBRANCH  72  73
ENDBRANCH  53  67
BRANCH  54  77
ATOM     77  C   UNL A   1      43.360  23.625  26.933  1.00  0.00    -0.014 A 
ATOM     78  C   UNL A   1      43.175  23.155  25.621  1.00  0.00     0.010 A 
ATOM     79  C   UNL A   1      43.123  22.755  28.013  1.00  0.00     0.010 A 
ATOM     80  C   UNL A   1      42.741  21.846  25.393  1.00  0.00     0.020 A 
ATOM     81  C   UNL A   1      42.716  21.437  27.787  1.00  0.00     0.020 A 
ATOM     82  C   UNL A   1      42.517  20.994  26.478  1.00  0.00     0.054 A 
BRANCH  82  83
ATOM     83  S   UNL A   1      42.006  19.283  26.158  1.00  0.00     0.124 S 
ATOM     84  O   UNL A   1      42.419  18.608  27.383  1.00  0.00    -0.237 OA
ATOM     85  O   UNL A   1      40.564  19.415  25.961  1.00  0.00    -0.237 OA
ATOM     86  O   UNL A   1      42.759  18.922  24.958  1.00  0.00    -0.744 OA
ENDBRANCH  82  83
ENDBRANCH  54  77
BRANCH  66  87
ATOM     87  C   UNL A   1      49.520  26.824  26.348  1.00  0.00    -0.014 A 
ATOM     88  C   UNL A   1      49.988  26.922  25.025  1.00  0.00     0.010 A 
ATOM     89  C   UNL A   1      50.352  26.251  27.327  1.00  0.00     0.010 A 
ATOM     90  C   UNL A   1      51.238  26.403  24.678  1.00  0.00     0.020 A 
ATOM     91  C   UNL A   1      51.614  25.758  26.990  1.00  0.00     0.020 A 
ATOM     92  C   UNL A   1      52.039  25.815  25.661  1.00  0.00     0.054 A 
BRANCH  92  93
ATOM     93  S   UNL A   1      53.657  25.145  25.189  1.00  0.00     0.124 S 
ATOM     94  O   UNL A   1      53.415  23.705  25.244  1.00  0.00    -0.237 OA
ATOM     95  O   UNL A   1      53.858  25.698  23.852  1.00  0.00    -0.237 OA
ATOM     96  O   UNL A   1      54.559  25.664  26.213  1.00  0.00    -0.744 OA
ENDBRANCH  92  93
ENDBRANCH  66  87
ENDBRANCH  40  41
ENDBRANCH  32  35
ENDBRANCH  30  31
ENDBRANCH  29  30
ENDBRANCH   1  29
TORSDOF 17
ENDMDL
MODEL 3
REMARK VINA RESULT:     -11.9      5.822      8.025
REMARK SMILES O=C(COc1cccc(/C=C2\SC(=O)N(c3cccc(Cl)c3)C2=O)c1)NCCCNC(=O)c1ccc(-c2c3nc(c(-c4ccc(S(=O)(=O)[O-])cc4)c4ccc([nH]4)c(-c4ccc(S(=O)(=O)[O-])cc4)c4nc(c(-c5ccc(S(=O)(=O)[O-])cc5)c5ccc2[nH]5)C=C4)C=C3)cc1
REMARK SMILES IDX 27 1 26 2 1 3 2 4 3 6 4 7 5 8 6 9 25 10 7 11 9 12 8 13 10 14
REMARK SMILES IDX 11 15 12 16 23 17 13 18 15 19 24 20 14 21 16 22 17 23 22 24
REMARK SMILES IDX 18 25 20 26 19 27 21 28 28 29 29 30 30 31 31 32 32 34 33 35
REMARK SMILES IDX 34 36 92 37 35 38 91 39 36 40 37 41 38 42 85 43 39 44 90 45
REMARK SMILES IDX 84 46 86 47 40 48 89 49 83 50 82 51 41 53 71 54 52 55 70 56
REMARK SMILES IDX 53 57 56 58 69 59 87 60 54 61 55 62 68 64 88 65 57 66 42 67
REMARK SMILES IDX 43 68 51 69 44 70 50 71 45 72 46 73 47 74 48 75 49 76 72 77
REMARK SMILES IDX 73 78 81 79 74 80 80 81 75 82 76 83 77 84 78 85 79 86 58 87
REMARK SMILES IDX 59 88 67 89 60 90 66 91 61 92 62 93 63 94 64 95 65 96
REMARK H PARENT 26 5 30 33 86 52 56 63
REMARK Flexibility Score: inf
ROOT
ATOM      1  C   UNL A   1      37.178  21.892  24.953  1.00  0.00     0.117 C 
ENDROOT
BRANCH   1   2
ATOM      2  N   UNL A   1      36.193  22.066  26.002  1.00  0.00    -0.353 N 
ATOM      3  O   UNL A   1      35.453  24.121  25.294  1.00  0.00    -0.271 OA
ATOM      4  C   UNL A   1      35.321  23.136  26.014  1.00  0.00     0.257 C 
ATOM      5  H   UNL A   1      36.144  21.401  26.727  1.00  0.00     0.163 HD
BRANCH   4   6
ATOM      6  C   UNL A   1      34.127  22.979  26.968  1.00  0.00     0.329 C 
BRANCH   6   7
ATOM      7  O   UNL A   1      33.115  22.034  26.623  1.00  0.00    -0.484 OA
BRANCH   7   8
ATOM      8  C   UNL A   1      32.535  22.214  25.395  1.00  0.00     0.120 A 
ATOM      9  C   UNL A   1      33.012  21.443  24.338  1.00  0.00     0.046 A 
ATOM     10  C   UNL A   1      31.610  23.219  25.131  1.00  0.00     0.054 A 
ATOM     11  C   UNL A   1      32.546  21.665  23.037  1.00  0.00     0.004 A 
ATOM     12  C   UNL A   1      31.184  23.492  23.825  1.00  0.00    -0.021 A 
ATOM     13  C   UNL A   1      31.637  22.697  22.776  1.00  0.00     0.008 A 
BRANCH  12  14
ATOM     14  C   UNL A   1      30.307  24.651  23.623  1.00  0.00     0.029 C 
ATOM     15  C   UNL A   1      30.753  25.880  23.317  1.00  0.00     0.083 C 
ATOM     16  S   UNL A   1      32.356  26.338  22.909  1.00  0.00    -0.022 SA
ATOM     17  C   UNL A   1      29.862  27.072  23.329  1.00  0.00     0.272 C 
ATOM     18  C   UNL A   1      31.931  28.035  22.765  1.00  0.00     0.298 C 
ATOM     19  N   UNL A   1      30.590  28.217  23.037  1.00  0.00    -0.236 N 
ATOM     20  O   UNL A   1      28.659  26.977  23.541  1.00  0.00    -0.268 OA
ATOM     21  O   UNL A   1      32.781  28.868  22.506  1.00  0.00    -0.260 OA
BRANCH  19  22
ATOM     22  C   UNL A   1      29.987  29.512  23.009  1.00  0.00     0.054 A 
ATOM     23  C   UNL A   1      29.940  30.308  24.165  1.00  0.00     0.027 A 
ATOM     24  C   UNL A   1      29.417  30.018  21.832  1.00  0.00     0.047 A 
ATOM     25  C   UNL A   1      29.340  31.571  24.147  1.00  0.00     0.004 A 
ATOM     26  C   UNL A   1      28.786  31.265  21.827  1.00  0.00     0.043 A 
ATOM     27  C   UNL A   1      28.751  32.046  22.978  1.00  0.00     0.020 A 
ATOM     28  Cl  UNL A   1      28.015  31.826  20.394  1.00  0.00    -0.084 Cl
ENDBRANCH  19  22
ENDBRANCH  12  14
ENDBRANCH   7   8
ENDBRANCH   6   7
ENDBRANCH   4   6
ENDBRANCH   1   2
BRANCH   1  29
ATOM     29  C   UNL A   1      38.041  20.653  25.118  1.00  0.00     0.042 C 
BRANCH  29  30
ATOM     30  C   UNL A   1      39.172  20.801  26.128  1.00  0.00     0.118 C 
BRANCH  30  31
ATOM     31  N   UNL A   1      40.213  19.793  25.993  1.00  0.00    -0.352 N 
ATOM     32  C   UNL A   1      41.579  19.904  26.096  1.00  0.00     0.251 C 
ATOM     33  H   UNL A   1      39.886  18.886  25.797  1.00  0.00     0.163 HD
ATOM     34  O   UNL A   1      42.274  18.917  25.864  1.00  0.00    -0.269 OA
BRANCH  32  35
ATOM     35  C   UNL A   1      42.226  21.188  26.450  1.00  0.00     0.039 A 
ATOM     36  C   UNL A   1      42.461  22.113  25.428  1.00  0.00     0.014 A 
ATOM     37  C   UNL A   1      42.631  21.481  27.754  1.00  0.00     0.014 A 
ATOM     38  C   UNL A   1      43.044  23.347  25.724  1.00  0.00     0.010 A 
ATOM     39  C   UNL A   1      43.139  22.744  28.062  1.00  0.00     0.010 A 
ATOM     40  C   UNL A   1      43.356  23.690  27.050  1.00  0.00    -0.014 A 
BRANCH  40  41
ATOM     41  C   UNL A   1      43.897  25.036  27.377  1.00  0.00     0.031 A 
ATOM     42  C   UNL A   1      45.353  25.356  27.164  1.00  0.00     0.074 A 
ATOM     43  C   UNL A   1      43.073  25.969  27.896  1.00  0.00     0.049 A 
ATOM     44  N   UNL A   1      45.985  26.486  27.363  1.00  0.00    -0.248 NA
ATOM     45  C   UNL A   1      46.216  24.263  26.689  1.00  0.00     0.031 C 
ATOM     46  C   UNL A   1      41.655  25.768  28.209  1.00  0.00     0.029 A 
ATOM     47  N   UNL A   1      43.307  27.274  28.247  1.00  0.00    -0.354 N 
ATOM     48  C   UNL A   1      47.316  26.239  27.049  1.00  0.00     0.074 A 
ATOM     49  C   UNL A   1      47.411  24.838  26.698  1.00  0.00     0.031 C 
ATOM     50  C   UNL A   1      41.137  26.920  28.663  1.00  0.00     0.029 A 
ATOM     51  C   UNL A   1      42.188  27.932  28.705  1.00  0.00     0.049 A 
ATOM     52  H   UNL A   1      44.192  27.701  28.179  1.00  0.00     0.167 HD
ATOM     53  C   UNL A   1      48.362  27.100  27.032  1.00  0.00     0.031 A 
ATOM     54  C   UNL A   1      42.021  29.207  29.101  1.00  0.00     0.031 A 
ATOM     55  C   UNL A   1      48.265  28.496  27.372  1.00  0.00     0.049 A 
ATOM     56  C   UNL A   1      43.189  30.152  29.046  1.00  0.00     0.074 A 
ATOM     57  C   UNL A   1      49.255  29.463  27.333  1.00  0.00     0.029 A 
ATOM     58  N   UNL A   1      47.111  29.126  27.813  1.00  0.00    -0.354 N 
ATOM     59  N   UNL A   1      44.425  29.914  28.678  1.00  0.00    -0.248 NA
ATOM     60  C   UNL A   1      42.931  31.543  29.441  1.00  0.00     0.031 C 
ATOM     61  C   UNL A   1      48.711  30.668  27.793  1.00  0.00     0.029 A 
ATOM     62  C   UNL A   1      47.368  30.464  28.066  1.00  0.00     0.049 A 
ATOM     63  H   UNL A   1      46.238  28.687  27.930  1.00  0.00     0.167 HD
ATOM     64  C   UNL A   1      45.088  31.133  28.773  1.00  0.00     0.074 A 
ATOM     65  C   UNL A   1      44.109  32.107  29.212  1.00  0.00     0.031 C 
ATOM     66  C   UNL A   1      46.389  31.420  28.516  1.00  0.00     0.031 A 
BRANCH  53  67
ATOM     67  C   UNL A   1      49.707  26.553  26.630  1.00  0.00    -0.014 A 
ATOM     68  C   UNL A   1      50.611  26.068  27.594  1.00  0.00     0.010 A 
ATOM     69  C   UNL A   1      50.061  26.487  25.270  1.00  0.00     0.010 A 
ATOM     70  C   UNL A   1      51.859  25.570  27.209  1.00  0.00     0.020 A 
ATOM     71  C   UNL A   1      51.297  25.963  24.879  1.00  0.00     0.020 A 
ATOM     72  C   UNL A   1      52.196  25.525  25.854  1.00  0.00     0.054 A 
BRANCH  72  73
ATOM     73  S   UNL A   1      53.814  24.856  25.382  1.00  0.00     0.124 S 
ATOM     74  O   UNL A   1      54.483  24.745  26.676  1.00  0.00    -0.237 OA
ATOM     75  O   UNL A   1      53.466  23.590  24.744  1.00  0.00    -0.237 OA
ATOM     76  O   UNL A   1      54.361  25.872  24.484  1.00  0.00    -0.744 OA
ENDBRANCH  72  73
ENDBRANCH  53  67
BRANCH  54  77
ATOM     77  C   UNL A   1      40.680  29.675  29.547  1.00  0.00    -0.014 A 
ATOM     78  C   UNL A   1      40.419  29.897  30.911  1.00  0.00     0.010 A 
ATOM     79  C   UNL A   1      39.662  29.915  28.606  1.00  0.00     0.010 A 
ATOM     80  C   UNL A   1      39.157  30.331  31.329  1.00  0.00     0.020 A 
ATOM     81  C   UNL A   1      38.408  30.375  29.018  1.00  0.00     0.020 A 
ATOM     82  C   UNL A   1      38.159  30.570  30.378  1.00  0.00     0.054 A 
BRANCH  82  83
ATOM     83  S   UNL A   1      36.546  31.183  30.937  1.00  0.00     0.124 S 
ATOM     84  O   UNL A   1      35.898  31.526  29.676  1.00  0.00    -0.237 OA
ATOM     85  O   UNL A   1      35.994  30.027  31.640  1.00  0.00    -0.237 OA
ATOM     86  O   UNL A   1      36.891  32.315  31.794  1.00  0.00    -0.744 OA
ENDBRANCH  82  83
ENDBRANCH  54  77
BRANCH  66  87
ATOM     87  C   UNL A   1      46.816  32.855  28.678  1.00  0.00    -0.014 A 
ATOM     88  C   UNL A   1      46.668  33.784  27.632  1.00  0.00     0.010 A 
ATOM     89  C   UNL A   1      47.368  33.282  29.899  1.00  0.00     0.010 A 
ATOM     90  C   UNL A   1      47.119  35.098  27.785  1.00  0.00     0.020 A 
ATOM     91  C   UNL A   1      47.793  34.602  30.066  1.00  0.00     0.020 A 
ATOM     92  C   UNL A   1      47.689  35.496  28.998  1.00  0.00     0.054 A 
BRANCH  92  93
ATOM     93  S   UNL A   1      48.271  37.204  29.174  1.00  0.00     0.124 S 
ATOM     94  O   UNL A   1      47.041  37.965  28.968  1.00  0.00    -0.237 OA
ATOM     95  O   UNL A   1      48.803  37.227  30.534  1.00  0.00    -0.237 OA
ATOM     96  O   UNL A   1      49.272  37.339  28.119  1.00  0.00    -0.744 OA
ENDBRANCH  92  93
ENDBRANCH  66  87
ENDBRANCH  40  41
ENDBRANCH  32  35
ENDBRANCH  30  31
ENDBRANCH  29  30
ENDBRANCH   1  29
TORSDOF 17
ENDMDL
