MODEL 1
REMARK VINA RESULT:     -14.1      0.000      0.000
REMARK SMILES COc1ccc(C2=NN(C(=O)CCC(=O)NCCCNC(=O)c3ccc(-c4c5nc(c(-c6ccc(S(=O)(=O)[O-])cc6)c6ccc([nH]6)c(-c6ccc(S(=O)(=O)[O-])cc6)c6nc(c(-c7ccc(S(=O)(=O)[O-])cc7)c7ccc4[nH]7)C=C6)C=C5)cc3)[C@H](c3ccc(Cl)cc3Cl)C2)cc1
REMARK SMILES IDX 17 1 16 2 14 3 15 4 13 6 12 7 10 8 11 9 9 10 7 11 8 12 92 13
REMARK SMILES IDX 83 14 6 15 3 16 4 17 94 18 5 19 93 20 2 21 1 22 84 23 85 24
REMARK SMILES IDX 90 25 86 26 89 27 91 28 87 29 88 30 18 31 19 32 20 33 21 34
REMARK SMILES IDX 22 36 23 37 24 38 82 39 25 40 81 41 26 42 27 43 28 44 75 45
REMARK SMILES IDX 29 46 80 47 74 48 76 49 30 50 79 51 73 52 72 53 31 55 61 56
REMARK SMILES IDX 42 57 60 58 43 59 46 60 59 61 77 62 44 63 45 64 58 66 78 67
REMARK SMILES IDX 47 68 32 69 33 70 41 71 34 72 40 73 35 74 36 75 37 76 38 77
REMARK SMILES IDX 39 78 62 79 63 80 71 81 64 82 70 83 65 84 66 85 67 86 68 87
REMARK SMILES IDX 69 88 48 89 49 90 57 91 50 92 56 93 51 94 52 95 53 96 54 97
REMARK SMILES IDX 55 98
REMARK H PARENT 16 5 20 35 76 54 46 65
REMARK Flexibility Score: inf
ROOT
ATOM      1  C   UNL A   1      35.605  21.164  25.638  1.00  0.00     0.117 C 
ENDROOT
BRANCH   1   2
ATOM      2  N   UNL A   1      34.274  20.935  24.838  1.00  0.00    -0.356 N 
ATOM      3  C   UNL A   1      33.456  21.664  24.024  1.00  0.00     0.220 C 
ATOM      4  O   UNL A   1      32.506  21.027  23.547  1.00  0.00    -0.275 OA
ATOM      5  H   UNL A   1      33.940  20.017  24.954  1.00  0.00     0.163 HD
BRANCH   3   6
ATOM      6  C   UNL A   1      33.629  23.128  23.611  1.00  0.00     0.110 C 
BRANCH   6   7
ATOM      7  C   UNL A   1      32.611  23.861  22.756  1.00  0.00     0.112 C 
BRANCH   7   8
ATOM      8  C   UNL A   1      33.084  25.249  22.614  1.00  0.00     0.243 C 
ATOM      9  O   UNL A   1      33.969  25.575  21.832  1.00  0.00    -0.273 OA
BRANCH   8  10
ATOM     10  N   UNL A   1      32.497  26.059  23.550  1.00  0.00    -0.225 N 
ATOM     11  C   UNL A   1      32.780  27.276  26.202  1.00  0.00     0.071 C 
ATOM     12  N   UNL A   1      33.576  26.411  25.111  1.00  0.00    -0.174 NA
ATOM     13  C   UNL A   1      30.875  27.460  25.769  1.00  0.00     0.091 C 
ATOM     14  C   UNL A   1      30.695  26.792  23.919  1.00  0.00     0.149 C 
BRANCH  11  15
ATOM     15  C   UNL A   1      33.346  28.443  26.967  1.00  0.00    -0.002 A 
ATOM     16  C   UNL A   1      35.025  31.546  27.686  1.00  0.00     0.118 A 
ATOM     17  C   UNL A   1      33.024  31.482  27.385  1.00  0.00     0.047 A 
ATOM     18  C   UNL A   1      35.933  29.996  27.557  1.00  0.00     0.047 A 
ATOM     19  C   UNL A   1      32.276  29.868  27.135  1.00  0.00     0.014 A 
ATOM     20  C   UNL A   1      35.076  28.522  27.182  1.00  0.00     0.014 A 
BRANCH  16  21
ATOM     21  O   UNL A   1      35.852  32.569  28.186  1.00  0.00    -0.497 OA
ATOM     22  C   UNL A   1      35.429  33.894  27.878  1.00  0.00     0.278 C 
ENDBRANCH  16  21
ENDBRANCH  11  15
BRANCH  14  23
ATOM     23  C   UNL A   1      29.827  27.763  23.029  1.00  0.00    -0.004 A 
ATOM     24  C   UNL A   1      30.445  28.907  22.465  1.00  0.00     0.009 A 
ATOM     25  C   UNL A   1      28.412  27.839  23.134  1.00  0.00     0.047 A 
ATOM     26  C   UNL A   1      29.725  30.052  22.087  1.00  0.00     0.021 A 
ATOM     27  C   UNL A   1      27.685  28.941  22.649  1.00  0.00     0.041 A 
ATOM     28  Cl  UNL A   1      27.445  26.776  24.092  1.00  0.00    -0.084 Cl
ATOM     29  C   UNL A   1      28.344  30.058  22.168  1.00  0.00     0.042 A 
ATOM     30  Cl  UNL A   1      27.458  31.475  21.766  1.00  0.00    -0.084 Cl
ENDBRANCH  14  23
ENDBRANCH   8  10
ENDBRANCH   7   8
ENDBRANCH   6   7
ENDBRANCH   3   6
ENDBRANCH   1   2
BRANCH   1  31
ATOM     31  C   UNL A   1      37.614  21.992  25.123  1.00  0.00     0.042 C 
BRANCH  31  32
ATOM     32  C   UNL A   1      38.365  23.489  26.012  1.00  0.00     0.118 C 
BRANCH  32  33
ATOM     33  N   UNL A   1      39.901  23.667  26.236  1.00  0.00    -0.352 N 
ATOM     34  C   UNL A   1      40.787  24.468  26.979  1.00  0.00     0.251 C 
ATOM     35  H   UNL A   1      40.403  23.022  25.689  1.00  0.00     0.163 HD
ATOM     36  O   UNL A   1      41.851  23.976  27.366  1.00  0.00    -0.269 OA
BRANCH  34  37
ATOM     37  C   UNL A   1      40.649  26.015  27.148  1.00  0.00     0.039 A 
ATOM     38  C   UNL A   1      39.249  26.023  28.271  1.00  0.00     0.014 A 
ATOM     39  C   UNL A   1      41.735  27.725  26.979  1.00  0.00     0.014 A 
ATOM     40  C   UNL A   1      38.948  27.423  29.251  1.00  0.00     0.010 A 
ATOM     41  C   UNL A   1      41.330  29.087  28.119  1.00  0.00     0.010 A 
ATOM     42  C   UNL A   1      39.987  28.864  29.288  1.00  0.00    -0.014 A 
BRANCH  42  43
ATOM     43  C   UNL A   1      40.016  29.532  30.672  1.00  0.00     0.031 A 
ATOM     44  C   UNL A   1      41.053  29.113  31.675  1.00  0.00     0.074 A 
ATOM     45  C   UNL A   1      39.038  30.390  31.100  1.00  0.00     0.049 A 
ATOM     46  N   UNL A   1      41.205  29.499  32.917  1.00  0.00    -0.248 NA
ATOM     47  C   UNL A   1      41.985  28.059  31.260  1.00  0.00     0.031 C 
ATOM     48  C   UNL A   1      37.821  30.800  30.376  1.00  0.00     0.029 A 
ATOM     49  N   UNL A   1      38.894  31.089  32.291  1.00  0.00    -0.354 N 
ATOM     50  C   UNL A   1      42.218  28.701  33.427  1.00  0.00     0.074 A 
ATOM     51  C   UNL A   1      42.518  27.710  32.418  1.00  0.00     0.031 C 
ATOM     52  C   UNL A   1      37.120  31.696  31.081  1.00  0.00     0.029 A 
ATOM     53  C   UNL A   1      37.787  31.921  32.345  1.00  0.00     0.049 A 
ATOM     54  H   UNL A   1      39.529  31.000  33.038  1.00  0.00     0.167 HD
ATOM     55  C   UNL A   1      42.916  28.831  34.580  1.00  0.00     0.031 A 
ATOM     56  C   UNL A   1      37.338  32.789  33.278  1.00  0.00     0.031 A 
ATOM     57  C   UNL A   1      42.666  29.853  35.555  1.00  0.00     0.049 A 
ATOM     58  C   UNL A   1      38.148  32.974  34.527  1.00  0.00     0.074 A 
ATOM     59  C   UNL A   1      43.395  30.159  36.690  1.00  0.00     0.029 A 
ATOM     60  N   UNL A   1      41.600  30.738  35.509  1.00  0.00    -0.354 N 
ATOM     61  N   UNL A   1      39.230  32.336  34.902  1.00  0.00    -0.248 NA
ATOM     62  C   UNL A   1      37.704  34.015  35.465  1.00  0.00     0.031 C 
ATOM     63  C   UNL A   1      42.732  31.189  37.364  1.00  0.00     0.029 A 
ATOM     64  C   UNL A   1      41.633  31.572  36.612  1.00  0.00     0.049 A 
ATOM     65  H   UNL A   1      40.921  30.769  34.797  1.00  0.00     0.167 HD
ATOM     66  C   UNL A   1      39.619  32.924  36.098  1.00  0.00     0.074 A 
ATOM     67  C   UNL A   1      38.664  33.976  36.379  1.00  0.00     0.031 C 
ATOM     68  C   UNL A   1      40.681  32.621  36.883  1.00  0.00     0.031 A 
BRANCH  55  69
ATOM     69  C   UNL A   1      44.049  27.859  34.796  1.00  0.00    -0.014 A 
ATOM     70  C   UNL A   1      45.318  28.098  34.231  1.00  0.00     0.010 A 
ATOM     71  C   UNL A   1      43.838  26.676  35.523  1.00  0.00     0.010 A 
ATOM     72  C   UNL A   1      46.317  27.126  34.293  1.00  0.00     0.020 A 
ATOM     73  C   UNL A   1      44.853  25.721  35.631  1.00  0.00     0.020 A 
ATOM     74  C   UNL A   1      46.073  25.938  34.985  1.00  0.00     0.054 A 
BRANCH  74  75
ATOM     75  S   UNL A   1      47.377  24.681  35.020  1.00  0.00     0.124 S 
ATOM     76  O   UNL A   1      48.102  24.967  33.784  1.00  0.00    -0.237 OA
ATOM     77  O   UNL A   1      48.093  24.998  36.253  1.00  0.00    -0.237 OA
ATOM     78  O   UNL A   1      46.642  23.419  35.034  1.00  0.00    -0.744 OA
ENDBRANCH  74  75
ENDBRANCH  55  69
BRANCH  56  79
ATOM     79  C   UNL A   1      36.103  33.609  33.040  1.00  0.00    -0.014 A 
ATOM     80  C   UNL A   1      34.828  33.084  33.332  1.00  0.00     0.010 A 
ATOM     81  C   UNL A   1      36.185  34.918  32.527  1.00  0.00     0.010 A 
ATOM     82  C   UNL A   1      33.668  33.836  33.101  1.00  0.00     0.020 A 
ATOM     83  C   UNL A   1      35.028  35.685  32.319  1.00  0.00     0.020 A 
ATOM     84  C   UNL A   1      33.775  35.137  32.601  1.00  0.00     0.054 A 
BRANCH  84  85
ATOM     85  S   UNL A   1      32.258  36.112  32.368  1.00  0.00     0.124 S 
ATOM     86  O   UNL A   1      32.378  36.542  30.979  1.00  0.00    -0.237 OA
ATOM     87  O   UNL A   1      31.212  35.130  32.638  1.00  0.00    -0.237 OA
ATOM     88  O   UNL A   1      32.379  37.175  33.364  1.00  0.00    -0.744 OA
ENDBRANCH  84  85
ENDBRANCH  56  79
BRANCH  68  89
ATOM     89  C   UNL A   1      40.905  33.458  38.112  1.00  0.00    -0.014 A 
ATOM     90  C   UNL A   1      41.557  34.701  38.044  1.00  0.00     0.010 A 
ATOM     91  C   UNL A   1      40.369  33.028  39.340  1.00  0.00     0.010 A 
ATOM     92  C   UNL A   1      41.683  35.491  39.188  1.00  0.00     0.020 A 
ATOM     93  C   UNL A   1      40.461  33.831  40.476  1.00  0.00     0.020 A 
ATOM     94  C   UNL A   1      41.127  35.055  40.395  1.00  0.00     0.054 A 
BRANCH  94  95
ATOM     95  S   UNL A   1      41.242  36.134  41.848  1.00  0.00     0.124 S 
ATOM     96  O   UNL A   1      42.211  37.134  41.407  1.00  0.00    -0.237 OA
ATOM     97  O   UNL A   1      39.869  36.611  41.998  1.00  0.00    -0.237 OA
ATOM     98  O   UNL A   1      41.706  35.241  42.907  1.00  0.00    -0.744 OA
ENDBRANCH  94  95
ENDBRANCH  68  89
ENDBRANCH  42  43
ENDBRANCH  34  37
ENDBRANCH  32  33
ENDBRANCH  31  32
ENDBRANCH   1  31
TORSDOF 19
ENDMDL
MODEL 2
REMARK VINA RESULT:     -13.8      0.871      7.812
REMARK SMILES COc1ccc(C2=NN(C(=O)CCC(=O)NCCCNC(=O)c3ccc(-c4c5nc(c(-c6ccc(S(=O)(=O)[O-])cc6)c6ccc([nH]6)c(-c6ccc(S(=O)(=O)[O-])cc6)c6nc(c(-c7ccc(S(=O)(=O)[O-])cc7)c7ccc4[nH]7)C=C6)C=C5)cc3)[C@H](c3ccc(Cl)cc3Cl)C2)cc1
REMARK SMILES IDX 17 1 16 2 14 3 15 4 13 6 12 7 10 8 11 9 9 10 7 11 8 12 92 13
REMARK SMILES IDX 83 14 6 15 3 16 4 17 94 18 5 19 93 20 2 21 1 22 84 23 85 24
REMARK SMILES IDX 90 25 86 26 89 27 91 28 87 29 88 30 18 31 19 32 20 33 21 34
REMARK SMILES IDX 22 36 23 37 24 38 82 39 25 40 81 41 26 42 27 43 28 44 75 45
REMARK SMILES IDX 29 46 80 47 74 48 76 49 30 50 79 51 73 52 72 53 31 55 61 56
REMARK SMILES IDX 42 57 60 58 43 59 46 60 59 61 77 62 44 63 45 64 58 66 78 67
REMARK SMILES IDX 47 68 32 69 33 70 41 71 34 72 40 73 35 74 36 75 37 76 38 77
REMARK SMILES IDX 39 78 62 79 63 80 71 81 64 82 70 83 65 84 66 85 67 86 68 87
REMARK SMILES IDX 69 88 48 89 49 90 57 91 50 92 56 93 51 94 52 95 53 96 54 97
REMARK SMILES IDX 55 98
REMARK H PARENT 16 5 20 35 76 54 46 65
REMARK Flexibility Score: inf
ROOT
ATOM      1  C   UNL A   1      35.429  20.931  25.407  1.00  0.00     0.117 C 
ENDROOT
BRANCH   1   2
ATOM      2  N   UNL A   1      34.146  20.810  24.511  1.00  0.00    -0.356 N 
ATOM      3  C   UNL A   1      33.429  21.615  23.673  1.00  0.00     0.220 C 
ATOM      4  O   UNL A   1      32.480  21.053  23.109  1.00  0.00    -0.275 OA
ATOM      5  H   UNL A   1      33.752  19.910  24.568  1.00  0.00     0.163 HD
BRANCH   3   6
ATOM      6  C   UNL A   1      33.713  23.080  23.332  1.00  0.00     0.110 C 
BRANCH   6   7
ATOM      7  C   UNL A   1      32.666  23.993  22.718  1.00  0.00     0.112 C 
BRANCH   7   8
ATOM      8  C   UNL A   1      33.244  25.348  22.679  1.00  0.00     0.243 C 
ATOM      9  O   UNL A   1      34.206  25.642  21.980  1.00  0.00    -0.273 OA
BRANCH   8  10
ATOM     10  N   UNL A   1      32.646  26.157  23.609  1.00  0.00    -0.225 N 
ATOM     11  C   UNL A   1      32.915  27.404  26.248  1.00  0.00     0.071 C 
ATOM     12  N   UNL A   1      33.723  26.543  25.162  1.00  0.00    -0.174 NA
ATOM     13  C   UNL A   1      31.006  27.550  25.820  1.00  0.00     0.091 C 
ATOM     14  C   UNL A   1      30.832  26.861  23.977  1.00  0.00     0.149 C 
BRANCH  11  15
ATOM     15  C   UNL A   1      33.463  28.589  26.999  1.00  0.00    -0.002 A 
ATOM     16  C   UNL A   1      35.063  31.742  27.679  1.00  0.00     0.118 A 
ATOM     17  C   UNL A   1      33.058  31.618  27.422  1.00  0.00     0.047 A 
ATOM     18  C   UNL A   1      36.013  30.220  27.531  1.00  0.00     0.047 A 
ATOM     19  C   UNL A   1      32.354  29.981  27.190  1.00  0.00     0.014 A 
ATOM     20  C   UNL A   1      35.193  28.721  27.176  1.00  0.00     0.014 A 
BRANCH  16  21
ATOM     21  O   UNL A   1      35.869  32.790  28.160  1.00  0.00    -0.497 OA
ATOM     22  C   UNL A   1      35.162  33.874  28.754  1.00  0.00     0.278 C 
ENDBRANCH  16  21
ENDBRANCH  11  15
BRANCH  14  23
ATOM     23  C   UNL A   1      29.943  27.807  23.080  1.00  0.00    -0.004 A 
ATOM     24  C   UNL A   1      30.541  28.951  22.494  1.00  0.00     0.009 A 
ATOM     25  C   UNL A   1      28.529  27.865  23.195  1.00  0.00     0.047 A 
ATOM     26  C   UNL A   1      29.803  30.081  22.107  1.00  0.00     0.021 A 
ATOM     27  C   UNL A   1      27.783  28.951  22.700  1.00  0.00     0.041 A 
ATOM     28  Cl  UNL A   1      27.584  26.804  24.176  1.00  0.00    -0.084 Cl
ATOM     29  C   UNL A   1      28.423  30.069  22.198  1.00  0.00     0.042 A 
ATOM     30  Cl  UNL A   1      27.515  31.468  21.783  1.00  0.00    -0.084 Cl
ENDBRANCH  14  23
ENDBRANCH   8  10
ENDBRANCH   7   8
ENDBRANCH   6   7
ENDBRANCH   3   6
ENDBRANCH   1   2
BRANCH   1  31
ATOM     31  C   UNL A   1      37.447  21.846  25.129  1.00  0.00     0.042 C 
BRANCH  31  32
ATOM     32  C   UNL A   1      38.020  23.377  26.091  1.00  0.00     0.118 C 
BRANCH  32  33
ATOM     33  N   UNL A   1      39.511  23.631  26.483  1.00  0.00    -0.352 N 
ATOM     34  C   UNL A   1      40.267  24.460  27.331  1.00  0.00     0.251 C 
ATOM     35  H   UNL A   1      40.103  23.024  25.983  1.00  0.00     0.163 HD
ATOM     36  O   UNL A   1      41.308  24.017  27.823  1.00  0.00    -0.269 OA
BRANCH  34  37
ATOM     37  C   UNL A   1      40.027  25.994  27.508  1.00  0.00     0.039 A 
ATOM     38  C   UNL A   1      38.899  25.914  28.901  1.00  0.00     0.014 A 
ATOM     39  C   UNL A   1      40.894  27.786  27.095  1.00  0.00     0.014 A 
ATOM     40  C   UNL A   1      38.684  27.311  29.908  1.00  0.00     0.010 A 
ATOM     41  C   UNL A   1      40.614  29.141  28.280  1.00  0.00     0.010 A 
ATOM     42  C   UNL A   1      39.572  28.837  29.709  1.00  0.00    -0.014 A 
BRANCH  42  43
ATOM     43  C   UNL A   1      39.830  29.545  31.048  1.00  0.00     0.031 A 
ATOM     44  C   UNL A   1      38.853  30.574  31.542  1.00  0.00     0.074 A 
ATOM     45  C   UNL A   1      40.997  29.399  31.750  1.00  0.00     0.049 A 
ATOM     46  N   UNL A   1      38.920  31.335  32.606  1.00  0.00    -0.248 NA
ATOM     47  C   UNL A   1      37.694  30.849  30.685  1.00  0.00     0.031 C 
ATOM     48  C   UNL A   1      42.179  28.604  31.373  1.00  0.00     0.029 A 
ATOM     49  N   UNL A   1      41.407  29.940  32.962  1.00  0.00    -0.354 N 
ATOM     50  C   UNL A   1      37.837  32.195  32.510  1.00  0.00     0.074 A 
ATOM     51  C   UNL A   1      37.240  31.972  31.213  1.00  0.00     0.031 C 
ATOM     52  C   UNL A   1      43.115  28.650  32.329  1.00  0.00     0.029 A 
ATOM     53  C   UNL A   1      42.653  29.513  33.394  1.00  0.00     0.049 A 
ATOM     54  H   UNL A   1      40.857  30.576  33.472  1.00  0.00     0.167 HD
ATOM     55  C   UNL A   1      37.313  33.025  33.443  1.00  0.00     0.031 A 
ATOM     56  C   UNL A   1      43.363  29.752  34.518  1.00  0.00     0.031 A 
ATOM     57  C   UNL A   1      37.865  33.201  34.755  1.00  0.00     0.049 A 
ATOM     58  C   UNL A   1      42.752  30.622  35.577  1.00  0.00     0.074 A 
ATOM     59  C   UNL A   1      37.342  33.910  35.822  1.00  0.00     0.029 A 
ATOM     60  N   UNL A   1      39.068  32.661  35.181  1.00  0.00    -0.354 N 
ATOM     61  N   UNL A   1      41.617  31.277  35.540  1.00  0.00    -0.248 NA
ATOM     62  C   UNL A   1      43.492  30.762  36.838  1.00  0.00     0.031 C 
ATOM     63  C   UNL A   1      38.264  33.851  36.872  1.00  0.00     0.029 A 
ATOM     64  C   UNL A   1      39.323  33.046  36.484  1.00  0.00     0.049 A 
ATOM     65  H   UNL A   1      39.656  32.089  34.635  1.00  0.00     0.167 HD
ATOM     66  C   UNL A   1      41.487  31.875  36.787  1.00  0.00     0.074 A 
ATOM     67  C   UNL A   1      42.652  31.495  37.558  1.00  0.00     0.031 C 
ATOM     68  C   UNL A   1      40.484  32.659  37.248  1.00  0.00     0.031 A 
BRANCH  55  69
ATOM     69  C   UNL A   1      36.046  33.751  33.066  1.00  0.00    -0.014 A 
ATOM     70  C   UNL A   1      36.087  35.091  32.632  1.00  0.00     0.010 A 
ATOM     71  C   UNL A   1      34.801  33.112  33.189  1.00  0.00     0.010 A 
ATOM     72  C   UNL A   1      34.908  35.811  32.438  1.00  0.00     0.020 A 
ATOM     73  C   UNL A   1      33.618  33.815  32.946  1.00  0.00     0.020 A 
ATOM     74  C   UNL A   1      33.680  35.169  32.607  1.00  0.00     0.054 A 
BRANCH  74  75
ATOM     75  S   UNL A   1      32.166  36.139  32.381  1.00  0.00     0.124 S 
ATOM     76  O   UNL A   1      31.132  35.159  32.707  1.00  0.00    -0.237 OA
ATOM     77  O   UNL A   1      32.332  37.220  33.349  1.00  0.00    -0.237 OA
ATOM     78  O   UNL A   1      32.221  36.545  30.979  1.00  0.00    -0.744 OA
ENDBRANCH  74  75
ENDBRANCH  55  69
BRANCH  56  79
ATOM     79  C   UNL A   1      44.698  29.101  34.742  1.00  0.00    -0.014 A 
ATOM     80  C   UNL A   1      44.777  27.775  35.214  1.00  0.00     0.010 A 
ATOM     81  C   UNL A   1      45.898  29.790  34.484  1.00  0.00     0.010 A 
ATOM     82  C   UNL A   1      46.017  27.162  35.439  1.00  0.00     0.020 A 
ATOM     83  C   UNL A   1      47.143  29.171  34.683  1.00  0.00     0.020 A 
ATOM     84  C   UNL A   1      47.194  27.863  35.166  1.00  0.00     0.054 A 
BRANCH  84  85
ATOM     85  S   UNL A   1      48.788  27.022  35.409  1.00  0.00     0.124 S 
ATOM     86  O   UNL A   1      49.737  28.128  35.313  1.00  0.00    -0.237 OA
ATOM     87  O   UNL A   1      48.633  26.436  36.738  1.00  0.00    -0.237 OA
ATOM     88  O   UNL A   1      48.838  26.059  34.312  1.00  0.00    -0.744 OA
ENDBRANCH  84  85
ENDBRANCH  56  79
BRANCH  68  89
ATOM     89  C   UNL A   1      40.566  33.138  38.671  1.00  0.00    -0.014 A 
ATOM     90  C   UNL A   1      41.227  34.331  39.007  1.00  0.00     0.010 A 
ATOM     91  C   UNL A   1      39.890  32.420  39.674  1.00  0.00     0.010 A 
ATOM     92  C   UNL A   1      41.223  34.790  40.326  1.00  0.00     0.020 A 
ATOM     93  C   UNL A   1      39.852  32.893  40.986  1.00  0.00     0.020 A 
ATOM     94  C   UNL A   1      40.528  34.072  41.305  1.00  0.00     0.054 A 
BRANCH  94  95
ATOM     95  S   UNL A   1      40.478  34.728  42.995  1.00  0.00     0.124 S 
ATOM     96  O   UNL A   1      39.834  36.024  42.798  1.00  0.00    -0.237 OA
ATOM     97  O   UNL A   1      39.679  33.728  43.700  1.00  0.00    -0.237 OA
ATOM     98  O   UNL A   1      41.883  34.784  43.387  1.00  0.00    -0.744 OA
ENDBRANCH  94  95
ENDBRANCH  68  89
ENDBRANCH  42  43
ENDBRANCH  34  37
ENDBRANCH  32  33
ENDBRANCH  31  32
ENDBRANCH   1  31
TORSDOF 19
ENDMDL
MODEL 3
REMARK VINA RESULT:     -13.1      3.057      5.395
REMARK SMILES COc1ccc(C2=NN(C(=O)CCC(=O)NCCCNC(=O)c3ccc(-c4c5nc(c(-c6ccc(S(=O)(=O)[O-])cc6)c6ccc([nH]6)c(-c6ccc(S(=O)(=O)[O-])cc6)c6nc(c(-c7ccc(S(=O)(=O)[O-])cc7)c7ccc4[nH]7)C=C6)C=C5)cc3)[C@H](c3ccc(Cl)cc3Cl)C2)cc1
REMARK SMILES IDX 17 1 16 2 14 3 15 4 13 6 12 7 10 8 11 9 9 10 7 11 8 12 92 13
REMARK SMILES IDX 83 14 6 15 3 16 4 17 94 18 5 19 93 20 2 21 1 22 84 23 85 24
REMARK SMILES IDX 90 25 86 26 89 27 91 28 87 29 88 30 18 31 19 32 20 33 21 34
REMARK SMILES IDX 22 36 23 37 24 38 82 39 25 40 81 41 26 42 27 43 28 44 75 45
REMARK SMILES IDX 29 46 80 47 74 48 76 49 30 50 79 51 73 52 72 53 31 55 61 56
REMARK SMILES IDX 42 57 60 58 43 59 46 60 59 61 77 62 44 63 45 64 58 66 78 67
REMARK SMILES IDX 47 68 32 69 33 70 41 71 34 72 40 73 35 74 36 75 37 76 38 77
REMARK SMILES IDX 39 78 62 79 63 80 71 81 64 82 70 83 65 84 66 85 67 86 68 87
REMARK SMILES IDX 69 88 48 89 49 90 57 91 50 92 56 93 51 94 52 95 53 96 54 97
REMARK SMILES IDX 55 98
REMARK H PARENT 16 5 20 35 76 54 46 65
REMARK Flexibility Score: inf
ROOT
ATOM      1  C   UNL A   1      38.416  21.360  25.359  1.00  0.00     0.117 C 
ENDROOT
BRANCH   1   2
ATOM      2  N   UNL A   1      37.750  21.939  24.060  1.00  0.00    -0.356 N 
ATOM      3  C   UNL A   1      36.602  22.599  23.732  1.00  0.00     0.220 C 
ATOM      4  O   UNL A   1      36.520  22.925  22.540  1.00  0.00    -0.275 OA
ATOM      5  H   UNL A   1      38.314  21.783  23.269  1.00  0.00     0.163 HD
BRANCH   3   6
ATOM      6  C   UNL A   1      35.471  23.012  24.677  1.00  0.00     0.110 C 
BRANCH   6   7
ATOM      7  C   UNL A   1      35.729  23.715  25.998  1.00  0.00     0.112 C 
BRANCH   7   8
ATOM      8  C   UNL A   1      34.708  23.237  26.948  1.00  0.00     0.243 C 
ATOM      9  O   UNL A   1      34.986  22.794  28.056  1.00  0.00    -0.273 OA
BRANCH   8  10
ATOM     10  N   UNL A   1      33.467  23.242  26.369  1.00  0.00    -0.225 N 
ATOM     11  C   UNL A   1      31.233  24.913  25.470  1.00  0.00     0.071 C 
ATOM     12  N   UNL A   1      32.727  24.995  26.049  1.00  0.00    -0.174 NA
ATOM     13  C   UNL A   1      30.498  23.096  25.543  1.00  0.00     0.091 C 
ATOM     14  C   UNL A   1      32.030  21.932  25.991  1.00  0.00     0.149 C 
BRANCH  11  15
ATOM     15  C   UNL A   1      30.696  25.742  24.333  1.00  0.00    -0.002 A 
ATOM     16  C   UNL A   1      29.492  28.572  22.459  1.00  0.00     0.118 A 
ATOM     17  C   UNL A   1      31.445  28.037  22.412  1.00  0.00     0.047 A 
ATOM     18  C   UNL A   1      28.389  27.592  23.491  1.00  0.00     0.047 A 
ATOM     19  C   UNL A   1      31.917  26.550  23.302  1.00  0.00     0.014 A 
ATOM     20  C   UNL A   1      29.027  26.245  24.400  1.00  0.00     0.014 A 
BRANCH  16  21
ATOM     21  O   UNL A   1      28.762  29.474  21.663  1.00  0.00    -0.497 OA
ATOM     22  C   UNL A   1      29.159  30.837  21.773  1.00  0.00     0.278 C 
ENDBRANCH  16  21
ENDBRANCH  11  15
BRANCH  14  23
ATOM     23  C   UNL A   1      32.083  20.654  25.069  1.00  0.00    -0.004 A 
ATOM     24  C   UNL A   1      32.401  19.402  25.655  1.00  0.00     0.009 A 
ATOM     25  C   UNL A   1      32.299  20.728  23.667  1.00  0.00     0.047 A 
ATOM     26  C   UNL A   1      32.940  18.333  24.921  1.00  0.00     0.021 A 
ATOM     27  C   UNL A   1      32.730  19.618  22.918  1.00  0.00     0.041 A 
ATOM     28  Cl  UNL A   1      32.348  22.198  22.763  1.00  0.00    -0.084 Cl
ATOM     29  C   UNL A   1      33.089  18.442  23.551  1.00  0.00     0.042 A 
ATOM     30  Cl  UNL A   1      33.803  17.163  22.652  1.00  0.00    -0.084 Cl
ENDBRANCH  14  23
ENDBRANCH   8  10
ENDBRANCH   7   8
ENDBRANCH   6   7
ENDBRANCH   3   6
ENDBRANCH   1   2
BRANCH   1  31
ATOM     31  C   UNL A   1      39.744  19.617  25.788  1.00  0.00     0.042 C 
BRANCH  31  32
ATOM     32  C   UNL A   1      41.459  19.804  26.577  1.00  0.00     0.118 C 
BRANCH  32  33
ATOM     33  N   UNL A   1      42.711  20.308  25.789  1.00  0.00    -0.352 N 
ATOM     34  C   UNL A   1      43.503  21.464  25.667  1.00  0.00     0.251 C 
ATOM     35  H   UNL A   1      43.049  19.599  25.197  1.00  0.00     0.163 HD
ATOM     36  O   UNL A   1      44.706  21.339  25.426  1.00  0.00    -0.269 OA
BRANCH  34  37
ATOM     37  C   UNL A   1      42.934  22.917  25.564  1.00  0.00     0.039 A 
ATOM     38  C   UNL A   1      41.765  22.826  26.923  1.00  0.00     0.014 A 
ATOM     39  C   UNL A   1      43.426  24.759  24.861  1.00  0.00     0.014 A 
ATOM     40  C   UNL A   1      41.199  24.292  27.660  1.00  0.00     0.010 A 
ATOM     41  C   UNL A   1      42.795  26.199  25.780  1.00  0.00     0.010 A 
ATOM     42  C   UNL A   1      41.755  25.919  27.215  1.00  0.00    -0.014 A 
BRANCH  42  43
ATOM     43  C   UNL A   1      41.775  26.881  28.413  1.00  0.00     0.031 A 
ATOM     44  C   UNL A   1      42.809  26.705  29.488  1.00  0.00     0.074 A 
ATOM     45  C   UNL A   1      40.790  27.809  28.634  1.00  0.00     0.049 A 
ATOM     46  N   UNL A   1      42.953  27.362  30.612  1.00  0.00    -0.248 NA
ATOM     47  C   UNL A   1      43.748  25.590  29.324  1.00  0.00     0.031 C 
ATOM     48  C   UNL A   1      39.575  28.037  27.833  1.00  0.00     0.029 A 
ATOM     49  N   UNL A   1      40.638  28.756  29.638  1.00  0.00    -0.354 N 
ATOM     50  C   UNL A   1      43.969  26.705  31.292  1.00  0.00     0.074 A 
ATOM     51  C   UNL A   1      44.277  25.514  30.533  1.00  0.00     0.031 C 
ATOM     52  C   UNL A   1      38.866  29.065  28.315  1.00  0.00     0.029 A 
ATOM     53  C   UNL A   1      39.526  29.572  29.499  1.00  0.00     0.049 A 
ATOM     54  H   UNL A   1      41.269  28.841  30.387  1.00  0.00     0.167 HD
ATOM     55  C   UNL A   1      44.661  27.095  32.389  1.00  0.00     0.031 A 
ATOM     56  C   UNL A   1      39.069  30.625  30.211  1.00  0.00     0.031 A 
ATOM     57  C   UNL A   1      44.401  28.308  33.108  1.00  0.00     0.049 A 
ATOM     58  C   UNL A   1      39.872  31.092  31.389  1.00  0.00     0.074 A 
ATOM     59  C   UNL A   1      45.123  28.866  34.147  1.00  0.00     0.029 A 
ATOM     60  N   UNL A   1      43.331  29.155  32.860  1.00  0.00    -0.354 N 
ATOM     61  N   UNL A   1      40.955  30.561  31.901  1.00  0.00    -0.248 NA
ATOM     62  C   UNL A   1      39.419  32.315  32.067  1.00  0.00     0.031 C 
ATOM     63  C   UNL A   1      44.452  30.017  34.570  1.00  0.00     0.029 A 
ATOM     64  C   UNL A   1      43.354  30.215  33.748  1.00  0.00     0.049 A 
ATOM     65  H   UNL A   1      42.655  29.020  32.158  1.00  0.00     0.167 HD
ATOM     66  C   UNL A   1      41.337  31.405  32.935  1.00  0.00     0.074 A 
ATOM     67  C   UNL A   1      40.375  32.487  32.970  1.00  0.00     0.031 C 
ATOM     68  C   UNL A   1      42.396  31.292  33.772  1.00  0.00     0.031 A 
BRANCH  55  69
ATOM     69  C   UNL A   1      45.797  26.203  32.821  1.00  0.00    -0.014 A 
ATOM     70  C   UNL A   1      45.585  25.168  33.753  1.00  0.00     0.010 A 
ATOM     71  C   UNL A   1      47.096  26.427  32.335  1.00  0.00     0.010 A 
ATOM     72  C   UNL A   1      46.661  24.449  34.274  1.00  0.00     0.020 A 
ATOM     73  C   UNL A   1      48.171  25.675  32.817  1.00  0.00     0.020 A 
ATOM     74  C   UNL A   1      47.950  24.715  33.808  1.00  0.00     0.054 A 
BRANCH  74  75
ATOM     75  S   UNL A   1      49.332  23.790  34.527  1.00  0.00     0.124 S 
ATOM     76  O   UNL A   1      50.057  23.361  33.334  1.00  0.00    -0.237 OA
ATOM     77  O   UNL A   1      50.004  24.801  35.340  1.00  0.00    -0.237 OA
ATOM     78  O   UNL A   1      48.679  22.721  35.279  1.00  0.00    -0.744 OA
ENDBRANCH  74  75
ENDBRANCH  55  69
BRANCH  56  79
ATOM     79  C   UNL A   1      37.831  31.364  29.790  1.00  0.00    -0.014 A 
ATOM     80  C   UNL A   1      37.926  32.522  28.993  1.00  0.00     0.010 A 
ATOM     81  C   UNL A   1      36.551  30.920  30.173  1.00  0.00     0.010 A 
ATOM     82  C   UNL A   1      36.778  33.227  28.605  1.00  0.00     0.020 A 
ATOM     83  C   UNL A   1      35.397  31.607  29.766  1.00  0.00     0.020 A 
ATOM     84  C   UNL A   1      35.517  32.761  28.990  1.00  0.00     0.054 A 
BRANCH  84  85
ATOM     85  S   UNL A   1      34.042  33.660  28.422  1.00  0.00     0.124 S 
ATOM     86  O   UNL A   1      34.615  34.651  27.516  1.00  0.00    -0.237 OA
ATOM     87  O   UNL A   1      33.257  32.604  27.790  1.00  0.00    -0.237 OA
ATOM     88  O   UNL A   1      33.473  34.197  29.656  1.00  0.00    -0.744 OA
ENDBRANCH  84  85
ENDBRANCH  56  79
BRANCH  68  89
ATOM     89  C   UNL A   1      42.610  32.386  34.782  1.00  0.00    -0.014 A 
ATOM     90  C   UNL A   1      42.065  32.309  36.074  1.00  0.00     0.010 A 
ATOM     91  C   UNL A   1      43.450  33.466  34.453  1.00  0.00     0.010 A 
ATOM     92  C   UNL A   1      42.343  33.303  37.015  1.00  0.00     0.020 A 
ATOM     93  C   UNL A   1      43.760  34.441  35.400  1.00  0.00     0.020 A 
ATOM     94  C   UNL A   1      43.196  34.358  36.674  1.00  0.00     0.054 A 
BRANCH  94  95
ATOM     95  S   UNL A   1      43.599  35.595  37.937  1.00  0.00     0.124 S 
ATOM     96  O   UNL A   1      44.737  36.284  37.335  1.00  0.00    -0.237 OA
ATOM     97  O   UNL A   1      42.365  36.374  38.024  1.00  0.00    -0.237 OA
ATOM     98  O   UNL A   1      43.909  34.795  39.119  1.00  0.00    -0.744 OA
ENDBRANCH  94  95
ENDBRANCH  68  89
ENDBRANCH  42  43
ENDBRANCH  34  37
ENDBRANCH  32  33
ENDBRANCH  31  32
ENDBRANCH   1  31
TORSDOF 19
ENDMDL
