MODEL 1
REMARK VINA RESULT:     -10.4      0.000      0.000
REMARK SMILES CCOc1ccc(-c2cc(Cl)cc3c2O[C@H](C(F)(F)F)C(C(=O)NCCCNC(=O)c2ccc(-c4c5nc(c(-c6ccc(S(=O)(=O)[O-])cc6)c6ccc([nH]6)c(-c6ccc(S(=O)(=O)[O-])cc6)c6nc(c(-c7ccc(S(=O)(=O)[O-])cc7)c7ccc4[nH]7)C=C6)C=C5)cc2)=C3)cc1
REMARK SMILES IDX 26 1 25 2 24 3 22 4 23 5 21 7 8 8 9 9 14 10 10 11 13 12
REMARK SMILES IDX 15 13 11 14 12 15 91 16 16 17 7 18 4 19 5 20 93 21 6 22
REMARK SMILES IDX 92 23 3 24 2 25 1 26 17 27 18 28 19 29 20 30 27 31 28 32
REMARK SMILES IDX 29 33 30 35 31 36 32 37 90 38 33 39 89 40 34 41 35 42 36 43
REMARK SMILES IDX 83 44 37 45 88 46 82 47 84 48 38 49 87 50 81 51 80 52 39 54
REMARK SMILES IDX 69 55 50 56 68 57 51 58 54 59 67 60 85 61 52 62 53 63 66 65
REMARK SMILES IDX 86 66 55 67 40 68 41 69 49 70 42 71 48 72 43 73 44 74 45 75
REMARK SMILES IDX 46 76 47 77 70 78 71 79 79 80 72 81 78 82 73 83 74 84 75 85
REMARK SMILES IDX 76 86 77 87 56 88 57 89 65 90 58 91 64 92 59 93 60 94 61 95
REMARK SMILES IDX 62 96 63 97
REMARK H PARENT 24 6 28 34 84 53 54 64
REMARK Flexibility Score: inf
ROOT
ATOM      1  C   UNL A   1      41.243  21.925  26.362  1.00  0.00     0.042 C 
ENDROOT
BRANCH   1   2
ATOM      2  C   UNL A   1      42.271  21.722  27.480  1.00  0.00     0.118 C 
BRANCH   2   3
ATOM      3  N   UNL A   1      42.961  22.968  27.754  1.00  0.00    -0.352 N 
ATOM      4  C   UNL A   1      44.172  23.350  27.280  1.00  0.00     0.251 C 
ATOM      5  O   UNL A   1      44.954  23.947  28.012  1.00  0.00    -0.270 OA
ATOM      6  H   UNL A   1      42.500  23.605  28.347  1.00  0.00     0.163 HD
BRANCH   4   7
ATOM      7  C   UNL A   1      44.429  23.153  25.822  1.00  0.00     0.067 C 
ATOM      8  C   UNL A   1      47.179  26.102  25.226  1.00  0.00     0.026 A 
ATOM      9  C   UNL A   1      46.704  27.275  25.863  1.00  0.00     0.033 A 
ATOM     10  C   UNL A   1      46.255  25.054  25.071  1.00  0.00     0.135 A 
ATOM     11  C   UNL A   1      45.356  27.461  26.172  1.00  0.00     0.042 A 
ATOM     12  C   UNL A   1      44.878  25.304  25.284  1.00  0.00     0.019 A 
ATOM     13  O   UNL A   1      46.633  23.760  24.749  1.00  0.00    -0.475 OA
ATOM     14  Cl  UNL A   1      44.854  28.909  26.950  1.00  0.00    -0.084 Cl
ATOM     15  C   UNL A   1      44.424  26.504  25.822  1.00  0.00     0.032 A 
ATOM     16  C   UNL A   1      43.938  24.175  25.092  1.00  0.00     0.025 C 
ATOM     17  C   UNL A   1      45.853  22.720  25.482  1.00  0.00     0.314 C 
BRANCH   8  18
ATOM     18  C   UNL A   1      48.519  26.217  24.597  1.00  0.00    -0.014 A 
ATOM     19  C   UNL A   1      50.831  27.420  23.491  1.00  0.00     0.119 A 
ATOM     20  C   UNL A   1      50.821  27.030  24.826  1.00  0.00     0.047 A 
ATOM     21  C   UNL A   1      49.751  27.099  22.676  1.00  0.00     0.047 A 
ATOM     22  C   UNL A   1      49.678  26.426  25.373  1.00  0.00     0.013 A 
ATOM     23  C   UNL A   1      48.607  26.500  23.223  1.00  0.00     0.013 A 
BRANCH  19  24
ATOM     24  O   UNL A   1      51.954  28.036  23.009  1.00  0.00    -0.494 OA
BRANCH  24  25
ATOM     25  C   UNL A   1      53.067  27.155  22.798  1.00  0.00     0.226 C 
ATOM     26  C   UNL A   1      53.319  26.927  21.315  1.00  0.00     0.049 C 
ENDBRANCH  24  25
ENDBRANCH  19  24
ENDBRANCH   8  18
BRANCH  17  27
ATOM     27  C   UNL A   1      45.787  21.396  24.688  1.00  0.00     0.429 C 
ATOM     28  F   UNL A   1      47.010  20.947  24.324  1.00  0.00    -0.167 F 
ATOM     29  F   UNL A   1      45.190  20.419  25.410  1.00  0.00    -0.167 F 
ATOM     30  F   UNL A   1      45.068  21.514  23.540  1.00  0.00    -0.167 F 
ENDBRANCH  17  27
ENDBRANCH   4   7
ENDBRANCH   2   3
ENDBRANCH   1   2
BRANCH   1  31
ATOM     31  C   UNL A   1      39.822  21.474  26.703  1.00  0.00     0.118 C 
BRANCH  31  32
ATOM     32  N   UNL A   1      38.809  22.075  25.849  1.00  0.00    -0.352 N 
ATOM     33  C   UNL A   1      38.390  23.382  25.787  1.00  0.00     0.251 C 
ATOM     34  H   UNL A   1      38.360  21.458  25.228  1.00  0.00     0.163 HD
ATOM     35  O   UNL A   1      37.416  23.683  25.100  1.00  0.00    -0.269 OA
BRANCH  33  36
ATOM     36  C   UNL A   1      39.090  24.416  26.578  1.00  0.00     0.039 A 
ATOM     37  C   UNL A   1      40.029  25.232  25.943  1.00  0.00     0.014 A 
ATOM     38  C   UNL A   1      38.798  24.602  27.932  1.00  0.00     0.014 A 
ATOM     39  C   UNL A   1      40.609  26.293  26.643  1.00  0.00     0.010 A 
ATOM     40  C   UNL A   1      39.324  25.701  28.608  1.00  0.00     0.010 A 
ATOM     41  C   UNL A   1      40.222  26.567  27.965  1.00  0.00    -0.014 A 
BRANCH  41  42
ATOM     42  C   UNL A   1      40.707  27.780  28.676  1.00  0.00     0.031 A 
ATOM     43  C   UNL A   1      42.073  27.800  29.307  1.00  0.00     0.074 A 
ATOM     44  C   UNL A   1      39.877  28.834  28.829  1.00  0.00     0.049 A 
ATOM     45  N   UNL A   1      42.624  28.727  30.049  1.00  0.00    -0.248 NA
ATOM     46  C   UNL A   1      42.923  26.617  29.097  1.00  0.00     0.031 C 
ATOM     47  C   UNL A   1      38.512  28.923  28.304  1.00  0.00     0.029 A 
ATOM     48  N   UNL A   1      40.054  30.028  29.485  1.00  0.00    -0.354 N 
ATOM     49  C   UNL A   1      43.870  28.232  30.411  1.00  0.00     0.074 A 
ATOM     50  C   UNL A   1      43.982  26.908  29.837  1.00  0.00     0.031 C 
ATOM     51  C   UNL A   1      37.984  30.110  28.644  1.00  0.00     0.029 A 
ATOM     52  C   UNL A   1      38.950  30.848  29.451  1.00  0.00     0.049 A 
ATOM     53  H   UNL A   1      40.893  30.274  29.938  1.00  0.00     0.167 HD
ATOM     54  C   UNL A   1      44.840  28.831  31.143  1.00  0.00     0.031 A 
ATOM     55  C   UNL A   1      38.729  32.050  30.019  1.00  0.00     0.031 A 
ATOM     56  C   UNL A   1      44.734  30.155  31.697  1.00  0.00     0.049 A 
ATOM     57  C   UNL A   1      39.819  32.687  30.836  1.00  0.00     0.074 A 
ATOM     58  C   UNL A   1      45.690  30.873  32.394  1.00  0.00     0.029 A 
ATOM     59  N   UNL A   1      43.606  30.959  31.624  1.00  0.00    -0.354 N 
ATOM     60  N   UNL A   1      41.020  32.231  31.103  1.00  0.00    -0.248 NA
ATOM     61  C   UNL A   1      39.528  34.002  31.423  1.00  0.00     0.031 C 
ATOM     62  C   UNL A   1      45.122  32.088  32.791  1.00  0.00     0.029 A 
ATOM     63  C   UNL A   1      43.833  32.152  32.288  1.00  0.00     0.049 A 
ATOM     64  H   UNL A   1      42.769  30.716  31.166  1.00  0.00     0.167 HD
ATOM     65  C   UNL A   1      41.635  33.216  31.869  1.00  0.00     0.074 A 
ATOM     66  C   UNL A   1      40.683  34.298  32.004  1.00  0.00     0.031 C 
ATOM     67  C   UNL A   1      42.876  33.221  32.415  1.00  0.00     0.031 A 
BRANCH  54  68
ATOM     68  C   UNL A   1      46.110  28.062  31.395  1.00  0.00    -0.014 A 
ATOM     69  C   UNL A   1      46.231  27.203  32.504  1.00  0.00     0.010 A 
ATOM     70  C   UNL A   1      47.168  28.138  30.471  1.00  0.00     0.010 A 
ATOM     71  C   UNL A   1      47.397  26.456  32.694  1.00  0.00     0.020 A 
ATOM     72  C   UNL A   1      48.324  27.373  30.644  1.00  0.00     0.020 A 
ATOM     73  C   UNL A   1      48.434  26.542  31.762  1.00  0.00     0.054 A 
BRANCH  73  74
ATOM     74  S   UNL A   1      49.912  25.520  32.008  1.00  0.00     0.124 S 
ATOM     75  O   UNL A   1      50.882  26.503  32.485  1.00  0.00    -0.237 OA
ATOM     76  O   UNL A   1      49.464  24.547  33.002  1.00  0.00    -0.237 OA
ATOM     77  O   UNL A   1      50.182  24.972  30.682  1.00  0.00    -0.744 OA
ENDBRANCH  73  74
ENDBRANCH  54  68
BRANCH  55  78
ATOM     78  C   UNL A   1      37.413  32.728  29.851  1.00  0.00    -0.014 A 
ATOM     79  C   UNL A   1      37.161  33.535  28.728  1.00  0.00     0.010 A 
ATOM     80  C   UNL A   1      36.408  32.581  30.825  1.00  0.00     0.010 A 
ATOM     81  C   UNL A   1      35.941  34.207  28.597  1.00  0.00     0.020 A 
ATOM     82  C   UNL A   1      35.177  33.225  30.682  1.00  0.00     0.020 A 
ATOM     83  C   UNL A   1      34.958  34.049  29.577  1.00  0.00     0.054 A 
BRANCH  83  84
ATOM     84  S   UNL A   1      33.371  34.906  29.373  1.00  0.00     0.124 S 
ATOM     85  O   UNL A   1      32.830  34.865  30.728  1.00  0.00    -0.237 OA
ATOM     86  O   UNL A   1      33.783  36.223  28.895  1.00  0.00    -0.237 OA
ATOM     87  O   UNL A   1      32.665  34.088  28.390  1.00  0.00    -0.744 OA
ENDBRANCH  83  84
ENDBRANCH  55  78
BRANCH  67  88
ATOM     88  C   UNL A   1      43.289  34.447  33.186  1.00  0.00    -0.014 A 
ATOM     89  C   UNL A   1      43.883  35.546  32.542  1.00  0.00     0.010 A 
ATOM     90  C   UNL A   1      43.029  34.518  34.568  1.00  0.00     0.010 A 
ATOM     91  C   UNL A   1      44.240  36.683  33.273  1.00  0.00     0.020 A 
ATOM     92  C   UNL A   1      43.358  35.665  35.295  1.00  0.00     0.020 A 
ATOM     93  C   UNL A   1      43.974  36.735  34.645  1.00  0.00     0.054 A 
BRANCH  93  94
ATOM     94  S   UNL A   1      44.409  38.239  35.561  1.00  0.00     0.124 S 
ATOM     95  O   UNL A   1      43.797  39.281  34.741  1.00  0.00    -0.237 OA
ATOM     96  O   UNL A   1      43.784  38.014  36.862  1.00  0.00    -0.237 OA
ATOM     97  O   UNL A   1      45.869  38.230  35.569  1.00  0.00    -0.744 OA
ENDBRANCH  93  94
ENDBRANCH  67  88
ENDBRANCH  41  42
ENDBRANCH  33  36
ENDBRANCH  31  32
ENDBRANCH   1  31
TORSDOF 17
ENDMDL
MODEL 2
REMARK VINA RESULT:     -10.4      4.997      9.411
REMARK SMILES CCOc1ccc(-c2cc(Cl)cc3c2O[C@H](C(F)(F)F)C(C(=O)NCCCNC(=O)c2ccc(-c4c5nc(c(-c6ccc(S(=O)(=O)[O-])cc6)c6ccc([nH]6)c(-c6ccc(S(=O)(=O)[O-])cc6)c6nc(c(-c7ccc(S(=O)(=O)[O-])cc7)c7ccc4[nH]7)C=C6)C=C5)cc2)=C3)cc1
REMARK SMILES IDX 26 1 25 2 24 3 22 4 23 5 21 7 8 8 9 9 14 10 10 11 13 12
REMARK SMILES IDX 15 13 11 14 12 15 91 16 16 17 7 18 4 19 5 20 93 21 6 22
REMARK SMILES IDX 92 23 3 24 2 25 1 26 17 27 18 28 19 29 20 30 27 31 28 32
REMARK SMILES IDX 29 33 30 35 31 36 32 37 90 38 33 39 89 40 34 41 35 42 36 43
REMARK SMILES IDX 83 44 37 45 88 46 82 47 84 48 38 49 87 50 81 51 80 52 39 54
REMARK SMILES IDX 69 55 50 56 68 57 51 58 54 59 67 60 85 61 52 62 53 63 66 65
REMARK SMILES IDX 86 66 55 67 40 68 41 69 49 70 42 71 48 72 43 73 44 74 45 75
REMARK SMILES IDX 46 76 47 77 70 78 71 79 79 80 72 81 78 82 73 83 74 84 75 85
REMARK SMILES IDX 76 86 77 87 56 88 57 89 65 90 58 91 64 92 59 93 60 94 61 95
REMARK SMILES IDX 62 96 63 97
REMARK H PARENT 24 6 28 34 84 53 54 64
REMARK Flexibility Score: inf
ROOT
ATOM      1  C   UNL A   1      35.897  22.924  26.214  1.00  0.00     0.042 C 
ENDROOT
BRANCH   1   2
ATOM      2  C   UNL A   1      34.539  23.503  25.805  1.00  0.00     0.118 C 
BRANCH   2   3
ATOM      3  N   UNL A   1      34.654  24.931  25.581  1.00  0.00    -0.352 N 
ATOM      4  C   UNL A   1      33.789  25.720  24.898  1.00  0.00     0.251 C 
ATOM      5  O   UNL A   1      34.218  26.611  24.172  1.00  0.00    -0.270 OA
ATOM      6  H   UNL A   1      35.443  25.374  25.966  1.00  0.00     0.163 HD
BRANCH   4   7
ATOM      7  C   UNL A   1      32.334  25.556  25.192  1.00  0.00     0.067 C 
ATOM      8  C   UNL A   1      31.131  29.429  24.792  1.00  0.00     0.026 A 
ATOM      9  C   UNL A   1      32.060  30.247  25.483  1.00  0.00     0.033 A 
ATOM     10  C   UNL A   1      31.204  28.048  25.042  1.00  0.00     0.135 A 
ATOM     11  C   UNL A   1      32.892  29.746  26.484  1.00  0.00     0.042 A 
ATOM     12  C   UNL A   1      31.970  27.579  26.137  1.00  0.00     0.019 A 
ATOM     13  O   UNL A   1      30.583  27.105  24.238  1.00  0.00    -0.475 OA
ATOM     14  Cl  UNL A   1      33.998  30.797  27.276  1.00  0.00    -0.084 Cl
ATOM     15  C   UNL A   1      32.803  28.421  26.865  1.00  0.00     0.032 A 
ATOM     16  C   UNL A   1      32.004  26.117  26.373  1.00  0.00     0.025 C 
ATOM     17  C   UNL A   1      31.409  25.881  24.022  1.00  0.00     0.314 C 
BRANCH   8  18
ATOM     18  C   UNL A   1      30.052  30.156  24.076  1.00  0.00    -0.014 A 
ATOM     19  C   UNL A   1      28.806  32.084  22.419  1.00  0.00     0.119 A 
ATOM     20  C   UNL A   1      29.138  30.835  21.905  1.00  0.00     0.047 A 
ATOM     21  C   UNL A   1      28.971  32.331  23.778  1.00  0.00     0.047 A 
ATOM     22  C   UNL A   1      29.749  29.876  22.728  1.00  0.00     0.013 A 
ATOM     23  C   UNL A   1      29.585  31.374  24.599  1.00  0.00     0.013 A 
BRANCH  19  24
ATOM     24  O   UNL A   1      28.244  33.000  21.573  1.00  0.00    -0.494 OA
BRANCH  24  25
ATOM     25  C   UNL A   1      27.692  32.436  20.373  1.00  0.00     0.226 C 
ATOM     26  C   UNL A   1      28.301  33.070  19.132  1.00  0.00     0.049 C 
ENDBRANCH  24  25
ENDBRANCH  19  24
ENDBRANCH   8  18
BRANCH  17  27
ATOM     27  C   UNL A   1      30.527  24.645  23.735  1.00  0.00     0.429 C 
ATOM     28  F   UNL A   1      31.071  23.822  22.809  1.00  0.00    -0.167 F 
ATOM     29  F   UNL A   1      30.319  23.918  24.858  1.00  0.00    -0.167 F 
ATOM     30  F   UNL A   1      29.296  24.983  23.268  1.00  0.00    -0.167 F 
ENDBRANCH  17  27
ENDBRANCH   4   7
ENDBRANCH   2   3
ENDBRANCH   1   2
BRANCH   1  31
ATOM     31  C   UNL A   1      37.079  23.389  25.363  1.00  0.00     0.118 C 
BRANCH  31  32
ATOM     32  N   UNL A   1      38.263  22.559  25.521  1.00  0.00    -0.352 N 
ATOM     33  C   UNL A   1      39.485  22.883  26.060  1.00  0.00     0.251 C 
ATOM     34  H   UNL A   1      38.176  21.633  25.197  1.00  0.00     0.163 HD
ATOM     35  O   UNL A   1      40.420  22.089  25.982  1.00  0.00    -0.269 OA
BRANCH  33  36
ATOM     36  C   UNL A   1      39.680  24.201  26.699  1.00  0.00     0.039 A 
ATOM     37  C   UNL A   1      39.177  24.409  27.985  1.00  0.00     0.014 A 
ATOM     38  C   UNL A   1      40.383  25.217  26.045  1.00  0.00     0.014 A 
ATOM     39  C   UNL A   1      39.457  25.604  28.652  1.00  0.00     0.010 A 
ATOM     40  C   UNL A   1      40.719  26.379  26.737  1.00  0.00     0.010 A 
ATOM     41  C   UNL A   1      40.274  26.577  28.053  1.00  0.00    -0.014 A 
BRANCH  41  42
ATOM     42  C   UNL A   1      40.715  27.785  28.801  1.00  0.00     0.031 A 
ATOM     43  C   UNL A   1      42.045  27.803  29.506  1.00  0.00     0.074 A 
ATOM     44  C   UNL A   1      39.874  28.835  28.918  1.00  0.00     0.049 A 
ATOM     45  N   UNL A   1      42.550  28.725  30.285  1.00  0.00    -0.248 NA
ATOM     46  C   UNL A   1      42.909  26.625  29.331  1.00  0.00     0.031 C 
ATOM     47  C   UNL A   1      38.539  28.924  28.321  1.00  0.00     0.029 A 
ATOM     48  N   UNL A   1      40.011  30.023  29.595  1.00  0.00    -0.354 N 
ATOM     49  C   UNL A   1      43.777  28.230  30.711  1.00  0.00     0.074 A 
ATOM     50  C   UNL A   1      43.925  26.912  30.131  1.00  0.00     0.031 C 
ATOM     51  C   UNL A   1      37.989  30.106  28.642  1.00  0.00     0.029 A 
ATOM     52  C   UNL A   1      38.907  30.840  29.508  1.00  0.00     0.049 A 
ATOM     53  H   UNL A   1      40.823  30.267  30.095  1.00  0.00     0.167 HD
ATOM     54  C   UNL A   1      44.703  28.825  31.500  1.00  0.00     0.031 A 
ATOM     55  C   UNL A   1      38.651  32.035  30.074  1.00  0.00     0.031 A 
ATOM     56  C   UNL A   1      44.562  30.144  32.060  1.00  0.00     0.049 A 
ATOM     57  C   UNL A   1      39.693  32.668  30.955  1.00  0.00     0.074 A 
ATOM     58  C   UNL A   1      45.477  30.858  32.815  1.00  0.00     0.029 A 
ATOM     59  N   UNL A   1      43.437  30.944  31.932  1.00  0.00    -0.354 N 
ATOM     60  N   UNL A   1      40.879  32.213  31.283  1.00  0.00    -0.248 NA
ATOM     61  C   UNL A   1      39.365  33.977  31.538  1.00  0.00     0.031 C 
ATOM     62  C   UNL A   1      44.883  32.067  33.191  1.00  0.00     0.029 A 
ATOM     63  C   UNL A   1      43.623  32.132  32.619  1.00  0.00     0.049 A 
ATOM     64  H   UNL A   1      42.627  30.704  31.427  1.00  0.00     0.167 HD
ATOM     65  C   UNL A   1      41.448  33.193  32.091  1.00  0.00     0.074 A 
ATOM     66  C   UNL A   1      40.485  34.270  32.184  1.00  0.00     0.031 C 
ATOM     67  C   UNL A   1      42.657  33.197  32.704  1.00  0.00     0.031 A 
BRANCH  54  68
ATOM     68  C   UNL A   1      45.961  28.057  31.814  1.00  0.00    -0.014 A 
ATOM     69  C   UNL A   1      46.022  27.183  32.915  1.00  0.00     0.010 A 
ATOM     70  C   UNL A   1      47.069  28.152  30.953  1.00  0.00     0.010 A 
ATOM     71  C   UNL A   1      47.178  26.438  33.162  1.00  0.00     0.020 A 
ATOM     72  C   UNL A   1      48.218  27.388  31.182  1.00  0.00     0.020 A 
ATOM     73  C   UNL A   1      48.267  26.542  32.292  1.00  0.00     0.054 A 
BRANCH  73  74
ATOM     74  S   UNL A   1      49.733  25.523  32.609  1.00  0.00     0.124 S 
ATOM     75  O   UNL A   1      49.236  24.584  33.613  1.00  0.00    -0.237 OA
ATOM     76  O   UNL A   1      50.011  24.947  31.295  1.00  0.00    -0.237 OA
ATOM     77  O   UNL A   1      50.726  26.480  33.089  1.00  0.00    -0.744 OA
ENDBRANCH  73  74
ENDBRANCH  54  68
BRANCH  55  78
ATOM     78  C   UNL A   1      37.344  32.711  29.840  1.00  0.00    -0.014 A 
ATOM     79  C   UNL A   1      37.193  33.639  28.795  1.00  0.00     0.010 A 
ATOM     80  C   UNL A   1      36.244  32.439  30.676  1.00  0.00     0.010 A 
ATOM     81  C   UNL A   1      35.977  34.305  28.609  1.00  0.00     0.020 A 
ATOM     82  C   UNL A   1      35.019  33.079  30.473  1.00  0.00     0.020 A 
ATOM     83  C   UNL A   1      34.899  34.022  29.451  1.00  0.00     0.054 A 
BRANCH  83  84
ATOM     84  S   UNL A   1      33.322  34.876  29.173  1.00  0.00     0.124 S 
ATOM     85  O   UNL A   1      32.683  34.015  28.182  1.00  0.00    -0.237 OA
ATOM     86  O   UNL A   1      32.719  34.867  30.503  1.00  0.00    -0.237 OA
ATOM     87  O   UNL A   1      33.728  36.194  28.691  1.00  0.00    -0.744 OA
ENDBRANCH  83  84
ENDBRANCH  55  78
BRANCH  67  88
ATOM     88  C   UNL A   1      43.022  34.416  33.508  1.00  0.00    -0.014 A 
ATOM     89  C   UNL A   1      42.910  34.425  34.909  1.00  0.00     0.010 A 
ATOM     90  C   UNL A   1      43.534  35.552  32.852  1.00  0.00     0.010 A 
ATOM     91  C   UNL A   1      43.274  35.560  35.638  1.00  0.00     0.020 A 
ATOM     92  C   UNL A   1      43.926  36.678  33.581  1.00  0.00     0.020 A 
ATOM     93  C   UNL A   1      43.781  36.679  34.970  1.00  0.00     0.054 A 
BRANCH  93  94
ATOM     94  S   UNL A   1      44.285  38.124  35.944  1.00  0.00     0.124 S 
ATOM     95  O   UNL A   1      43.474  37.977  37.148  1.00  0.00    -0.237 OA
ATOM     96  O   UNL A   1      45.719  37.905  36.120  1.00  0.00    -0.237 OA
ATOM     97  O   UNL A   1      43.935  39.256  35.091  1.00  0.00    -0.744 OA
ENDBRANCH  93  94
ENDBRANCH  67  88
ENDBRANCH  41  42
ENDBRANCH  33  36
ENDBRANCH  31  32
ENDBRANCH   1  31
TORSDOF 17
ENDMDL
MODEL 3
REMARK VINA RESULT:     -10.4      5.063     12.000
REMARK SMILES CCOc1ccc(-c2cc(Cl)cc3c2O[C@H](C(F)(F)F)C(C(=O)NCCCNC(=O)c2ccc(-c4c5nc(c(-c6ccc(S(=O)(=O)[O-])cc6)c6ccc([nH]6)c(-c6ccc(S(=O)(=O)[O-])cc6)c6nc(c(-c7ccc(S(=O)(=O)[O-])cc7)c7ccc4[nH]7)C=C6)C=C5)cc2)=C3)cc1
REMARK SMILES IDX 26 1 25 2 24 3 22 4 23 5 21 7 8 8 9 9 14 10 10 11 13 12
REMARK SMILES IDX 15 13 11 14 12 15 91 16 16 17 7 18 4 19 5 20 93 21 6 22
REMARK SMILES IDX 92 23 3 24 2 25 1 26 17 27 18 28 19 29 20 30 27 31 28 32
REMARK SMILES IDX 29 33 30 35 31 36 32 37 90 38 33 39 89 40 34 41 35 42 36 43
REMARK SMILES IDX 83 44 37 45 88 46 82 47 84 48 38 49 87 50 81 51 80 52 39 54
REMARK SMILES IDX 69 55 50 56 68 57 51 58 54 59 67 60 85 61 52 62 53 63 66 65
REMARK SMILES IDX 86 66 55 67 40 68 41 69 49 70 42 71 48 72 43 73 44 74 45 75
REMARK SMILES IDX 46 76 47 77 70 78 71 79 79 80 72 81 78 82 73 83 74 84 75 85
REMARK SMILES IDX 76 86 77 87 56 88 57 89 65 90 58 91 64 92 59 93 60 94 61 95
REMARK SMILES IDX 62 96 63 97
REMARK H PARENT 24 6 28 34 84 53 54 64
REMARK Flexibility Score: inf
ROOT
ATOM      1  C   UNL A   1      32.547  29.014  25.704  1.00  0.00     0.042 C 
ENDROOT
BRANCH   1   2
ATOM      2  C   UNL A   1      33.217  28.241  24.564  1.00  0.00     0.118 C 
BRANCH   2   3
ATOM      3  N   UNL A   1      34.037  27.173  25.101  1.00  0.00    -0.352 N 
ATOM      4  C   UNL A   1      33.735  25.851  25.134  1.00  0.00     0.251 C 
ATOM      5  O   UNL A   1      34.028  25.183  26.119  1.00  0.00    -0.270 OA
ATOM      6  H   UNL A   1      34.907  27.435  25.481  1.00  0.00     0.163 HD
BRANCH   4   7
ATOM      7  C   UNL A   1      33.191  25.243  23.883  1.00  0.00     0.067 C 
ATOM      8  C   UNL A   1      34.006  21.322  24.641  1.00  0.00     0.026 A 
ATOM      9  C   UNL A   1      35.335  21.240  25.128  1.00  0.00     0.033 A 
ATOM     10  C   UNL A   1      33.627  22.542  24.057  1.00  0.00     0.135 A 
ATOM     11  C   UNL A   1      36.276  22.243  24.896  1.00  0.00     0.042 A 
ATOM     12  C   UNL A   1      34.621  23.497  23.731  1.00  0.00     0.019 A 
ATOM     13  O   UNL A   1      32.305  22.880  23.810  1.00  0.00    -0.475 OA
ATOM     14  Cl  UNL A   1      37.868  22.077  25.523  1.00  0.00    -0.084 Cl
ATOM     15  C   UNL A   1      35.943  23.347  24.137  1.00  0.00     0.032 A 
ATOM     16  C   UNL A   1      34.177  24.762  23.100  1.00  0.00     0.025 C 
ATOM     17  C   UNL A   1      32.000  24.312  24.097  1.00  0.00     0.314 C 
BRANCH   8  18
ATOM     18  C   UNL A   1      33.263  20.037  24.599  1.00  0.00    -0.014 A 
ATOM     19  C   UNL A   1      32.794  17.255  24.358  1.00  0.00     0.119 A 
ATOM     20  C   UNL A   1      32.938  17.831  25.616  1.00  0.00     0.047 A 
ATOM     21  C   UNL A   1      32.754  18.072  23.233  1.00  0.00     0.047 A 
ATOM     22  C   UNL A   1      33.162  19.211  25.737  1.00  0.00     0.013 A 
ATOM     23  C   UNL A   1      32.982  19.451  23.353  1.00  0.00     0.013 A 
BRANCH  19  24
ATOM     24  O   UNL A   1      32.611  15.902  24.287  1.00  0.00    -0.494 OA
BRANCH  24  25
ATOM     25  C   UNL A   1      33.230  15.164  25.352  1.00  0.00     0.226 C 
ATOM     26  C   UNL A   1      32.205  14.359  26.135  1.00  0.00     0.049 C 
ENDBRANCH  24  25
ENDBRANCH  19  24
ENDBRANCH   8  18
BRANCH  17  27
ATOM     27  C   UNL A   1      30.818  24.822  23.243  1.00  0.00     0.429 C 
ATOM     28  F   UNL A   1      31.212  25.286  22.034  1.00  0.00    -0.167 F 
ATOM     29  F   UNL A   1      29.907  23.843  23.030  1.00  0.00    -0.167 F 
ATOM     30  F   UNL A   1      30.147  25.842  23.841  1.00  0.00    -0.167 F 
ENDBRANCH  17  27
ENDBRANCH   4   7
ENDBRANCH   2   3
ENDBRANCH   1   2
BRANCH   1  31
ATOM     31  C   UNL A   1      33.365  29.097  26.994  1.00  0.00     0.118 C 
BRANCH  31  32
ATOM     32  N   UNL A   1      33.295  30.401  27.636  1.00  0.00    -0.352 N 
ATOM     33  C   UNL A   1      34.234  31.040  28.410  1.00  0.00     0.251 C 
ATOM     34  H   UNL A   1      32.455  30.896  27.496  1.00  0.00     0.163 HD
ATOM     35  O   UNL A   1      33.943  32.084  28.990  1.00  0.00    -0.269 OA
BRANCH  33  36
ATOM     36  C   UNL A   1      35.578  30.448  28.571  1.00  0.00     0.039 A 
ATOM     37  C   UNL A   1      36.455  30.456  27.483  1.00  0.00     0.014 A 
ATOM     38  C   UNL A   1      35.985  29.917  29.798  1.00  0.00     0.014 A 
ATOM     39  C   UNL A   1      37.769  30.014  27.652  1.00  0.00     0.010 A 
ATOM     40  C   UNL A   1      37.313  29.541  29.981  1.00  0.00     0.010 A 
ATOM     41  C   UNL A   1      38.224  29.602  28.915  1.00  0.00    -0.014 A 
BRANCH  41  42
ATOM     42  C   UNL A   1      39.655  29.277  29.153  1.00  0.00     0.031 A 
ATOM     43  C   UNL A   1      40.607  30.336  29.643  1.00  0.00     0.074 A 
ATOM     44  C   UNL A   1      40.116  28.046  28.844  1.00  0.00     0.049 A 
ATOM     45  N   UNL A   1      41.902  30.263  29.812  1.00  0.00    -0.248 NA
ATOM     46  C   UNL A   1      40.033  31.652  29.963  1.00  0.00     0.031 C 
ATOM     47  C   UNL A   1      39.305  26.944  28.319  1.00  0.00     0.029 A 
ATOM     48  N   UNL A   1      41.383  27.519  28.910  1.00  0.00    -0.354 N 
ATOM     49  C   UNL A   1      42.301  31.525  30.235  1.00  0.00     0.074 A 
ATOM     50  C   UNL A   1      41.116  32.355  30.263  1.00  0.00     0.031 C 
ATOM     51  C   UNL A   1      40.090  25.871  28.127  1.00  0.00     0.029 A 
ATOM     52  C   UNL A   1      41.465  26.219  28.467  1.00  0.00     0.049 A 
ATOM     53  H   UNL A   1      42.160  28.025  29.242  1.00  0.00     0.167 HD
ATOM     54  C   UNL A   1      43.539  31.951  30.582  1.00  0.00     0.031 A 
ATOM     55  C   UNL A   1      42.528  25.402  28.330  1.00  0.00     0.031 A 
ATOM     56  C   UNL A   1      44.713  31.118  30.571  1.00  0.00     0.049 A 
ATOM     57  C   UNL A   1      43.893  25.905  28.713  1.00  0.00     0.074 A 
ATOM     58  C   UNL A   1      45.998  31.442  30.971  1.00  0.00     0.029 A 
ATOM     59  N   UNL A   1      44.750  29.803  30.133  1.00  0.00    -0.354 N 
ATOM     60  N   UNL A   1      44.235  27.082  29.182  1.00  0.00    -0.248 NA
ATOM     61  C   UNL A   1      45.015  24.969  28.554  1.00  0.00     0.031 C 
ATOM     62  C   UNL A   1      46.823  30.340  30.724  1.00  0.00     0.029 A 
ATOM     63  C   UNL A   1      46.041  29.311  30.227  1.00  0.00     0.049 A 
ATOM     64  H   UNL A   1      43.973  29.295  29.806  1.00  0.00     0.167 HD
ATOM     65  C   UNL A   1      45.608  27.017  29.396  1.00  0.00     0.074 A 
ATOM     66  C   UNL A   1      46.028  25.682  29.026  1.00  0.00     0.031 C 
ATOM     67  C   UNL A   1      46.446  27.980  29.854  1.00  0.00     0.031 A 
BRANCH  54  68
ATOM     68  C   UNL A   1      43.698  33.388  31.005  1.00  0.00    -0.014 A 
ATOM     69  C   UNL A   1      43.607  33.760  32.358  1.00  0.00     0.010 A 
ATOM     70  C   UNL A   1      44.020  34.366  30.046  1.00  0.00     0.010 A 
ATOM     71  C   UNL A   1      43.809  35.090  32.740  1.00  0.00     0.020 A 
ATOM     72  C   UNL A   1      44.250  35.691  30.427  1.00  0.00     0.020 A 
ATOM     73  C   UNL A   1      44.133  36.045  31.773  1.00  0.00     0.054 A 
BRANCH  73  74
ATOM     74  S   UNL A   1      44.443  37.751  32.307  1.00  0.00     0.124 S 
ATOM     75  O   UNL A   1      45.856  37.699  32.676  1.00  0.00    -0.237 OA
ATOM     76  O   UNL A   1      44.136  38.522  31.104  1.00  0.00    -0.237 OA
ATOM     77  O   UNL A   1      43.516  37.942  33.419  1.00  0.00    -0.744 OA
ENDBRANCH  73  74
ENDBRANCH  54  68
BRANCH  55  78
ATOM     78  C   UNL A   1      42.352  24.025  27.791  1.00  0.00    -0.014 A 
ATOM     79  C   UNL A   1      42.092  22.946  28.653  1.00  0.00     0.010 A 
ATOM     80  C   UNL A   1      42.458  23.784  26.408  1.00  0.00     0.010 A 
ATOM     81  C   UNL A   1      41.972  21.647  28.147  1.00  0.00     0.020 A 
ATOM     82  C   UNL A   1      42.308  22.493  25.896  1.00  0.00     0.020 A 
ATOM     83  C   UNL A   1      42.083  21.430  26.771  1.00  0.00     0.054 A 
BRANCH  83  84
ATOM     84  S   UNL A   1      41.896  19.741  26.132  1.00  0.00     0.124 S 
ATOM     85  O   UNL A   1      40.477  19.703  25.791  1.00  0.00    -0.237 OA
ATOM     86  O   UNL A   1      42.820  19.726  25.002  1.00  0.00    -0.237 OA
ATOM     87  O   UNL A   1      42.292  18.904  27.262  1.00  0.00    -0.744 OA
ENDBRANCH  83  84
ENDBRANCH  55  78
BRANCH  67  88
ATOM     88  C   UNL A   1      47.899  27.617  30.010  1.00  0.00    -0.014 A 
ATOM     89  C   UNL A   1      48.849  27.983  29.040  1.00  0.00     0.010 A 
ATOM     90  C   UNL A   1      48.326  26.944  31.170  1.00  0.00     0.010 A 
ATOM     91  C   UNL A   1      50.196  27.655  29.213  1.00  0.00     0.020 A 
ATOM     92  C   UNL A   1      49.677  26.640  31.359  1.00  0.00     0.020 A 
ATOM     93  C   UNL A   1      50.602  26.986  30.372  1.00  0.00     0.054 A 
BRANCH  93  94
ATOM     94  S   UNL A   1      52.363  26.610  30.591  1.00  0.00     0.124 S 
ATOM     95  O   UNL A   1      52.920  27.926  30.891  1.00  0.00    -0.237 OA
ATOM     96  O   UNL A   1      52.352  25.663  31.703  1.00  0.00    -0.237 OA
ATOM     97  O   UNL A   1      52.759  26.044  29.304  1.00  0.00    -0.744 OA
ENDBRANCH  93  94
ENDBRANCH  67  88
ENDBRANCH  41  42
ENDBRANCH  33  36
ENDBRANCH  31  32
ENDBRANCH   1  31
TORSDOF 17
ENDMDL
