MODEL 1
REMARK VINA RESULT:     -11.3      0.000      0.000
REMARK SMILES NC(=O)C[N@@H+]1CCCC[C@H]1C(=O)NCCCNC(=O)c1ccc(-c2c3nc(c(-c4ccc(S(=O)(=O)[O-])cc4)c4ccc([nH]4)c(-c4ccc(S(=O)(=O)[O-])cc4)c4nc(c(-c5ccc(S(=O)(=O)[O-])cc5)c5ccc2[nH]5)C=C4)C=C3)cc1
REMARK SMILES IDX 15 1 14 2 13 3 11 4 12 5 10 7 5 8 6 9 7 11 9 12 8 13 4 14
REMARK SMILES IDX 2 15 1 16 3 19 16 20 17 21 18 22 19 24 20 25 21 26 79 27
REMARK SMILES IDX 22 28 78 29 23 30 24 31 25 32 72 33 26 34 77 35 71 36 73 37
REMARK SMILES IDX 27 38 76 39 70 40 69 41 28 43 58 44 39 45 57 46 40 47 43 48
REMARK SMILES IDX 56 49 74 50 41 51 42 52 55 54 75 55 44 56 29 57 30 58 38 59
REMARK SMILES IDX 31 60 37 61 32 62 33 63 34 64 35 65 36 66 59 67 60 68 68 69
REMARK SMILES IDX 61 70 67 71 62 72 63 73 64 74 65 75 66 76 45 77 46 78 54 79
REMARK SMILES IDX 47 80 53 81 48 82 49 83 50 84 51 85 52 86
REMARK H PARENT 13 6 5 10 1 17 1 18 17 23 73 42 43 53
REMARK Flexibility Score: inf
ROOT
ATOM      1  C   UNL A   1      39.920  22.052  26.790  1.00  0.00     0.042 C 
ENDROOT
BRANCH   1   2
ATOM      2  C   UNL A   1      38.714  21.866  25.881  1.00  0.00     0.118 C 
BRANCH   2   3
ATOM      3  N   UNL A   1      37.609  22.742  26.215  1.00  0.00    -0.351 N 
ATOM      4  C   UNL A   1      36.278  22.623  25.939  1.00  0.00     0.278 C 
ATOM      5  O   UNL A   1      35.530  23.390  26.555  1.00  0.00    -0.268 OA
ATOM      6  H   UNL A   1      37.857  23.550  26.720  1.00  0.00     0.163 HD
BRANCH   4   7
ATOM      7  C   UNL A   1      35.746  21.675  24.821  1.00  0.00     0.274 C 
ATOM      8  N   UNL A   1      34.443  21.064  25.171  1.00  0.00    -0.317 N 
ATOM      9  C   UNL A   1      33.292  21.950  25.002  1.00  0.00     0.263 C 
ATOM     10  H   UNL A   1      34.499  20.922  26.179  1.00  0.00     0.349 HD
ATOM     11  C   UNL A   1      33.232  22.713  23.680  1.00  0.00     0.062 C 
ATOM     12  C   UNL A   1      35.701  22.421  23.467  1.00  0.00     0.076 C 
ATOM     13  C   UNL A   1      34.547  23.418  23.387  1.00  0.00     0.012 C 
BRANCH   8  14
ATOM     14  C   UNL A   1      34.248  19.711  24.612  1.00  0.00     0.363 C 
BRANCH  14  15
ATOM     15  C   UNL A   1      32.963  19.110  25.201  1.00  0.00     0.272 C 
ATOM     16  N   UNL A   1      32.981  18.831  26.540  1.00  0.00    -0.365 N 
ATOM     17  H   UNL A   1      32.187  18.444  26.973  1.00  0.00     0.159 HD
ATOM     18  H   UNL A   1      33.790  19.017  27.070  1.00  0.00     0.159 HD
ATOM     19  O   UNL A   1      31.931  18.951  24.554  1.00  0.00    -0.269 OA
ENDBRANCH  14  15
ENDBRANCH   8  14
ENDBRANCH   4   7
ENDBRANCH   2   3
ENDBRANCH   1   2
BRANCH   1  20
ATOM     20  C   UNL A   1      40.183  23.508  27.147  1.00  0.00     0.118 C 
BRANCH  20  21
ATOM     21  N   UNL A   1      41.025  24.182  26.160  1.00  0.00    -0.352 N 
ATOM     22  C   UNL A   1      41.377  25.503  26.031  1.00  0.00     0.251 C 
ATOM     23  H   UNL A   1      41.403  23.588  25.470  1.00  0.00     0.163 HD
ATOM     24  O   UNL A   1      41.897  25.892  24.981  1.00  0.00    -0.269 OA
BRANCH  22  25
ATOM     25  C   UNL A   1      41.139  26.461  27.130  1.00  0.00     0.039 A 
ATOM     26  C   UNL A   1      40.244  26.140  28.157  1.00  0.00     0.014 A 
ATOM     27  C   UNL A   1      41.778  27.699  27.133  1.00  0.00     0.014 A 
ATOM     28  C   UNL A   1      40.056  27.034  29.218  1.00  0.00     0.010 A 
ATOM     29  C   UNL A   1      41.695  28.519  28.248  1.00  0.00     0.010 A 
ATOM     30  C   UNL A   1      40.813  28.213  29.294  1.00  0.00    -0.014 A 
BRANCH  30  31
ATOM     31  C   UNL A   1      40.691  29.174  30.423  1.00  0.00     0.031 A 
ATOM     32  C   UNL A   1      41.588  29.022  31.628  1.00  0.00     0.074 A 
ATOM     33  C   UNL A   1      39.713  30.102  30.417  1.00  0.00     0.049 A 
ATOM     34  N   UNL A   1      41.540  29.640  32.780  1.00  0.00    -0.248 NA
ATOM     35  C   UNL A   1      42.647  27.999  31.547  1.00  0.00     0.031 C 
ATOM     36  C   UNL A   1      38.742  30.310  29.339  1.00  0.00     0.029 A 
ATOM     37  N   UNL A   1      39.363  31.039  31.357  1.00  0.00    -0.354 N 
ATOM     38  C   UNL A   1      42.521  29.047  33.568  1.00  0.00     0.074 A 
ATOM     39  C   UNL A   1      43.103  27.978  32.789  1.00  0.00     0.031 C 
ATOM     40  C   UNL A   1      37.933  31.331  29.662  1.00  0.00     0.029 A 
ATOM     41  C   UNL A   1      38.290  31.819  30.989  1.00  0.00     0.049 A 
ATOM     42  H   UNL A   1      39.836  31.144  32.214  1.00  0.00     0.167 HD
ATOM     43  C   UNL A   1      42.927  29.381  34.816  1.00  0.00     0.031 A 
ATOM     44  C   UNL A   1      37.661  32.809  31.651  1.00  0.00     0.031 A 
ATOM     45  C   UNL A   1      42.379  30.483  35.559  1.00  0.00     0.049 A 
ATOM     46  C   UNL A   1      38.154  33.192  33.020  1.00  0.00     0.074 A 
ATOM     47  C   UNL A   1      42.773  30.970  36.792  1.00  0.00     0.029 A 
ATOM     48  N   UNL A   1      41.329  31.280  35.127  1.00  0.00    -0.354 N 
ATOM     49  N   UNL A   1      39.130  32.664  33.720  1.00  0.00    -0.248 NA
ATOM     50  C   UNL A   1      37.470  34.310  33.683  1.00  0.00     0.031 C 
ATOM     51  C   UNL A   1      41.925  32.030  37.130  1.00  0.00     0.029 A 
ATOM     52  C   UNL A   1      41.046  32.243  36.080  1.00  0.00     0.049 A 
ATOM     53  H   UNL A   1      40.855  31.176  34.271  1.00  0.00     0.167 HD
ATOM     54  C   UNL A   1      39.194  33.403  34.896  1.00  0.00     0.074 A 
ATOM     55  C   UNL A   1      38.172  34.425  34.802  1.00  0.00     0.031 C 
ATOM     56  C   UNL A   1      40.024  33.251  35.959  1.00  0.00     0.031 A 
BRANCH  43  57
ATOM     57  C   UNL A   1      44.017  28.552  35.447  1.00  0.00    -0.014 A 
ATOM     58  C   UNL A   1      43.744  27.288  36.003  1.00  0.00     0.010 A 
ATOM     59  C   UNL A   1      45.342  29.028  35.457  1.00  0.00     0.010 A 
ATOM     60  C   UNL A   1      44.762  26.541  36.602  1.00  0.00     0.020 A 
ATOM     61  C   UNL A   1      46.370  28.268  36.025  1.00  0.00     0.020 A 
ATOM     62  C   UNL A   1      46.069  27.036  36.610  1.00  0.00     0.054 A 
BRANCH  62  63
ATOM     63  S   UNL A   1      47.374  26.031  37.370  1.00  0.00     0.124 S 
ATOM     64  O   UNL A   1      46.873  24.675  37.155  1.00  0.00    -0.237 OA
ATOM     65  O   UNL A   1      48.552  26.395  36.589  1.00  0.00    -0.237 OA
ATOM     66  O   UNL A   1      47.389  26.475  38.761  1.00  0.00    -0.744 OA
ENDBRANCH  62  63
ENDBRANCH  43  57
BRANCH  44  67
ATOM     67  C   UNL A   1      36.515  33.521  31.017  1.00  0.00    -0.014 A 
ATOM     68  C   UNL A   1      35.373  33.845  31.772  1.00  0.00     0.010 A 
ATOM     69  C   UNL A   1      36.565  33.896  29.663  1.00  0.00     0.010 A 
ATOM     70  C   UNL A   1      34.295  34.510  31.179  1.00  0.00     0.020 A 
ATOM     71  C   UNL A   1      35.502  34.589  29.074  1.00  0.00     0.020 A 
ATOM     72  C   UNL A   1      34.367  34.880  29.834  1.00  0.00     0.054 A 
BRANCH  72  73
ATOM     73  S   UNL A   1      32.977  35.785  29.097  1.00  0.00     0.124 S 
ATOM     74  O   UNL A   1      32.372  34.769  28.242  1.00  0.00    -0.237 OA
ATOM     75  O   UNL A   1      32.197  36.172  30.271  1.00  0.00    -0.237 OA
ATOM     76  O   UNL A   1      33.622  36.893  28.396  1.00  0.00    -0.744 OA
ENDBRANCH  72  73
ENDBRANCH  44  67
BRANCH  56  77
ATOM     77  C   UNL A   1      39.883  34.232  37.091  1.00  0.00    -0.014 A 
ATOM     78  C   UNL A   1      40.658  35.402  37.142  1.00  0.00     0.010 A 
ATOM     79  C   UNL A   1      38.910  34.005  38.083  1.00  0.00     0.010 A 
ATOM     80  C   UNL A   1      40.484  36.317  38.183  1.00  0.00     0.020 A 
ATOM     81  C   UNL A   1      38.712  34.933  39.108  1.00  0.00     0.020 A 
ATOM     82  C   UNL A   1      39.511  36.077  39.158  1.00  0.00     0.054 A 
BRANCH  82  83
ATOM     83  S   UNL A   1      39.272  37.304  40.470  1.00  0.00     0.124 S 
ATOM     84  O   UNL A   1      38.873  36.468  41.599  1.00  0.00    -0.237 OA
ATOM     85  O   UNL A   1      40.593  37.918  40.579  1.00  0.00    -0.237 OA
ATOM     86  O   UNL A   1      38.226  38.178  39.942  1.00  0.00    -0.744 OA
ENDBRANCH  82  83
ENDBRANCH  56  77
ENDBRANCH  30  31
ENDBRANCH  22  25
ENDBRANCH  20  21
ENDBRANCH   1  20
TORSDOF 15
ENDMDL
MODEL 2
REMARK VINA RESULT:     -11.3      4.908     10.653
REMARK SMILES NC(=O)C[N@@H+]1CCCC[C@H]1C(=O)NCCCNC(=O)c1ccc(-c2c3nc(c(-c4ccc(S(=O)(=O)[O-])cc4)c4ccc([nH]4)c(-c4ccc(S(=O)(=O)[O-])cc4)c4nc(c(-c5ccc(S(=O)(=O)[O-])cc5)c5ccc2[nH]5)C=C4)C=C3)cc1
REMARK SMILES IDX 15 1 14 2 13 3 11 4 12 5 10 7 5 8 6 9 7 11 9 12 8 13 4 14
REMARK SMILES IDX 2 15 1 16 3 19 16 20 17 21 18 22 19 24 20 25 21 26 79 27
REMARK SMILES IDX 22 28 78 29 23 30 24 31 25 32 72 33 26 34 77 35 71 36 73 37
REMARK SMILES IDX 27 38 76 39 70 40 69 41 28 43 58 44 39 45 57 46 40 47 43 48
REMARK SMILES IDX 56 49 74 50 41 51 42 52 55 54 75 55 44 56 29 57 30 58 38 59
REMARK SMILES IDX 31 60 37 61 32 62 33 63 34 64 35 65 36 66 59 67 60 68 68 69
REMARK SMILES IDX 61 70 67 71 62 72 63 73 64 74 65 75 66 76 45 77 46 78 54 79
REMARK SMILES IDX 47 80 53 81 48 82 49 83 50 84 51 85 52 86
REMARK H PARENT 13 6 5 10 1 17 1 18 17 23 73 42 43 53
REMARK Flexibility Score: inf
ROOT
ATOM      1  C   UNL A   1      33.771  28.116  25.593  1.00  0.00     0.042 C 
ENDROOT
BRANCH   1   2
ATOM      2  C   UNL A   1      33.100  26.846  25.088  1.00  0.00     0.118 C 
BRANCH   2   3
ATOM      3  N   UNL A   1      33.113  25.772  26.061  1.00  0.00    -0.351 N 
ATOM      4  C   UNL A   1      32.997  24.423  25.882  1.00  0.00     0.278 C 
ATOM      5  O   UNL A   1      33.288  23.725  26.859  1.00  0.00    -0.268 OA
ATOM      6  H   UNL A   1      33.222  26.058  26.996  1.00  0.00     0.163 HD
BRANCH   4   7
ATOM      7  C   UNL A   1      32.408  23.809  24.576  1.00  0.00     0.274 C 
ATOM      8  N   UNL A   1      33.458  23.458  23.592  1.00  0.00    -0.317 N 
ATOM      9  C   UNL A   1      34.173  22.216  23.884  1.00  0.00     0.263 C 
ATOM     10  H   UNL A   1      34.164  24.183  23.716  1.00  0.00     0.349 HD
ATOM     11  C   UNL A   1      33.296  21.016  24.242  1.00  0.00     0.062 C 
ATOM     12  C   UNL A   1      31.497  22.607  24.918  1.00  0.00     0.076 C 
ATOM     13  C   UNL A   1      32.291  21.368  25.327  1.00  0.00     0.012 C 
BRANCH   8  14
ATOM     14  C   UNL A   1      33.027  23.588  22.186  1.00  0.00     0.363 C 
BRANCH  14  15
ATOM     15  C   UNL A   1      32.952  25.079  21.824  1.00  0.00     0.272 C 
ATOM     16  N   UNL A   1      31.707  25.578  21.560  1.00  0.00    -0.365 N 
ATOM     17  H   UNL A   1      31.597  26.527  21.322  1.00  0.00     0.159 HD
ATOM     18  H   UNL A   1      30.920  24.989  21.608  1.00  0.00     0.159 HD
ATOM     19  O   UNL A   1      33.925  25.830  21.841  1.00  0.00    -0.269 OA
ENDBRANCH  14  15
ENDBRANCH   8  14
ENDBRANCH   4   7
ENDBRANCH   2   3
ENDBRANCH   1   2
BRANCH   1  20
ATOM     20  C   UNL A   1      33.616  28.320  27.093  1.00  0.00     0.118 C 
BRANCH  20  21
ATOM     21  N   UNL A   1      33.563  29.733  27.463  1.00  0.00    -0.352 N 
ATOM     22  C   UNL A   1      34.468  30.522  28.129  1.00  0.00     0.251 C 
ATOM     23  H   UNL A   1      32.739  30.198  27.187  1.00  0.00     0.163 HD
ATOM     24  O   UNL A   1      34.113  31.628  28.551  1.00  0.00    -0.269 OA
BRANCH  22  25
ATOM     25  C   UNL A   1      35.855  30.064  28.350  1.00  0.00     0.039 A 
ATOM     26  C   UNL A   1      36.786  30.124  27.308  1.00  0.00     0.014 A 
ATOM     27  C   UNL A   1      36.232  29.541  29.585  1.00  0.00     0.014 A 
ATOM     28  C   UNL A   1      38.110  29.728  27.537  1.00  0.00     0.010 A 
ATOM     29  C   UNL A   1      37.569  29.280  29.847  1.00  0.00     0.010 A 
ATOM     30  C   UNL A   1      38.523  29.343  28.821  1.00  0.00    -0.014 A 
BRANCH  30  31
ATOM     31  C   UNL A   1      39.926  28.962  29.133  1.00  0.00     0.031 A 
ATOM     32  C   UNL A   1      40.859  29.987  29.733  1.00  0.00     0.074 A 
ATOM     33  C   UNL A   1      40.390  27.746  28.780  1.00  0.00     0.049 A 
ATOM     34  N   UNL A   1      42.151  29.918  29.927  1.00  0.00    -0.248 NA
ATOM     35  C   UNL A   1      40.270  31.285  30.111  1.00  0.00     0.031 C 
ATOM     36  C   UNL A   1      39.604  26.688  28.138  1.00  0.00     0.029 A 
ATOM     37  N   UNL A   1      41.642  27.197  28.899  1.00  0.00    -0.354 N 
ATOM     38  C   UNL A   1      42.529  31.171  30.400  1.00  0.00     0.074 A 
ATOM     39  C   UNL A   1      41.346  32.000  30.400  1.00  0.00     0.031 C 
ATOM     40  C   UNL A   1      40.382  25.610  27.953  1.00  0.00     0.029 A 
ATOM     41  C   UNL A   1      41.732  25.912  28.415  1.00  0.00     0.049 A 
ATOM     42  H   UNL A   1      42.405  27.678  29.294  1.00  0.00     0.167 HD
ATOM     43  C   UNL A   1      43.744  31.587  30.828  1.00  0.00     0.031 A 
ATOM     44  C   UNL A   1      42.785  25.075  28.343  1.00  0.00     0.031 A 
ATOM     45  C   UNL A   1      44.901  30.736  30.879  1.00  0.00     0.049 A 
ATOM     46  C   UNL A   1      44.117  25.544  28.862  1.00  0.00     0.074 A 
ATOM     47  C   UNL A   1      46.159  31.022  31.377  1.00  0.00     0.029 A 
ATOM     48  N   UNL A   1      44.935  29.424  30.427  1.00  0.00    -0.354 N 
ATOM     49  N   UNL A   1      44.439  26.710  29.370  1.00  0.00    -0.248 NA
ATOM     50  C   UNL A   1      45.225  24.581  28.810  1.00  0.00     0.031 C 
ATOM     51  C   UNL A   1      46.969  29.899  31.179  1.00  0.00     0.029 A 
ATOM     52  C   UNL A   1      46.198  28.894  30.615  1.00  0.00     0.049 A 
ATOM     53  H   UNL A   1      44.172  28.943  30.031  1.00  0.00     0.167 HD
ATOM     54  C   UNL A   1      45.780  26.613  29.722  1.00  0.00     0.074 A 
ATOM     55  C   UNL A   1      46.202  25.268  29.387  1.00  0.00     0.031 C 
ATOM     56  C   UNL A   1      46.591  27.550  30.274  1.00  0.00     0.031 A 
BRANCH  43  57
ATOM     57  C   UNL A   1      43.877  33.019  31.284  1.00  0.00    -0.014 A 
ATOM     58  C   UNL A   1      44.038  34.067  30.358  1.00  0.00     0.010 A 
ATOM     59  C   UNL A   1      43.809  33.327  32.655  1.00  0.00     0.010 A 
ATOM     60  C   UNL A   1      44.181  35.386  30.797  1.00  0.00     0.020 A 
ATOM     61  C   UNL A   1      43.916  34.650  33.096  1.00  0.00     0.020 A 
ATOM     62  C   UNL A   1      44.119  35.669  32.164  1.00  0.00     0.054 A 
BRANCH  62  63
ATOM     63  S   UNL A   1      44.279  37.395  32.701  1.00  0.00     0.124 S 
ATOM     64  O   UNL A   1      43.090  37.562  33.534  1.00  0.00    -0.237 OA
ATOM     65  O   UNL A   1      45.551  37.389  33.418  1.00  0.00    -0.237 OA
ATOM     66  O   UNL A   1      44.274  38.150  31.451  1.00  0.00    -0.744 OA
ENDBRANCH  62  63
ENDBRANCH  43  57
BRANCH  44  67
ATOM     67  C   UNL A   1      42.615  23.706  27.780  1.00  0.00    -0.014 A 
ATOM     68  C   UNL A   1      42.303  22.624  28.622  1.00  0.00     0.010 A 
ATOM     69  C   UNL A   1      42.744  23.478  26.398  1.00  0.00     0.010 A 
ATOM     70  C   UNL A   1      42.146  21.337  28.098  1.00  0.00     0.020 A 
ATOM     71  C   UNL A   1      42.556  22.198  25.865  1.00  0.00     0.020 A 
ATOM     72  C   UNL A   1      42.271  21.132  26.721  1.00  0.00     0.054 A 
BRANCH  72  73
ATOM     73  S   UNL A   1      42.015  19.464  26.055  1.00  0.00     0.124 S 
ATOM     74  O   UNL A   1      40.571  19.442  25.839  1.00  0.00    -0.237 OA
ATOM     75  O   UNL A   1      42.836  19.478  24.846  1.00  0.00    -0.237 OA
ATOM     76  O   UNL A   1      42.503  18.591  27.120  1.00  0.00    -0.744 OA
ENDBRANCH  72  73
ENDBRANCH  44  67
BRANCH  56  77
ATOM     77  C   UNL A   1      48.007  27.145  30.579  1.00  0.00    -0.014 A 
ATOM     78  C   UNL A   1      49.051  27.408  29.677  1.00  0.00     0.010 A 
ATOM     79  C   UNL A   1      48.302  26.549  31.820  1.00  0.00     0.010 A 
ATOM     80  C   UNL A   1      50.364  27.056  29.998  1.00  0.00     0.020 A 
ATOM     81  C   UNL A   1      49.618  26.225  32.157  1.00  0.00     0.020 A 
ATOM     82  C   UNL A   1      50.639  26.468  31.236  1.00  0.00     0.054 A 
BRANCH  82  83
ATOM     83  S   UNL A   1      52.358  26.067  31.647  1.00  0.00     0.124 S 
ATOM     84  O   UNL A   1      52.222  24.754  32.272  1.00  0.00    -0.237 OA
ATOM     85  O   UNL A   1      53.010  26.076  30.340  1.00  0.00    -0.237 OA
ATOM     86  O   UNL A   1      52.761  27.146  32.546  1.00  0.00    -0.744 OA
ENDBRANCH  82  83
ENDBRANCH  56  77
ENDBRANCH  30  31
ENDBRANCH  22  25
ENDBRANCH  20  21
ENDBRANCH   1  20
TORSDOF 15
ENDMDL
MODEL 3
REMARK VINA RESULT:     -11.2      6.753     13.229
REMARK SMILES NC(=O)C[N@@H+]1CCCC[C@H]1C(=O)NCCCNC(=O)c1ccc(-c2c3nc(c(-c4ccc(S(=O)(=O)[O-])cc4)c4ccc([nH]4)c(-c4ccc(S(=O)(=O)[O-])cc4)c4nc(c(-c5ccc(S(=O)(=O)[O-])cc5)c5ccc2[nH]5)C=C4)C=C3)cc1
REMARK SMILES IDX 15 1 14 2 13 3 11 4 12 5 10 7 5 8 6 9 7 11 9 12 8 13 4 14
REMARK SMILES IDX 2 15 1 16 3 19 16 20 17 21 18 22 19 24 20 25 21 26 79 27
REMARK SMILES IDX 22 28 78 29 23 30 24 31 25 32 72 33 26 34 77 35 71 36 73 37
REMARK SMILES IDX 27 38 76 39 70 40 69 41 28 43 58 44 39 45 57 46 40 47 43 48
REMARK SMILES IDX 56 49 74 50 41 51 42 52 55 54 75 55 44 56 29 57 30 58 38 59
REMARK SMILES IDX 31 60 37 61 32 62 33 63 34 64 35 65 36 66 59 67 60 68 68 69
REMARK SMILES IDX 61 70 67 71 62 72 63 73 64 74 65 75 66 76 45 77 46 78 54 79
REMARK SMILES IDX 47 80 53 81 48 82 49 83 50 84 51 85 52 86
REMARK H PARENT 13 6 5 10 1 17 1 18 17 23 73 42 43 53
REMARK Flexibility Score: inf
ROOT
ATOM      1  C   UNL A   1      34.930  31.153  27.477  1.00  0.00     0.042 C 
ENDROOT
BRANCH   1   2
ATOM      2  C   UNL A   1      35.439  32.391  28.202  1.00  0.00     0.118 C 
BRANCH   2   3
ATOM      3  N   UNL A   1      34.401  33.086  28.937  1.00  0.00    -0.351 N 
ATOM      4  C   UNL A   1      34.440  33.671  30.170  1.00  0.00     0.278 C 
ATOM      5  O   UNL A   1      33.485  34.405  30.446  1.00  0.00    -0.268 OA
ATOM      6  H   UNL A   1      33.534  33.148  28.476  1.00  0.00     0.163 HD
BRANCH   4   7
ATOM      7  C   UNL A   1      35.546  33.330  31.214  1.00  0.00     0.274 C 
ATOM      8  N   UNL A   1      36.258  34.536  31.697  1.00  0.00    -0.317 N 
ATOM      9  C   UNL A   1      35.524  35.316  32.692  1.00  0.00     0.263 C 
ATOM     10  H   UNL A   1      36.291  35.147  30.881  1.00  0.00     0.349 HD
ATOM     11  C   UNL A   1      34.907  34.515  33.838  1.00  0.00     0.062 C 
ATOM     12  C   UNL A   1      34.947  32.498  32.371  1.00  0.00     0.076 C 
ATOM     13  C   UNL A   1      34.095  33.340  33.318  1.00  0.00     0.012 C 
BRANCH   8  14
ATOM     14  C   UNL A   1      37.673  34.295  32.045  1.00  0.00     0.363 C 
BRANCH  14  15
ATOM     15  C   UNL A   1      38.452  33.967  30.762  1.00  0.00     0.272 C 
ATOM     16  N   UNL A   1      38.733  35.019  29.936  1.00  0.00    -0.365 N 
ATOM     17  H   UNL A   1      39.229  34.870  29.099  1.00  0.00     0.159 HD
ATOM     18  H   UNL A   1      38.439  35.927  30.178  1.00  0.00     0.159 HD
ATOM     19  O   UNL A   1      38.884  32.847  30.501  1.00  0.00    -0.269 OA
ENDBRANCH  14  15
ENDBRANCH   8  14
ENDBRANCH   4   7
ENDBRANCH   2   3
ENDBRANCH   1   2
BRANCH   1  20
ATOM     20  C   UNL A   1      35.437  29.853  28.084  1.00  0.00     0.118 C 
BRANCH  20  21
ATOM     21  N   UNL A   1      35.588  29.935  29.536  1.00  0.00    -0.352 N 
ATOM     22  C   UNL A   1      36.634  29.581  30.352  1.00  0.00     0.251 C 
ATOM     23  H   UNL A   1      34.808  30.307  30.008  1.00  0.00     0.163 HD
ATOM     24  O   UNL A   1      36.453  29.506  31.571  1.00  0.00    -0.269 OA
BRANCH  22  25
ATOM     25  C   UNL A   1      37.968  29.285  29.789  1.00  0.00     0.039 A 
ATOM     26  C   UNL A   1      38.246  29.587  28.452  1.00  0.00     0.014 A 
ATOM     27  C   UNL A   1      38.943  28.677  30.577  1.00  0.00     0.014 A 
ATOM     28  C   UNL A   1      39.525  29.345  27.937  1.00  0.00     0.010 A 
ATOM     29  C   UNL A   1      40.243  28.564  30.107  1.00  0.00     0.010 A 
ATOM     30  C   UNL A   1      40.547  28.871  28.773  1.00  0.00    -0.014 A 
BRANCH  30  31
ATOM     31  C   UNL A   1      41.936  28.643  28.293  1.00  0.00     0.031 A 
ATOM     32  C   UNL A   1      42.346  27.264  27.829  1.00  0.00     0.074 A 
ATOM     33  C   UNL A   1      42.850  29.631  28.375  1.00  0.00     0.049 A 
ATOM     34  N   UNL A   1      43.536  26.811  27.530  1.00  0.00    -0.248 NA
ATOM     35  C   UNL A   1      41.283  26.245  27.746  1.00  0.00     0.031 C 
ATOM     36  C   UNL A   1      42.594  30.989  28.862  1.00  0.00     0.029 A 
ATOM     37  N   UNL A   1      44.187  29.642  28.062  1.00  0.00    -0.354 N 
ATOM     38  C   UNL A   1      43.369  25.453  27.275  1.00  0.00     0.074 A 
ATOM     39  C   UNL A   1      41.979  25.143  27.519  1.00  0.00     0.031 C 
ATOM     40  C   UNL A   1      43.725  31.708  28.783  1.00  0.00     0.029 A 
ATOM     41  C   UNL A   1      44.798  30.854  28.288  1.00  0.00     0.049 A 
ATOM     42  H   UNL A   1      44.663  28.856  27.710  1.00  0.00     0.167 HD
ATOM     43  C   UNL A   1      44.281  24.550  26.845  1.00  0.00     0.031 A 
ATOM     44  C   UNL A   1      46.081  31.231  28.123  1.00  0.00     0.031 A 
ATOM     45  C   UNL A   1      45.649  24.884  26.550  1.00  0.00     0.049 A 
ATOM     46  C   UNL A   1      47.070  30.223  27.605  1.00  0.00     0.074 A 
ATOM     47  C   UNL A   1      46.638  24.074  26.023  1.00  0.00     0.029 A 
ATOM     48  N   UNL A   1      46.213  26.136  26.743  1.00  0.00    -0.354 N 
ATOM     49  N   UNL A   1      46.877  28.961  27.303  1.00  0.00    -0.248 NA
ATOM     50  C   UNL A   1      48.445  30.691  27.393  1.00  0.00     0.031 C 
ATOM     51  C   UNL A   1      47.816  24.823  25.945  1.00  0.00     0.029 A 
ATOM     52  C   UNL A   1      47.544  26.116  26.365  1.00  0.00     0.049 A 
ATOM     53  H   UNL A   1      45.738  26.923  27.096  1.00  0.00     0.167 HD
ATOM     54  C   UNL A   1      48.101  28.491  26.841  1.00  0.00     0.074 A 
ATOM     55  C   UNL A   1      49.021  29.610  26.885  1.00  0.00     0.031 C 
ATOM     56  C   UNL A   1      48.436  27.246  26.417  1.00  0.00     0.031 A 
BRANCH  43  57
ATOM     57  C   UNL A   1      43.827  23.125  26.658  1.00  0.00    -0.014 A 
ATOM     58  C   UNL A   1      44.153  22.401  25.497  1.00  0.00     0.010 A 
ATOM     59  C   UNL A   1      43.089  22.486  27.673  1.00  0.00     0.010 A 
ATOM     60  C   UNL A   1      43.708  21.086  25.330  1.00  0.00     0.020 A 
ATOM     61  C   UNL A   1      42.671  21.160  27.525  1.00  0.00     0.020 A 
ATOM     62  C   UNL A   1      42.969  20.474  26.346  1.00  0.00     0.054 A 
BRANCH  62  63
ATOM     63  S   UNL A   1      42.428  18.758  26.113  1.00  0.00     0.124 S 
ATOM     64  O   UNL A   1      43.328  18.300  25.056  1.00  0.00    -0.237 OA
ATOM     65  O   UNL A   1      42.657  18.170  27.429  1.00  0.00    -0.237 OA
ATOM     66  O   UNL A   1      41.026  18.885  25.723  1.00  0.00    -0.744 OA
ENDBRANCH  62  63
ENDBRANCH  43  57
BRANCH  44  67
ATOM     67  C   UNL A   1      46.494  32.630  28.429  1.00  0.00    -0.014 A 
ATOM     68  C   UNL A   1      46.969  32.968  29.709  1.00  0.00     0.010 A 
ATOM     69  C   UNL A   1      46.435  33.628  27.440  1.00  0.00     0.010 A 
ATOM     70  C   UNL A   1      47.354  34.281  30.000  1.00  0.00     0.020 A 
ATOM     71  C   UNL A   1      46.849  34.934  27.717  1.00  0.00     0.020 A 
ATOM     72  C   UNL A   1      47.294  35.256  29.001  1.00  0.00     0.054 A 
BRANCH  72  73
ATOM     73  S   UNL A   1      47.845  36.941  29.386  1.00  0.00     0.124 S 
ATOM     74  O   UNL A   1      48.152  36.842  30.810  1.00  0.00    -0.237 OA
ATOM     75  O   UNL A   1      48.995  37.106  28.500  1.00  0.00    -0.237 OA
ATOM     76  O   UNL A   1      46.686  37.766  29.051  1.00  0.00    -0.744 OA
ENDBRANCH  72  73
ENDBRANCH  44  67
BRANCH  56  77
ATOM     77  C   UNL A   1      49.846  27.036  25.937  1.00  0.00    -0.014 A 
ATOM     78  C   UNL A   1      50.839  26.525  26.791  1.00  0.00     0.010 A 
ATOM     79  C   UNL A   1      50.163  27.295  24.590  1.00  0.00     0.010 A 
ATOM     80  C   UNL A   1      52.132  26.304  26.313  1.00  0.00     0.020 A 
ATOM     81  C   UNL A   1      51.447  27.045  24.102  1.00  0.00     0.020 A 
ATOM     82  C   UNL A   1      52.427  26.564  24.972  1.00  0.00     0.054 A 
BRANCH  82  83
ATOM     83  S   UNL A   1      54.101  26.221  24.366  1.00  0.00     0.124 S 
ATOM     84  O   UNL A   1      54.881  27.266  25.023  1.00  0.00    -0.237 OA
ATOM     85  O   UNL A   1      54.342  24.862  24.845  1.00  0.00    -0.237 OA
ATOM     86  O   UNL A   1      53.980  26.352  22.916  1.00  0.00    -0.744 OA
ENDBRANCH  82  83
ENDBRANCH  56  77
ENDBRANCH  30  31
ENDBRANCH  22  25
ENDBRANCH  20  21
ENDBRANCH   1  20
TORSDOF 15
ENDMDL
