MODEL 1
REMARK VINA RESULT:     -11.8      0.000      0.000
REMARK SMILES COc1cc(OC(F)(F)F)cc2c1O[C@@H](C(F)(F)F)C(C(=O)NCCCNC(=O)c1ccc(-c3c4nc(c(-c5ccc(S(=O)(=O)[O-])cc5)c5ccc([nH]5)c(-c5ccc(S(=O)(=O)[O-])cc5)c5nc(c(-c6ccc(S(=O)(=O)[O-])cc6)c6ccc3[nH]6)C=C5)C=C4)cc1)=C2
REMARK SMILES IDX 25 1 24 2 23 3 21 4 22 5 20 7 3 8 4 9 13 10 5 11 12 12 14 13
REMARK SMILES IDX 11 14 90 15 15 16 2 17 1 18 6 19 7 20 8 21 9 22 10 23 16 24
REMARK SMILES IDX 17 25 18 26 19 27 26 28 27 29 28 30 29 32 30 33 31 34 89 35
REMARK SMILES IDX 32 36 88 37 33 38 34 39 35 40 82 41 36 42 87 43 81 44 83 45
REMARK SMILES IDX 37 46 86 47 80 48 79 49 38 51 68 52 49 53 67 54 50 55 53 56
REMARK SMILES IDX 66 57 84 58 51 59 52 60 65 62 85 63 54 64 39 65 40 66 48 67
REMARK SMILES IDX 41 68 47 69 42 70 43 71 44 72 45 73 46 74 69 75 70 76 78 77
REMARK SMILES IDX 71 78 77 79 72 80 73 81 74 82 75 83 76 84 55 85 56 86 64 87
REMARK SMILES IDX 57 88 63 89 58 90 59 91 60 92 61 93 62 94
REMARK H PARENT 23 6 27 31 83 50 53 61
REMARK Flexibility Score: inf
ROOT
ATOM      1  C   UNL A   1      34.320  31.253  27.881  1.00  0.00     0.042 C 
ENDROOT
BRANCH   1   2
ATOM      2  C   UNL A   1      34.327  29.776  27.473  1.00  0.00     0.118 C 
BRANCH   2   3
ATOM      3  N   UNL A   1      33.079  29.130  27.850  1.00  0.00    -0.352 N 
ATOM      4  C   UNL A   1      32.324  28.164  27.268  1.00  0.00     0.251 C 
ATOM      5  O   UNL A   1      31.236  27.897  27.771  1.00  0.00    -0.270 OA
ATOM      6  H   UNL A   1      32.707  29.460  28.700  1.00  0.00     0.163 HD
BRANCH   4   7
ATOM      7  C   UNL A   1      32.789  27.369  26.103  1.00  0.00     0.067 C 
ATOM      8  C   UNL A   1      33.815  25.227  22.629  1.00  0.00     0.165 A 
ATOM      9  C   UNL A   1      34.374  23.948  22.753  1.00  0.00     0.097 A 
ATOM     10  C   UNL A   1      33.485  25.965  23.773  1.00  0.00     0.170 A 
ATOM     11  C   UNL A   1      34.644  23.413  24.011  1.00  0.00     0.134 A 
ATOM     12  C   UNL A   1      33.762  25.438  25.036  1.00  0.00     0.025 A 
ATOM     13  O   UNL A   1      32.798  27.136  23.627  1.00  0.00    -0.471 OA
ATOM     14  C   UNL A   1      34.348  24.171  25.147  1.00  0.00     0.059 A 
ATOM     15  C   UNL A   1      33.353  26.160  26.232  1.00  0.00     0.026 C 
ATOM     16  C   UNL A   1      32.762  28.064  24.748  1.00  0.00     0.314 C 
BRANCH   8  17
ATOM     17  O   UNL A   1      33.571  25.619  21.337  1.00  0.00    -0.493 OA
ATOM     18  C   UNL A   1      32.240  25.377  20.886  1.00  0.00     0.278 C 
ENDBRANCH   8  17
BRANCH  11  19
ATOM     19  O   UNL A   1      35.169  22.181  24.278  1.00  0.00    -0.406 OA
BRANCH  19  20
ATOM     20  C   UNL A   1      36.531  22.108  24.661  1.00  0.00     0.573 C 
ATOM     21  F   UNL A   1      37.127  21.014  24.137  1.00  0.00    -0.132 F 
ATOM     22  F   UNL A   1      37.203  23.214  24.276  1.00  0.00    -0.132 F 
ATOM     23  F   UNL A   1      36.601  22.017  26.006  1.00  0.00    -0.132 F 
ENDBRANCH  19  20
ENDBRANCH  11  19
BRANCH  16  24
ATOM     24  C   UNL A   1      31.587  29.033  24.484  1.00  0.00     0.429 C 
ATOM     25  F   UNL A   1      31.710  30.206  25.141  1.00  0.00    -0.167 F 
ATOM     26  F   UNL A   1      31.530  29.368  23.164  1.00  0.00    -0.167 F 
ATOM     27  F   UNL A   1      30.388  28.492  24.797  1.00  0.00    -0.167 F 
ENDBRANCH  16  24
ENDBRANCH   4   7
ENDBRANCH   2   3
ENDBRANCH   1   2
BRANCH   1  28
ATOM     28  C   UNL A   1      35.581  31.687  28.629  1.00  0.00     0.118 C 
BRANCH  28  29
ATOM     29  N   UNL A   1      35.523  31.333  30.037  1.00  0.00    -0.352 N 
ATOM     30  C   UNL A   1      36.364  30.550  30.787  1.00  0.00     0.251 C 
ATOM     31  H   UNL A   1      34.762  31.715  30.531  1.00  0.00     0.163 HD
ATOM     32  O   UNL A   1      35.997  30.184  31.900  1.00  0.00    -0.269 OA
BRANCH  30  33
ATOM     33  C   UNL A   1      37.694  30.139  30.276  1.00  0.00     0.039 A 
ATOM     34  C   UNL A   1      38.703  29.851  31.202  1.00  0.00     0.014 A 
ATOM     35  C   UNL A   1      37.979  30.110  28.908  1.00  0.00     0.014 A 
ATOM     36  C   UNL A   1      39.982  29.505  30.757  1.00  0.00     0.010 A 
ATOM     37  C   UNL A   1      39.239  29.706  28.464  1.00  0.00     0.010 A 
ATOM     38  C   UNL A   1      40.257  29.413  29.384  1.00  0.00    -0.014 A 
BRANCH  38  39
ATOM     39  C   UNL A   1      41.609  29.022  28.903  1.00  0.00     0.031 A 
ATOM     40  C   UNL A   1      42.714  30.042  28.821  1.00  0.00     0.074 A 
ATOM     41  C   UNL A   1      41.832  27.755  28.505  1.00  0.00     0.049 A 
ATOM     42  N   UNL A   1      43.947  29.889  28.410  1.00  0.00    -0.248 NA
ATOM     43  C   UNL A   1      42.386  31.415  29.237  1.00  0.00     0.031 C 
ATOM     44  C   UNL A   1      40.836  26.681  28.498  1.00  0.00     0.029 A 
ATOM     45  N   UNL A   1      42.969  27.154  28.025  1.00  0.00    -0.354 N 
ATOM     46  C   UNL A   1      44.537  31.145  28.501  1.00  0.00     0.074 A 
ATOM     47  C   UNL A   1      43.514  32.057  28.966  1.00  0.00     0.031 C 
ATOM     48  C   UNL A   1      41.411  25.549  28.062  1.00  0.00     0.029 A 
ATOM     49  C   UNL A   1      42.806  25.822  27.728  1.00  0.00     0.049 A 
ATOM     50  H   UNL A   1      43.822  27.632  27.905  1.00  0.00     0.167 HD
ATOM     51  C   UNL A   1      45.817  31.506  28.239  1.00  0.00     0.031 A 
ATOM     52  C   UNL A   1      43.678  24.918  27.241  1.00  0.00     0.031 A 
ATOM     53  C   UNL A   1      46.836  30.595  27.789  1.00  0.00     0.049 A 
ATOM     54  C   UNL A   1      45.095  25.340  26.962  1.00  0.00     0.074 A 
ATOM     55  C   UNL A   1      48.177  30.853  27.550  1.00  0.00     0.029 A 
ATOM     56  N   UNL A   1      46.633  29.253  27.509  1.00  0.00    -0.354 N 
ATOM     57  N   UNL A   1      45.647  26.519  27.115  1.00  0.00    -0.248 NA
ATOM     58  C   UNL A   1      46.006  24.305  26.457  1.00  0.00     0.031 C 
ATOM     59  C   UNL A   1      48.771  29.675  27.084  1.00  0.00     0.029 A 
ATOM     60  C   UNL A   1      47.815  28.673  27.079  1.00  0.00     0.049 A 
ATOM     61  H   UNL A   1      45.774  28.781  27.601  1.00  0.00     0.167 HD
ATOM     62  C   UNL A   1      46.977  26.364  26.743  1.00  0.00     0.074 A 
ATOM     63  C   UNL A   1      47.150  24.972  26.376  1.00  0.00     0.031 C 
ATOM     64  C   UNL A   1      47.968  27.289  26.708  1.00  0.00     0.031 A 
BRANCH  51  65
ATOM     65  C   UNL A   1      46.183  32.954  28.428  1.00  0.00    -0.014 A 
ATOM     66  C   UNL A   1      46.052  33.879  27.375  1.00  0.00     0.010 A 
ATOM     67  C   UNL A   1      46.631  33.406  29.682  1.00  0.00     0.010 A 
ATOM     68  C   UNL A   1      46.406  35.218  27.560  1.00  0.00     0.020 A 
ATOM     69  C   UNL A   1      46.961  34.751  29.879  1.00  0.00     0.020 A 
ATOM     70  C   UNL A   1      46.865  35.644  28.811  1.00  0.00     0.054 A 
BRANCH  70  71
ATOM     71  S   UNL A   1      47.307  37.391  29.027  1.00  0.00     0.124 S 
ATOM     72  O   UNL A   1      47.635  37.788  27.660  1.00  0.00    -0.237 OA
ATOM     73  O   UNL A   1      46.081  37.968  29.571  1.00  0.00    -0.237 OA
ATOM     74  O   UNL A   1      48.437  37.350  29.953  1.00  0.00    -0.744 OA
ENDBRANCH  70  71
ENDBRANCH  51  65
BRANCH  52  75
ATOM     75  C   UNL A   1      43.238  23.518  27.004  1.00  0.00    -0.014 A 
ATOM     76  C   UNL A   1      42.940  23.075  25.703  1.00  0.00     0.010 A 
ATOM     77  C   UNL A   1      43.133  22.613  28.077  1.00  0.00     0.010 A 
ATOM     78  C   UNL A   1      42.532  21.757  25.481  1.00  0.00     0.020 A 
ATOM     79  C   UNL A   1      42.751  21.288  27.855  1.00  0.00     0.020 A 
ATOM     80  C   UNL A   1      42.443  20.871  26.558  1.00  0.00     0.054 A 
BRANCH  80  81
ATOM     81  S   UNL A   1      41.973  19.147  26.239  1.00  0.00     0.124 S 
ATOM     82  O   UNL A   1      42.212  18.522  27.537  1.00  0.00    -0.237 OA
ATOM     83  O   UNL A   1      40.573  19.268  25.843  1.00  0.00    -0.237 OA
ATOM     84  O   UNL A   1      42.882  18.740  25.169  1.00  0.00    -0.744 OA
ENDBRANCH  80  81
ENDBRANCH  52  75
BRANCH  64  85
ATOM     85  C   UNL A   1      49.331  26.823  26.274  1.00  0.00    -0.014 A 
ATOM     86  C   UNL A   1      49.798  27.065  24.970  1.00  0.00     0.010 A 
ATOM     87  C   UNL A   1      50.168  26.168  27.195  1.00  0.00     0.010 A 
ATOM     88  C   UNL A   1      51.069  26.629  24.584  1.00  0.00     0.020 A 
ATOM     89  C   UNL A   1      51.449  25.753  26.819  1.00  0.00     0.020 A 
ATOM     90  C   UNL A   1      51.884  25.972  25.511  1.00  0.00     0.054 A 
BRANCH  90  91
ATOM     91  S   UNL A   1      53.543  25.446  24.997  1.00  0.00     0.124 S 
ATOM     92  O   UNL A   1      54.397  26.216  25.895  1.00  0.00    -0.237 OA
ATOM     93  O   UNL A   1      53.513  24.006  25.239  1.00  0.00    -0.237 OA
ATOM     94  O   UNL A   1      53.608  25.833  23.590  1.00  0.00    -0.744 OA
ENDBRANCH  90  91
ENDBRANCH  64  85
ENDBRANCH  38  39
ENDBRANCH  30  33
ENDBRANCH  28  29
ENDBRANCH   1  28
TORSDOF 17
ENDMDL
MODEL 2
REMARK VINA RESULT:     -11.4      0.544      8.012
REMARK SMILES COc1cc(OC(F)(F)F)cc2c1O[C@@H](C(F)(F)F)C(C(=O)NCCCNC(=O)c1ccc(-c3c4nc(c(-c5ccc(S(=O)(=O)[O-])cc5)c5ccc([nH]5)c(-c5ccc(S(=O)(=O)[O-])cc5)c5nc(c(-c6ccc(S(=O)(=O)[O-])cc6)c6ccc3[nH]6)C=C5)C=C4)cc1)=C2
REMARK SMILES IDX 25 1 24 2 23 3 21 4 22 5 20 7 3 8 4 9 13 10 5 11 12 12 14 13
REMARK SMILES IDX 11 14 90 15 15 16 2 17 1 18 6 19 7 20 8 21 9 22 10 23 16 24
REMARK SMILES IDX 17 25 18 26 19 27 26 28 27 29 28 30 29 32 30 33 31 34 89 35
REMARK SMILES IDX 32 36 88 37 33 38 34 39 35 40 82 41 36 42 87 43 81 44 83 45
REMARK SMILES IDX 37 46 86 47 80 48 79 49 38 51 68 52 49 53 67 54 50 55 53 56
REMARK SMILES IDX 66 57 84 58 51 59 52 60 65 62 85 63 54 64 39 65 40 66 48 67
REMARK SMILES IDX 41 68 47 69 42 70 43 71 44 72 45 73 46 74 69 75 70 76 78 77
REMARK SMILES IDX 71 78 77 79 72 80 73 81 74 82 75 83 76 84 55 85 56 86 64 87
REMARK SMILES IDX 57 88 63 89 58 90 59 91 60 92 61 93 62 94
REMARK H PARENT 23 6 27 31 83 50 53 61
REMARK Flexibility Score: inf
ROOT
ATOM      1  C   UNL A   1      34.472  31.251  27.842  1.00  0.00     0.042 C 
ENDROOT
BRANCH   1   2
ATOM      2  C   UNL A   1      34.356  29.838  27.264  1.00  0.00     0.118 C 
BRANCH   2   3
ATOM      3  N   UNL A   1      33.129  29.196  27.711  1.00  0.00    -0.352 N 
ATOM      4  C   UNL A   1      32.369  28.193  27.200  1.00  0.00     0.251 C 
ATOM      5  O   UNL A   1      31.300  27.938  27.749  1.00  0.00    -0.270 OA
ATOM      6  H   UNL A   1      32.778  29.563  28.555  1.00  0.00     0.163 HD
BRANCH   4   7
ATOM      7  C   UNL A   1      32.809  27.347  26.061  1.00  0.00     0.067 C 
ATOM      8  C   UNL A   1      33.760  25.052  22.666  1.00  0.00     0.165 A 
ATOM      9  C   UNL A   1      34.332  23.784  22.834  1.00  0.00     0.097 A 
ATOM     10  C   UNL A   1      33.455  25.840  23.782  1.00  0.00     0.170 A 
ATOM     11  C   UNL A   1      34.639  23.310  24.107  1.00  0.00     0.134 A 
ATOM     12  C   UNL A   1      33.769  25.375  25.060  1.00  0.00     0.025 A 
ATOM     13  O   UNL A   1      32.756  26.999  23.600  1.00  0.00    -0.471 OA
ATOM     14  C   UNL A   1      34.367  24.118  25.214  1.00  0.00     0.059 A 
ATOM     15  C   UNL A   1      33.386  26.149  26.232  1.00  0.00     0.026 C 
ATOM     16  C   UNL A   1      32.742  27.978  24.677  1.00  0.00     0.314 C 
BRANCH   8  17
ATOM     17  O   UNL A   1      33.479  25.382  21.363  1.00  0.00    -0.493 OA
ATOM     18  C   UNL A   1      32.104  25.655  21.105  1.00  0.00     0.278 C 
ENDBRANCH   8  17
BRANCH  11  19
ATOM     19  O   UNL A   1      35.179  22.095  24.417  1.00  0.00    -0.406 OA
BRANCH  19  20
ATOM     20  C   UNL A   1      36.574  22.031  24.661  1.00  0.00     0.573 C 
ATOM     21  F   UNL A   1      36.846  22.175  25.977  1.00  0.00    -0.132 F 
ATOM     22  F   UNL A   1      37.089  20.863  24.220  1.00  0.00    -0.132 F 
ATOM     23  F   UNL A   1      37.179  23.038  23.997  1.00  0.00    -0.132 F 
ENDBRANCH  19  20
ENDBRANCH  11  19
BRANCH  16  24
ATOM     24  C   UNL A   1      31.553  28.926  24.399  1.00  0.00     0.429 C 
ATOM     25  F   UNL A   1      31.632  30.089  25.081  1.00  0.00    -0.167 F 
ATOM     26  F   UNL A   1      31.523  29.286  23.085  1.00  0.00    -0.167 F 
ATOM     27  F   UNL A   1      30.358  28.353  24.670  1.00  0.00    -0.167 F 
ENDBRANCH  16  24
ENDBRANCH   4   7
ENDBRANCH   2   3
ENDBRANCH   1   2
BRANCH   1  28
ATOM     28  C   UNL A   1      35.791  31.510  28.570  1.00  0.00     0.118 C 
BRANCH  28  29
ATOM     29  N   UNL A   1      35.740  31.069  29.954  1.00  0.00    -0.352 N 
ATOM     30  C   UNL A   1      36.602  30.266  30.657  1.00  0.00     0.251 C 
ATOM     31  H   UNL A   1      34.968  31.399  30.466  1.00  0.00     0.163 HD
ATOM     32  O   UNL A   1      36.243  29.823  31.745  1.00  0.00    -0.269 OA
BRANCH  30  33
ATOM     33  C   UNL A   1      37.944  29.925  30.128  1.00  0.00     0.039 A 
ATOM     34  C   UNL A   1      38.965  29.634  31.039  1.00  0.00     0.014 A 
ATOM     35  C   UNL A   1      38.226  29.964  28.759  1.00  0.00     0.014 A 
ATOM     36  C   UNL A   1      40.255  29.352  30.578  1.00  0.00     0.010 A 
ATOM     37  C   UNL A   1      39.499  29.625  28.297  1.00  0.00     0.010 A 
ATOM     38  C   UNL A   1      40.529  29.329  29.202  1.00  0.00    -0.014 A 
BRANCH  38  39
ATOM     39  C   UNL A   1      41.892  29.008  28.703  1.00  0.00     0.031 A 
ATOM     40  C   UNL A   1      42.225  27.617  28.233  1.00  0.00     0.074 A 
ATOM     41  C   UNL A   1      42.843  29.962  28.708  1.00  0.00     0.049 A 
ATOM     42  N   UNL A   1      43.362  27.148  27.784  1.00  0.00    -0.248 NA
ATOM     43  C   UNL A   1      41.148  26.617  28.293  1.00  0.00     0.031 C 
ATOM     44  C   UNL A   1      42.659  31.339  29.173  1.00  0.00     0.029 A 
ATOM     45  N   UNL A   1      44.156  29.920  28.310  1.00  0.00    -0.354 N 
ATOM     46  C   UNL A   1      43.143  25.800  27.524  1.00  0.00     0.074 A 
ATOM     47  C   UNL A   1      41.776  25.516  27.906  1.00  0.00     0.031 C 
ATOM     48  C   UNL A   1      43.808  32.015  29.011  1.00  0.00     0.029 A 
ATOM     49  C   UNL A   1      44.818  31.116  28.461  1.00  0.00     0.049 A 
ATOM     50  H   UNL A   1      44.585  29.109  27.950  1.00  0.00     0.167 HD
ATOM     51  C   UNL A   1      43.994  24.885  27.000  1.00  0.00     0.031 A 
ATOM     52  C   UNL A   1      46.093  31.453  28.189  1.00  0.00     0.031 A 
ATOM     53  C   UNL A   1      45.348  25.172  26.608  1.00  0.00     0.049 A 
ATOM     54  C   UNL A   1      47.017  30.422  27.603  1.00  0.00     0.074 A 
ATOM     55  C   UNL A   1      46.271  24.326  26.015  1.00  0.00     0.029 A 
ATOM     56  N   UNL A   1      45.977  26.397  26.770  1.00  0.00    -0.354 N 
ATOM     57  N   UNL A   1      46.771  29.169  27.307  1.00  0.00    -0.248 NA
ATOM     58  C   UNL A   1      48.389  30.856  27.304  1.00  0.00     0.031 C 
ATOM     59  C   UNL A   1      47.470  25.029  25.858  1.00  0.00     0.029 A 
ATOM     60  C   UNL A   1      47.281  26.326  26.308  1.00  0.00     0.049 A 
ATOM     61  H   UNL A   1      45.558  27.200  27.156  1.00  0.00     0.167 HD
ATOM     62  C   UNL A   1      47.950  28.669  26.768  1.00  0.00     0.074 A 
ATOM     63  C   UNL A   1      48.903  29.760  26.762  1.00  0.00     0.031 C 
ATOM     64  C   UNL A   1      48.220  27.418  26.318  1.00  0.00     0.031 A 
BRANCH  51  65
ATOM     65  C   UNL A   1      43.480  23.480  26.825  1.00  0.00    -0.014 A 
ATOM     66  C   UNL A   1      43.163  22.976  25.550  1.00  0.00     0.010 A 
ATOM     67  C   UNL A   1      43.345  22.639  27.944  1.00  0.00     0.010 A 
ATOM     68  C   UNL A   1      42.677  21.674  25.403  1.00  0.00     0.020 A 
ATOM     69  C   UNL A   1      42.882  21.327  27.799  1.00  0.00     0.020 A 
ATOM     70  C   UNL A   1      42.533  20.860  26.531  1.00  0.00     0.054 A 
BRANCH  70  71
ATOM     71  S   UNL A   1      41.910  19.170  26.310  1.00  0.00     0.124 S 
ATOM     72  O   UNL A   1      42.860  18.625  25.343  1.00  0.00    -0.237 OA
ATOM     73  O   UNL A   1      42.000  18.615  27.658  1.00  0.00    -0.237 OA
ATOM     74  O   UNL A   1      40.552  19.364  25.808  1.00  0.00    -0.744 OA
ENDBRANCH  70  71
ENDBRANCH  51  65
BRANCH  52  75
ATOM     75  C   UNL A   1      46.563  32.839  28.453  1.00  0.00    -0.014 A 
ATOM     76  C   UNL A   1      46.331  33.860  27.515  1.00  0.00     0.010 A 
ATOM     77  C   UNL A   1      47.228  33.149  29.654  1.00  0.00     0.010 A 
ATOM     78  C   UNL A   1      46.767  35.164  27.767  1.00  0.00     0.020 A 
ATOM     79  C   UNL A   1      47.642  34.456  29.920  1.00  0.00     0.020 A 
ATOM     80  C   UNL A   1      47.418  35.454  28.969  1.00  0.00     0.054 A 
BRANCH  80  81
ATOM     81  S   UNL A   1      47.920  37.166  29.305  1.00  0.00     0.124 S 
ATOM     82  O   UNL A   1      47.934  37.198  30.764  1.00  0.00    -0.237 OA
ATOM     83  O   UNL A   1      49.226  37.246  28.656  1.00  0.00    -0.237 OA
ATOM     84  O   UNL A   1      46.869  37.959  28.669  1.00  0.00    -0.744 OA
ENDBRANCH  80  81
ENDBRANCH  52  75
BRANCH  64  85
ATOM     85  C   UNL A   1      49.597  27.168  25.766  1.00  0.00    -0.014 A 
ATOM     86  C   UNL A   1      50.618  26.642  26.576  1.00  0.00     0.010 A 
ATOM     87  C   UNL A   1      49.861  27.428  24.409  1.00  0.00     0.010 A 
ATOM     88  C   UNL A   1      51.891  26.411  26.047  1.00  0.00     0.020 A 
ATOM     89  C   UNL A   1      51.125  27.175  23.870  1.00  0.00     0.020 A 
ATOM     90  C   UNL A   1      52.137  26.682  24.697  1.00  0.00     0.054 A 
BRANCH  90  91
ATOM     91  S   UNL A   1      53.787  26.343  24.023  1.00  0.00     0.124 S 
ATOM     92  O   UNL A   1      54.503  27.574  24.340  1.00  0.00    -0.237 OA
ATOM     93  O   UNL A   1      54.204  25.161  24.773  1.00  0.00    -0.237 OA
ATOM     94  O   UNL A   1      53.538  26.114  22.602  1.00  0.00    -0.744 OA
ENDBRANCH  90  91
ENDBRANCH  64  85
ENDBRANCH  38  39
ENDBRANCH  30  33
ENDBRANCH  28  29
ENDBRANCH   1  28
TORSDOF 17
ENDMDL
MODEL 3
REMARK VINA RESULT:     -11.3      6.049     11.291
REMARK SMILES COc1cc(OC(F)(F)F)cc2c1O[C@@H](C(F)(F)F)C(C(=O)NCCCNC(=O)c1ccc(-c3c4nc(c(-c5ccc(S(=O)(=O)[O-])cc5)c5ccc([nH]5)c(-c5ccc(S(=O)(=O)[O-])cc5)c5nc(c(-c6ccc(S(=O)(=O)[O-])cc6)c6ccc3[nH]6)C=C5)C=C4)cc1)=C2
REMARK SMILES IDX 25 1 24 2 23 3 21 4 22 5 20 7 3 8 4 9 13 10 5 11 12 12 14 13
REMARK SMILES IDX 11 14 90 15 15 16 2 17 1 18 6 19 7 20 8 21 9 22 10 23 16 24
REMARK SMILES IDX 17 25 18 26 19 27 26 28 27 29 28 30 29 32 30 33 31 34 89 35
REMARK SMILES IDX 32 36 88 37 33 38 34 39 35 40 82 41 36 42 87 43 81 44 83 45
REMARK SMILES IDX 37 46 86 47 80 48 79 49 38 51 68 52 49 53 67 54 50 55 53 56
REMARK SMILES IDX 66 57 84 58 51 59 52 60 65 62 85 63 54 64 39 65 40 66 48 67
REMARK SMILES IDX 41 68 47 69 42 70 43 71 44 72 45 73 46 74 69 75 70 76 78 77
REMARK SMILES IDX 71 78 77 79 72 80 73 81 74 82 75 83 76 84 55 85 56 86 64 87
REMARK SMILES IDX 57 88 63 89 58 90 59 91 60 92 61 93 62 94
REMARK H PARENT 23 6 27 31 83 50 53 61
REMARK Flexibility Score: inf
ROOT
ATOM      1  C   UNL A   1      39.484  22.033  26.360  1.00  0.00     0.042 C 
ENDROOT
BRANCH   1   2
ATOM      2  C   UNL A   1      38.255  22.916  26.123  1.00  0.00     0.118 C 
BRANCH   2   3
ATOM      3  N   UNL A   1      37.836  22.857  24.730  1.00  0.00    -0.352 N 
ATOM      4  C   UNL A   1      36.630  22.977  24.120  1.00  0.00     0.251 C 
ATOM      5  O   UNL A   1      36.568  22.760  22.912  1.00  0.00    -0.270 OA
ATOM      6  H   UNL A   1      38.580  22.698  24.103  1.00  0.00     0.163 HD
BRANCH   4   7
ATOM      7  C   UNL A   1      35.407  23.430  24.831  1.00  0.00     0.067 C 
ATOM      8  C   UNL A   1      31.787  24.416  26.735  1.00  0.00     0.165 A 
ATOM      9  C   UNL A   1      31.340  25.744  26.710  1.00  0.00     0.097 A 
ATOM     10  C   UNL A   1      33.000  24.070  26.124  1.00  0.00     0.170 A 
ATOM     11  C   UNL A   1      32.111  26.739  26.116  1.00  0.00     0.134 A 
ATOM     12  C   UNL A   1      33.782  25.066  25.535  1.00  0.00     0.025 A 
ATOM     13  O   UNL A   1      33.334  22.751  26.023  1.00  0.00    -0.471 OA
ATOM     14  C   UNL A   1      33.338  26.394  25.543  1.00  0.00     0.059 A 
ATOM     15  C   UNL A   1      35.004  24.708  24.830  1.00  0.00     0.026 C 
ATOM     16  C   UNL A   1      34.716  22.406  25.720  1.00  0.00     0.314 C 
BRANCH   8  17
ATOM     17  O   UNL A   1      30.917  23.532  27.322  1.00  0.00    -0.493 OA
ATOM     18  C   UNL A   1      30.098  22.810  26.405  1.00  0.00     0.278 C 
ENDBRANCH   8  17
BRANCH  11  19
ATOM     19  O   UNL A   1      31.793  28.062  26.007  1.00  0.00    -0.406 OA
BRANCH  19  20
ATOM     20  C   UNL A   1      31.907  28.872  27.164  1.00  0.00     0.573 C 
ATOM     21  F   UNL A   1      31.506  30.138  26.915  1.00  0.00    -0.132 F 
ATOM     22  F   UNL A   1      31.185  28.363  28.184  1.00  0.00    -0.132 F 
ATOM     23  F   UNL A   1      33.203  28.911  27.541  1.00  0.00    -0.132 F 
ENDBRANCH  19  20
ENDBRANCH  11  19
BRANCH  16  24
ATOM     24  C   UNL A   1      34.709  20.942  25.224  1.00  0.00     0.429 C 
ATOM     25  F   UNL A   1      33.843  20.158  25.901  1.00  0.00    -0.167 F 
ATOM     26  F   UNL A   1      34.307  20.877  23.924  1.00  0.00    -0.167 F 
ATOM     27  F   UNL A   1      35.934  20.370  25.279  1.00  0.00    -0.167 F 
ENDBRANCH  16  24
ENDBRANCH   4   7
ENDBRANCH   2   3
ENDBRANCH   1   2
BRANCH   1  28
ATOM     28  C   UNL A   1      40.634  22.760  27.059  1.00  0.00     0.118 C 
BRANCH  28  29
ATOM     29  N   UNL A   1      41.500  23.438  26.110  1.00  0.00    -0.352 N 
ATOM     30  C   UNL A   1      41.911  24.747  26.068  1.00  0.00     0.251 C 
ATOM     31  H   UNL A   1      41.846  22.871  25.384  1.00  0.00     0.163 HD
ATOM     32  O   UNL A   1      42.446  25.167  25.046  1.00  0.00    -0.269 OA
BRANCH  30  33
ATOM     33  C   UNL A   1      41.717  25.653  27.225  1.00  0.00     0.039 A 
ATOM     34  C   UNL A   1      42.802  26.426  27.655  1.00  0.00     0.014 A 
ATOM     35  C   UNL A   1      40.513  25.692  27.935  1.00  0.00     0.014 A 
ATOM     36  C   UNL A   1      42.669  27.258  28.771  1.00  0.00     0.010 A 
ATOM     37  C   UNL A   1      40.364  26.567  29.012  1.00  0.00     0.010 A 
ATOM     38  C   UNL A   1      41.444  27.348  29.449  1.00  0.00    -0.014 A 
BRANCH  38  39
ATOM     39  C   UNL A   1      41.289  28.248  30.623  1.00  0.00     0.031 A 
ATOM     40  C   UNL A   1      40.198  29.285  30.651  1.00  0.00     0.074 A 
ATOM     41  C   UNL A   1      42.156  28.155  31.650  1.00  0.00     0.049 A 
ATOM     42  N   UNL A   1      39.923  30.167  31.578  1.00  0.00    -0.248 NA
ATOM     43  C   UNL A   1      39.314  29.354  29.477  1.00  0.00     0.031 C 
ATOM     44  C   UNL A   1      43.279  27.218  31.729  1.00  0.00     0.029 A 
ATOM     45  N   UNL A   1      42.229  28.859  32.826  1.00  0.00    -0.354 N 
ATOM     46  C   UNL A   1      38.848  30.905  31.096  1.00  0.00     0.074 A 
ATOM     47  C   UNL A   1      38.548  30.395  29.775  1.00  0.00     0.031 C 
ATOM     48  C   UNL A   1      43.913  27.389  32.900  1.00  0.00     0.029 A 
ATOM     49  C   UNL A   1      43.264  28.465  33.642  1.00  0.00     0.049 A 
ATOM     50  H   UNL A   1      41.600  29.579  33.064  1.00  0.00     0.167 HD
ATOM     51  C   UNL A   1      38.160  31.903  31.701  1.00  0.00     0.031 A 
ATOM     52  C   UNL A   1      43.649  28.918  34.850  1.00  0.00     0.031 A 
ATOM     53  C   UNL A   1      38.451  32.400  33.019  1.00  0.00     0.049 A 
ATOM     54  C   UNL A   1      42.868  30.024  35.504  1.00  0.00     0.074 A 
ATOM     55  C   UNL A   1      37.776  33.371  33.743  1.00  0.00     0.029 A 
ATOM     56  N   UNL A   1      39.501  31.969  33.816  1.00  0.00    -0.354 N 
ATOM     57  N   UNL A   1      41.816  30.665  35.056  1.00  0.00    -0.248 NA
ATOM     58  C   UNL A   1      43.320  30.458  36.833  1.00  0.00     0.031 C 
ATOM     59  C   UNL A   1      38.445  33.555  34.957  1.00  0.00     0.029 A 
ATOM     60  C   UNL A   1      39.507  32.667  35.012  1.00  0.00     0.049 A 
ATOM     61  H   UNL A   1      40.147  31.270  33.566  1.00  0.00     0.167 HD
ATOM     62  C   UNL A   1      41.468  31.565  36.056  1.00  0.00     0.074 A 
ATOM     63  C   UNL A   1      42.410  31.372  37.140  1.00  0.00     0.031 C 
ATOM     64  C   UNL A   1      40.458  32.470  36.076  1.00  0.00     0.031 A 
BRANCH  51  65
ATOM     65  C   UNL A   1      37.025  32.529  30.933  1.00  0.00    -0.014 A 
ATOM     66  C   UNL A   1      35.715  32.027  31.037  1.00  0.00     0.010 A 
ATOM     67  C   UNL A   1      37.263  33.654  30.124  1.00  0.00     0.010 A 
ATOM     68  C   UNL A   1      34.673  32.610  30.311  1.00  0.00     0.020 A 
ATOM     69  C   UNL A   1      36.218  34.256  29.415  1.00  0.00     0.020 A 
ATOM     70  C   UNL A   1      34.933  33.718  29.498  1.00  0.00     0.054 A 
BRANCH  70  71
ATOM     71  S   UNL A   1      33.560  34.462  28.575  1.00  0.00     0.124 S 
ATOM     72  O   UNL A   1      33.121  33.346  27.741  1.00  0.00    -0.237 OA
ATOM     73  O   UNL A   1      32.635  34.856  29.635  1.00  0.00    -0.237 OA
ATOM     74  O   UNL A   1      34.187  35.568  27.855  1.00  0.00    -0.744 OA
ENDBRANCH  70  71
ENDBRANCH  51  65
BRANCH  52  75
ATOM     75  C   UNL A   1      44.825  28.310  35.527  1.00  0.00    -0.014 A 
ATOM     76  C   UNL A   1      44.662  27.205  36.381  1.00  0.00     0.010 A 
ATOM     77  C   UNL A   1      46.118  28.819  35.304  1.00  0.00     0.010 A 
ATOM     78  C   UNL A   1      45.769  26.629  37.011  1.00  0.00     0.020 A 
ATOM     79  C   UNL A   1      47.229  28.230  35.913  1.00  0.00     0.020 A 
ATOM     80  C   UNL A   1      47.046  27.144  36.771  1.00  0.00     0.054 A 
BRANCH  80  81
ATOM     81  S   UNL A   1      48.476  26.342  37.550  1.00  0.00     0.124 S 
ATOM     82  O   UNL A   1      48.086  24.936  37.527  1.00  0.00    -0.237 OA
ATOM     83  O   UNL A   1      49.572  26.710  36.656  1.00  0.00    -0.237 OA
ATOM     84  O   UNL A   1      48.531  26.958  38.874  1.00  0.00    -0.744 OA
ENDBRANCH  80  81
ENDBRANCH  52  75
BRANCH  64  85
ATOM     85  C   UNL A   1      40.311  33.310  37.316  1.00  0.00    -0.014 A 
ATOM     86  C   UNL A   1      41.029  34.509  37.469  1.00  0.00     0.010 A 
ATOM     87  C   UNL A   1      39.413  32.912  38.324  1.00  0.00     0.010 A 
ATOM     88  C   UNL A   1      40.877  35.279  38.625  1.00  0.00     0.020 A 
ATOM     89  C   UNL A   1      39.241  33.693  39.469  1.00  0.00     0.020 A 
ATOM     90  C   UNL A   1      39.986  34.864  39.619  1.00  0.00     0.054 A 
BRANCH  90  91
ATOM     91  S   UNL A   1      39.780  35.898  41.096  1.00  0.00     0.124 S 
ATOM     92  O   UNL A   1      38.621  36.709  40.739  1.00  0.00    -0.237 OA
ATOM     93  O   UNL A   1      39.557  34.912  42.151  1.00  0.00    -0.237 OA
ATOM     94  O   UNL A   1      41.044  36.623  41.189  1.00  0.00    -0.744 OA
ENDBRANCH  90  91
ENDBRANCH  64  85
ENDBRANCH  38  39
ENDBRANCH  30  33
ENDBRANCH  28  29
ENDBRANCH   1  28
TORSDOF 17
ENDMDL
