MODEL 1
REMARK VINA RESULT:     -10.9      0.000      0.000
REMARK SMILES CCC[C@H](CNC(=O)N1CCN2C(=O)NC[C@H]2C1)C(=O)NCCCNC(=O)c1ccc(-c2c3nc(c(-c4ccc(S(=O)(=O)[O-])cc4)c4ccc([nH]4)c(-c4ccc(S(=O)(=O)[O-])cc4)c4nc(c(-c5ccc(S(=O)(=O)[O-])cc5)c5ccc2[nH]5)C=C4)C=C3)cc1
REMARK SMILES IDX 23 1 22 2 21 3 19 4 20 5 4 7 3 8 2 9 1 10 5 11 6 12 7 13
REMARK SMILES IDX 8 15 9 16 10 17 18 18 11 19 17 20 12 21 16 22 13 23 15 24
REMARK SMILES IDX 14 25 24 27 25 28 26 29 27 31 28 32 29 33 87 34 30 35 86 36
REMARK SMILES IDX 31 37 32 38 33 39 80 40 34 41 85 42 79 43 81 44 35 45 84 46
REMARK SMILES IDX 78 47 77 48 36 50 66 51 47 52 65 53 48 54 51 55 64 56 82 57
REMARK SMILES IDX 49 58 50 59 63 61 83 62 52 63 37 64 38 65 46 66 39 67 45 68
REMARK SMILES IDX 40 69 41 70 42 71 43 72 44 73 67 74 68 75 76 76 69 77 75 78
REMARK SMILES IDX 70 79 71 80 72 81 73 82 74 83 53 84 54 85 62 86 55 87 61 88
REMARK SMILES IDX 56 89 57 90 58 91 59 92 60 93
REMARK H PARENT 21 6 6 14 15 26 25 30 81 49 51 60
REMARK Flexibility Score: inf
ROOT
ATOM      1  C   UNL A   1      32.340  28.179  27.474  1.00  0.00     0.042 C 
ENDROOT
BRANCH   1   2
ATOM      2  C   UNL A   1      31.381  27.751  26.374  1.00  0.00     0.117 C 
BRANCH   2   3
ATOM      3  N   UNL A   1      30.741  26.473  26.591  1.00  0.00    -0.356 N 
ATOM      4  C   UNL A   1      30.355  25.535  25.678  1.00  0.00     0.224 C 
ATOM      5  O   UNL A   1      30.042  24.419  26.100  1.00  0.00    -0.275 OA
ATOM      6  H   UNL A   1      30.556  26.248  27.531  1.00  0.00     0.163 HD
BRANCH   4   7
ATOM      7  C   UNL A   1      30.212  25.874  24.187  1.00  0.00     0.097 C 
BRANCH   7   8
ATOM      8  C   UNL A   1      28.895  26.607  23.842  1.00  0.00     0.015 C 
BRANCH   8   9
ATOM      9  C   UNL A   1      28.947  27.992  23.175  1.00  0.00    -0.003 C 
ATOM     10  C   UNL A   1      30.273  28.403  22.544  1.00  0.00     0.004 C 
ENDBRANCH   8   9
ENDBRANCH   7   8
BRANCH   7  11
ATOM     11  C   UNL A   1      30.607  24.619  23.405  1.00  0.00     0.131 C 
BRANCH  11  12
ATOM     12  N   UNL A   1      31.543  24.850  22.320  1.00  0.00    -0.337 N 
ATOM     13  C   UNL A   1      32.895  24.959  22.424  1.00  0.00     0.317 C 
ATOM     14  H   UNL A   1      31.160  24.940  21.418  1.00  0.00     0.165 HD
ATOM     15  O   UNL A   1      33.483  25.658  21.599  1.00  0.00    -0.249 OA
BRANCH  13  16
ATOM     16  N   UNL A   1      33.528  24.384  23.492  1.00  0.00    -0.321 N 
ATOM     17  C   UNL A   1      33.589  24.899  24.876  1.00  0.00     0.143 C 
ATOM     18  C   UNL A   1      34.257  23.129  23.286  1.00  0.00     0.148 C 
ATOM     19  C   UNL A   1      35.037  25.019  25.410  1.00  0.00     0.143 C 
ATOM     20  C   UNL A   1      35.727  23.428  23.568  1.00  0.00     0.125 C 
ATOM     21  N   UNL A   1      35.899  23.963  24.910  1.00  0.00    -0.317 N 
ATOM     22  C   UNL A   1      36.691  22.252  23.550  1.00  0.00     0.144 C 
ATOM     23  C   UNL A   1      37.110  23.565  25.447  1.00  0.00     0.317 C 
ATOM     24  N   UNL A   1      37.617  22.578  24.610  1.00  0.00    -0.336 N 
ATOM     25  O   UNL A   1      37.649  23.990  26.447  1.00  0.00    -0.249 OA
ATOM     26  H   UNL A   1      38.498  22.154  24.725  1.00  0.00     0.165 HD
ENDBRANCH  13  16
ENDBRANCH  11  12
ENDBRANCH   7  11
ENDBRANCH   4   7
ENDBRANCH   2   3
ENDBRANCH   1   2
BRANCH   1  27
ATOM     27  C   UNL A   1      33.631  28.783  26.945  1.00  0.00     0.118 C 
BRANCH  27  28
ATOM     28  N   UNL A   1      33.735  30.204  27.265  1.00  0.00    -0.352 N 
ATOM     29  C   UNL A   1      34.697  30.895  27.959  1.00  0.00     0.251 C 
ATOM     30  H   UNL A   1      32.994  30.757  26.928  1.00  0.00     0.163 HD
ATOM     31  O   UNL A   1      34.464  32.045  28.323  1.00  0.00    -0.269 OA
BRANCH  29  32
ATOM     32  C   UNL A   1      35.991  30.260  28.279  1.00  0.00     0.039 A 
ATOM     33  C   UNL A   1      37.002  30.254  27.313  1.00  0.00     0.014 A 
ATOM     34  C   UNL A   1      36.207  29.660  29.521  1.00  0.00     0.014 A 
ATOM     35  C   UNL A   1      38.254  29.722  27.628  1.00  0.00     0.010 A 
ATOM     36  C   UNL A   1      37.478  29.218  29.865  1.00  0.00     0.010 A 
ATOM     37  C   UNL A   1      38.516  29.248  28.924  1.00  0.00    -0.014 A 
BRANCH  37  38
ATOM     38  C   UNL A   1      39.875  28.813  29.329  1.00  0.00     0.031 A 
ATOM     39  C   UNL A   1      40.780  29.745  30.085  1.00  0.00     0.074 A 
ATOM     40  C   UNL A   1      40.321  27.603  28.938  1.00  0.00     0.049 A 
ATOM     41  N   UNL A   1      42.017  29.562  30.467  1.00  0.00    -0.248 NA
ATOM     42  C   UNL A   1      40.231  31.065  30.434  1.00  0.00     0.031 C 
ATOM     43  C   UNL A   1      39.547  26.622  28.172  1.00  0.00     0.029 A 
ATOM     44  N   UNL A   1      41.535  26.992  29.127  1.00  0.00    -0.354 N 
ATOM     45  C   UNL A   1      42.399  30.744  31.090  1.00  0.00     0.074 A 
ATOM     46  C   UNL A   1      41.282  31.657  30.981  1.00  0.00     0.031 C 
ATOM     47  C   UNL A   1      40.290  25.520  27.992  1.00  0.00     0.029 A 
ATOM     48  C   UNL A   1      41.610  25.734  28.578  1.00  0.00     0.049 A 
ATOM     49  H   UNL A   1      42.282  27.415  29.610  1.00  0.00     0.167 HD
ATOM     50  C   UNL A   1      43.568  31.038  31.710  1.00  0.00     0.031 A 
ATOM     51  C   UNL A   1      42.627  24.853  28.541  1.00  0.00     0.031 A 
ATOM     52  C   UNL A   1      44.682  30.131  31.794  1.00  0.00     0.049 A 
ATOM     53  C   UNL A   1      43.934  25.220  29.185  1.00  0.00     0.074 A 
ATOM     54  C   UNL A   1      45.892  30.310  32.440  1.00  0.00     0.029 A 
ATOM     55  N   UNL A   1      44.728  28.877  31.199  1.00  0.00    -0.354 N 
ATOM     56  N   UNL A   1      44.252  26.314  29.835  1.00  0.00    -0.248 NA
ATOM     57  C   UNL A   1      45.017  24.234  29.090  1.00  0.00     0.031 C 
ATOM     58  C   UNL A   1      46.697  29.195  32.175  1.00  0.00     0.029 A 
ATOM     59  C   UNL A   1      45.962  28.290  31.424  1.00  0.00     0.049 A 
ATOM     60  H   UNL A   1      43.992  28.466  30.689  1.00  0.00     0.167 HD
ATOM     61  C   UNL A   1      45.568  26.140  30.246  1.00  0.00     0.074 A 
ATOM     62  C   UNL A   1      45.979  24.828  29.786  1.00  0.00     0.031 C 
ATOM     63  C   UNL A   1      46.363  26.989  30.943  1.00  0.00     0.031 A 
BRANCH  50  64
ATOM     64  C   UNL A   1      43.700  32.414  32.317  1.00  0.00    -0.014 A 
ATOM     65  C   UNL A   1      43.315  32.665  33.648  1.00  0.00     0.010 A 
ATOM     66  C   UNL A   1      44.210  33.474  31.546  1.00  0.00     0.010 A 
ATOM     67  C   UNL A   1      43.371  33.959  34.171  1.00  0.00     0.020 A 
ATOM     68  C   UNL A   1      44.302  34.764  32.077  1.00  0.00     0.020 A 
ATOM     69  C   UNL A   1      43.855  35.003  33.378  1.00  0.00     0.054 A 
BRANCH  69  70
ATOM     70  S   UNL A   1      43.894  36.677  34.076  1.00  0.00     0.124 S 
ATOM     71  O   UNL A   1      43.724  37.502  32.882  1.00  0.00    -0.237 OA
ATOM     72  O   UNL A   1      42.760  36.667  34.997  1.00  0.00    -0.237 OA
ATOM     73  O   UNL A   1      45.207  36.760  34.709  1.00  0.00    -0.744 OA
ENDBRANCH  69  70
ENDBRANCH  50  64
BRANCH  51  74
ATOM     74  C   UNL A   1      42.428  23.530  27.891  1.00  0.00    -0.014 A 
ATOM     75  C   UNL A   1      42.817  23.335  26.554  1.00  0.00     0.010 A 
ATOM     76  C   UNL A   1      41.906  22.443  28.616  1.00  0.00     0.010 A 
ATOM     77  C   UNL A   1      42.691  22.078  25.956  1.00  0.00     0.020 A 
ATOM     78  C   UNL A   1      41.806  21.178  28.031  1.00  0.00     0.020 A 
ATOM     79  C   UNL A   1      42.197  21.005  26.703  1.00  0.00     0.054 A 
BRANCH  79  80
ATOM     80  S   UNL A   1      42.131  19.364  25.930  1.00  0.00     0.124 S 
ATOM     81  O   UNL A   1      40.705  19.209  25.664  1.00  0.00    -0.237 OA
ATOM     82  O   UNL A   1      42.981  19.538  24.755  1.00  0.00    -0.237 OA
ATOM     83  O   UNL A   1      42.676  18.480  26.958  1.00  0.00    -0.744 OA
ENDBRANCH  79  80
ENDBRANCH  51  74
BRANCH  63  84
ATOM     84  C   UNL A   1      47.762  26.525  31.261  1.00  0.00    -0.014 A 
ATOM     85  C   UNL A   1      48.823  26.751  30.367  1.00  0.00     0.010 A 
ATOM     86  C   UNL A   1      48.028  25.915  32.500  1.00  0.00     0.010 A 
ATOM     87  C   UNL A   1      50.122  26.355  30.697  1.00  0.00     0.020 A 
ATOM     88  C   UNL A   1      49.329  25.546  32.847  1.00  0.00     0.020 A 
ATOM     89  C   UNL A   1      50.368  25.759  31.938  1.00  0.00     0.054 A 
BRANCH  89  90
ATOM     90  S   UNL A   1      52.072  25.314  32.366  1.00  0.00     0.124 S 
ATOM     91  O   UNL A   1      52.066  23.866  32.179  1.00  0.00    -0.237 OA
ATOM     92  O   UNL A   1      52.854  26.071  31.391  1.00  0.00    -0.237 OA
ATOM     93  O   UNL A   1      52.212  25.761  33.750  1.00  0.00    -0.744 OA
ENDBRANCH  89  90
ENDBRANCH  63  84
ENDBRANCH  37  38
ENDBRANCH  29  32
ENDBRANCH  27  28
ENDBRANCH   1  27
TORSDOF 18
ENDMDL
MODEL 2
REMARK VINA RESULT:     -10.7      1.369      2.116
REMARK SMILES CCC[C@H](CNC(=O)N1CCN2C(=O)NC[C@H]2C1)C(=O)NCCCNC(=O)c1ccc(-c2c3nc(c(-c4ccc(S(=O)(=O)[O-])cc4)c4ccc([nH]4)c(-c4ccc(S(=O)(=O)[O-])cc4)c4nc(c(-c5ccc(S(=O)(=O)[O-])cc5)c5ccc2[nH]5)C=C4)C=C3)cc1
REMARK SMILES IDX 23 1 22 2 21 3 19 4 20 5 4 7 3 8 2 9 1 10 5 11 6 12 7 13
REMARK SMILES IDX 8 15 9 16 10 17 18 18 11 19 17 20 12 21 16 22 13 23 15 24
REMARK SMILES IDX 14 25 24 27 25 28 26 29 27 31 28 32 29 33 87 34 30 35 86 36
REMARK SMILES IDX 31 37 32 38 33 39 80 40 34 41 85 42 79 43 81 44 35 45 84 46
REMARK SMILES IDX 78 47 77 48 36 50 66 51 47 52 65 53 48 54 51 55 64 56 82 57
REMARK SMILES IDX 49 58 50 59 63 61 83 62 52 63 37 64 38 65 46 66 39 67 45 68
REMARK SMILES IDX 40 69 41 70 42 71 43 72 44 73 67 74 68 75 76 76 69 77 75 78
REMARK SMILES IDX 70 79 71 80 72 81 73 82 74 83 53 84 54 85 62 86 55 87 61 88
REMARK SMILES IDX 56 89 57 90 58 91 59 92 60 93
REMARK H PARENT 21 6 6 14 15 26 25 30 81 49 51 60
REMARK Flexibility Score: inf
ROOT
ATOM      1  C   UNL A   1      32.382  28.190  26.377  1.00  0.00     0.042 C 
ENDROOT
BRANCH   1   2
ATOM      2  C   UNL A   1      32.474  29.060  25.134  1.00  0.00     0.117 C 
BRANCH   2   3
ATOM      3  N   UNL A   1      31.214  29.293  24.463  1.00  0.00    -0.356 N 
ATOM      4  C   UNL A   1      30.382  28.398  23.856  1.00  0.00     0.224 C 
ATOM      5  O   UNL A   1      29.249  28.782  23.555  1.00  0.00    -0.275 OA
ATOM      6  H   UNL A   1      30.916  30.230  24.441  1.00  0.00     0.163 HD
BRANCH   4   7
ATOM      7  C   UNL A   1      30.859  26.992  23.463  1.00  0.00     0.097 C 
BRANCH   7   8
ATOM      8  C   UNL A   1      31.423  26.909  22.025  1.00  0.00     0.015 C 
BRANCH   8   9
ATOM      9  C   UNL A   1      32.206  25.660  21.586  1.00  0.00    -0.003 C 
ATOM     10  C   UNL A   1      33.489  25.348  22.347  1.00  0.00     0.004 C 
ENDBRANCH   8   9
ENDBRANCH   7   8
BRANCH   7  11
ATOM     11  C   UNL A   1      29.772  26.011  23.908  1.00  0.00     0.131 C 
BRANCH  11  12
ATOM     12  N   UNL A   1      29.763  25.720  25.330  1.00  0.00    -0.337 N 
ATOM     13  C   UNL A   1      30.364  24.666  25.946  1.00  0.00     0.317 C 
ATOM     14  H   UNL A   1      29.272  26.348  25.906  1.00  0.00     0.165 HD
ATOM     15  O   UNL A   1      29.861  24.244  26.987  1.00  0.00    -0.249 OA
BRANCH  13  16
ATOM     16  N   UNL A   1      31.424  24.056  25.335  1.00  0.00    -0.321 N 
ATOM     17  C   UNL A   1      31.372  23.018  24.283  1.00  0.00     0.143 C 
ATOM     18  C   UNL A   1      32.782  24.421  25.751  1.00  0.00     0.148 C 
ATOM     19  C   UNL A   1      32.188  21.754  24.645  1.00  0.00     0.143 C 
ATOM     20  C   UNL A   1      33.405  23.166  26.355  1.00  0.00     0.125 C 
ATOM     21  N   UNL A   1      33.387  22.067  25.400  1.00  0.00    -0.317 N 
ATOM     22  C   UNL A   1      34.872  23.239  26.752  1.00  0.00     0.144 C 
ATOM     23  C   UNL A   1      34.492  21.253  25.567  1.00  0.00     0.317 C 
ATOM     24  N   UNL A   1      35.364  21.923  26.418  1.00  0.00    -0.336 N 
ATOM     25  O   UNL A   1      34.680  20.156  25.083  1.00  0.00    -0.249 OA
ATOM     26  H   UNL A   1      36.210  21.547  26.751  1.00  0.00     0.165 HD
ENDBRANCH  13  16
ENDBRANCH  11  12
ENDBRANCH   7  11
ENDBRANCH   4   7
ENDBRANCH   2   3
ENDBRANCH   1   2
BRANCH   1  27
ATOM     27  C   UNL A   1      33.383  28.574  27.455  1.00  0.00     0.118 C 
BRANCH  27  28
ATOM     28  N   UNL A   1      33.497  30.023  27.598  1.00  0.00    -0.352 N 
ATOM     29  C   UNL A   1      34.512  30.793  28.108  1.00  0.00     0.251 C 
ATOM     30  H   UNL A   1      32.718  30.530  27.275  1.00  0.00     0.163 HD
ATOM     31  O   UNL A   1      34.299  31.976  28.359  1.00  0.00    -0.269 OA
BRANCH  29  32
ATOM     32  C   UNL A   1      35.842  30.204  28.368  1.00  0.00     0.039 A 
ATOM     33  C   UNL A   1      36.796  30.204  27.346  1.00  0.00     0.014 A 
ATOM     34  C   UNL A   1      36.146  29.641  29.609  1.00  0.00     0.014 A 
ATOM     35  C   UNL A   1      38.079  29.717  27.600  1.00  0.00     0.010 A 
ATOM     36  C   UNL A   1      37.448  29.245  29.889  1.00  0.00     0.010 A 
ATOM     37  C   UNL A   1      38.429  29.282  28.889  1.00  0.00    -0.014 A 
BRANCH  37  38
ATOM     38  C   UNL A   1      39.821  28.897  29.225  1.00  0.00     0.031 A 
ATOM     39  C   UNL A   1      40.744  29.880  29.888  1.00  0.00     0.074 A 
ATOM     40  C   UNL A   1      40.275  27.684  28.852  1.00  0.00     0.049 A 
ATOM     41  N   UNL A   1      42.007  29.742  30.200  1.00  0.00    -0.248 NA
ATOM     42  C   UNL A   1      40.182  31.198  30.222  1.00  0.00     0.031 C 
ATOM     43  C   UNL A   1      39.483  26.655  28.172  1.00  0.00     0.029 A 
ATOM     44  N   UNL A   1      41.514  27.111  28.988  1.00  0.00    -0.354 N 
ATOM     45  C   UNL A   1      42.394  30.957  30.754  1.00  0.00     0.074 A 
ATOM     46  C   UNL A   1      41.248  31.836  30.681  1.00  0.00     0.031 C 
ATOM     47  C   UNL A   1      40.244  25.566  27.988  1.00  0.00     0.029 A 
ATOM     48  C   UNL A   1      41.590  25.836  28.482  1.00  0.00     0.049 A 
ATOM     49  H   UNL A   1      42.278  27.571  29.408  1.00  0.00     0.167 HD
ATOM     50  C   UNL A   1      43.590  31.303  31.289  1.00  0.00     0.031 A 
ATOM     51  C   UNL A   1      42.627  24.979  28.415  1.00  0.00     0.031 A 
ATOM     52  C   UNL A   1      44.731  30.428  31.338  1.00  0.00     0.049 A 
ATOM     53  C   UNL A   1      43.960  25.403  28.963  1.00  0.00     0.074 A 
ATOM     54  C   UNL A   1      45.974  30.661  31.901  1.00  0.00     0.029 A 
ATOM     55  N   UNL A   1      44.775  29.154  30.788  1.00  0.00    -0.354 N 
ATOM     56  N   UNL A   1      44.288  26.529  29.552  1.00  0.00    -0.248 NA
ATOM     57  C   UNL A   1      45.062  24.441  28.838  1.00  0.00     0.031 C 
ATOM     58  C   UNL A   1      46.790  29.558  31.628  1.00  0.00     0.029 A 
ATOM     59  C   UNL A   1      46.036  28.607  30.958  1.00  0.00     0.049 A 
ATOM     60  H   UNL A   1      44.021  28.705  30.340  1.00  0.00     0.167 HD
ATOM     61  C   UNL A   1      45.630  26.404  29.886  1.00  0.00     0.074 A 
ATOM     62  C   UNL A   1      46.048  25.085  29.450  1.00  0.00     0.031 C 
ATOM     63  C   UNL A   1      46.443  27.299  30.501  1.00  0.00     0.031 A 
BRANCH  50  64
ATOM     64  C   UNL A   1      43.721  32.704  31.836  1.00  0.00    -0.014 A 
ATOM     65  C   UNL A   1      43.497  32.981  33.198  1.00  0.00     0.010 A 
ATOM     66  C   UNL A   1      44.069  33.762  30.977  1.00  0.00     0.010 A 
ATOM     67  C   UNL A   1      43.546  34.294  33.674  1.00  0.00     0.020 A 
ATOM     68  C   UNL A   1      44.155  35.073  31.455  1.00  0.00     0.020 A 
ATOM     69  C   UNL A   1      43.866  35.333  32.796  1.00  0.00     0.054 A 
BRANCH  69  70
ATOM     70  S   UNL A   1      43.899  37.030  33.436  1.00  0.00     0.124 S 
ATOM     71  O   UNL A   1      42.763  37.027  34.354  1.00  0.00    -0.237 OA
ATOM     72  O   UNL A   1      45.214  37.109  34.067  1.00  0.00    -0.237 OA
ATOM     73  O   UNL A   1      43.734  37.855  32.242  1.00  0.00    -0.744 OA
ENDBRANCH  69  70
ENDBRANCH  50  64
BRANCH  51  74
ATOM     74  C   UNL A   1      42.425  23.627  27.828  1.00  0.00    -0.014 A 
ATOM     75  C   UNL A   1      42.661  23.410  26.459  1.00  0.00     0.010 A 
ATOM     76  C   UNL A   1      42.053  22.539  28.639  1.00  0.00     0.010 A 
ATOM     77  C   UNL A   1      42.534  22.130  25.914  1.00  0.00     0.020 A 
ATOM     78  C   UNL A   1      41.953  21.252  28.102  1.00  0.00     0.020 A 
ATOM     79  C   UNL A   1      42.193  21.057  26.742  1.00  0.00     0.054 A 
BRANCH  79  80
ATOM     80  S   UNL A   1      42.126  19.391  26.025  1.00  0.00     0.124 S 
ATOM     81  O   UNL A   1      42.673  18.573  27.102  1.00  0.00    -0.237 OA
ATOM     82  O   UNL A   1      40.699  19.221  25.762  1.00  0.00    -0.237 OA
ATOM     83  O   UNL A   1      42.963  19.499  24.832  1.00  0.00    -0.744 OA
ENDBRANCH  79  80
ENDBRANCH  51  74
BRANCH  63  84
ATOM     84  C   UNL A   1      47.870  26.882  30.749  1.00  0.00    -0.014 A 
ATOM     85  C   UNL A   1      48.889  27.201  29.834  1.00  0.00     0.010 A 
ATOM     86  C   UNL A   1      48.205  26.222  31.945  1.00  0.00     0.010 A 
ATOM     87  C   UNL A   1      50.214  26.847  30.101  1.00  0.00     0.020 A 
ATOM     88  C   UNL A   1      49.532  25.894  32.230  1.00  0.00     0.020 A 
ATOM     89  C   UNL A   1      50.529  26.200  31.301  1.00  0.00     0.054 A 
BRANCH  89  90
ATOM     90  S   UNL A   1      52.265  25.811  31.649  1.00  0.00     0.124 S 
ATOM     91  O   UNL A   1      52.579  26.751  32.722  1.00  0.00    -0.237 OA
ATOM     92  O   UNL A   1      52.203  24.405  32.044  1.00  0.00    -0.237 OA
ATOM     93  O   UNL A   1      52.940  26.066  30.380  1.00  0.00    -0.744 OA
ENDBRANCH  89  90
ENDBRANCH  63  84
ENDBRANCH  37  38
ENDBRANCH  29  32
ENDBRANCH  27  28
ENDBRANCH   1  27
TORSDOF 18
ENDMDL
MODEL 3
REMARK VINA RESULT:     -10.5      1.113      8.249
REMARK SMILES CCC[C@H](CNC(=O)N1CCN2C(=O)NC[C@H]2C1)C(=O)NCCCNC(=O)c1ccc(-c2c3nc(c(-c4ccc(S(=O)(=O)[O-])cc4)c4ccc([nH]4)c(-c4ccc(S(=O)(=O)[O-])cc4)c4nc(c(-c5ccc(S(=O)(=O)[O-])cc5)c5ccc2[nH]5)C=C4)C=C3)cc1
REMARK SMILES IDX 23 1 22 2 21 3 19 4 20 5 4 7 3 8 2 9 1 10 5 11 6 12 7 13
REMARK SMILES IDX 8 15 9 16 10 17 18 18 11 19 17 20 12 21 16 22 13 23 15 24
REMARK SMILES IDX 14 25 24 27 25 28 26 29 27 31 28 32 29 33 87 34 30 35 86 36
REMARK SMILES IDX 31 37 32 38 33 39 80 40 34 41 85 42 79 43 81 44 35 45 84 46
REMARK SMILES IDX 78 47 77 48 36 50 66 51 47 52 65 53 48 54 51 55 64 56 82 57
REMARK SMILES IDX 49 58 50 59 63 61 83 62 52 63 37 64 38 65 46 66 39 67 45 68
REMARK SMILES IDX 40 69 41 70 42 71 43 72 44 73 67 74 68 75 76 76 69 77 75 78
REMARK SMILES IDX 70 79 71 80 72 81 73 82 74 83 53 84 54 85 62 86 55 87 61 88
REMARK SMILES IDX 56 89 57 90 58 91 59 92 60 93
REMARK H PARENT 21 6 6 14 15 26 25 30 81 49 51 60
REMARK Flexibility Score: inf
ROOT
ATOM      1  C   UNL A   1      33.450  27.631  26.626  1.00  0.00     0.042 C 
ENDROOT
BRANCH   1   2
ATOM      2  C   UNL A   1      31.951  27.610  26.371  1.00  0.00     0.117 C 
BRANCH   2   3
ATOM      3  N   UNL A   1      31.276  26.414  26.824  1.00  0.00    -0.356 N 
ATOM      4  C   UNL A   1      31.120  25.218  26.186  1.00  0.00     0.224 C 
ATOM      5  O   UNL A   1      30.714  24.261  26.851  1.00  0.00    -0.275 OA
ATOM      6  H   UNL A   1      30.871  26.472  27.719  1.00  0.00     0.163 HD
BRANCH   4   7
ATOM      7  C   UNL A   1      31.340  25.077  24.672  1.00  0.00     0.097 C 
BRANCH   7   8
ATOM      8  C   UNL A   1      30.043  25.222  23.842  1.00  0.00     0.015 C 
BRANCH   8   9
ATOM      9  C   UNL A   1      29.236  26.529  23.913  1.00  0.00    -0.003 C 
ATOM     10  C   UNL A   1      29.851  27.756  23.248  1.00  0.00     0.004 C 
ENDBRANCH   8   9
ENDBRANCH   7   8
BRANCH   7  11
ATOM     11  C   UNL A   1      32.240  23.856  24.464  1.00  0.00     0.131 C 
BRANCH  11  12
ATOM     12  N   UNL A   1      31.620  22.585  24.787  1.00  0.00    -0.337 N 
ATOM     13  C   UNL A   1      32.256  21.445  25.171  1.00  0.00     0.317 C 
ATOM     14  H   UNL A   1      30.639  22.542  24.721  1.00  0.00     0.165 HD
ATOM     15  O   UNL A   1      31.728  20.368  24.894  1.00  0.00    -0.249 OA
BRANCH  13  16
ATOM     16  N   UNL A   1      33.495  21.537  25.744  1.00  0.00    -0.321 N 
ATOM     17  C   UNL A   1      33.830  22.135  27.053  1.00  0.00     0.143 C 
ATOM     18  C   UNL A   1      34.651  21.017  25.007  1.00  0.00     0.148 C 
ATOM     19  C   UNL A   1      34.940  23.210  26.957  1.00  0.00     0.143 C 
ATOM     20  C   UNL A   1      35.554  22.212  24.714  1.00  0.00     0.125 C 
ATOM     21  N   UNL A   1      35.931  22.891  25.945  1.00  0.00    -0.317 N 
ATOM     22  C   UNL A   1      36.899  21.925  24.065  1.00  0.00     0.144 C 
ATOM     23  C   UNL A   1      37.205  23.421  25.844  1.00  0.00     0.317 C 
ATOM     24  N   UNL A   1      37.773  22.889  24.692  1.00  0.00    -0.336 N 
ATOM     25  O   UNL A   1      37.738  24.207  26.598  1.00  0.00    -0.249 OA
ATOM     26  H   UNL A   1      38.660  23.139  24.347  1.00  0.00     0.165 HD
ENDBRANCH  13  16
ENDBRANCH  11  12
ENDBRANCH   7  11
ENDBRANCH   4   7
ENDBRANCH   2   3
ENDBRANCH   1   2
BRANCH   1  27
ATOM     27  C   UNL A   1      34.148  28.834  26.012  1.00  0.00     0.118 C 
BRANCH  27  28
ATOM     28  N   UNL A   1      33.945  30.042  26.808  1.00  0.00    -0.352 N 
ATOM     29  C   UNL A   1      34.685  30.568  27.837  1.00  0.00     0.251 C 
ATOM     30  H   UNL A   1      33.148  30.565  26.565  1.00  0.00     0.163 HD
ATOM     31  O   UNL A   1      34.202  31.461  28.528  1.00  0.00    -0.269 OA
BRANCH  29  32
ATOM     32  C   UNL A   1      36.041  30.056  28.123  1.00  0.00     0.039 A 
ATOM     33  C   UNL A   1      37.017  30.123  27.124  1.00  0.00     0.014 A 
ATOM     34  C   UNL A   1      36.349  29.499  29.366  1.00  0.00     0.014 A 
ATOM     35  C   UNL A   1      38.321  29.710  27.405  1.00  0.00     0.010 A 
ATOM     36  C   UNL A   1      37.665  29.178  29.674  1.00  0.00     0.010 A 
ATOM     37  C   UNL A   1      38.666  29.283  28.697  1.00  0.00    -0.014 A 
BRANCH  37  38
ATOM     38  C   UNL A   1      40.071  28.978  29.064  1.00  0.00     0.031 A 
ATOM     39  C   UNL A   1      40.668  27.638  28.738  1.00  0.00     0.074 A 
ATOM     40  C   UNL A   1      40.777  29.884  29.767  1.00  0.00     0.049 A 
ATOM     41  N   UNL A   1      41.854  27.172  29.034  1.00  0.00    -0.248 NA
ATOM     42  C   UNL A   1      39.814  26.689  28.007  1.00  0.00     0.031 C 
ATOM     43  C   UNL A   1      40.294  31.207  30.171  1.00  0.00     0.029 A 
ATOM     44  N   UNL A   1      42.052  29.830  30.271  1.00  0.00    -0.354 N 
ATOM     45  C   UNL A   1      41.885  25.874  28.539  1.00  0.00     0.074 A 
ATOM     46  C   UNL A   1      40.578  25.608  27.976  1.00  0.00     0.031 C 
ATOM     47  C   UNL A   1      41.272  31.852  30.824  1.00  0.00     0.029 A 
ATOM     48  C   UNL A   1      42.430  30.972  30.936  1.00  0.00     0.049 A 
ATOM     49  H   UNL A   1      42.640  29.046  30.166  1.00  0.00     0.167 HD
ATOM     50  C   UNL A   1      42.911  24.989  28.537  1.00  0.00     0.031 A 
ATOM     51  C   UNL A   1      43.577  31.276  31.572  1.00  0.00     0.031 A 
ATOM     52  C   UNL A   1      44.200  25.255  29.119  1.00  0.00     0.049 A 
ATOM     53  C   UNL A   1      44.683  30.260  31.608  1.00  0.00     0.074 A 
ATOM     54  C   UNL A   1      45.324  24.448  29.130  1.00  0.00     0.029 A 
ATOM     55  N   UNL A   1      44.533  26.413  29.809  1.00  0.00    -0.354 N 
ATOM     56  N   UNL A   1      44.722  29.065  31.068  1.00  0.00    -0.248 NA
ATOM     57  C   UNL A   1      45.900  30.634  32.340  1.00  0.00     0.031 C 
ATOM     58  C   UNL A   1      46.312  25.087  29.888  1.00  0.00     0.029 A 
ATOM     59  C   UNL A   1      45.830  26.324  30.289  1.00  0.00     0.049 A 
ATOM     60  H   UNL A   1      43.935  27.185  29.940  1.00  0.00     0.167 HD
ATOM     61  C   UNL A   1      45.975  28.551  31.378  1.00  0.00     0.074 A 
ATOM     62  C   UNL A   1      46.670  29.573  32.136  1.00  0.00     0.031 C 
ATOM     63  C   UNL A   1      46.502  27.343  31.059  1.00  0.00     0.031 A 
BRANCH  50  64
ATOM     64  C   UNL A   1      42.659  23.641  27.909  1.00  0.00    -0.014 A 
ATOM     65  C   UNL A   1      42.196  22.553  28.674  1.00  0.00     0.010 A 
ATOM     66  C   UNL A   1      42.892  23.453  26.535  1.00  0.00     0.010 A 
ATOM     67  C   UNL A   1      42.041  21.291  28.094  1.00  0.00     0.020 A 
ATOM     68  C   UNL A   1      42.704  22.200  25.943  1.00  0.00     0.020 A 
ATOM     69  C   UNL A   1      42.306  21.121  26.733  1.00  0.00     0.054 A 
BRANCH  69  70
ATOM     70  S   UNL A   1      42.119  19.467  26.013  1.00  0.00     0.124 S 
ATOM     71  O   UNL A   1      42.621  18.614  27.087  1.00  0.00    -0.237 OA
ATOM     72  O   UNL A   1      40.682  19.385  25.766  1.00  0.00    -0.237 OA
ATOM     73  O   UNL A   1      42.952  19.513  24.814  1.00  0.00    -0.744 OA
ENDBRANCH  69  70
ENDBRANCH  50  64
BRANCH  51  74
ATOM     74  C   UNL A   1      43.735  32.617  32.199  1.00  0.00    -0.014 A 
ATOM     75  C   UNL A   1      44.193  33.704  31.434  1.00  0.00     0.010 A 
ATOM     76  C   UNL A   1      43.376  32.829  33.543  1.00  0.00     0.010 A 
ATOM     77  C   UNL A   1      44.284  34.978  31.999  1.00  0.00     0.020 A 
ATOM     78  C   UNL A   1      43.439  34.108  34.103  1.00  0.00     0.020 A 
ATOM     79  C   UNL A   1      43.895  35.174  33.328  1.00  0.00     0.054 A 
BRANCH  79  80
ATOM     80  S   UNL A   1      43.937  36.856  34.008  1.00  0.00     0.124 S 
ATOM     81  O   UNL A   1      45.368  37.080  34.181  1.00  0.00    -0.237 OA
ATOM     82  O   UNL A   1      43.295  37.636  32.953  1.00  0.00    -0.237 OA
ATOM     83  O   UNL A   1      43.166  36.743  35.245  1.00  0.00    -0.744 OA
ENDBRANCH  79  80
ENDBRANCH  51  74
BRANCH  63  84
ATOM     84  C   UNL A   1      47.907  27.056  31.524  1.00  0.00    -0.014 A 
ATOM     85  C   UNL A   1      48.150  26.410  32.749  1.00  0.00     0.010 A 
ATOM     86  C   UNL A   1      48.995  27.380  30.693  1.00  0.00     0.010 A 
ATOM     87  C   UNL A   1      49.457  26.111  33.143  1.00  0.00     0.020 A 
ATOM     88  C   UNL A   1      50.300  27.055  31.069  1.00  0.00     0.020 A 
ATOM     89  C   UNL A   1      50.524  26.431  32.298  1.00  0.00     0.054 A 
BRANCH  89  90
ATOM     90  S   UNL A   1      52.203  25.974  32.807  1.00  0.00     0.124 S 
ATOM     91  O   UNL A   1      52.976  27.143  32.394  1.00  0.00    -0.237 OA
ATOM     92  O   UNL A   1      52.061  25.792  34.249  1.00  0.00    -0.237 OA
ATOM     93  O   UNL A   1      52.475  24.752  32.054  1.00  0.00    -0.744 OA
ENDBRANCH  89  90
ENDBRANCH  63  84
ENDBRANCH  37  38
ENDBRANCH  29  32
ENDBRANCH  27  28
ENDBRANCH   1  27
TORSDOF 18
ENDMDL
