MODEL 1
REMARK VINA RESULT:     -10.4      0.000      0.000
REMARK SMILES C[N@H+](CC(=O)NCCCNC(=O)c1ccc(-c2c3nc(c(-c4ccc(S(=O)(=O)[O-])cc4)c4ccc([nH]4)c(-c4ccc(S(=O)(=O)[O-])cc4)c4nc(c(-c5ccc(S(=O)(=O)[O-])cc5)c5ccc2[nH]5)C=C4)C=C3)cc1)Cc1cccc2c1OCCO2
REMARK SMILES IDX 8 1 7 2 6 3 4 4 5 5 3 7 2 8 1 9 73 11 74 12 75 13 79 14
REMARK SMILES IDX 76 15 78 16 80 17 77 18 83 19 81 20 82 21 9 22 10 23 11 24
REMARK SMILES IDX 12 26 13 27 14 28 72 29 15 30 71 31 16 32 17 33 18 34 65 35
REMARK SMILES IDX 19 36 70 37 64 38 66 39 20 40 69 41 63 42 62 43 21 45 51 46
REMARK SMILES IDX 32 47 50 48 33 49 36 50 49 51 67 52 34 53 35 54 48 56 68 57
REMARK SMILES IDX 37 58 22 59 23 60 31 61 24 62 30 63 25 64 26 65 27 66 28 67
REMARK SMILES IDX 29 68 52 69 53 70 61 71 54 72 60 73 55 74 56 75 57 76 58 77
REMARK SMILES IDX 59 78 38 79 39 80 47 81 40 82 46 83 41 84 42 85 43 86 44 87
REMARK SMILES IDX 45 88
REMARK H PARENT 6 6 2 10 10 25 66 44 36 55
REMARK Flexibility Score: inf
ROOT
ATOM      1  C   UNL A   1      33.616  27.759  25.712  1.00  0.00     0.042 C 
ENDROOT
BRANCH   1   2
ATOM      2  C   UNL A   1      32.325  27.802  24.899  1.00  0.00     0.118 C 
BRANCH   2   3
ATOM      3  N   UNL A   1      31.220  27.081  25.505  1.00  0.00    -0.351 N 
ATOM      4  C   UNL A   1      31.112  25.752  25.813  1.00  0.00     0.275 C 
ATOM      5  O   UNL A   1      30.162  25.395  26.518  1.00  0.00    -0.269 OA
ATOM      6  H   UNL A   1      30.433  27.629  25.730  1.00  0.00     0.163 HD
BRANCH   4   7
ATOM      7  C   UNL A   1      32.169  24.747  25.339  1.00  0.00     0.363 C 
BRANCH   7   8
ATOM      8  N   UNL A   1      31.844  24.220  24.021  1.00  0.00    -0.326 N 
ATOM      9  C   UNL A   1      30.494  24.341  23.531  1.00  0.00     0.333 C 
ATOM     10  H   UNL A   1      31.811  23.255  24.350  1.00  0.00     0.348 HD
BRANCH   8  11
ATOM     11  C   UNL A   1      32.899  24.076  23.028  1.00  0.00     0.303 C 
BRANCH  11  12
ATOM     12  C   UNL A   1      34.014  23.180  23.513  1.00  0.00     0.052 A 
ATOM     13  C   UNL A   1      35.324  23.687  23.586  1.00  0.00     0.014 A 
ATOM     14  C   UNL A   1      33.770  21.874  23.967  1.00  0.00     0.170 A 
ATOM     15  C   UNL A   1      36.351  22.940  24.161  1.00  0.00     0.005 A 
ATOM     16  C   UNL A   1      34.811  21.123  24.529  1.00  0.00     0.161 A 
ATOM     17  O   UNL A   1      32.497  21.376  23.824  1.00  0.00    -0.486 OA
ATOM     18  C   UNL A   1      36.090  21.663  24.650  1.00  0.00     0.050 A 
ATOM     19  O   UNL A   1      34.645  19.846  25.000  1.00  0.00    -0.486 OA
ATOM     20  C   UNL A   1      32.296  20.132  24.503  1.00  0.00     0.271 C 
ATOM     21  C   UNL A   1      33.510  19.230  24.384  1.00  0.00     0.271 C 
ENDBRANCH  11  12
ENDBRANCH   8  11
ENDBRANCH   7   8
ENDBRANCH   4   7
ENDBRANCH   2   3
ENDBRANCH   1   2
BRANCH   1  22
ATOM     22  C   UNL A   1      33.472  28.155  27.177  1.00  0.00     0.118 C 
BRANCH  22  23
ATOM     23  N   UNL A   1      33.409  29.597  27.370  1.00  0.00    -0.352 N 
ATOM     24  C   UNL A   1      34.331  30.483  27.873  1.00  0.00     0.251 C 
ATOM     25  H   UNL A   1      32.559  30.008  27.091  1.00  0.00     0.163 HD
ATOM     26  O   UNL A   1      33.971  31.639  28.097  1.00  0.00    -0.269 OA
BRANCH  24  27
ATOM     27  C   UNL A   1      35.732  30.088  28.175  1.00  0.00     0.039 A 
ATOM     28  C   UNL A   1      36.039  29.688  29.482  1.00  0.00     0.014 A 
ATOM     29  C   UNL A   1      36.761  30.181  27.235  1.00  0.00     0.014 A 
ATOM     30  C   UNL A   1      37.350  29.337  29.828  1.00  0.00     0.010 A 
ATOM     31  C   UNL A   1      38.056  29.764  27.561  1.00  0.00     0.010 A 
ATOM     32  C   UNL A   1      38.370  29.347  28.864  1.00  0.00    -0.014 A 
BRANCH  32  33
ATOM     33  C   UNL A   1      39.762  28.948  29.214  1.00  0.00     0.031 A 
ATOM     34  C   UNL A   1      40.685  29.913  29.914  1.00  0.00     0.074 A 
ATOM     35  C   UNL A   1      40.217  27.726  28.873  1.00  0.00     0.049 A 
ATOM     36  N   UNL A   1      41.936  29.750  30.265  1.00  0.00    -0.248 NA
ATOM     37  C   UNL A   1      40.140  31.240  30.242  1.00  0.00     0.031 C 
ATOM     38  C   UNL A   1      39.447  26.699  28.168  1.00  0.00     0.029 A 
ATOM     39  N   UNL A   1      41.444  27.140  29.072  1.00  0.00    -0.354 N 
ATOM     40  C   UNL A   1      42.332  30.955  30.836  1.00  0.00     0.074 A 
ATOM     41  C   UNL A   1      41.201  31.852  30.748  1.00  0.00     0.031 C 
ATOM     42  C   UNL A   1      40.210  25.605  28.013  1.00  0.00     0.029 A 
ATOM     43  C   UNL A   1      41.533  25.860  28.576  1.00  0.00     0.049 A 
ATOM     44  H   UNL A   1      42.190  27.593  29.528  1.00  0.00     0.167 HD
ATOM     45  C   UNL A   1      43.522  31.284  31.398  1.00  0.00     0.031 A 
ATOM     46  C   UNL A   1      42.560  24.986  28.568  1.00  0.00     0.031 A 
ATOM     47  C   UNL A   1      44.645  30.391  31.509  1.00  0.00     0.049 A 
ATOM     48  C   UNL A   1      43.868  25.370  29.202  1.00  0.00     0.074 A 
ATOM     49  C   UNL A   1      45.868  30.621  32.117  1.00  0.00     0.029 A 
ATOM     50  N   UNL A   1      44.687  29.102  31.004  1.00  0.00    -0.354 N 
ATOM     51  N   UNL A   1      44.199  26.495  29.788  1.00  0.00    -0.248 NA
ATOM     52  C   UNL A   1      44.937  24.361  29.183  1.00  0.00     0.031 C 
ATOM     53  C   UNL A   1      46.664  29.483  31.941  1.00  0.00     0.029 A 
ATOM     54  C   UNL A   1      45.921  28.530  31.266  1.00  0.00     0.049 A 
ATOM     55  H   UNL A   1      43.948  28.657  30.528  1.00  0.00     0.167 HD
ATOM     56  C   UNL A   1      45.508  26.321  30.228  1.00  0.00     0.074 A 
ATOM     57  C   UNL A   1      45.903  24.980  29.852  1.00  0.00     0.031 C 
ATOM     58  C   UNL A   1      46.308  27.196  30.885  1.00  0.00     0.031 A 
BRANCH  45  59
ATOM     59  C   UNL A   1      43.672  32.683  31.933  1.00  0.00    -0.014 A 
ATOM     60  C   UNL A   1      43.315  32.997  33.257  1.00  0.00     0.010 A 
ATOM     61  C   UNL A   1      44.214  33.690  31.112  1.00  0.00     0.010 A 
ATOM     62  C   UNL A   1      43.453  34.302  33.736  1.00  0.00     0.020 A 
ATOM     63  C   UNL A   1      44.378  34.991  31.598  1.00  0.00     0.020 A 
ATOM     64  C   UNL A   1      43.977  35.293  32.901  1.00  0.00     0.054 A 
BRANCH  64  65
ATOM     65  S   UNL A   1      44.158  36.977  33.552  1.00  0.00     0.124 S 
ATOM     66  O   UNL A   1      45.594  37.051  33.798  1.00  0.00    -0.237 OA
ATOM     67  O   UNL A   1      43.666  37.802  32.452  1.00  0.00    -0.237 OA
ATOM     68  O   UNL A   1      43.319  36.976  34.749  1.00  0.00    -0.744 OA
ENDBRANCH  64  65
ENDBRANCH  45  59
BRANCH  46  69
ATOM     69  C   UNL A   1      42.384  23.647  27.944  1.00  0.00    -0.014 A 
ATOM     70  C   UNL A   1      42.721  23.439  26.594  1.00  0.00     0.010 A 
ATOM     71  C   UNL A   1      41.895  22.569  28.703  1.00  0.00     0.010 A 
ATOM     72  C   UNL A   1      42.562  22.179  26.013  1.00  0.00     0.020 A 
ATOM     73  C   UNL A   1      41.758  21.302  28.131  1.00  0.00     0.020 A 
ATOM     74  C   UNL A   1      42.084  21.117  26.785  1.00  0.00     0.054 A 
BRANCH  74  75
ATOM     75  S   UNL A   1      41.949  19.472  26.031  1.00  0.00     0.124 S 
ATOM     76  O   UNL A   1      42.788  19.612  24.847  1.00  0.00    -0.237 OA
ATOM     77  O   UNL A   1      42.470  18.598  27.079  1.00  0.00    -0.237 OA
ATOM     78  O   UNL A   1      40.517  19.334  25.773  1.00  0.00    -0.744 OA
ENDBRANCH  74  75
ENDBRANCH  46  69
BRANCH  58  79
ATOM     79  C   UNL A   1      47.687  26.727  31.264  1.00  0.00    -0.014 A 
ATOM     80  C   UNL A   1      47.950  26.200  32.541  1.00  0.00     0.010 A 
ATOM     81  C   UNL A   1      48.721  26.765  30.311  1.00  0.00     0.010 A 
ATOM     82  C   UNL A   1      49.231  25.744  32.866  1.00  0.00     0.020 A 
ATOM     83  C   UNL A   1      49.996  26.289  30.624  1.00  0.00     0.020 A 
ATOM     84  C   UNL A   1      50.248  25.794  31.906  1.00  0.00     0.054 A 
BRANCH  84  85
ATOM     85  S   UNL A   1      51.891  25.158  32.336  1.00  0.00     0.124 S 
ATOM     86  O   UNL A   1      52.739  25.809  31.343  1.00  0.00    -0.237 OA
ATOM     87  O   UNL A   1      52.066  25.619  33.712  1.00  0.00    -0.237 OA
ATOM     88  O   UNL A   1      51.751  23.711  32.187  1.00  0.00    -0.744 OA
ENDBRANCH  84  85
ENDBRANCH  58  79
ENDBRANCH  32  33
ENDBRANCH  24  27
ENDBRANCH  22  23
ENDBRANCH   1  22
TORSDOF 16
ENDMDL
MODEL 2
REMARK VINA RESULT:     -10.3      5.055      7.563
REMARK SMILES C[N@H+](CC(=O)NCCCNC(=O)c1ccc(-c2c3nc(c(-c4ccc(S(=O)(=O)[O-])cc4)c4ccc([nH]4)c(-c4ccc(S(=O)(=O)[O-])cc4)c4nc(c(-c5ccc(S(=O)(=O)[O-])cc5)c5ccc2[nH]5)C=C4)C=C3)cc1)Cc1cccc2c1OCCO2
REMARK SMILES IDX 8 1 7 2 6 3 4 4 5 5 3 7 2 8 1 9 73 11 74 12 75 13 79 14
REMARK SMILES IDX 76 15 78 16 80 17 77 18 83 19 81 20 82 21 9 22 10 23 11 24
REMARK SMILES IDX 12 26 13 27 14 28 72 29 15 30 71 31 16 32 17 33 18 34 65 35
REMARK SMILES IDX 19 36 70 37 64 38 66 39 20 40 69 41 63 42 62 43 21 45 51 46
REMARK SMILES IDX 32 47 50 48 33 49 36 50 49 51 67 52 34 53 35 54 48 56 68 57
REMARK SMILES IDX 37 58 22 59 23 60 31 61 24 62 30 63 25 64 26 65 27 66 28 67
REMARK SMILES IDX 29 68 52 69 53 70 61 71 54 72 60 73 55 74 56 75 57 76 58 77
REMARK SMILES IDX 59 78 38 79 39 80 47 81 40 82 46 83 41 84 42 85 43 86 44 87
REMARK SMILES IDX 45 88
REMARK H PARENT 6 6 2 10 10 25 66 44 36 55
REMARK Flexibility Score: inf
ROOT
ATOM      1  C   UNL A   1      34.306  32.364  28.247  1.00  0.00     0.042 C 
ENDROOT
BRANCH   1   2
ATOM      2  C   UNL A   1      34.597  33.862  28.224  1.00  0.00     0.118 C 
BRANCH   2   3
ATOM      3  N   UNL A   1      33.408  34.695  28.247  1.00  0.00    -0.351 N 
ATOM      4  C   UNL A   1      33.106  35.758  29.053  1.00  0.00     0.275 C 
ATOM      5  O   UNL A   1      32.127  36.452  28.756  1.00  0.00    -0.269 OA
ATOM      6  H   UNL A   1      32.717  34.460  27.585  1.00  0.00     0.163 HD
BRANCH   4   7
ATOM      7  C   UNL A   1      33.990  36.109  30.257  1.00  0.00     0.363 C 
BRANCH   7   8
ATOM      8  N   UNL A   1      33.574  35.379  31.446  1.00  0.00    -0.326 N 
ATOM      9  C   UNL A   1      32.335  35.734  32.091  1.00  0.00     0.333 C 
ATOM     10  H   UNL A   1      34.222  35.882  32.054  1.00  0.00     0.348 HD
BRANCH   8  11
ATOM     11  C   UNL A   1      34.073  34.029  31.668  1.00  0.00     0.303 C 
BRANCH  11  12
ATOM     12  C   UNL A   1      35.214  34.002  32.657  1.00  0.00     0.052 A 
ATOM     13  C   UNL A   1      34.931  33.997  34.035  1.00  0.00     0.014 A 
ATOM     14  C   UNL A   1      36.552  33.904  32.242  1.00  0.00     0.170 A 
ATOM     15  C   UNL A   1      35.948  33.830  34.975  1.00  0.00     0.005 A 
ATOM     16  C   UNL A   1      37.569  33.752  33.193  1.00  0.00     0.161 A 
ATOM     17  O   UNL A   1      36.808  33.978  30.894  1.00  0.00    -0.486 OA
ATOM     18  C   UNL A   1      37.267  33.688  34.552  1.00  0.00     0.050 A 
ATOM     19  O   UNL A   1      38.896  33.642  32.861  1.00  0.00    -0.486 OA
ATOM     20  C   UNL A   1      38.162  33.657  30.557  1.00  0.00     0.271 C 
ATOM     21  C   UNL A   1      39.137  34.218  31.574  1.00  0.00     0.271 C 
ENDBRANCH  11  12
ENDBRANCH   8  11
ENDBRANCH   7   8
ENDBRANCH   4   7
ENDBRANCH   2   3
ENDBRANCH   1   2
BRANCH   1  22
ATOM     22  C   UNL A   1      35.490  31.480  28.627  1.00  0.00     0.118 C 
BRANCH  22  23
ATOM     23  N   UNL A   1      35.513  31.144  30.044  1.00  0.00    -0.352 N 
ATOM     24  C   UNL A   1      36.444  30.472  30.798  1.00  0.00     0.251 C 
ATOM     25  H   UNL A   1      34.725  31.451  30.548  1.00  0.00     0.163 HD
ATOM     26  O   UNL A   1      36.149  30.160  31.952  1.00  0.00    -0.269 OA
BRANCH  24  27
ATOM     27  C   UNL A   1      37.778  30.091  30.262  1.00  0.00     0.039 A 
ATOM     28  C   UNL A   1      38.795  29.786  31.176  1.00  0.00     0.014 A 
ATOM     29  C   UNL A   1      38.075  30.108  28.897  1.00  0.00     0.014 A 
ATOM     30  C   UNL A   1      40.079  29.454  30.725  1.00  0.00     0.010 A 
ATOM     31  C   UNL A   1      39.336  29.708  28.443  1.00  0.00     0.010 A 
ATOM     32  C   UNL A   1      40.357  29.386  29.351  1.00  0.00    -0.014 A 
BRANCH  32  33
ATOM     33  C   UNL A   1      41.711  29.005  28.859  1.00  0.00     0.031 A 
ATOM     34  C   UNL A   1      42.811  30.032  28.764  1.00  0.00     0.074 A 
ATOM     35  C   UNL A   1      41.951  27.739  28.461  1.00  0.00     0.049 A 
ATOM     36  N   UNL A   1      44.038  29.888  28.328  1.00  0.00    -0.248 NA
ATOM     37  C   UNL A   1      42.486  31.401  29.192  1.00  0.00     0.031 C 
ATOM     38  C   UNL A   1      40.974  26.648  28.469  1.00  0.00     0.029 A 
ATOM     39  N   UNL A   1      43.093  27.157  27.967  1.00  0.00    -0.354 N 
ATOM     40  C   UNL A   1      44.622  31.147  28.412  1.00  0.00     0.074 A 
ATOM     41  C   UNL A   1      43.604  32.050  28.902  1.00  0.00     0.031 C 
ATOM     42  C   UNL A   1      41.564  25.526  28.024  1.00  0.00     0.029 A 
ATOM     43  C   UNL A   1      42.949  25.823  27.667  1.00  0.00     0.049 A 
ATOM     44  H   UNL A   1      43.937  27.649  27.840  1.00  0.00     0.167 HD
ATOM     45  C   UNL A   1      45.894  31.519  28.124  1.00  0.00     0.031 A 
ATOM     46  C   UNL A   1      43.825  24.933  27.159  1.00  0.00     0.031 A 
ATOM     47  C   UNL A   1      46.919  30.624  27.657  1.00  0.00     0.049 A 
ATOM     48  C   UNL A   1      45.233  25.367  26.853  1.00  0.00     0.074 A 
ATOM     49  C   UNL A   1      48.251  30.903  27.397  1.00  0.00     0.029 A 
ATOM     50  N   UNL A   1      46.733  29.280  27.378  1.00  0.00    -0.354 N 
ATOM     51  N   UNL A   1      45.778  26.550  26.996  1.00  0.00    -0.248 NA
ATOM     52  C   UNL A   1      46.144  24.341  26.327  1.00  0.00     0.031 C 
ATOM     53  C   UNL A   1      48.858  29.736  26.921  1.00  0.00     0.029 A 
ATOM     54  C   UNL A   1      47.917  28.720  26.929  1.00  0.00     0.049 A 
ATOM     55  H   UNL A   1      45.882  28.794  27.484  1.00  0.00     0.167 HD
ATOM     56  C   UNL A   1      47.104  26.405  26.599  1.00  0.00     0.074 A 
ATOM     57  C   UNL A   1      47.280  25.018  26.222  1.00  0.00     0.031 C 
ATOM     58  C   UNL A   1      48.084  27.340  26.552  1.00  0.00     0.031 A 
BRANCH  45  59
ATOM     59  C   UNL A   1      46.248  32.972  28.300  1.00  0.00    -0.014 A 
ATOM     60  C   UNL A   1      46.761  33.452  29.519  1.00  0.00     0.010 A 
ATOM     61  C   UNL A   1      46.101  33.863  27.221  1.00  0.00     0.010 A 
ATOM     62  C   UNL A   1      47.077  34.805  29.670  1.00  0.00     0.020 A 
ATOM     63  C   UNL A   1      46.441  35.212  27.361  1.00  0.00     0.020 A 
ATOM     64  C   UNL A   1      46.908  35.678  28.591  1.00  0.00     0.054 A 
BRANCH  64  65
ATOM     65  S   UNL A   1      47.338  37.427  28.810  1.00  0.00     0.124 S 
ATOM     66  O   UNL A   1      48.793  37.395  28.701  1.00  0.00    -0.237 OA
ATOM     67  O   UNL A   1      46.640  38.071  27.700  1.00  0.00    -0.237 OA
ATOM     68  O   UNL A   1      46.818  37.747  30.138  1.00  0.00    -0.744 OA
ENDBRANCH  64  65
ENDBRANCH  45  59
BRANCH  46  69
ATOM     69  C   UNL A   1      43.395  23.529  26.919  1.00  0.00    -0.014 A 
ATOM     70  C   UNL A   1      43.073  22.687  27.998  1.00  0.00     0.010 A 
ATOM     71  C   UNL A   1      43.289  23.034  25.607  1.00  0.00     0.010 A 
ATOM     72  C   UNL A   1      42.661  21.371  27.769  1.00  0.00     0.020 A 
ATOM     73  C   UNL A   1      42.855  21.727  25.373  1.00  0.00     0.020 A 
ATOM     74  C   UNL A   1      42.553  20.900  26.457  1.00  0.00     0.054 A 
BRANCH  74  75
ATOM     75  S   UNL A   1      41.953  19.211  26.177  1.00  0.00     0.124 S 
ATOM     76  O   UNL A   1      40.528  19.429  25.953  1.00  0.00    -0.237 OA
ATOM     77  O   UNL A   1      42.721  18.790  25.009  1.00  0.00    -0.237 OA
ATOM     78  O   UNL A   1      42.294  18.519  27.419  1.00  0.00    -0.744 OA
ENDBRANCH  74  75
ENDBRANCH  46  69
BRANCH  58  79
ATOM     79  C   UNL A   1      49.448  26.893  26.100  1.00  0.00    -0.014 A 
ATOM     80  C   UNL A   1      50.322  26.225  26.975  1.00  0.00     0.010 A 
ATOM     81  C   UNL A   1      49.840  27.099  24.764  1.00  0.00     0.010 A 
ATOM     82  C   UNL A   1      51.575  25.794  26.530  1.00  0.00     0.020 A 
ATOM     83  C   UNL A   1      51.082  26.648  24.309  1.00  0.00     0.020 A 
ATOM     84  C   UNL A   1      51.949  26.011  25.199  1.00  0.00     0.054 A 
BRANCH  84  85
ATOM     85  S   UNL A   1      53.562  25.404  24.632  1.00  0.00     0.124 S 
ATOM     86  O   UNL A   1      54.484  26.265  25.366  1.00  0.00    -0.237 OA
ATOM     87  O   UNL A   1      53.544  24.003  25.047  1.00  0.00    -0.237 OA
ATOM     88  O   UNL A   1      53.522  25.618  23.187  1.00  0.00    -0.744 OA
ENDBRANCH  84  85
ENDBRANCH  58  79
ENDBRANCH  32  33
ENDBRANCH  24  27
ENDBRANCH  22  23
ENDBRANCH   1  22
TORSDOF 16
ENDMDL
MODEL 3
REMARK VINA RESULT:     -10.3      3.527      6.626
REMARK SMILES C[N@H+](CC(=O)NCCCNC(=O)c1ccc(-c2c3nc(c(-c4ccc(S(=O)(=O)[O-])cc4)c4ccc([nH]4)c(-c4ccc(S(=O)(=O)[O-])cc4)c4nc(c(-c5ccc(S(=O)(=O)[O-])cc5)c5ccc2[nH]5)C=C4)C=C3)cc1)Cc1cccc2c1OCCO2
REMARK SMILES IDX 8 1 7 2 6 3 4 4 5 5 3 7 2 8 1 9 73 11 74 12 75 13 79 14
REMARK SMILES IDX 76 15 78 16 80 17 77 18 83 19 81 20 82 21 9 22 10 23 11 24
REMARK SMILES IDX 12 26 13 27 14 28 72 29 15 30 71 31 16 32 17 33 18 34 65 35
REMARK SMILES IDX 19 36 70 37 64 38 66 39 20 40 69 41 63 42 62 43 21 45 51 46
REMARK SMILES IDX 32 47 50 48 33 49 36 50 49 51 67 52 34 53 35 54 48 56 68 57
REMARK SMILES IDX 37 58 22 59 23 60 31 61 24 62 30 63 25 64 26 65 27 66 28 67
REMARK SMILES IDX 29 68 52 69 53 70 61 71 54 72 60 73 55 74 56 75 57 76 58 77
REMARK SMILES IDX 59 78 38 79 39 80 47 81 40 82 46 83 41 84 42 85 43 86 44 87
REMARK SMILES IDX 45 88
REMARK H PARENT 6 6 2 10 10 25 66 44 36 55
REMARK Flexibility Score: inf
ROOT
ATOM      1  C   UNL A   1      33.510  33.841  28.588  1.00  0.00     0.042 C 
ENDROOT
BRANCH   1   2
ATOM      2  C   UNL A   1      33.984  34.838  29.642  1.00  0.00     0.118 C 
BRANCH   2   3
ATOM      3  N   UNL A   1      33.509  34.551  30.983  1.00  0.00    -0.351 N 
ATOM      4  C   UNL A   1      34.218  34.385  32.141  1.00  0.00     0.275 C 
ATOM      5  O   UNL A   1      33.593  34.356  33.206  1.00  0.00    -0.269 OA
ATOM      6  H   UNL A   1      32.532  34.464  31.073  1.00  0.00     0.163 HD
BRANCH   4   7
ATOM      7  C   UNL A   1      35.749  34.290  32.118  1.00  0.00     0.363 C 
BRANCH   7   8
ATOM      8  N   UNL A   1      36.191  32.999  31.611  1.00  0.00    -0.326 N 
ATOM      9  C   UNL A   1      37.272  32.951  30.659  1.00  0.00     0.333 C 
ATOM     10  H   UNL A   1      35.404  32.917  30.966  1.00  0.00     0.348 HD
BRANCH   8  11
ATOM     11  C   UNL A   1      35.950  31.799  32.401  1.00  0.00     0.303 C 
BRANCH  11  12
ATOM     12  C   UNL A   1      37.162  31.403  33.211  1.00  0.00     0.052 A 
ATOM     13  C   UNL A   1      38.068  30.466  32.683  1.00  0.00     0.014 A 
ATOM     14  C   UNL A   1      37.454  32.001  34.448  1.00  0.00     0.170 A 
ATOM     15  C   UNL A   1      39.268  30.182  33.335  1.00  0.00     0.005 A 
ATOM     16  C   UNL A   1      38.654  31.699  35.104  1.00  0.00     0.161 A 
ATOM     17  O   UNL A   1      36.522  32.863  34.975  1.00  0.00    -0.486 OA
ATOM     18  C   UNL A   1      39.569  30.814  34.538  1.00  0.00     0.050 A 
ATOM     19  O   UNL A   1      39.009  32.250  36.310  1.00  0.00    -0.486 OA
ATOM     20  C   UNL A   1      36.998  33.579  36.119  1.00  0.00     0.271 C 
ATOM     21  C   UNL A   1      37.847  32.697  37.015  1.00  0.00     0.271 C 
ENDBRANCH  11  12
ENDBRANCH   8  11
ENDBRANCH   7   8
ENDBRANCH   4   7
ENDBRANCH   2   3
ENDBRANCH   1   2
BRANCH   1  22
ATOM     22  C   UNL A   1      34.489  32.715  28.275  1.00  0.00     0.118 C 
BRANCH  22  23
ATOM     23  N   UNL A   1      33.826  31.444  28.016  1.00  0.00    -0.352 N 
ATOM     24  C   UNL A   1      34.332  30.177  27.853  1.00  0.00     0.251 C 
ATOM     25  H   UNL A   1      32.846  31.504  27.944  1.00  0.00     0.163 HD
ATOM     26  O   UNL A   1      33.573  29.288  27.466  1.00  0.00    -0.269 OA
BRANCH  24  27
ATOM     27  C   UNL A   1      35.760  29.852  28.105  1.00  0.00     0.039 A 
ATOM     28  C   UNL A   1      36.132  29.464  29.400  1.00  0.00     0.014 A 
ATOM     29  C   UNL A   1      36.751  30.000  27.131  1.00  0.00     0.014 A 
ATOM     30  C   UNL A   1      37.471  29.179  29.699  1.00  0.00     0.010 A 
ATOM     31  C   UNL A   1      38.076  29.648  27.410  1.00  0.00     0.010 A 
ATOM     32  C   UNL A   1      38.455  29.243  28.700  1.00  0.00    -0.014 A 
BRANCH  32  33
ATOM     33  C   UNL A   1      39.876  28.913  29.000  1.00  0.00     0.031 A 
ATOM     34  C   UNL A   1      40.789  29.942  29.617  1.00  0.00     0.074 A 
ATOM     35  C   UNL A   1      40.366  27.697  28.687  1.00  0.00     0.049 A 
ATOM     36  N   UNL A   1      42.061  29.843  29.916  1.00  0.00    -0.248 NA
ATOM     37  C   UNL A   1      40.206  31.259  29.919  1.00  0.00     0.031 C 
ATOM     38  C   UNL A   1      39.607  26.613  28.058  1.00  0.00     0.029 A 
ATOM     39  N   UNL A   1      41.624  27.169  28.850  1.00  0.00    -0.354 N 
ATOM     40  C   UNL A   1      42.432  31.085  30.420  1.00  0.00     0.074 A 
ATOM     41  C   UNL A   1      41.262  31.933  30.350  1.00  0.00     0.031 C 
ATOM     42  C   UNL A   1      40.407  25.544  27.911  1.00  0.00     0.029 A 
ATOM     43  C   UNL A   1      41.742  25.874  28.401  1.00  0.00     0.049 A 
ATOM     44  H   UNL A   1      42.370  27.669  29.252  1.00  0.00     0.167 HD
ATOM     45  C   UNL A   1      43.631  31.483  30.912  1.00  0.00     0.031 A 
ATOM     46  C   UNL A   1      42.803  25.042  28.380  1.00  0.00     0.031 A 
ATOM     47  C   UNL A   1      44.794  30.640  31.006  1.00  0.00     0.049 A 
ATOM     48  C   UNL A   1      44.122  25.503  28.937  1.00  0.00     0.074 A 
ATOM     49  C   UNL A   1      46.033  30.943  31.546  1.00  0.00     0.029 A 
ATOM     50  N   UNL A   1      44.867  29.334  30.550  1.00  0.00    -0.354 N 
ATOM     51  N   UNL A   1      44.432  26.663  29.462  1.00  0.00    -0.248 NA
ATOM     52  C   UNL A   1      45.229  24.537  28.907  1.00  0.00     0.031 C 
ATOM     53  C   UNL A   1      46.867  29.831  31.379  1.00  0.00     0.029 A 
ATOM     54  C   UNL A   1      46.133  28.823  30.777  1.00  0.00     0.049 A 
ATOM     55  H   UNL A   1      44.126  28.842  30.127  1.00  0.00     0.167 HD
ATOM     56  C   UNL A   1      45.766  26.559  29.846  1.00  0.00     0.074 A 
ATOM     57  C   UNL A   1      46.198  25.219  29.505  1.00  0.00     0.031 C 
ATOM     58  C   UNL A   1      46.557  27.491  30.431  1.00  0.00     0.031 A 
BRANCH  45  59
ATOM     59  C   UNL A   1      43.748  32.908  31.385  1.00  0.00    -0.014 A 
ATOM     60  C   UNL A   1      44.237  33.917  30.535  1.00  0.00     0.010 A 
ATOM     61  C   UNL A   1      43.327  33.250  32.684  1.00  0.00     0.010 A 
ATOM     62  C   UNL A   1      44.347  35.233  30.991  1.00  0.00     0.020 A 
ATOM     63  C   UNL A   1      43.411  34.572  33.133  1.00  0.00     0.020 A 
ATOM     64  C   UNL A   1      43.939  35.551  32.290  1.00  0.00     0.054 A 
BRANCH  64  65
ATOM     65  S   UNL A   1      44.081  37.270  32.853  1.00  0.00     0.124 S 
ATOM     66  O   UNL A   1      43.855  38.010  31.615  1.00  0.00    -0.237 OA
ATOM     67  O   UNL A   1      43.017  37.372  33.848  1.00  0.00    -0.237 OA
ATOM     68  O   UNL A   1      45.439  37.348  33.387  1.00  0.00    -0.744 OA
ENDBRANCH  64  65
ENDBRANCH  45  59
BRANCH  46  69
ATOM     69  C   UNL A   1      42.654  23.673  27.817  1.00  0.00    -0.014 A 
ATOM     70  C   UNL A   1      42.076  22.645  28.584  1.00  0.00     0.010 A 
ATOM     71  C   UNL A   1      43.075  23.396  26.503  1.00  0.00     0.010 A 
ATOM     72  C   UNL A   1      41.931  21.362  28.050  1.00  0.00     0.020 A 
ATOM     73  C   UNL A   1      42.908  22.120  25.959  1.00  0.00     0.020 A 
ATOM     74  C   UNL A   1      42.346  21.108  26.739  1.00  0.00     0.054 A 
BRANCH  74  75
ATOM     75  S   UNL A   1      42.087  19.454  26.040  1.00  0.00     0.124 S 
ATOM     76  O   UNL A   1      42.547  18.592  27.123  1.00  0.00    -0.237 OA
ATOM     77  O   UNL A   1      40.649  19.438  25.785  1.00  0.00    -0.237 OA
ATOM     78  O   UNL A   1      42.923  19.457  24.842  1.00  0.00    -0.744 OA
ENDBRANCH  74  75
ENDBRANCH  46  69
BRANCH  58  79
ATOM     79  C   UNL A   1      47.970  27.092  30.763  1.00  0.00    -0.014 A 
ATOM     80  C   UNL A   1      49.027  27.347  29.871  1.00  0.00     0.010 A 
ATOM     81  C   UNL A   1      48.251  26.499  32.008  1.00  0.00     0.010 A 
ATOM     82  C   UNL A   1      50.337  26.993  30.208  1.00  0.00     0.020 A 
ATOM     83  C   UNL A   1      49.562  26.165  32.357  1.00  0.00     0.020 A 
ATOM     84  C   UNL A   1      50.596  26.401  31.449  1.00  0.00     0.054 A 
BRANCH  84  85
ATOM     85  S   UNL A   1      52.309  25.989  31.882  1.00  0.00     0.124 S 
ATOM     86  O   UNL A   1      52.978  26.076  30.588  1.00  0.00    -0.237 OA
ATOM     87  O   UNL A   1      52.659  27.034  32.843  1.00  0.00    -0.237 OA
ATOM     88  O   UNL A   1      52.208  24.645  32.446  1.00  0.00    -0.744 OA
ENDBRANCH  84  85
ENDBRANCH  58  79
ENDBRANCH  32  33
ENDBRANCH  24  27
ENDBRANCH  22  23
ENDBRANCH   1  22
TORSDOF 16
ENDMDL
