MODEL 1
REMARK VINA RESULT:     -10.1      0.000      0.000
REMARK SMILES C[C@@H](NC(=O)C[C@H]1CCCCO1)C(=O)NCCCNC(=O)c1ccc(-c2c3nc(c(-c4ccc(S(=O)(=O)[O-])cc4)c4ccc([nH]4)c(-c4ccc(S(=O)(=O)[O-])cc4)c4nc(c(-c5ccc(S(=O)(=O)[O-])cc5)c5ccc2[nH]5)C=C4)C=C3)cc1
REMARK SMILES IDX 17 1 16 2 15 3 13 4 14 5 2 7 1 8 3 9 4 10 5 12 6 13 7 14
REMARK SMILES IDX 8 15 12 16 9 17 11 18 10 19 18 20 19 21 20 22 21 24 22 25
REMARK SMILES IDX 23 26 81 27 24 28 80 29 25 30 26 31 27 32 74 33 28 34 79 35
REMARK SMILES IDX 73 36 75 37 29 38 78 39 72 40 71 41 30 43 60 44 41 45 59 46
REMARK SMILES IDX 42 47 45 48 58 49 76 50 43 51 44 52 57 54 77 55 46 56 31 57
REMARK SMILES IDX 32 58 40 59 33 60 39 61 34 62 35 63 36 64 37 65 38 66 61 67
REMARK SMILES IDX 62 68 70 69 63 70 69 71 64 72 65 73 66 74 67 75 68 76 47 77
REMARK SMILES IDX 48 78 56 79 49 80 55 81 50 82 51 83 52 84 53 85 54 86
REMARK H PARENT 15 6 3 11 19 23 75 42 45 53
REMARK Flexibility Score: inf
ROOT
ATOM      1  C   UNL A   1      42.603  21.482  27.395  1.00  0.00     0.042 C 
ENDROOT
BRANCH   1   2
ATOM      2  C   UNL A   1      42.727  21.526  25.872  1.00  0.00     0.117 C 
BRANCH   2   3
ATOM      3  N   UNL A   1      42.992  20.224  25.287  1.00  0.00    -0.354 N 
ATOM      4  C   UNL A   1      44.189  19.607  25.067  1.00  0.00     0.242 C 
ATOM      5  O   UNL A   1      44.169  18.481  24.561  1.00  0.00    -0.273 OA
ATOM      6  H   UNL A   1      42.195  19.715  25.008  1.00  0.00     0.163 HD
BRANCH   4   7
ATOM      7  C   UNL A   1      45.533  20.334  25.281  1.00  0.00     0.168 C 
ATOM      8  C   UNL A   1      46.649  19.291  25.222  1.00  0.00     0.041 C 
BRANCH   7   9
ATOM      9  N   UNL A   1      45.832  21.437  24.371  1.00  0.00    -0.345 N 
ATOM     10  C   UNL A   1      46.240  22.707  24.646  1.00  0.00     0.223 C 
ATOM     11  H   UNL A   1      45.723  21.231  23.415  1.00  0.00     0.164 HD
ATOM     12  O   UNL A   1      46.672  23.376  23.705  1.00  0.00    -0.275 OA
BRANCH  10  13
ATOM     13  C   UNL A   1      46.192  23.265  26.057  1.00  0.00     0.132 C 
BRANCH  13  14
ATOM     14  C   UNL A   1      45.277  24.481  26.166  1.00  0.00     0.127 C 
ATOM     15  C   UNL A   1      46.054  25.791  26.313  1.00  0.00     0.033 C 
ATOM     16  O   UNL A   1      44.459  24.577  24.998  1.00  0.00    -0.378 OA
ATOM     17  C   UNL A   1      45.067  26.947  26.489  1.00  0.00     0.005 C 
ATOM     18  C   UNL A   1      43.443  25.568  25.145  1.00  0.00     0.160 C 
ATOM     19  C   UNL A   1      44.027  26.953  25.373  1.00  0.00     0.029 C 
ENDBRANCH  13  14
ENDBRANCH  10  13
ENDBRANCH   7   9
ENDBRANCH   4   7
ENDBRANCH   2   3
ENDBRANCH   1   2
BRANCH   1  20
ATOM     20  C   UNL A   1      41.231  21.897  27.925  1.00  0.00     0.118 C 
BRANCH  20  21
ATOM     21  N   UNL A   1      40.164  21.751  26.947  1.00  0.00    -0.352 N 
ATOM     22  C   UNL A   1      39.317  22.710  26.439  1.00  0.00     0.251 C 
ATOM     23  H   UNL A   1      40.029  20.840  26.600  1.00  0.00     0.163 HD
ATOM     24  O   UNL A   1      38.439  22.388  25.642  1.00  0.00    -0.269 OA
BRANCH  22  25
ATOM     25  C   UNL A   1      39.410  24.111  26.901  1.00  0.00     0.039 A 
ATOM     26  C   UNL A   1      38.868  24.413  28.153  1.00  0.00     0.014 A 
ATOM     27  C   UNL A   1      40.064  25.100  26.160  1.00  0.00     0.014 A 
ATOM     28  C   UNL A   1      39.103  25.662  28.723  1.00  0.00     0.010 A 
ATOM     29  C   UNL A   1      40.349  26.330  26.752  1.00  0.00     0.010 A 
ATOM     30  C   UNL A   1      39.911  26.598  28.056  1.00  0.00    -0.014 A 
BRANCH  30  31
ATOM     31  C   UNL A   1      40.428  27.773  28.794  1.00  0.00     0.031 A 
ATOM     32  C   UNL A   1      41.819  27.805  29.344  1.00  0.00     0.074 A 
ATOM     33  C   UNL A   1      39.588  28.811  28.989  1.00  0.00     0.049 A 
ATOM     34  N   UNL A   1      42.441  28.791  29.936  1.00  0.00    -0.248 NA
ATOM     35  C   UNL A   1      42.609  26.570  29.233  1.00  0.00     0.031 C 
ATOM     36  C   UNL A   1      38.186  28.853  28.559  1.00  0.00     0.029 A 
ATOM     37  N   UNL A   1      39.787  30.030  29.584  1.00  0.00    -0.354 N 
ATOM     38  C   UNL A   1      43.698  28.302  30.265  1.00  0.00     0.074 A 
ATOM     39  C   UNL A   1      43.733  26.916  29.847  1.00  0.00     0.031 C 
ATOM     40  C   UNL A   1      37.666  30.052  28.865  1.00  0.00     0.029 A 
ATOM     41  C   UNL A   1      38.687  30.853  29.529  1.00  0.00     0.049 A 
ATOM     42  H   UNL A   1      40.635  30.290  30.010  1.00  0.00     0.167 HD
ATOM     43  C   UNL A   1      44.732  28.957  30.848  1.00  0.00     0.031 A 
ATOM     44  C   UNL A   1      38.524  32.122  29.948  1.00  0.00     0.031 A 
ATOM     45  C   UNL A   1      44.676  30.332  31.273  1.00  0.00     0.049 A 
ATOM     46  C   UNL A   1      39.694  32.836  30.559  1.00  0.00     0.074 A 
ATOM     47  C   UNL A   1      45.676  31.103  31.838  1.00  0.00     0.029 A 
ATOM     48  N   UNL A   1      43.552  31.142  31.183  1.00  0.00    -0.354 N 
ATOM     49  N   UNL A   1      40.904  32.384  30.783  1.00  0.00    -0.248 NA
ATOM     50  C   UNL A   1      39.483  34.234  30.953  1.00  0.00     0.031 C 
ATOM     51  C   UNL A   1      45.147  32.367  32.124  1.00  0.00     0.029 A 
ATOM     52  C   UNL A   1      43.829  32.398  31.696  1.00  0.00     0.049 A 
ATOM     53  H   UNL A   1      42.685  30.863  30.809  1.00  0.00     0.167 HD
ATOM     54  C   UNL A   1      41.608  33.449  31.328  1.00  0.00     0.074 A 
ATOM     55  C   UNL A   1      40.692  34.572  31.382  1.00  0.00     0.031 C 
ATOM     56  C   UNL A   1      42.897  33.496  31.747  1.00  0.00     0.031 A 
BRANCH  43  57
ATOM     57  C   UNL A   1      46.006  28.185  31.058  1.00  0.00    -0.014 A 
ATOM     58  C   UNL A   1      46.232  27.479  32.254  1.00  0.00     0.010 A 
ATOM     59  C   UNL A   1      46.982  28.145  30.046  1.00  0.00     0.010 A 
ATOM     60  C   UNL A   1      47.429  26.789  32.454  1.00  0.00     0.020 A 
ATOM     61  C   UNL A   1      48.172  27.435  30.233  1.00  0.00     0.020 A 
ATOM     62  C   UNL A   1      48.397  26.779  31.445  1.00  0.00     0.054 A 
BRANCH  62  63
ATOM     63  S   UNL A   1      49.945  25.876  31.729  1.00  0.00     0.124 S 
ATOM     64  O   UNL A   1      49.630  25.115  32.936  1.00  0.00    -0.237 OA
ATOM     65  O   UNL A   1      50.087  25.085  30.509  1.00  0.00    -0.237 OA
ATOM     66  O   UNL A   1      50.936  26.935  31.901  1.00  0.00    -0.744 OA
ENDBRANCH  62  63
ENDBRANCH  43  57
BRANCH  44  67
ATOM     67  C   UNL A   1      37.215  32.801  29.756  1.00  0.00    -0.014 A 
ATOM     68  C   UNL A   1      36.305  32.911  30.822  1.00  0.00     0.010 A 
ATOM     69  C   UNL A   1      36.888  33.375  28.514  1.00  0.00     0.010 A 
ATOM     70  C   UNL A   1      35.084  33.568  30.646  1.00  0.00     0.020 A 
ATOM     71  C   UNL A   1      35.678  34.053  28.341  1.00  0.00     0.020 A 
ATOM     72  C   UNL A   1      34.778  34.135  29.405  1.00  0.00     0.054 A 
BRANCH  72  73
ATOM     73  S   UNL A   1      33.215  35.038  29.213  1.00  0.00     0.124 S 
ATOM     74  O   UNL A   1      32.675  34.998  30.568  1.00  0.00    -0.237 OA
ATOM     75  O   UNL A   1      33.658  36.348  28.744  1.00  0.00    -0.237 OA
ATOM     76  O   UNL A   1      32.487  34.246  28.223  1.00  0.00    -0.744 OA
ENDBRANCH  72  73
ENDBRANCH  44  67
BRANCH  56  77
ATOM     77  C   UNL A   1      43.388  34.811  32.284  1.00  0.00    -0.014 A 
ATOM     78  C   UNL A   1      43.968  35.769  31.435  1.00  0.00     0.010 A 
ATOM     79  C   UNL A   1      43.239  35.101  33.652  1.00  0.00     0.010 A 
ATOM     80  C   UNL A   1      44.426  36.984  31.951  1.00  0.00     0.020 A 
ATOM     81  C   UNL A   1      43.675  36.324  34.168  1.00  0.00     0.020 A 
ATOM     82  C   UNL A   1      44.280  37.252  33.316  1.00  0.00     0.054 A 
BRANCH  82  83
ATOM     83  S   UNL A   1      44.852  38.847  33.962  1.00  0.00     0.124 S 
ATOM     84  O   UNL A   1      43.749  39.732  33.600  1.00  0.00    -0.237 OA
ATOM     85  O   UNL A   1      45.001  38.582  35.391  1.00  0.00    -0.237 OA
ATOM     86  O   UNL A   1      46.102  39.080  33.245  1.00  0.00    -0.744 OA
ENDBRANCH  82  83
ENDBRANCH  56  77
ENDBRANCH  30  31
ENDBRANCH  22  25
ENDBRANCH  20  21
ENDBRANCH   1  20
TORSDOF 16
ENDMDL
MODEL 2
REMARK VINA RESULT:     -10.1      2.922      5.879
REMARK SMILES C[C@@H](NC(=O)C[C@H]1CCCCO1)C(=O)NCCCNC(=O)c1ccc(-c2c3nc(c(-c4ccc(S(=O)(=O)[O-])cc4)c4ccc([nH]4)c(-c4ccc(S(=O)(=O)[O-])cc4)c4nc(c(-c5ccc(S(=O)(=O)[O-])cc5)c5ccc2[nH]5)C=C4)C=C3)cc1
REMARK SMILES IDX 17 1 16 2 15 3 13 4 14 5 2 7 1 8 3 9 4 10 5 12 6 13 7 14
REMARK SMILES IDX 8 15 12 16 9 17 11 18 10 19 18 20 19 21 20 22 21 24 22 25
REMARK SMILES IDX 23 26 81 27 24 28 80 29 25 30 26 31 27 32 74 33 28 34 79 35
REMARK SMILES IDX 73 36 75 37 29 38 78 39 72 40 71 41 30 43 60 44 41 45 59 46
REMARK SMILES IDX 42 47 45 48 58 49 76 50 43 51 44 52 57 54 77 55 46 56 31 57
REMARK SMILES IDX 32 58 40 59 33 60 39 61 34 62 35 63 36 64 37 65 38 66 61 67
REMARK SMILES IDX 62 68 70 69 63 70 69 71 64 72 65 73 66 74 67 75 68 76 47 77
REMARK SMILES IDX 48 78 56 79 49 80 55 81 50 82 51 83 52 84 53 85 54 86
REMARK H PARENT 15 6 3 11 19 23 75 42 45 53
REMARK Flexibility Score: inf
ROOT
ATOM      1  C   UNL A   1      36.113  23.314  25.789  1.00  0.00     0.042 C 
ENDROOT
BRANCH   1   2
ATOM      2  C   UNL A   1      35.421  21.980  26.069  1.00  0.00     0.117 C 
BRANCH   2   3
ATOM      3  N   UNL A   1      34.583  22.013  27.255  1.00  0.00    -0.354 N 
ATOM      4  C   UNL A   1      33.289  22.425  27.380  1.00  0.00     0.242 C 
ATOM      5  O   UNL A   1      32.770  22.351  28.498  1.00  0.00    -0.273 OA
ATOM      6  H   UNL A   1      35.009  21.694  28.084  1.00  0.00     0.163 HD
BRANCH   4   7
ATOM      7  C   UNL A   1      32.535  23.114  26.223  1.00  0.00     0.168 C 
ATOM      8  C   UNL A   1      32.003  22.025  25.292  1.00  0.00     0.041 C 
BRANCH   7   9
ATOM      9  N   UNL A   1      31.454  24.023  26.596  1.00  0.00    -0.345 N 
ATOM     10  C   UNL A   1      31.293  25.346  26.314  1.00  0.00     0.223 C 
ATOM     11  H   UNL A   1      30.734  23.619  27.132  1.00  0.00     0.164 HD
ATOM     12  O   UNL A   1      30.179  25.834  26.520  1.00  0.00    -0.275 OA
BRANCH  10  13
ATOM     13  C   UNL A   1      32.427  26.177  25.743  1.00  0.00     0.132 C 
BRANCH  13  14
ATOM     14  C   UNL A   1      32.698  27.430  26.570  1.00  0.00     0.127 C 
ATOM     15  C   UNL A   1      34.150  27.902  26.465  1.00  0.00     0.033 C 
ATOM     16  O   UNL A   1      31.851  28.493  26.130  1.00  0.00    -0.378 OA
ATOM     17  C   UNL A   1      34.355  29.113  27.377  1.00  0.00     0.005 C 
ATOM     18  C   UNL A   1      31.915  29.617  27.007  1.00  0.00     0.160 C 
ATOM     19  C   UNL A   1      33.319  30.195  27.090  1.00  0.00     0.029 C 
ENDBRANCH  13  14
ENDBRANCH  10  13
ENDBRANCH   7   9
ENDBRANCH   4   7
ENDBRANCH   2   3
ENDBRANCH   1   2
BRANCH   1  20
ATOM     20  C   UNL A   1      37.348  23.204  24.897  1.00  0.00     0.118 C 
BRANCH  20  21
ATOM     21  N   UNL A   1      38.409  22.394  25.473  1.00  0.00    -0.352 N 
ATOM     22  C   UNL A   1      39.391  22.759  26.367  1.00  0.00     0.251 C 
ATOM     23  H   UNL A   1      38.428  21.453  25.185  1.00  0.00     0.163 HD
ATOM     24  O   UNL A   1      40.236  21.938  26.714  1.00  0.00    -0.269 OA
BRANCH  22  25
ATOM     25  C   UNL A   1      39.478  24.151  26.856  1.00  0.00     0.039 A 
ATOM     26  C   UNL A   1      38.902  24.434  28.098  1.00  0.00     0.014 A 
ATOM     27  C   UNL A   1      40.155  25.150  26.151  1.00  0.00     0.014 A 
ATOM     28  C   UNL A   1      39.126  25.672  28.695  1.00  0.00     0.010 A 
ATOM     29  C   UNL A   1      40.428  26.368  26.772  1.00  0.00     0.010 A 
ATOM     30  C   UNL A   1      39.956  26.616  28.067  1.00  0.00    -0.014 A 
BRANCH  30  31
ATOM     31  C   UNL A   1      40.456  27.776  28.839  1.00  0.00     0.031 A 
ATOM     32  C   UNL A   1      41.834  27.795  29.423  1.00  0.00     0.074 A 
ATOM     33  C   UNL A   1      39.613  28.811  29.035  1.00  0.00     0.049 A 
ATOM     34  N   UNL A   1      42.443  28.768  30.048  1.00  0.00    -0.248 NA
ATOM     35  C   UNL A   1      42.625  26.561  29.307  1.00  0.00     0.031 C 
ATOM     36  C   UNL A   1      38.221  28.864  28.572  1.00  0.00     0.029 A 
ATOM     37  N   UNL A   1      39.799  30.018  29.658  1.00  0.00    -0.354 N 
ATOM     38  C   UNL A   1      43.691  28.271  30.397  1.00  0.00     0.074 A 
ATOM     39  C   UNL A   1      43.735  26.894  29.953  1.00  0.00     0.031 C 
ATOM     40  C   UNL A   1      37.696  30.057  28.889  1.00  0.00     0.029 A 
ATOM     41  C   UNL A   1      38.702  30.844  29.593  1.00  0.00     0.049 A 
ATOM     42  H   UNL A   1      40.637  30.269  30.108  1.00  0.00     0.167 HD
ATOM     43  C   UNL A   1      44.712  28.913  31.017  1.00  0.00     0.031 A 
ATOM     44  C   UNL A   1      38.530  32.104  30.032  1.00  0.00     0.031 A 
ATOM     45  C   UNL A   1      44.647  30.280  31.466  1.00  0.00     0.049 A 
ATOM     46  C   UNL A   1      39.686  32.804  30.684  1.00  0.00     0.074 A 
ATOM     47  C   UNL A   1      45.635  31.038  32.070  1.00  0.00     0.029 A 
ATOM     48  N   UNL A   1      43.526  31.093  31.366  1.00  0.00    -0.354 N 
ATOM     49  N   UNL A   1      40.890  32.346  30.927  1.00  0.00    -0.248 NA
ATOM     50  C   UNL A   1      39.468  34.195  31.100  1.00  0.00     0.031 C 
ATOM     51  C   UNL A   1      45.100  32.298  32.367  1.00  0.00     0.029 A 
ATOM     52  C   UNL A   1      43.793  32.339  31.909  1.00  0.00     0.049 A 
ATOM     53  H   UNL A   1      42.668  30.823  30.967  1.00  0.00     0.167 HD
ATOM     54  C   UNL A   1      41.582  33.400  31.510  1.00  0.00     0.074 A 
ATOM     55  C   UNL A   1      40.666  34.523  31.563  1.00  0.00     0.031 C 
ATOM     56  C   UNL A   1      42.861  33.437  31.959  1.00  0.00     0.031 A 
BRANCH  43  57
ATOM     57  C   UNL A   1      45.979  28.135  31.242  1.00  0.00    -0.014 A 
ATOM     58  C   UNL A   1      46.993  28.111  30.267  1.00  0.00     0.010 A 
ATOM     59  C   UNL A   1      46.172  27.435  32.446  1.00  0.00     0.010 A 
ATOM     60  C   UNL A   1      48.154  27.362  30.471  1.00  0.00     0.020 A 
ATOM     61  C   UNL A   1      47.344  26.703  32.664  1.00  0.00     0.020 A 
ATOM     62  C   UNL A   1      48.318  26.654  31.666  1.00  0.00     0.054 A 
BRANCH  62  63
ATOM     63  S   UNL A   1      49.835  25.688  31.906  1.00  0.00     0.124 S 
ATOM     64  O   UNL A   1      49.422  24.732  32.930  1.00  0.00    -0.237 OA
ATOM     65  O   UNL A   1      50.073  25.124  30.581  1.00  0.00    -0.237 OA
ATOM     66  O   UNL A   1      50.813  26.683  32.342  1.00  0.00    -0.744 OA
ENDBRANCH  62  63
ENDBRANCH  43  57
BRANCH  44  67
ATOM     67  C   UNL A   1      37.227  32.789  29.822  1.00  0.00    -0.014 A 
ATOM     68  C   UNL A   1      36.266  32.824  30.849  1.00  0.00     0.010 A 
ATOM     69  C   UNL A   1      36.955  33.443  28.607  1.00  0.00     0.010 A 
ATOM     70  C   UNL A   1      35.050  33.486  30.657  1.00  0.00     0.020 A 
ATOM     71  C   UNL A   1      35.750  34.125  28.421  1.00  0.00     0.020 A 
ATOM     72  C   UNL A   1      34.799  34.133  29.443  1.00  0.00     0.054 A 
BRANCH  72  73
ATOM     73  S   UNL A   1      33.241  35.039  29.235  1.00  0.00     0.124 S 
ATOM     74  O   UNL A   1      32.544  34.221  28.248  1.00  0.00    -0.237 OA
ATOM     75  O   UNL A   1      32.679  35.022  30.584  1.00  0.00    -0.237 OA
ATOM     76  O   UNL A   1      33.674  36.355  28.767  1.00  0.00    -0.744 OA
ENDBRANCH  72  73
ENDBRANCH  44  67
BRANCH  56  77
ATOM     77  C   UNL A   1      43.340  34.740  32.533  1.00  0.00    -0.014 A 
ATOM     78  C   UNL A   1      43.953  35.709  31.719  1.00  0.00     0.010 A 
ATOM     79  C   UNL A   1      43.148  35.010  33.900  1.00  0.00     0.010 A 
ATOM     80  C   UNL A   1      44.400  36.912  32.269  1.00  0.00     0.020 A 
ATOM     81  C   UNL A   1      43.572  36.223  34.449  1.00  0.00     0.020 A 
ATOM     82  C   UNL A   1      44.210  37.160  33.632  1.00  0.00     0.054 A 
BRANCH  82  83
ATOM     83  S   UNL A   1      44.768  38.741  34.322  1.00  0.00     0.124 S 
ATOM     84  O   UNL A   1      46.203  38.698  34.054  1.00  0.00    -0.237 OA
ATOM     85  O   UNL A   1      44.014  39.719  33.542  1.00  0.00    -0.237 OA
ATOM     86  O   UNL A   1      44.393  38.654  35.731  1.00  0.00    -0.744 OA
ENDBRANCH  82  83
ENDBRANCH  56  77
ENDBRANCH  30  31
ENDBRANCH  22  25
ENDBRANCH  20  21
ENDBRANCH   1  20
TORSDOF 16
ENDMDL
MODEL 3
REMARK VINA RESULT:     -10.0      3.063     10.343
REMARK SMILES C[C@@H](NC(=O)C[C@H]1CCCCO1)C(=O)NCCCNC(=O)c1ccc(-c2c3nc(c(-c4ccc(S(=O)(=O)[O-])cc4)c4ccc([nH]4)c(-c4ccc(S(=O)(=O)[O-])cc4)c4nc(c(-c5ccc(S(=O)(=O)[O-])cc5)c5ccc2[nH]5)C=C4)C=C3)cc1
REMARK SMILES IDX 17 1 16 2 15 3 13 4 14 5 2 7 1 8 3 9 4 10 5 12 6 13 7 14
REMARK SMILES IDX 8 15 12 16 9 17 11 18 10 19 18 20 19 21 20 22 21 24 22 25
REMARK SMILES IDX 23 26 81 27 24 28 80 29 25 30 26 31 27 32 74 33 28 34 79 35
REMARK SMILES IDX 73 36 75 37 29 38 78 39 72 40 71 41 30 43 60 44 41 45 59 46
REMARK SMILES IDX 42 47 45 48 58 49 76 50 43 51 44 52 57 54 77 55 46 56 31 57
REMARK SMILES IDX 32 58 40 59 33 60 39 61 34 62 35 63 36 64 37 65 38 66 61 67
REMARK SMILES IDX 62 68 70 69 63 70 69 71 64 72 65 73 66 74 67 75 68 76 47 77
REMARK SMILES IDX 48 78 56 79 49 80 55 81 50 82 51 83 52 84 53 85 54 86
REMARK H PARENT 15 6 3 11 19 23 75 42 45 53
REMARK Flexibility Score: inf
ROOT
ATOM      1  C   UNL A   1      36.257  23.301  26.070  1.00  0.00     0.042 C 
ENDROOT
BRANCH   1   2
ATOM      2  C   UNL A   1      35.291  22.117  26.101  1.00  0.00     0.117 C 
BRANCH   2   3
ATOM      3  N   UNL A   1      34.434  22.116  27.274  1.00  0.00    -0.354 N 
ATOM      4  C   UNL A   1      33.164  22.595  27.410  1.00  0.00     0.242 C 
ATOM      5  O   UNL A   1      32.621  22.473  28.512  1.00  0.00    -0.273 OA
ATOM      6  H   UNL A   1      34.825  21.713  28.084  1.00  0.00     0.163 HD
BRANCH   4   7
ATOM      7  C   UNL A   1      32.474  23.410  26.295  1.00  0.00     0.168 C 
ATOM      8  C   UNL A   1      31.824  22.425  25.324  1.00  0.00     0.041 C 
BRANCH   7   9
ATOM      9  N   UNL A   1      31.497  24.407  26.724  1.00  0.00    -0.345 N 
ATOM     10  C   UNL A   1      31.492  25.757  26.538  1.00  0.00     0.223 C 
ATOM     11  H   UNL A   1      30.726  24.050  27.221  1.00  0.00     0.164 HD
ATOM     12  O   UNL A   1      30.437  26.352  26.768  1.00  0.00    -0.275 OA
BRANCH  10  13
ATOM     13  C   UNL A   1      32.722  26.492  26.041  1.00  0.00     0.132 C 
BRANCH  13  14
ATOM     14  C   UNL A   1      32.931  27.820  26.760  1.00  0.00     0.127 C 
ATOM     15  C   UNL A   1      34.362  28.346  26.623  1.00  0.00     0.033 C 
ATOM     16  O   UNL A   1      32.043  28.804  26.228  1.00  0.00    -0.378 OA
ATOM     17  C   UNL A   1      34.506  29.637  27.430  1.00  0.00     0.005 C 
ATOM     18  C   UNL A   1      32.050  30.000  27.008  1.00  0.00     0.160 C 
ATOM     19  C   UNL A   1      33.426  30.645  27.048  1.00  0.00     0.029 C 
ENDBRANCH  13  14
ENDBRANCH  10  13
ENDBRANCH   7   9
ENDBRANCH   4   7
ENDBRANCH   2   3
ENDBRANCH   1   2
BRANCH   1  20
ATOM     20  C   UNL A   1      37.343  23.196  24.999  1.00  0.00     0.118 C 
BRANCH  20  21
ATOM     21  N   UNL A   1      38.506  22.434  25.425  1.00  0.00    -0.352 N 
ATOM     22  C   UNL A   1      39.549  22.824  26.235  1.00  0.00     0.251 C 
ATOM     23  H   UNL A   1      38.554  21.511  25.089  1.00  0.00     0.163 HD
ATOM     24  O   UNL A   1      40.474  22.047  26.454  1.00  0.00    -0.269 OA
BRANCH  22  25
ATOM     25  C   UNL A   1      39.597  24.196  26.784  1.00  0.00     0.039 A 
ATOM     26  C   UNL A   1      38.984  24.416  28.020  1.00  0.00     0.014 A 
ATOM     27  C   UNL A   1      40.276  25.234  26.140  1.00  0.00     0.014 A 
ATOM     28  C   UNL A   1      39.170  25.631  28.675  1.00  0.00     0.010 A 
ATOM     29  C   UNL A   1      40.511  26.429  26.819  1.00  0.00     0.010 A 
ATOM     30  C   UNL A   1      40.000  26.614  28.110  1.00  0.00    -0.014 A 
BRANCH  30  31
ATOM     31  C   UNL A   1      40.459  27.749  28.943  1.00  0.00     0.031 A 
ATOM     32  C   UNL A   1      39.604  28.957  29.163  1.00  0.00     0.074 A 
ATOM     33  C   UNL A   1      41.697  27.677  29.474  1.00  0.00     0.049 A 
ATOM     34  N   UNL A   1      39.831  29.989  29.933  1.00  0.00    -0.248 NA
ATOM     35  C   UNL A   1      38.342  29.027  28.413  1.00  0.00     0.031 C 
ATOM     36  C   UNL A   1      42.644  26.576  29.261  1.00  0.00     0.029 A 
ATOM     37  N   UNL A   1      42.370  28.533  30.307  1.00  0.00    -0.354 N 
ATOM     38  C   UNL A   1      38.741  30.832  29.767  1.00  0.00     0.074 A 
ATOM     39  C   UNL A   1      37.873  30.210  28.788  1.00  0.00     0.031 C 
ATOM     40  C   UNL A   1      43.754  26.803  29.979  1.00  0.00     0.029 A 
ATOM     41  C   UNL A   1      43.608  28.071  30.685  1.00  0.00     0.049 A 
ATOM     42  H   UNL A   1      42.001  29.396  30.606  1.00  0.00     0.167 HD
ATOM     43  C   UNL A   1      38.482  32.008  30.389  1.00  0.00     0.031 A 
ATOM     44  C   UNL A   1      44.519  28.598  31.525  1.00  0.00     0.031 A 
ATOM     45  C   UNL A   1      39.363  32.622  31.349  1.00  0.00     0.049 A 
ATOM     46  C   UNL A   1      44.193  29.884  32.226  1.00  0.00     0.074 A 
ATOM     47  C   UNL A   1      39.180  33.791  32.065  1.00  0.00     0.029 A 
ATOM     48  N   UNL A   1      40.600  32.115  31.722  1.00  0.00    -0.354 N 
ATOM     49  N   UNL A   1      43.115  30.624  32.123  1.00  0.00    -0.248 NA
ATOM     50  C   UNL A   1      45.194  30.394  33.172  1.00  0.00     0.031 C 
ATOM     51  C   UNL A   1      40.321  34.011  32.845  1.00  0.00     0.029 A 
ATOM     52  C   UNL A   1      41.197  32.955  32.648  1.00  0.00     0.049 A 
ATOM     53  H   UNL A   1      40.994  31.281  31.380  1.00  0.00     0.167 HD
ATOM     54  C   UNL A   1      43.299  31.681  33.005  1.00  0.00     0.074 A 
ATOM     55  C   UNL A   1      44.584  31.471  33.646  1.00  0.00     0.031 C 
ATOM     56  C   UNL A   1      42.480  32.730  33.264  1.00  0.00     0.031 A 
BRANCH  43  57
ATOM     57  C   UNL A   1      37.193  32.702  30.040  1.00  0.00    -0.014 A 
ATOM     58  C   UNL A   1      37.126  33.596  28.955  1.00  0.00     0.010 A 
ATOM     59  C   UNL A   1      36.031  32.448  30.790  1.00  0.00     0.010 A 
ATOM     60  C   UNL A   1      35.933  34.258  28.657  1.00  0.00     0.020 A 
ATOM     61  C   UNL A   1      34.829  33.092  30.479  1.00  0.00     0.020 A 
ATOM     62  C   UNL A   1      34.793  34.009  29.427  1.00  0.00     0.054 A 
BRANCH  62  63
ATOM     63  S   UNL A   1      33.257  34.884  29.019  1.00  0.00     0.124 S 
ATOM     64  O   UNL A   1      33.763  36.151  28.497  1.00  0.00    -0.237 OA
ATOM     65  O   UNL A   1      32.635  34.003  28.034  1.00  0.00    -0.237 OA
ATOM     66  O   UNL A   1      32.559  34.972  30.300  1.00  0.00    -0.744 OA
ENDBRANCH  62  63
ENDBRANCH  43  57
BRANCH  44  67
ATOM     67  C   UNL A   1      45.796  27.880  31.776  1.00  0.00    -0.014 A 
ATOM     68  C   UNL A   1      45.872  26.886  32.769  1.00  0.00     0.010 A 
ATOM     69  C   UNL A   1      46.934  28.160  30.998  1.00  0.00     0.010 A 
ATOM     70  C   UNL A   1      47.068  26.197  32.990  1.00  0.00     0.020 A 
ATOM     71  C   UNL A   1      48.125  27.456  31.201  1.00  0.00     0.020 A 
ATOM     72  C   UNL A   1      48.188  26.487  32.204  1.00  0.00     0.054 A 
BRANCH  72  73
ATOM     73  S   UNL A   1      49.713  25.539  32.465  1.00  0.00     0.124 S 
ATOM     74  O   UNL A   1      49.283  24.535  33.432  1.00  0.00    -0.237 OA
ATOM     75  O   UNL A   1      50.013  25.042  31.124  1.00  0.00    -0.237 OA
ATOM     76  O   UNL A   1      50.651  26.540  32.973  1.00  0.00    -0.744 OA
ENDBRANCH  72  73
ENDBRANCH  44  67
BRANCH  56  77
ATOM     77  C   UNL A   1      42.949  33.718  34.294  1.00  0.00    -0.014 A 
ATOM     78  C   UNL A   1      43.717  34.837  33.927  1.00  0.00     0.010 A 
ATOM     79  C   UNL A   1      42.592  33.539  35.642  1.00  0.00     0.010 A 
ATOM     80  C   UNL A   1      44.151  35.743  34.897  1.00  0.00     0.020 A 
ATOM     81  C   UNL A   1      43.005  34.456  36.612  1.00  0.00     0.020 A 
ATOM     82  C   UNL A   1      43.796  35.544  36.235  1.00  0.00     0.054 A 
BRANCH  82  83
ATOM     83  S   UNL A   1      44.344  36.748  37.476  1.00  0.00     0.124 S 
ATOM     84  O   UNL A   1      45.783  36.503  37.520  1.00  0.00    -0.237 OA
ATOM     85  O   UNL A   1      43.942  38.023  36.888  1.00  0.00    -0.237 OA
ATOM     86  O   UNL A   1      43.607  36.363  38.677  1.00  0.00    -0.744 OA
ENDBRANCH  82  83
ENDBRANCH  56  77
ENDBRANCH  30  31
ENDBRANCH  22  25
ENDBRANCH  20  21
ENDBRANCH   1  20
TORSDOF 16
ENDMDL
