MODEL 1
REMARK VINA RESULT:     -10.5      0.000      0.000
REMARK SMILES CCOCCCC(=O)N[C@@H]1COC[C@H]1C(=O)NCCCNC(=O)c1ccc(-c2c3nc(c(-c4ccc(S(=O)(=O)[O-])cc4)c4ccc([nH]4)c(-c4ccc(S(=O)(=O)[O-])cc4)c4nc(c(-c5ccc(S(=O)(=O)[O-])cc5)c5ccc2[nH]5)C=C4)C=C3)cc1
REMARK SMILES IDX 15 1 16 2 17 3 14 5 10 6 11 7 12 8 13 9 9 10 7 11 8 12 6 14
REMARK SMILES IDX 5 15 4 16 3 17 2 18 1 19 18 20 19 21 20 22 21 23 22 24 23 26
REMARK SMILES IDX 24 27 25 28 83 29 26 30 82 31 27 32 28 33 29 34 76 35 30 36
REMARK SMILES IDX 81 37 75 38 77 39 31 40 80 41 74 42 73 43 32 45 62 46 43 47
REMARK SMILES IDX 61 48 44 49 47 50 60 51 78 52 45 53 46 54 59 56 79 57 48 58
REMARK SMILES IDX 33 59 34 60 42 61 35 62 41 63 36 64 37 65 38 66 39 67 40 68
REMARK SMILES IDX 63 69 64 70 72 71 65 72 71 73 66 74 67 75 68 76 69 77 70 78
REMARK SMILES IDX 49 79 50 80 58 81 51 82 57 83 52 84 53 85 54 86 55 87 56 88
REMARK H PARENT 17 4 9 13 21 25 77 44 47 55
REMARK Flexibility Score: inf
ROOT
ATOM      1  C   UNL A   1      36.297  22.915  23.604  1.00  0.00     0.227 C 
ATOM      2  O   UNL A   1      36.424  22.965  22.376  1.00  0.00    -0.275 OA
ATOM      3  N   UNL A   1      37.427  22.700  24.324  1.00  0.00    -0.356 N 
ATOM      4  H   UNL A   1      38.244  22.625  23.780  1.00  0.00     0.163 HD
ENDROOT
BRANCH   1   5
ATOM      5  C   UNL A   1      34.929  23.112  24.239  1.00  0.00     0.129 C 
ATOM      6  C   UNL A   1      34.067  24.174  23.590  1.00  0.00     0.122 C 
ATOM      7  C   UNL A   1      32.756  23.501  23.228  1.00  0.00     0.185 C 
ATOM      8  O   UNL A   1      32.865  22.102  23.515  1.00  0.00    -0.378 OA
ATOM      9  C   UNL A   1      34.106  21.833  24.184  1.00  0.00     0.176 C 
BRANCH   6  10
ATOM     10  N   UNL A   1      33.998  25.549  24.116  1.00  0.00    -0.350 N 
ATOM     11  C   UNL A   1      33.628  26.812  23.875  1.00  0.00     0.220 C 
ATOM     12  O   UNL A   1      34.016  27.586  24.771  1.00  0.00    -0.275 OA
ATOM     13  H   UNL A   1      34.384  25.530  25.021  1.00  0.00     0.163 HD
BRANCH  11  14
ATOM     14  C   UNL A   1      32.736  27.431  22.814  1.00  0.00     0.102 C 
BRANCH  14  15
ATOM     15  C   UNL A   1      32.194  28.848  22.806  1.00  0.00     0.038 C 
BRANCH  15  16
ATOM     16  C   UNL A   1      31.005  29.147  23.699  1.00  0.00     0.160 C 
BRANCH  16  17
ATOM     17  O   UNL A   1      30.288  27.975  24.028  1.00  0.00    -0.382 OA
BRANCH  17  18
ATOM     18  C   UNL A   1      29.068  27.768  23.329  1.00  0.00     0.156 C 
ATOM     19  C   UNL A   1      28.334  26.571  23.926  1.00  0.00     0.035 C 
ENDBRANCH  17  18
ENDBRANCH  16  17
ENDBRANCH  15  16
ENDBRANCH  14  15
ENDBRANCH  11  14
ENDBRANCH   6  10
ENDBRANCH   1   5
BRANCH   3  20
ATOM     20  C   UNL A   1      37.651  22.562  25.753  1.00  0.00     0.117 C 
BRANCH  20  21
ATOM     21  C   UNL A   1      38.209  23.840  26.363  1.00  0.00     0.042 C 
BRANCH  21  22
ATOM     22  C   UNL A   1      39.561  23.627  27.024  1.00  0.00     0.118 C 
BRANCH  22  23
ATOM     23  N   UNL A   1      40.645  24.119  26.181  1.00  0.00    -0.352 N 
ATOM     24  C   UNL A   1      41.160  25.385  26.103  1.00  0.00     0.251 C 
ATOM     25  H   UNL A   1      41.062  23.451  25.588  1.00  0.00     0.163 HD
ATOM     26  O   UNL A   1      41.812  25.725  25.107  1.00  0.00    -0.269 OA
BRANCH  24  27
ATOM     27  C   UNL A   1      40.934  26.330  27.209  1.00  0.00     0.039 A 
ATOM     28  C   UNL A   1      40.122  25.968  28.286  1.00  0.00     0.014 A 
ATOM     29  C   UNL A   1      41.538  27.589  27.171  1.00  0.00     0.014 A 
ATOM     30  C   UNL A   1      39.965  26.854  29.352  1.00  0.00     0.010 A 
ATOM     31  C   UNL A   1      41.474  28.418  28.279  1.00  0.00     0.010 A 
ATOM     32  C   UNL A   1      40.667  28.072  29.371  1.00  0.00    -0.014 A 
BRANCH  32  33
ATOM     33  C   UNL A   1      40.554  29.026  30.500  1.00  0.00     0.031 A 
ATOM     34  C   UNL A   1      41.429  28.846  31.713  1.00  0.00     0.074 A 
ATOM     35  C   UNL A   1      39.605  29.982  30.473  1.00  0.00     0.049 A 
ATOM     36  N   UNL A   1      41.416  29.504  32.843  1.00  0.00    -0.248 NA
ATOM     37  C   UNL A   1      42.423  27.758  31.666  1.00  0.00     0.031 C 
ATOM     38  C   UNL A   1      38.655  30.206  29.378  1.00  0.00     0.029 A 
ATOM     39  N   UNL A   1      39.273  30.938  31.398  1.00  0.00    -0.354 N 
ATOM     40  C   UNL A   1      42.366  28.886  33.648  1.00  0.00     0.074 A 
ATOM     41  C   UNL A   1      42.901  27.771  32.901  1.00  0.00     0.031 C 
ATOM     42  C   UNL A   1      37.868  31.249  29.686  1.00  0.00     0.029 A 
ATOM     43  C   UNL A   1      38.226  31.741  31.012  1.00  0.00     0.049 A 
ATOM     44  H   UNL A   1      39.742  31.040  32.259  1.00  0.00     0.167 HD
ATOM     45  C   UNL A   1      42.775  29.232  34.891  1.00  0.00     0.031 A 
ATOM     46  C   UNL A   1      37.619  32.754  31.658  1.00  0.00     0.031 A 
ATOM     47  C   UNL A   1      42.266  30.369  35.608  1.00  0.00     0.049 A 
ATOM     48  C   UNL A   1      38.117  33.144  33.023  1.00  0.00     0.074 A 
ATOM     49  C   UNL A   1      42.674  30.866  36.831  1.00  0.00     0.029 A 
ATOM     50  N   UNL A   1      41.237  31.187  35.162  1.00  0.00    -0.354 N 
ATOM     51  N   UNL A   1      39.080  32.605  33.731  1.00  0.00    -0.248 NA
ATOM     52  C   UNL A   1      37.457  34.286  33.669  1.00  0.00     0.031 C 
ATOM     53  C   UNL A   1      41.857  31.956  37.151  1.00  0.00     0.029 A 
ATOM     54  C   UNL A   1      40.979  32.171  36.099  1.00  0.00     0.049 A 
ATOM     55  H   UNL A   1      40.763  31.082  34.306  1.00  0.00     0.167 HD
ATOM     56  C   UNL A   1      39.156  33.356  34.898  1.00  0.00     0.074 A 
ATOM     57  C   UNL A   1      38.156  34.398  34.790  1.00  0.00     0.031 C 
ATOM     58  C   UNL A   1      39.978  33.198  35.966  1.00  0.00     0.031 A 
BRANCH  45  59
ATOM     59  C   UNL A   1      43.825  28.377  35.550  1.00  0.00    -0.014 A 
ATOM     60  C   UNL A   1      45.196  28.654  35.395  1.00  0.00     0.010 A 
ATOM     61  C   UNL A   1      43.434  27.304  36.373  1.00  0.00     0.010 A 
ATOM     62  C   UNL A   1      46.156  27.854  36.020  1.00  0.00     0.020 A 
ATOM     63  C   UNL A   1      44.391  26.520  37.024  1.00  0.00     0.020 A 
ATOM     64  C   UNL A   1      45.747  26.792  36.831  1.00  0.00     0.054 A 
BRANCH  64  65
ATOM     65  S   UNL A   1      47.014  25.794  37.662  1.00  0.00     0.124 S 
ATOM     66  O   UNL A   1      46.340  24.506  37.800  1.00  0.00    -0.237 OA
ATOM     67  O   UNL A   1      48.121  25.824  36.707  1.00  0.00    -0.237 OA
ATOM     68  O   UNL A   1      47.255  26.508  38.913  1.00  0.00    -0.744 OA
ENDBRANCH  64  65
ENDBRANCH  45  59
BRANCH  46  69
ATOM     69  C   UNL A   1      36.485  33.474  31.017  1.00  0.00    -0.014 A 
ATOM     70  C   UNL A   1      35.282  33.680  31.715  1.00  0.00     0.010 A 
ATOM     71  C   UNL A   1      36.609  33.976  29.708  1.00  0.00     0.010 A 
ATOM     72  C   UNL A   1      34.216  34.352  31.108  1.00  0.00     0.020 A 
ATOM     73  C   UNL A   1      35.556  34.674  29.109  1.00  0.00     0.020 A 
ATOM     74  C   UNL A   1      34.360  34.845  29.809  1.00  0.00     0.054 A 
BRANCH  74  75
ATOM     75  S   UNL A   1      32.980  35.755  29.060  1.00  0.00     0.124 S 
ATOM     76  O   UNL A   1      32.193  36.129  30.230  1.00  0.00    -0.237 OA
ATOM     77  O   UNL A   1      33.660  36.851  28.375  1.00  0.00    -0.237 OA
ATOM     78  O   UNL A   1      32.361  34.769  28.176  1.00  0.00    -0.744 OA
ENDBRANCH  74  75
ENDBRANCH  46  69
BRANCH  58  79
ATOM     79  C   UNL A   1      39.848  34.189  37.089  1.00  0.00    -0.014 A 
ATOM     80  C   UNL A   1      40.477  35.444  37.027  1.00  0.00     0.010 A 
ATOM     81  C   UNL A   1      39.029  33.882  38.192  1.00  0.00     0.010 A 
ATOM     82  C   UNL A   1      40.312  36.365  38.065  1.00  0.00     0.020 A 
ATOM     83  C   UNL A   1      38.839  34.811  39.216  1.00  0.00     0.020 A 
ATOM     84  C   UNL A   1      39.494  36.042  39.151  1.00  0.00     0.054 A 
BRANCH  84  85
ATOM     85  S   UNL A   1      39.259  37.275  40.462  1.00  0.00     0.124 S 
ATOM     86  O   UNL A   1      38.872  36.441  41.596  1.00  0.00    -0.237 OA
ATOM     87  O   UNL A   1      40.578  37.896  40.558  1.00  0.00    -0.237 OA
ATOM     88  O   UNL A   1      38.206  38.141  39.937  1.00  0.00    -0.744 OA
ENDBRANCH  84  85
ENDBRANCH  58  79
ENDBRANCH  32  33
ENDBRANCH  24  27
ENDBRANCH  22  23
ENDBRANCH  21  22
ENDBRANCH  20  21
ENDBRANCH   3  20
TORSDOF 19
ENDMDL
MODEL 2
REMARK VINA RESULT:     -10.5      3.115      9.639
REMARK SMILES CCOCCCC(=O)N[C@@H]1COC[C@H]1C(=O)NCCCNC(=O)c1ccc(-c2c3nc(c(-c4ccc(S(=O)(=O)[O-])cc4)c4ccc([nH]4)c(-c4ccc(S(=O)(=O)[O-])cc4)c4nc(c(-c5ccc(S(=O)(=O)[O-])cc5)c5ccc2[nH]5)C=C4)C=C3)cc1
REMARK SMILES IDX 15 1 16 2 17 3 14 5 10 6 11 7 12 8 13 9 9 10 7 11 8 12 6 14
REMARK SMILES IDX 5 15 4 16 3 17 2 18 1 19 18 20 19 21 20 22 21 23 22 24 23 26
REMARK SMILES IDX 24 27 25 28 83 29 26 30 82 31 27 32 28 33 29 34 76 35 30 36
REMARK SMILES IDX 81 37 75 38 77 39 31 40 80 41 74 42 73 43 32 45 62 46 43 47
REMARK SMILES IDX 61 48 44 49 47 50 60 51 78 52 45 53 46 54 59 56 79 57 48 58
REMARK SMILES IDX 33 59 34 60 42 61 35 62 41 63 36 64 37 65 38 66 39 67 40 68
REMARK SMILES IDX 63 69 64 70 72 71 65 72 71 73 66 74 67 75 68 76 69 77 70 78
REMARK SMILES IDX 49 79 50 80 58 81 51 82 57 83 52 84 53 85 54 86 55 87 56 88
REMARK H PARENT 17 4 9 13 21 25 77 44 47 55
REMARK Flexibility Score: inf
ROOT
ATOM      1  C   UNL A   1      30.685  26.665  24.942  1.00  0.00     0.227 C 
ATOM      2  O   UNL A   1      29.520  26.268  24.840  1.00  0.00    -0.275 OA
ATOM      3  N   UNL A   1      31.422  26.134  25.952  1.00  0.00    -0.356 N 
ATOM      4  H   UNL A   1      30.943  25.464  26.491  1.00  0.00     0.163 HD
ENDROOT
BRANCH   1   5
ATOM      5  C   UNL A   1      31.237  27.681  23.954  1.00  0.00     0.129 C 
ATOM      6  C   UNL A   1      30.825  27.463  22.514  1.00  0.00     0.122 C 
ATOM      7  C   UNL A   1      30.192  28.760  22.046  1.00  0.00     0.185 C 
ATOM      8  O   UNL A   1      30.105  29.655  23.162  1.00  0.00    -0.378 OA
ATOM      9  C   UNL A   1      30.776  29.091  24.298  1.00  0.00     0.176 C 
BRANCH   6  10
ATOM     10  N   UNL A   1      31.691  26.751  21.556  1.00  0.00    -0.350 N 
ATOM     11  C   UNL A   1      32.524  25.721  21.367  1.00  0.00     0.220 C 
ATOM     12  O   UNL A   1      33.079  25.775  20.252  1.00  0.00    -0.275 OA
ATOM     13  H   UNL A   1      31.632  27.235  20.702  1.00  0.00     0.163 HD
BRANCH  11  14
ATOM     14  C   UNL A   1      32.803  24.470  22.179  1.00  0.00     0.102 C 
BRANCH  14  15
ATOM     15  C   UNL A   1      33.699  24.369  23.400  1.00  0.00     0.038 C 
BRANCH  15  16
ATOM     16  C   UNL A   1      33.972  22.984  23.954  1.00  0.00     0.160 C 
BRANCH  16  17
ATOM     17  O   UNL A   1      34.308  23.024  25.325  1.00  0.00    -0.382 OA
BRANCH  17  18
ATOM     18  C   UNL A   1      34.689  21.788  25.916  1.00  0.00     0.156 C 
ATOM     19  C   UNL A   1      34.526  20.664  24.898  1.00  0.00     0.035 C 
ENDBRANCH  17  18
ENDBRANCH  16  17
ENDBRANCH  15  16
ENDBRANCH  14  15
ENDBRANCH  11  14
ENDBRANCH   6  10
ENDBRANCH   1   5
BRANCH   3  20
ATOM     20  C   UNL A   1      32.790  26.374  26.380  1.00  0.00     0.117 C 
BRANCH  20  21
ATOM     21  C   UNL A   1      32.966  27.774  26.950  1.00  0.00     0.042 C 
BRANCH  21  22
ATOM     22  C   UNL A   1      34.038  28.567  26.223  1.00  0.00     0.118 C 
BRANCH  22  23
ATOM     23  N   UNL A   1      33.897  29.998  26.468  1.00  0.00    -0.352 N 
ATOM     24  C   UNL A   1      34.521  30.770  27.411  1.00  0.00     0.251 C 
ATOM     25  H   UNL A   1      33.268  30.473  25.876  1.00  0.00     0.163 HD
ATOM     26  O   UNL A   1      34.039  31.865  27.728  1.00  0.00    -0.269 OA
BRANCH  24  27
ATOM     27  C   UNL A   1      35.763  30.288  28.037  1.00  0.00     0.039 A 
ATOM     28  C   UNL A   1      36.989  30.476  27.398  1.00  0.00     0.014 A 
ATOM     29  C   UNL A   1      35.703  29.644  29.276  1.00  0.00     0.014 A 
ATOM     30  C   UNL A   1      38.162  30.065  28.032  1.00  0.00     0.010 A 
ATOM     31  C   UNL A   1      36.873  29.342  29.952  1.00  0.00     0.010 A 
ATOM     32  C   UNL A   1      38.114  29.524  29.329  1.00  0.00    -0.014 A 
BRANCH  32  33
ATOM     33  C   UNL A   1      39.340  29.106  30.051  1.00  0.00     0.031 A 
ATOM     34  C   UNL A   1      39.762  29.853  31.289  1.00  0.00     0.074 A 
ATOM     35  C   UNL A   1      40.113  28.129  29.540  1.00  0.00     0.049 A 
ATOM     36  N   UNL A   1      40.847  29.714  32.005  1.00  0.00    -0.248 NA
ATOM     37  C   UNL A   1      38.867  30.924  31.763  1.00  0.00     0.031 C 
ATOM     38  C   UNL A   1      39.837  27.382  28.309  1.00  0.00     0.029 A 
ATOM     39  N   UNL A   1      41.298  27.603  29.987  1.00  0.00    -0.354 N 
ATOM     40  C   UNL A   1      40.782  30.701  32.982  1.00  0.00     0.074 A 
ATOM     41  C   UNL A   1      39.579  31.464  32.740  1.00  0.00     0.031 C 
ATOM     42  C   UNL A   1      40.812  26.479  28.115  1.00  0.00     0.029 A 
ATOM     43  C   UNL A   1      41.800  26.609  29.180  1.00  0.00     0.049 A 
ATOM     44  H   UNL A   1      41.748  27.909  30.808  1.00  0.00     0.167 HD
ATOM     45  C   UNL A   1      41.635  30.934  34.006  1.00  0.00     0.031 A 
ATOM     46  C   UNL A   1      42.933  25.889  29.284  1.00  0.00     0.031 A 
ATOM     47  C   UNL A   1      42.806  30.141  34.263  1.00  0.00     0.049 A 
ATOM     48  C   UNL A   1      43.846  26.141  30.453  1.00  0.00     0.074 A 
ATOM     49  C   UNL A   1      43.688  30.229  35.323  1.00  0.00     0.029 A 
ATOM     50  N   UNL A   1      43.254  29.111  33.448  1.00  0.00    -0.354 N 
ATOM     51  N   UNL A   1      43.720  27.018  31.419  1.00  0.00    -0.248 NA
ATOM     52  C   UNL A   1      45.045  25.299  30.552  1.00  0.00     0.031 C 
ATOM     53  C   UNL A   1      44.701  29.286  35.124  1.00  0.00     0.029 A 
ATOM     54  C   UNL A   1      44.417  28.572  33.970  1.00  0.00     0.049 A 
ATOM     55  H   UNL A   1      42.811  28.809  32.623  1.00  0.00     0.167 HD
ATOM     56  C   UNL A   1      44.813  26.819  32.255  1.00  0.00     0.074 A 
ATOM     57  C   UNL A   1      45.576  25.725  31.689  1.00  0.00     0.031 C 
ATOM     58  C   UNL A   1      45.157  27.481  33.387  1.00  0.00     0.031 A 
BRANCH  45  59
ATOM     59  C   UNL A   1      41.332  32.087  34.927  1.00  0.00    -0.014 A 
ATOM     60  C   UNL A   1      41.734  33.398  34.613  1.00  0.00     0.010 A 
ATOM     61  C   UNL A   1      40.594  31.863  36.105  1.00  0.00     0.010 A 
ATOM     62  C   UNL A   1      41.438  34.457  35.475  1.00  0.00     0.020 A 
ATOM     63  C   UNL A   1      40.270  32.924  36.955  1.00  0.00     0.020 A 
ATOM     64  C   UNL A   1      40.707  34.212  36.641  1.00  0.00     0.054 A 
BRANCH  64  65
ATOM     65  S   UNL A   1      40.302  35.612  37.722  1.00  0.00     0.124 S 
ATOM     66  O   UNL A   1      40.172  36.706  36.762  1.00  0.00    -0.237 OA
ATOM     67  O   UNL A   1      39.057  35.180  38.353  1.00  0.00    -0.237 OA
ATOM     68  O   UNL A   1      41.452  35.704  38.618  1.00  0.00    -0.744 OA
ENDBRANCH  64  65
ENDBRANCH  45  59
BRANCH  46  69
ATOM     69  C   UNL A   1      43.257  24.857  28.261  1.00  0.00    -0.014 A 
ATOM     70  C   UNL A   1      42.792  23.537  28.405  1.00  0.00     0.010 A 
ATOM     71  C   UNL A   1      44.019  25.192  27.127  1.00  0.00     0.010 A 
ATOM     72  C   UNL A   1      43.103  22.567  27.446  1.00  0.00     0.020 A 
ATOM     73  C   UNL A   1      44.307  24.232  26.152  1.00  0.00     0.020 A 
ATOM     74  C   UNL A   1      43.858  22.922  26.325  1.00  0.00     0.054 A 
BRANCH  74  75
ATOM     75  S   UNL A   1      44.209  21.658  25.071  1.00  0.00     0.124 S 
ATOM     76  O   UNL A   1      45.574  21.267  25.408  1.00  0.00    -0.237 OA
ATOM     77  O   UNL A   1      43.178  20.657  25.334  1.00  0.00    -0.237 OA
ATOM     78  O   UNL A   1      44.056  22.379  23.808  1.00  0.00    -0.744 OA
ENDBRANCH  74  75
ENDBRANCH  46  69
BRANCH  58  79
ATOM     79  C   UNL A   1      46.398  27.025  34.103  1.00  0.00    -0.014 A 
ATOM     80  C   UNL A   1      46.346  26.001  35.064  1.00  0.00     0.010 A 
ATOM     81  C   UNL A   1      47.641  27.586  33.759  1.00  0.00     0.010 A 
ATOM     82  C   UNL A   1      47.517  25.565  35.691  1.00  0.00     0.020 A 
ATOM     83  C   UNL A   1      48.816  27.133  34.363  1.00  0.00     0.020 A 
ATOM     84  C   UNL A   1      48.743  26.134  35.335  1.00  0.00     0.054 A 
BRANCH  84  85
ATOM     85  S   UNL A   1      50.253  25.517  36.129  1.00  0.00     0.124 S 
ATOM     86  O   UNL A   1      51.295  26.059  35.262  1.00  0.00    -0.237 OA
ATOM     87  O   UNL A   1      50.177  26.106  37.464  1.00  0.00    -0.237 OA
ATOM     88  O   UNL A   1      50.098  24.065  36.085  1.00  0.00    -0.744 OA
ENDBRANCH  84  85
ENDBRANCH  58  79
ENDBRANCH  32  33
ENDBRANCH  24  27
ENDBRANCH  22  23
ENDBRANCH  21  22
ENDBRANCH  20  21
ENDBRANCH   3  20
TORSDOF 19
ENDMDL
MODEL 3
REMARK VINA RESULT:     -10.4      3.433      4.434
REMARK SMILES CCOCCCC(=O)N[C@@H]1COC[C@H]1C(=O)NCCCNC(=O)c1ccc(-c2c3nc(c(-c4ccc(S(=O)(=O)[O-])cc4)c4ccc([nH]4)c(-c4ccc(S(=O)(=O)[O-])cc4)c4nc(c(-c5ccc(S(=O)(=O)[O-])cc5)c5ccc2[nH]5)C=C4)C=C3)cc1
REMARK SMILES IDX 15 1 16 2 17 3 14 5 10 6 11 7 12 8 13 9 9 10 7 11 8 12 6 14
REMARK SMILES IDX 5 15 4 16 3 17 2 18 1 19 18 20 19 21 20 22 21 23 22 24 23 26
REMARK SMILES IDX 24 27 25 28 83 29 26 30 82 31 27 32 28 33 29 34 76 35 30 36
REMARK SMILES IDX 81 37 75 38 77 39 31 40 80 41 74 42 73 43 32 45 62 46 43 47
REMARK SMILES IDX 61 48 44 49 47 50 60 51 78 52 45 53 46 54 59 56 79 57 48 58
REMARK SMILES IDX 33 59 34 60 42 61 35 62 41 63 36 64 37 65 38 66 39 67 40 68
REMARK SMILES IDX 63 69 64 70 72 71 65 72 71 73 66 74 67 75 68 76 69 77 70 78
REMARK SMILES IDX 49 79 50 80 58 81 51 82 57 83 52 84 53 85 54 86 55 87 56 88
REMARK H PARENT 17 4 9 13 21 25 77 44 47 55
REMARK Flexibility Score: inf
ROOT
ATOM      1  C   UNL A   1      33.604  22.377  23.455  1.00  0.00     0.227 C 
ATOM      2  O   UNL A   1      32.638  22.399  22.686  1.00  0.00    -0.275 OA
ATOM      3  N   UNL A   1      34.696  23.090  23.080  1.00  0.00    -0.356 N 
ATOM      4  H   UNL A   1      34.590  23.572  22.228  1.00  0.00     0.163 HD
ENDROOT
BRANCH   1   5
ATOM      5  C   UNL A   1      33.526  21.595  24.757  1.00  0.00     0.129 C 
ATOM      6  C   UNL A   1      32.145  21.095  25.123  1.00  0.00     0.122 C 
ATOM      7  C   UNL A   1      32.272  19.598  25.331  1.00  0.00     0.185 C 
ATOM      8  O   UNL A   1      33.603  19.198  24.986  1.00  0.00    -0.378 OA
ATOM      9  C   UNL A   1      34.407  20.355  24.710  1.00  0.00     0.176 C 
BRANCH   6  10
ATOM     10  N   UNL A   1      31.271  21.834  26.052  1.00  0.00    -0.350 N 
ATOM     11  C   UNL A   1      30.770  23.027  26.394  1.00  0.00     0.220 C 
ATOM     12  O   UNL A   1      30.139  22.973  27.466  1.00  0.00    -0.275 OA
ATOM     13  H   UNL A   1      30.901  21.175  26.683  1.00  0.00     0.163 HD
BRANCH  11  14
ATOM     14  C   UNL A   1      30.720  24.359  25.669  1.00  0.00     0.102 C 
BRANCH  14  15
ATOM     15  C   UNL A   1      31.910  25.188  25.222  1.00  0.00     0.038 C 
BRANCH  15  16
ATOM     16  C   UNL A   1      32.993  25.465  26.247  1.00  0.00     0.160 C 
BRANCH  16  17
ATOM     17  O   UNL A   1      33.461  26.796  26.170  1.00  0.00    -0.382 OA
BRANCH  17  18
ATOM     18  C   UNL A   1      32.642  27.785  26.777  1.00  0.00     0.156 C 
ATOM     19  C   UNL A   1      33.497  28.984  27.174  1.00  0.00     0.035 C 
ENDBRANCH  17  18
ENDBRANCH  16  17
ENDBRANCH  15  16
ENDBRANCH  14  15
ENDBRANCH  11  14
ENDBRANCH   6  10
ENDBRANCH   1   5
BRANCH   3  20
ATOM     20  C   UNL A   1      35.994  23.273  23.708  1.00  0.00     0.117 C 
BRANCH  20  21
ATOM     21  C   UNL A   1      35.945  24.320  24.811  1.00  0.00     0.042 C 
BRANCH  21  22
ATOM     22  C   UNL A   1      36.264  23.739  26.178  1.00  0.00     0.118 C 
BRANCH  22  23
ATOM     23  N   UNL A   1      37.292  22.708  26.089  1.00  0.00    -0.352 N 
ATOM     24  C   UNL A   1      38.650  22.844  26.192  1.00  0.00     0.251 C 
ATOM     25  H   UNL A   1      36.965  21.792  25.933  1.00  0.00     0.163 HD
ATOM     26  O   UNL A   1      39.394  21.963  25.742  1.00  0.00    -0.269 OA
BRANCH  24  27
ATOM     27  C   UNL A   1      39.213  24.040  26.841  1.00  0.00     0.039 A 
ATOM     28  C   UNL A   1      39.949  24.962  26.094  1.00  0.00     0.014 A 
ATOM     29  C   UNL A   1      39.003  24.244  28.207  1.00  0.00     0.014 A 
ATOM     30  C   UNL A   1      40.426  26.118  26.713  1.00  0.00     0.010 A 
ATOM     31  C   UNL A   1      39.378  25.443  28.790  1.00  0.00     0.010 A 
ATOM     32  C   UNL A   1      40.115  26.382  28.058  1.00  0.00    -0.014 A 
BRANCH  32  33
ATOM     33  C   UNL A   1      40.575  27.614  28.742  1.00  0.00     0.031 A 
ATOM     34  C   UNL A   1      41.935  27.641  29.387  1.00  0.00     0.074 A 
ATOM     35  C   UNL A   1      39.736  28.662  28.863  1.00  0.00     0.049 A 
ATOM     36  N   UNL A   1      42.483  28.577  30.118  1.00  0.00    -0.248 NA
ATOM     37  C   UNL A   1      42.776  26.441  29.225  1.00  0.00     0.031 C 
ATOM     38  C   UNL A   1      38.369  28.722  28.336  1.00  0.00     0.029 A 
ATOM     39  N   UNL A   1      39.905  29.875  29.480  1.00  0.00    -0.354 N 
ATOM     40  C   UNL A   1      43.707  28.064  30.530  1.00  0.00     0.074 A 
ATOM     41  C   UNL A   1      43.803  26.718  30.015  1.00  0.00     0.031 C 
ATOM     42  C   UNL A   1      37.836  29.919  28.631  1.00  0.00     0.029 A 
ATOM     43  C   UNL A   1      38.803  30.693  29.400  1.00  0.00     0.049 A 
ATOM     44  H   UNL A   1      40.738  30.135  29.938  1.00  0.00     0.167 HD
ATOM     45  C   UNL A   1      44.677  28.670  31.254  1.00  0.00     0.031 A 
ATOM     46  C   UNL A   1      38.594  31.927  29.898  1.00  0.00     0.031 A 
ATOM     47  C   UNL A   1      44.589  30.025  31.725  1.00  0.00     0.049 A 
ATOM     48  C   UNL A   1      39.702  32.594  30.666  1.00  0.00     0.074 A 
ATOM     49  C   UNL A   1      45.548  30.770  32.385  1.00  0.00     0.029 A 
ATOM     50  N   UNL A   1      43.474  30.838  31.582  1.00  0.00    -0.354 N 
ATOM     51  N   UNL A   1      40.890  32.127  30.968  1.00  0.00    -0.248 NA
ATOM     52  C   UNL A   1      39.448  33.958  31.149  1.00  0.00     0.031 C 
ATOM     53  C   UNL A   1      44.996  32.018  32.688  1.00  0.00     0.029 A 
ATOM     54  C   UNL A   1      43.712  32.070  32.166  1.00  0.00     0.049 A 
ATOM     55  H   UNL A   1      42.638  30.578  31.133  1.00  0.00     0.167 HD
ATOM     56  C   UNL A   1      41.533  33.148  31.658  1.00  0.00     0.074 A 
ATOM     57  C   UNL A   1      40.609  34.263  31.709  1.00  0.00     0.031 C 
ATOM     58  C   UNL A   1      42.776  33.164  32.202  1.00  0.00     0.031 A 
BRANCH  45  59
ATOM     59  C   UNL A   1      45.916  27.877  31.574  1.00  0.00    -0.014 A 
ATOM     60  C   UNL A   1      46.999  27.819  30.677  1.00  0.00     0.010 A 
ATOM     61  C   UNL A   1      46.018  27.212  32.811  1.00  0.00     0.010 A 
ATOM     62  C   UNL A   1      48.144  27.083  30.994  1.00  0.00     0.020 A 
ATOM     63  C   UNL A   1      47.174  26.500  33.144  1.00  0.00     0.020 A 
ATOM     64  C   UNL A   1      48.224  26.428  32.226  1.00  0.00     0.054 A 
BRANCH  64  65
ATOM     65  S   UNL A   1      49.738  25.513  32.627  1.00  0.00     0.124 S 
ATOM     66  O   UNL A   1      50.208  25.114  31.302  1.00  0.00    -0.237 OA
ATOM     67  O   UNL A   1      50.552  26.522  33.303  1.00  0.00    -0.237 OA
ATOM     68  O   UNL A   1      49.271  24.422  33.477  1.00  0.00    -0.744 OA
ENDBRANCH  64  65
ENDBRANCH  45  59
BRANCH  46  69
ATOM     69  C   UNL A   1      37.291  32.610  29.675  1.00  0.00    -0.014 A 
ATOM     70  C   UNL A   1      37.115  33.473  28.578  1.00  0.00     0.010 A 
ATOM     71  C   UNL A   1      36.211  32.389  30.548  1.00  0.00     0.010 A 
ATOM     72  C   UNL A   1      35.892  34.119  28.373  1.00  0.00     0.020 A 
ATOM     73  C   UNL A   1      34.978  33.010  30.330  1.00  0.00     0.020 A 
ATOM     74  C   UNL A   1      34.830  33.883  29.250  1.00  0.00     0.054 A 
BRANCH  74  75
ATOM     75  S   UNL A   1      33.238  34.695  28.937  1.00  0.00     0.124 S 
ATOM     76  O   UNL A   1      32.631  33.804  27.954  1.00  0.00    -0.237 OA
ATOM     77  O   UNL A   1      32.619  34.698  30.260  1.00  0.00    -0.237 OA
ATOM     78  O   UNL A   1      33.621  36.014  28.436  1.00  0.00    -0.744 OA
ENDBRANCH  74  75
ENDBRANCH  46  69
BRANCH  58  79
ATOM     79  C   UNL A   1      43.218  34.433  32.876  1.00  0.00    -0.014 A 
ATOM     80  C   UNL A   1      43.003  34.638  34.250  1.00  0.00     0.010 A 
ATOM     81  C   UNL A   1      43.917  35.403  32.135  1.00  0.00     0.010 A 
ATOM     82  C   UNL A   1      43.454  35.809  34.865  1.00  0.00     0.020 A 
ATOM     83  C   UNL A   1      44.395  36.561  32.753  1.00  0.00     0.020 A 
ATOM     84  C   UNL A   1      44.148  36.761  34.112  1.00  0.00     0.054 A 
BRANCH  84  85
ATOM     85  S   UNL A   1      44.765  38.249  34.946  1.00  0.00     0.124 S 
ATOM     86  O   UNL A   1      46.197  37.976  35.033  1.00  0.00    -0.237 OA
ATOM     87  O   UNL A   1      44.384  39.315  34.023  1.00  0.00    -0.237 OA
ATOM     88  O   UNL A   1      44.052  38.252  36.221  1.00  0.00    -0.744 OA
ENDBRANCH  84  85
ENDBRANCH  58  79
ENDBRANCH  32  33
ENDBRANCH  24  27
ENDBRANCH  22  23
ENDBRANCH  21  22
ENDBRANCH  20  21
ENDBRANCH   3  20
TORSDOF 19
ENDMDL
