MODEL 1
REMARK VINA RESULT:     -13.6      0.000      0.000
REMARK SMILES CN1C(=O)C[C@@H](C(=O)NCCCNC(=O)c2ccc(-c3c4nc(c(-c5ccc(S(=O)(=O)[O-])cc5)c5ccc([nH]5)c(-c5ccc(S(=O)(=O)[O-])cc5)c5nc(c(-c6ccc(S(=O)(=O)[O-])cc6)c6ccc3[nH]6)C=C5)C=C4)cc2)C12CCN(C(=O)c1ccccc1-n1cccn1)CC2
REMARK SMILES IDX 11 1 10 2 9 3 7 4 8 5 6 7 1 8 2 9 3 10 76 11 4 12 5 13 77 14
REMARK SMILES IDX 94 15 78 16 93 17 79 18 80 19 81 20 82 21 83 22 87 23 84 24
REMARK SMILES IDX 86 25 85 26 88 27 89 28 92 29 90 30 91 31 12 32 13 33 14 34
REMARK SMILES IDX 15 36 16 37 17 38 75 39 18 40 74 41 19 42 20 43 21 44 68 45
REMARK SMILES IDX 22 46 73 47 67 48 69 49 23 50 72 51 66 52 65 53 24 55 54 56
REMARK SMILES IDX 35 57 53 58 36 59 39 60 52 61 70 62 37 63 38 64 51 66 71 67
REMARK SMILES IDX 40 68 25 69 26 70 34 71 27 72 33 73 28 74 29 75 30 76 31 77
REMARK SMILES IDX 32 78 55 79 56 80 64 81 57 82 63 83 58 84 59 85 60 86 61 87
REMARK SMILES IDX 62 88 41 89 42 90 50 91 43 92 49 93 44 94 45 95 46 96 47 97
REMARK SMILES IDX 48 98
REMARK H PARENT 9 6 13 35 69 54 39 65
REMARK Flexibility Score: inf
ROOT
ATOM      1  C   UNL A   1      38.904  22.821  26.482  1.00  0.00     0.042 C 
ENDROOT
BRANCH   1   2
ATOM      2  C   UNL A   1      37.890  23.882  26.044  1.00  0.00     0.117 C 
BRANCH   2   3
ATOM      3  N   UNL A   1      37.268  23.636  24.748  1.00  0.00    -0.356 N 
ATOM      4  C   UNL A   1      36.098  23.079  24.347  1.00  0.00     0.226 C 
ATOM      5  O   UNL A   1      35.868  23.121  23.130  1.00  0.00    -0.275 OA
ATOM      6  H   UNL A   1      37.823  23.943  23.995  1.00  0.00     0.163 HD
BRANCH   4   7
ATOM      7  C   UNL A   1      35.082  22.373  25.250  1.00  0.00     0.113 C 
ATOM      8  C   UNL A   1      32.231  20.800  23.411  1.00  0.00     0.147 C 
ATOM      9  N   UNL A   1      33.386  21.153  24.217  1.00  0.00    -0.339 N 
ATOM     10  C   UNL A   1      34.310  20.201  24.628  1.00  0.00     0.223 C 
ATOM     11  C   UNL A   1      33.593  22.470  24.847  1.00  0.00     0.058 C 
ATOM     12  O   UNL A   1      34.298  19.006  24.373  1.00  0.00    -0.275 OA
ATOM     13  C   UNL A   1      35.381  20.887  25.425  1.00  0.00     0.116 C 
ATOM     14  C   UNL A   1      33.302  23.676  23.933  1.00  0.00     0.051 C 
ATOM     15  C   UNL A   1      32.648  22.555  26.090  1.00  0.00     0.051 C 
ATOM     16  C   UNL A   1      33.321  25.008  24.670  1.00  0.00     0.122 C 
ATOM     17  C   UNL A   1      32.553  23.945  26.727  1.00  0.00     0.122 C 
ATOM     18  N   UNL A   1      32.317  24.975  25.719  1.00  0.00    -0.338 N 
ATOM     19  C   UNL A   1      31.215  25.825  25.831  1.00  0.00     0.256 C 
ATOM     20  O   UNL A   1      30.415  25.767  26.762  1.00  0.00    -0.269 OA
BRANCH  19  21
ATOM     21  C   UNL A   1      31.003  26.905  24.832  1.00  0.00     0.065 A 
ATOM     22  C   UNL A   1      30.103  26.600  23.795  1.00  0.00     0.016 A 
ATOM     23  C   UNL A   1      31.570  28.189  24.889  1.00  0.00     0.077 A 
ATOM     24  C   UNL A   1      29.748  27.567  22.851  1.00  0.00     0.001 A 
ATOM     25  C   UNL A   1      31.158  29.172  23.970  1.00  0.00     0.029 A 
ATOM     26  C   UNL A   1      30.265  28.856  22.947  1.00  0.00     0.002 A 
BRANCH  23  27
ATOM     27  N   UNL A   1      32.572  28.551  25.819  1.00  0.00    -0.240 N 
ATOM     28  C   UNL A   1      32.423  29.057  27.090  1.00  0.00     0.115 A 
ATOM     29  N   UNL A   1      33.884  28.403  25.494  1.00  0.00    -0.177 NA
ATOM     30  C   UNL A   1      33.688  29.226  27.605  1.00  0.00     0.042 A 
ATOM     31  C   UNL A   1      34.548  28.823  26.572  1.00  0.00     0.135 A 
ENDBRANCH  23  27
ENDBRANCH  19  21
ENDBRANCH   4   7
ENDBRANCH   2   3
ENDBRANCH   1   2
BRANCH   1  32
ATOM     32  C   UNL A   1      40.177  23.393  27.093  1.00  0.00     0.118 C 
BRANCH  32  33
ATOM     33  N   UNL A   1      40.976  24.090  26.096  1.00  0.00    -0.352 N 
ATOM     34  C   UNL A   1      41.319  25.419  26.014  1.00  0.00     0.251 C 
ATOM     35  H   UNL A   1      41.324  23.524  25.370  1.00  0.00     0.163 HD
ATOM     36  O   UNL A   1      41.723  25.867  24.944  1.00  0.00    -0.269 OA
BRANCH  34  37
ATOM     37  C   UNL A   1      41.200  26.307  27.193  1.00  0.00     0.039 A 
ATOM     38  C   UNL A   1      42.133  27.334  27.367  1.00  0.00     0.014 A 
ATOM     39  C   UNL A   1      40.209  26.099  28.155  1.00  0.00     0.014 A 
ATOM     40  C   UNL A   1      42.036  28.183  28.473  1.00  0.00     0.010 A 
ATOM     41  C   UNL A   1      40.062  26.997  29.210  1.00  0.00     0.010 A 
ATOM     42  C   UNL A   1      40.978  28.044  29.387  1.00  0.00    -0.014 A 
BRANCH  42  43
ATOM     43  C   UNL A   1      40.810  28.979  30.531  1.00  0.00     0.031 A 
ATOM     44  C   UNL A   1      41.655  28.824  31.767  1.00  0.00     0.074 A 
ATOM     45  C   UNL A   1      39.847  29.919  30.486  1.00  0.00     0.049 A 
ATOM     46  N   UNL A   1      41.598  29.489  32.893  1.00  0.00    -0.248 NA
ATOM     47  C   UNL A   1      42.682  27.769  31.746  1.00  0.00     0.031 C 
ATOM     48  C   UNL A   1      38.937  30.147  29.359  1.00  0.00     0.029 A 
ATOM     49  N   UNL A   1      39.461  30.853  31.415  1.00  0.00    -0.354 N 
ATOM     50  C   UNL A   1      42.561  28.918  33.720  1.00  0.00     0.074 A 
ATOM     51  C   UNL A   1      43.155  27.824  32.983  1.00  0.00     0.031 C 
ATOM     52  C   UNL A   1      38.117  31.167  29.656  1.00  0.00     0.029 A 
ATOM     53  C   UNL A   1      38.403  31.632  31.008  1.00  0.00     0.049 A 
ATOM     54  H   UNL A   1      39.899  30.955  32.290  1.00  0.00     0.167 HD
ATOM     55  C   UNL A   1      42.928  29.282  34.973  1.00  0.00     0.031 A 
ATOM     56  C   UNL A   1      37.725  32.601  31.655  1.00  0.00     0.031 A 
ATOM     57  C   UNL A   1      42.337  30.377  35.698  1.00  0.00     0.049 A 
ATOM     58  C   UNL A   1      38.133  32.972  33.054  1.00  0.00     0.074 A 
ATOM     59  C   UNL A   1      42.684  30.868  36.944  1.00  0.00     0.029 A 
ATOM     60  N   UNL A   1      41.270  31.141  35.249  1.00  0.00    -0.354 N 
ATOM     61  N   UNL A   1      39.100  32.475  33.787  1.00  0.00    -0.248 NA
ATOM     62  C   UNL A   1      37.363  34.036  33.710  1.00  0.00     0.031 C 
ATOM     63  C   UNL A   1      41.782  31.883  37.279  1.00  0.00     0.029 A 
ATOM     64  C   UNL A   1      40.918  32.073  36.212  1.00  0.00     0.049 A 
ATOM     65  H   UNL A   1      40.829  31.038  34.376  1.00  0.00     0.167 HD
ATOM     66  C   UNL A   1      39.065  33.177  34.987  1.00  0.00     0.074 A 
ATOM     67  C   UNL A   1      37.998  34.150  34.870  1.00  0.00     0.031 C 
ATOM     68  C   UNL A   1      39.843  33.027  36.087  1.00  0.00     0.031 A 
BRANCH  55  69
ATOM     69  C   UNL A   1      44.009  28.476  35.647  1.00  0.00    -0.014 A 
ATOM     70  C   UNL A   1      45.369  28.807  35.504  1.00  0.00     0.010 A 
ATOM     71  C   UNL A   1      43.656  27.390  36.470  1.00  0.00     0.010 A 
ATOM     72  C   UNL A   1      46.356  28.041  36.130  1.00  0.00     0.020 A 
ATOM     73  C   UNL A   1      44.638  26.640  37.125  1.00  0.00     0.020 A 
ATOM     74  C   UNL A   1      45.984  26.960  36.935  1.00  0.00     0.054 A 
BRANCH  74  75
ATOM     75  S   UNL A   1      47.286  25.993  37.747  1.00  0.00     0.124 S 
ATOM     76  O   UNL A   1      48.025  25.463  36.604  1.00  0.00    -0.237 OA
ATOM     77  O   UNL A   1      47.989  27.003  38.534  1.00  0.00    -0.237 OA
ATOM     78  O   UNL A   1      46.549  25.001  38.526  1.00  0.00    -0.744 OA
ENDBRANCH  74  75
ENDBRANCH  55  69
BRANCH  56  79
ATOM     79  C   UNL A   1      36.583  33.280  30.981  1.00  0.00    -0.014 A 
ATOM     80  C   UNL A   1      35.307  33.292  31.569  1.00  0.00     0.010 A 
ATOM     81  C   UNL A   1      36.777  33.947  29.756  1.00  0.00     0.010 A 
ATOM     82  C   UNL A   1      34.244  33.949  30.942  1.00  0.00     0.020 A 
ATOM     83  C   UNL A   1      35.726  34.631  29.142  1.00  0.00     0.020 A 
ATOM     84  C   UNL A   1      34.463  34.622  29.735  1.00  0.00     0.054 A 
BRANCH  84  85
ATOM     85  S   UNL A   1      33.085  35.528  28.976  1.00  0.00     0.124 S 
ATOM     86  O   UNL A   1      32.450  34.494  28.167  1.00  0.00    -0.237 OA
ATOM     87  O   UNL A   1      32.327  35.976  30.141  1.00  0.00    -0.237 OA
ATOM     88  O   UNL A   1      33.749  36.593  28.228  1.00  0.00    -0.744 OA
ENDBRANCH  84  85
ENDBRANCH  56  79
BRANCH  68  89
ATOM     89  C   UNL A   1      39.578  33.940  37.256  1.00  0.00    -0.014 A 
ATOM     90  C   UNL A   1      38.866  33.491  38.381  1.00  0.00     0.010 A 
ATOM     91  C   UNL A   1      40.105  35.245  37.255  1.00  0.00     0.010 A 
ATOM     92  C   UNL A   1      38.663  34.337  39.474  1.00  0.00     0.020 A 
ATOM     93  C   UNL A   1      39.933  36.084  38.358  1.00  0.00     0.020 A 
ATOM     94  C   UNL A   1      39.202  35.628  39.457  1.00  0.00     0.054 A 
BRANCH  94  95
ATOM     95  S   UNL A   1      38.972  36.685  40.913  1.00  0.00     0.124 S 
ATOM     96  O   UNL A   1      38.420  37.900  40.322  1.00  0.00    -0.237 OA
ATOM     97  O   UNL A   1      38.047  35.905  41.730  1.00  0.00    -0.237 OA
ATOM     98  O   UNL A   1      40.321  36.818  41.462  1.00  0.00    -0.744 OA
ENDBRANCH  94  95
ENDBRANCH  68  89
ENDBRANCH  42  43
ENDBRANCH  34  37
ENDBRANCH  32  33
ENDBRANCH   1  32
TORSDOF 15
ENDMDL
MODEL 2
REMARK VINA RESULT:     -13.4      0.402      7.862
REMARK SMILES CN1C(=O)C[C@@H](C(=O)NCCCNC(=O)c2ccc(-c3c4nc(c(-c5ccc(S(=O)(=O)[O-])cc5)c5ccc([nH]5)c(-c5ccc(S(=O)(=O)[O-])cc5)c5nc(c(-c6ccc(S(=O)(=O)[O-])cc6)c6ccc3[nH]6)C=C5)C=C4)cc2)C12CCN(C(=O)c1ccccc1-n1cccn1)CC2
REMARK SMILES IDX 11 1 10 2 9 3 7 4 8 5 6 7 1 8 2 9 3 10 76 11 4 12 5 13 77 14
REMARK SMILES IDX 94 15 78 16 93 17 79 18 80 19 81 20 82 21 83 22 87 23 84 24
REMARK SMILES IDX 86 25 85 26 88 27 89 28 92 29 90 30 91 31 12 32 13 33 14 34
REMARK SMILES IDX 15 36 16 37 17 38 75 39 18 40 74 41 19 42 20 43 21 44 68 45
REMARK SMILES IDX 22 46 73 47 67 48 69 49 23 50 72 51 66 52 65 53 24 55 54 56
REMARK SMILES IDX 35 57 53 58 36 59 39 60 52 61 70 62 37 63 38 64 51 66 71 67
REMARK SMILES IDX 40 68 25 69 26 70 34 71 27 72 33 73 28 74 29 75 30 76 31 77
REMARK SMILES IDX 32 78 55 79 56 80 64 81 57 82 63 83 58 84 59 85 60 86 61 87
REMARK SMILES IDX 62 88 41 89 42 90 50 91 43 92 49 93 44 94 45 95 46 96 47 97
REMARK SMILES IDX 48 98
REMARK H PARENT 9 6 13 35 69 54 39 65
REMARK Flexibility Score: inf
ROOT
ATOM      1  C   UNL A   1      38.924  22.845  26.490  1.00  0.00     0.042 C 
ENDROOT
BRANCH   1   2
ATOM      2  C   UNL A   1      37.842  23.856  26.100  1.00  0.00     0.117 C 
BRANCH   2   3
ATOM      3  N   UNL A   1      37.233  23.628  24.794  1.00  0.00    -0.356 N 
ATOM      4  C   UNL A   1      36.066  23.078  24.373  1.00  0.00     0.226 C 
ATOM      5  O   UNL A   1      35.850  23.136  23.155  1.00  0.00    -0.275 OA
ATOM      6  H   UNL A   1      37.797  23.942  24.050  1.00  0.00     0.163 HD
BRANCH   4   7
ATOM      7  C   UNL A   1      35.038  22.365  25.257  1.00  0.00     0.113 C 
ATOM      8  C   UNL A   1      32.208  20.815  23.367  1.00  0.00     0.147 C 
ATOM      9  N   UNL A   1      33.354  21.157  24.191  1.00  0.00    -0.339 N 
ATOM     10  C   UNL A   1      34.271  20.200  24.603  1.00  0.00     0.223 C 
ATOM     11  C   UNL A   1      33.555  22.468  24.837  1.00  0.00     0.058 C 
ATOM     12  O   UNL A   1      34.261  19.008  24.335  1.00  0.00    -0.275 OA
ATOM     13  C   UNL A   1      35.334  20.876  25.420  1.00  0.00     0.116 C 
ATOM     14  C   UNL A   1      33.276  23.683  23.931  1.00  0.00     0.051 C 
ATOM     15  C   UNL A   1      32.595  22.541  26.069  1.00  0.00     0.051 C 
ATOM     16  C   UNL A   1      33.288  25.008  24.683  1.00  0.00     0.122 C 
ATOM     17  C   UNL A   1      32.494  23.924  26.719  1.00  0.00     0.122 C 
ATOM     18  N   UNL A   1      32.271  24.965  25.720  1.00  0.00    -0.338 N 
ATOM     19  C   UNL A   1      31.169  25.816  25.826  1.00  0.00     0.256 C 
ATOM     20  O   UNL A   1      30.357  25.749  26.748  1.00  0.00    -0.269 OA
BRANCH  19  21
ATOM     21  C   UNL A   1      30.971  26.906  24.836  1.00  0.00     0.065 A 
ATOM     22  C   UNL A   1      30.045  26.633  23.814  1.00  0.00     0.016 A 
ATOM     23  C   UNL A   1      31.574  28.173  24.889  1.00  0.00     0.077 A 
ATOM     24  C   UNL A   1      29.701  27.614  22.881  1.00  0.00     0.001 A 
ATOM     25  C   UNL A   1      31.175  29.172  23.983  1.00  0.00     0.029 A 
ATOM     26  C   UNL A   1      30.255  28.887  22.974  1.00  0.00     0.002 A 
BRANCH  23  27
ATOM     27  N   UNL A   1      32.602  28.503  25.803  1.00  0.00    -0.240 N 
ATOM     28  C   UNL A   1      33.965  28.468  25.614  1.00  0.00     0.115 A 
ATOM     29  N   UNL A   1      32.287  28.927  27.056  1.00  0.00    -0.177 NA
ATOM     30  C   UNL A   1      34.544  28.900  26.785  1.00  0.00     0.042 A 
ATOM     31  C   UNL A   1      33.462  29.154  27.642  1.00  0.00     0.135 A 
ENDBRANCH  23  27
ENDBRANCH  19  21
ENDBRANCH   4   7
ENDBRANCH   2   3
ENDBRANCH   1   2
BRANCH   1  32
ATOM     32  C   UNL A   1      40.181  23.478  27.075  1.00  0.00     0.118 C 
BRANCH  32  33
ATOM     33  N   UNL A   1      40.866  24.304  26.091  1.00  0.00    -0.352 N 
ATOM     34  C   UNL A   1      41.099  25.658  26.089  1.00  0.00     0.251 C 
ATOM     35  H   UNL A   1      41.214  23.819  25.309  1.00  0.00     0.163 HD
ATOM     36  O   UNL A   1      41.405  26.210  25.035  1.00  0.00    -0.269 OA
BRANCH  34  37
ATOM     37  C   UNL A   1      40.980  26.451  27.334  1.00  0.00     0.039 A 
ATOM     38  C   UNL A   1      41.896  27.479  27.574  1.00  0.00     0.014 A 
ATOM     39  C   UNL A   1      40.007  26.150  28.289  1.00  0.00     0.014 A 
ATOM     40  C   UNL A   1      41.799  28.239  28.744  1.00  0.00     0.010 A 
ATOM     41  C   UNL A   1      39.858  26.961  29.412  1.00  0.00     0.010 A 
ATOM     42  C   UNL A   1      40.756  28.009  29.657  1.00  0.00    -0.014 A 
BRANCH  42  43
ATOM     43  C   UNL A   1      40.587  28.850  30.871  1.00  0.00     0.031 A 
ATOM     44  C   UNL A   1      39.543  29.935  30.903  1.00  0.00     0.074 A 
ATOM     45  C   UNL A   1      41.422  28.687  31.916  1.00  0.00     0.049 A 
ATOM     46  N   UNL A   1      39.302  30.820  31.838  1.00  0.00    -0.248 NA
ATOM     47  C   UNL A   1      38.673  30.059  29.723  1.00  0.00     0.031 C 
ATOM     48  C   UNL A   1      42.499  27.695  31.993  1.00  0.00     0.029 A 
ATOM     49  N   UNL A   1      41.507  29.359  33.110  1.00  0.00    -0.354 N 
ATOM     50  C   UNL A   1      38.272  31.617  31.348  1.00  0.00     0.074 A 
ATOM     51  C   UNL A   1      37.967  31.141  30.017  1.00  0.00     0.031 C 
ATOM     52  C   UNL A   1      43.119  27.811  33.177  1.00  0.00     0.029 A 
ATOM     53  C   UNL A   1      42.524  28.914  33.923  1.00  0.00     0.049 A 
ATOM     54  H   UNL A   1      40.899  30.091  33.361  1.00  0.00     0.167 HD
ATOM     55  C   UNL A   1      37.629  32.643  31.958  1.00  0.00     0.031 A 
ATOM     56  C   UNL A   1      42.944  29.353  35.126  1.00  0.00     0.031 A 
ATOM     57  C   UNL A   1      37.935  33.107  33.286  1.00  0.00     0.049 A 
ATOM     58  C   UNL A   1      42.231  30.509  35.773  1.00  0.00     0.074 A 
ATOM     59  C   UNL A   1      37.297  34.094  34.019  1.00  0.00     0.029 A 
ATOM     60  N   UNL A   1      38.969  32.628  34.076  1.00  0.00    -0.354 N 
ATOM     61  N   UNL A   1      41.206  31.196  35.329  1.00  0.00    -0.248 NA
ATOM     62  C   UNL A   1      42.727  30.944  37.085  1.00  0.00     0.031 C 
ATOM     63  C   UNL A   1      37.991  34.259  35.222  1.00  0.00     0.029 A 
ATOM     64  C   UNL A   1      39.015  33.327  35.271  1.00  0.00     0.049 A 
ATOM     65  H   UNL A   1      39.581  31.899  33.825  1.00  0.00     0.167 HD
ATOM     66  C   UNL A   1      40.925  32.137  36.313  1.00  0.00     0.074 A 
ATOM     67  C   UNL A   1      41.872  31.912  37.387  1.00  0.00     0.031 C 
ATOM     68  C   UNL A   1      39.973  33.101  36.326  1.00  0.00     0.031 A 
BRANCH  55  69
ATOM     69  C   UNL A   1      36.542  33.345  31.185  1.00  0.00    -0.014 A 
ATOM     70  C   UNL A   1      36.789  33.904  29.917  1.00  0.00     0.010 A 
ATOM     71  C   UNL A   1      35.242  33.415  31.718  1.00  0.00     0.010 A 
ATOM     72  C   UNL A   1      35.770  34.560  29.220  1.00  0.00     0.020 A 
ATOM     73  C   UNL A   1      34.211  34.041  31.010  1.00  0.00     0.020 A 
ATOM     74  C   UNL A   1      34.487  34.626  29.773  1.00  0.00     0.054 A 
BRANCH  74  75
ATOM     75  S   UNL A   1      33.182  35.471  28.839  1.00  0.00     0.124 S 
ATOM     76  O   UNL A   1      33.952  36.407  28.024  1.00  0.00    -0.237 OA
ATOM     77  O   UNL A   1      32.552  34.374  28.109  1.00  0.00    -0.237 OA
ATOM     78  O   UNL A   1      32.353  36.084  29.874  1.00  0.00    -0.744 OA
ENDBRANCH  74  75
ENDBRANCH  55  69
BRANCH  56  79
ATOM     79  C   UNL A   1      44.105  28.697  35.788  1.00  0.00    -0.014 A 
ATOM     80  C   UNL A   1      45.413  29.154  35.561  1.00  0.00     0.010 A 
ATOM     81  C   UNL A   1      43.901  27.624  36.678  1.00  0.00     0.010 A 
ATOM     82  C   UNL A   1      46.498  28.547  36.202  1.00  0.00     0.020 A 
ATOM     83  C   UNL A   1      44.978  27.036  37.345  1.00  0.00     0.020 A 
ATOM     84  C   UNL A   1      46.272  27.496  37.097  1.00  0.00     0.054 A 
BRANCH  84  85
ATOM     85  S   UNL A   1      47.688  26.772  37.971  1.00  0.00     0.124 S 
ATOM     86  O   UNL A   1      48.117  27.875  38.822  1.00  0.00    -0.237 OA
ATOM     87  O   UNL A   1      47.081  25.637  38.662  1.00  0.00    -0.237 OA
ATOM     88  O   UNL A   1      48.607  26.415  36.892  1.00  0.00    -0.744 OA
ENDBRANCH  84  85
ENDBRANCH  56  79
BRANCH  68  89
ATOM     89  C   UNL A   1      39.896  33.987  37.542  1.00  0.00    -0.014 A 
ATOM     90  C   UNL A   1      40.602  35.201  37.601  1.00  0.00     0.010 A 
ATOM     91  C   UNL A   1      39.057  33.630  38.613  1.00  0.00     0.010 A 
ATOM     92  C   UNL A   1      40.489  36.031  38.719  1.00  0.00     0.020 A 
ATOM     93  C   UNL A   1      38.915  34.471  39.719  1.00  0.00     0.020 A 
ATOM     94  C   UNL A   1      39.642  35.663  39.770  1.00  0.00     0.054 A 
BRANCH  94  95
ATOM     95  S   UNL A   1      39.470  36.787  41.183  1.00  0.00     0.124 S 
ATOM     96  O   UNL A   1      40.861  36.999  41.573  1.00  0.00    -0.237 OA
ATOM     97  O   UNL A   1      38.798  37.941  40.593  1.00  0.00    -0.237 OA
ATOM     98  O   UNL A   1      38.666  36.025  42.137  1.00  0.00    -0.744 OA
ENDBRANCH  94  95
ENDBRANCH  68  89
ENDBRANCH  42  43
ENDBRANCH  34  37
ENDBRANCH  32  33
ENDBRANCH   1  32
TORSDOF 15
ENDMDL
MODEL 3
REMARK VINA RESULT:     -13.3      5.982     11.823
REMARK SMILES CN1C(=O)C[C@@H](C(=O)NCCCNC(=O)c2ccc(-c3c4nc(c(-c5ccc(S(=O)(=O)[O-])cc5)c5ccc([nH]5)c(-c5ccc(S(=O)(=O)[O-])cc5)c5nc(c(-c6ccc(S(=O)(=O)[O-])cc6)c6ccc3[nH]6)C=C5)C=C4)cc2)C12CCN(C(=O)c1ccccc1-n1cccn1)CC2
REMARK SMILES IDX 11 1 10 2 9 3 7 4 8 5 6 7 1 8 2 9 3 10 76 11 4 12 5 13 77 14
REMARK SMILES IDX 94 15 78 16 93 17 79 18 80 19 81 20 82 21 83 22 87 23 84 24
REMARK SMILES IDX 86 25 85 26 88 27 89 28 92 29 90 30 91 31 12 32 13 33 14 34
REMARK SMILES IDX 15 36 16 37 17 38 75 39 18 40 74 41 19 42 20 43 21 44 68 45
REMARK SMILES IDX 22 46 73 47 67 48 69 49 23 50 72 51 66 52 65 53 24 55 54 56
REMARK SMILES IDX 35 57 53 58 36 59 39 60 52 61 70 62 37 63 38 64 51 66 71 67
REMARK SMILES IDX 40 68 25 69 26 70 34 71 27 72 33 73 28 74 29 75 30 76 31 77
REMARK SMILES IDX 32 78 55 79 56 80 64 81 57 82 63 83 58 84 59 85 60 86 61 87
REMARK SMILES IDX 62 88 41 89 42 90 50 91 43 92 49 93 44 94 45 95 46 96 47 97
REMARK SMILES IDX 48 98
REMARK H PARENT 9 6 13 35 69 54 39 65
REMARK Flexibility Score: inf
ROOT
ATOM      1  C   UNL A   1      34.441  30.748  27.635  1.00  0.00     0.042 C 
ENDROOT
BRANCH   1   2
ATOM      2  C   UNL A   1      34.449  29.217  27.640  1.00  0.00     0.117 C 
BRANCH   2   3
ATOM      3  N   UNL A   1      33.131  28.599  27.726  1.00  0.00    -0.356 N 
ATOM      4  C   UNL A   1      32.223  28.168  26.814  1.00  0.00     0.226 C 
ATOM      5  O   UNL A   1      31.222  27.602  27.275  1.00  0.00    -0.275 OA
ATOM      6  H   UNL A   1      32.833  28.464  28.654  1.00  0.00     0.163 HD
BRANCH   4   7
ATOM      7  C   UNL A   1      32.309  28.363  25.297  1.00  0.00     0.113 C 
ATOM      8  C   UNL A   1      29.317  27.132  23.423  1.00  0.00     0.147 C 
ATOM      9  N   UNL A   1      30.417  27.856  24.036  1.00  0.00    -0.339 N 
ATOM     10  C   UNL A   1      30.411  29.240  24.145  1.00  0.00     0.223 C 
ATOM     11  C   UNL A   1      31.709  27.252  24.408  1.00  0.00     0.058 C 
ATOM     12  O   UNL A   1      29.529  30.004  23.781  1.00  0.00    -0.275 OA
ATOM     13  C   UNL A   1      31.673  29.671  24.834  1.00  0.00     0.116 C 
ATOM     14  C   UNL A   1      31.602  25.899  25.138  1.00  0.00     0.051 C 
ATOM     15  C   UNL A   1      32.529  27.038  23.094  1.00  0.00     0.051 C 
ATOM     16  C   UNL A   1      32.946  25.205  25.319  1.00  0.00     0.122 C 
ATOM     17  C   UNL A   1      33.800  26.200  23.262  1.00  0.00     0.122 C 
ATOM     18  N   UNL A   1      33.532  24.975  24.010  1.00  0.00    -0.338 N 
ATOM     19  C   UNL A   1      33.854  23.733  23.459  1.00  0.00     0.256 C 
ATOM     20  O   UNL A   1      34.379  23.604  22.355  1.00  0.00    -0.269 OA
BRANCH  19  21
ATOM     21  C   UNL A   1      33.627  22.490  24.241  1.00  0.00     0.065 A 
ATOM     22  C   UNL A   1      32.344  21.926  24.121  1.00  0.00     0.016 A 
ATOM     23  C   UNL A   1      34.594  21.826  25.014  1.00  0.00     0.077 A 
ATOM     24  C   UNL A   1      32.040  20.706  24.730  1.00  0.00     0.001 A 
ATOM     25  C   UNL A   1      34.296  20.569  25.572  1.00  0.00     0.029 A 
ATOM     26  C   UNL A   1      33.020  20.022  25.443  1.00  0.00     0.002 A 
BRANCH  23  27
ATOM     27  N   UNL A   1      35.869  22.372  25.293  1.00  0.00    -0.240 N 
ATOM     28  C   UNL A   1      36.179  23.585  25.863  1.00  0.00     0.115 A 
ATOM     29  N   UNL A   1      36.990  21.662  24.996  1.00  0.00    -0.177 NA
ATOM     30  C   UNL A   1      37.551  23.650  25.947  1.00  0.00     0.042 A 
ATOM     31  C   UNL A   1      37.998  22.445  25.384  1.00  0.00     0.135 A 
ENDBRANCH  23  27
ENDBRANCH  19  21
ENDBRANCH   4   7
ENDBRANCH   2   3
ENDBRANCH   1   2
BRANCH   1  32
ATOM     32  C   UNL A   1      35.628  31.377  28.356  1.00  0.00     0.118 C 
BRANCH  32  33
ATOM     33  N   UNL A   1      35.554  31.153  29.792  1.00  0.00    -0.352 N 
ATOM     34  C   UNL A   1      36.408  30.466  30.621  1.00  0.00     0.251 C 
ATOM     35  H   UNL A   1      34.774  31.555  30.238  1.00  0.00     0.163 HD
ATOM     36  O   UNL A   1      36.014  30.120  31.732  1.00  0.00    -0.269 OA
BRANCH  34  37
ATOM     37  C   UNL A   1      37.784  30.136  30.187  1.00  0.00     0.039 A 
ATOM     38  C   UNL A   1      38.767  29.911  31.156  1.00  0.00     0.014 A 
ATOM     39  C   UNL A   1      38.125  30.103  28.833  1.00  0.00     0.014 A 
ATOM     40  C   UNL A   1      40.072  29.597  30.765  1.00  0.00     0.010 A 
ATOM     41  C   UNL A   1      39.403  29.707  28.445  1.00  0.00     0.010 A 
ATOM     42  C   UNL A   1      40.394  29.458  29.405  1.00  0.00    -0.014 A 
BRANCH  42  43
ATOM     43  C   UNL A   1      41.755  29.054  28.965  1.00  0.00     0.031 A 
ATOM     44  C   UNL A   1      42.859  30.075  28.879  1.00  0.00     0.074 A 
ATOM     45  C   UNL A   1      41.978  27.785  28.573  1.00  0.00     0.049 A 
ATOM     46  N   UNL A   1      44.084  29.929  28.442  1.00  0.00    -0.248 NA
ATOM     47  C   UNL A   1      42.538  31.443  29.317  1.00  0.00     0.031 C 
ATOM     48  C   UNL A   1      40.982  26.709  28.574  1.00  0.00     0.029 A 
ATOM     49  N   UNL A   1      43.112  27.183  28.084  1.00  0.00    -0.354 N 
ATOM     50  C   UNL A   1      44.670  31.188  28.530  1.00  0.00     0.074 A 
ATOM     51  C   UNL A   1      43.653  32.093  29.017  1.00  0.00     0.031 C 
ATOM     52  C   UNL A   1      41.553  25.580  28.130  1.00  0.00     0.029 A 
ATOM     53  C   UNL A   1      42.938  25.857  27.763  1.00  0.00     0.049 A 
ATOM     54  H   UNL A   1      43.967  27.656  27.972  1.00  0.00     0.167 HD
ATOM     55  C   UNL A   1      45.944  31.553  28.245  1.00  0.00     0.031 A 
ATOM     56  C   UNL A   1      43.789  24.965  27.219  1.00  0.00     0.031 A 
ATOM     57  C   UNL A   1      46.953  30.645  27.766  1.00  0.00     0.049 A 
ATOM     58  C   UNL A   1      45.191  25.399  26.887  1.00  0.00     0.074 A 
ATOM     59  C   UNL A   1      48.289  30.902  27.512  1.00  0.00     0.029 A 
ATOM     60  N   UNL A   1      46.736  29.310  27.457  1.00  0.00    -0.354 N 
ATOM     61  N   UNL A   1      45.749  26.574  27.055  1.00  0.00    -0.248 NA
ATOM     62  C   UNL A   1      46.078  24.387  26.300  1.00  0.00     0.031 C 
ATOM     63  C   UNL A   1      48.863  29.741  26.983  1.00  0.00     0.029 A 
ATOM     64  C   UNL A   1      47.903  28.741  26.974  1.00  0.00     0.049 A 
ATOM     65  H   UNL A   1      45.880  28.837  27.564  1.00  0.00     0.167 HD
ATOM     66  C   UNL A   1      47.058  26.439  26.606  1.00  0.00     0.074 A 
ATOM     67  C   UNL A   1      47.214  25.061  26.185  1.00  0.00     0.031 C 
ATOM     68  C   UNL A   1      48.040  27.371  26.545  1.00  0.00     0.031 A 
BRANCH  55  69
ATOM     69  C   UNL A   1      46.312  33.004  28.427  1.00  0.00    -0.014 A 
ATOM     70  C   UNL A   1      46.157  33.936  27.384  1.00  0.00     0.010 A 
ATOM     71  C   UNL A   1      46.787  33.451  29.674  1.00  0.00     0.010 A 
ATOM     72  C   UNL A   1      46.514  35.274  27.569  1.00  0.00     0.020 A 
ATOM     73  C   UNL A   1      47.114  34.796  29.875  1.00  0.00     0.020 A 
ATOM     74  C   UNL A   1      46.992  35.695  28.813  1.00  0.00     0.054 A 
BRANCH  74  75
ATOM     75  S   UNL A   1      47.433  37.441  29.029  1.00  0.00     0.124 S 
ATOM     76  O   UNL A   1      48.819  37.350  29.481  1.00  0.00    -0.237 OA
ATOM     77  O   UNL A   1      47.246  37.985  27.686  1.00  0.00    -0.237 OA
ATOM     78  O   UNL A   1      46.483  37.920  30.030  1.00  0.00    -0.744 OA
ENDBRANCH  74  75
ENDBRANCH  55  69
BRANCH  56  79
ATOM     79  C   UNL A   1      43.330  23.575  26.947  1.00  0.00    -0.014 A 
ATOM     80  C   UNL A   1      43.157  23.121  25.629  1.00  0.00     0.010 A 
ATOM     81  C   UNL A   1      43.091  22.686  28.013  1.00  0.00     0.010 A 
ATOM     82  C   UNL A   1      42.745  21.808  25.380  1.00  0.00     0.020 A 
ATOM     83  C   UNL A   1      42.711  21.364  27.768  1.00  0.00     0.020 A 
ATOM     84  C   UNL A   1      42.533  20.935  26.452  1.00  0.00     0.054 A 
BRANCH  84  85
ATOM     85  S   UNL A   1      42.068  19.216  26.101  1.00  0.00     0.124 S 
ATOM     86  O   UNL A   1      40.641  19.336  25.827  1.00  0.00    -0.237 OA
ATOM     87  O   UNL A   1      42.911  18.893  24.953  1.00  0.00    -0.237 OA
ATOM     88  O   UNL A   1      42.414  18.512  27.335  1.00  0.00    -0.744 OA
ENDBRANCH  84  85
ENDBRANCH  56  79
BRANCH  68  89
ATOM     89  C   UNL A   1      49.380  26.935  26.011  1.00  0.00    -0.014 A 
ATOM     90  C   UNL A   1      49.719  27.127  24.660  1.00  0.00     0.010 A 
ATOM     91  C   UNL A   1      50.335  26.386  26.885  1.00  0.00     0.010 A 
ATOM     92  C   UNL A   1      50.980  26.755  24.188  1.00  0.00     0.020 A 
ATOM     93  C   UNL A   1      51.608  26.041  26.425  1.00  0.00     0.020 A 
ATOM     94  C   UNL A   1      51.919  26.218  25.075  1.00  0.00     0.054 A 
BRANCH  94  95
ATOM     95  S   UNL A   1      53.568  25.797  24.447  1.00  0.00     0.124 S 
ATOM     96  O   UNL A   1      53.676  24.385  24.800  1.00  0.00    -0.237 OA
ATOM     97  O   UNL A   1      53.447  26.082  23.020  1.00  0.00    -0.237 OA
ATOM     98  O   UNL A   1      54.459  26.692  25.183  1.00  0.00    -0.744 OA
ENDBRANCH  94  95
ENDBRANCH  68  89
ENDBRANCH  42  43
ENDBRANCH  34  37
ENDBRANCH  32  33
ENDBRANCH   1  32
TORSDOF 15
ENDMDL
