MODEL 1
REMARK VINA RESULT:     -12.9      0.000      0.000
REMARK SMILES O=C(NCCCNC(=O)[C@H]1CC=CC[C@@H]1C(=O)N[C@@H]1CCCN(c2ccccc2F)C1=O)c1ccc(-c2c3nc(c(-c4ccc(S(=O)(=O)[O-])cc4)c4ccc([nH]4)c(-c4ccc(S(=O)(=O)[O-])cc4)c4nc(c(-c5ccc(S(=O)(=O)[O-])cc5)c5ccc2[nH]5)C=C4)C=C3)cc1
REMARK SMILES IDX 5 1 4 2 3 3 1 4 2 5 33 7 34 8 92 9 35 10 91 11 36 12 37 13
REMARK SMILES IDX 38 14 85 15 39 16 90 17 84 18 86 19 40 20 89 21 83 22 82 23
REMARK SMILES IDX 41 25 71 26 52 27 70 28 53 29 56 30 69 31 87 32 54 33 55 34
REMARK SMILES IDX 68 36 88 37 57 38 42 39 43 40 51 41 44 42 50 43 45 44 46 45
REMARK SMILES IDX 47 46 48 47 49 48 72 49 73 50 81 51 74 52 80 53 75 54 76 55
REMARK SMILES IDX 77 56 78 57 79 58 58 59 59 60 67 61 60 62 66 63 61 64 62 65
REMARK SMILES IDX 63 66 64 67 65 68 6 69 7 70 8 71 9 73 10 74 11 75 15 76
REMARK SMILES IDX 12 77 14 78 13 79 16 80 17 81 18 82 19 84 20 85 31 86 21 87
REMARK SMILES IDX 23 88 32 89 22 90 24 91 25 92 29 93 26 94 28 95 30 96 27 97
REMARK H PARENT 3 6 86 24 56 35 7 72 18 83
REMARK Flexibility Score: inf
ROOT
ATOM      1  C   UNL A   1      37.253  23.703  25.455  1.00  0.00     0.042 C 
ENDROOT
BRANCH   1   2
ATOM      2  C   UNL A   1      38.249  24.082  26.548  1.00  0.00     0.118 C 
BRANCH   2   3
ATOM      3  N   UNL A   1      39.636  24.039  26.114  1.00  0.00    -0.352 N 
ATOM      4  O   UNL A   1      41.778  24.666  25.875  1.00  0.00    -0.269 OA
ATOM      5  C   UNL A   1      40.723  24.792  26.491  1.00  0.00     0.251 C 
ATOM      6  H   UNL A   1      39.830  23.352  25.435  1.00  0.00     0.163 HD
BRANCH   5   7
ATOM      7  C   UNL A   1      40.636  25.766  27.604  1.00  0.00     0.039 A 
ATOM      8  C   UNL A   1      39.673  25.646  28.608  1.00  0.00     0.014 A 
ATOM      9  C   UNL A   1      41.582  26.795  27.673  1.00  0.00     0.014 A 
ATOM     10  C   UNL A   1      39.567  26.627  29.593  1.00  0.00     0.010 A 
ATOM     11  C   UNL A   1      41.525  27.734  28.710  1.00  0.00     0.010 A 
ATOM     12  C   UNL A   1      40.497  27.677  29.663  1.00  0.00    -0.014 A 
BRANCH  12  13
ATOM     13  C   UNL A   1      40.416  28.669  30.768  1.00  0.00     0.031 A 
ATOM     14  C   UNL A   1      41.317  28.572  31.971  1.00  0.00     0.074 A 
ATOM     15  C   UNL A   1      39.521  29.675  30.682  1.00  0.00     0.049 A 
ATOM     16  N   UNL A   1      41.376  29.353  33.020  1.00  0.00    -0.248 NA
ATOM     17  C   UNL A   1      42.270  27.452  32.005  1.00  0.00     0.031 C 
ATOM     18  C   UNL A   1      38.586  29.877  29.572  1.00  0.00     0.029 A 
ATOM     19  N   UNL A   1      39.255  30.719  31.531  1.00  0.00    -0.354 N 
ATOM     20  C   UNL A   1      42.356  28.813  33.847  1.00  0.00     0.074 A 
ATOM     21  C   UNL A   1      42.846  27.620  33.189  1.00  0.00     0.031 C 
ATOM     22  C   UNL A   1      37.878  30.995  29.790  1.00  0.00     0.029 A 
ATOM     23  C   UNL A   1      38.260  31.554  31.081  1.00  0.00     0.049 A 
ATOM     24  H   UNL A   1      39.732  30.856  32.382  1.00  0.00     0.167 HD
ATOM     25  C   UNL A   1      42.809  29.270  35.041  1.00  0.00     0.031 A 
ATOM     26  C   UNL A   1      37.697  32.638  31.650  1.00  0.00     0.031 A 
ATOM     27  C   UNL A   1      42.312  30.453  35.696  1.00  0.00     0.049 A 
ATOM     28  C   UNL A   1      38.187  33.099  32.993  1.00  0.00     0.074 A 
ATOM     29  C   UNL A   1      42.729  31.013  36.891  1.00  0.00     0.029 A 
ATOM     30  N   UNL A   1      41.281  31.252  35.222  1.00  0.00    -0.354 N 
ATOM     31  N   UNL A   1      39.142  32.597  33.736  1.00  0.00    -0.248 NA
ATOM     32  C   UNL A   1      37.524  34.276  33.570  1.00  0.00     0.031 C 
ATOM     33  C   UNL A   1      41.912  32.115  37.168  1.00  0.00     0.029 A 
ATOM     34  C   UNL A   1      41.031  32.283  36.113  1.00  0.00     0.049 A 
ATOM     35  H   UNL A   1      40.799  31.107  34.376  1.00  0.00     0.167 HD
ATOM     36  C   UNL A   1      39.213  33.410  34.860  1.00  0.00     0.074 A 
ATOM     37  C   UNL A   1      38.214  34.447  34.689  1.00  0.00     0.031 C 
ATOM     38  C   UNL A   1      40.031  33.307  35.936  1.00  0.00     0.031 A 
BRANCH  25  39
ATOM     39  C   UNL A   1      43.884  28.471  35.735  1.00  0.00    -0.014 A 
ATOM     40  C   UNL A   1      43.570  27.566  36.767  1.00  0.00     0.010 A 
ATOM     41  C   UNL A   1      45.222  28.589  35.316  1.00  0.00     0.010 A 
ATOM     42  C   UNL A   1      44.580  26.830  37.394  1.00  0.00     0.020 A 
ATOM     43  C   UNL A   1      46.230  27.833  35.921  1.00  0.00     0.020 A 
ATOM     44  C   UNL A   1      45.904  26.971  36.969  1.00  0.00     0.054 A 
BRANCH  44  45
ATOM     45  S   UNL A   1      47.190  25.992  37.795  1.00  0.00     0.124 S 
ATOM     46  O   UNL A   1      47.797  26.981  38.681  1.00  0.00    -0.237 OA
ATOM     47  O   UNL A   1      46.417  24.946  38.460  1.00  0.00    -0.237 OA
ATOM     48  O   UNL A   1      48.038  25.535  36.697  1.00  0.00    -0.744 OA
ENDBRANCH  44  45
ENDBRANCH  25  39
BRANCH  26  49
ATOM     49  C   UNL A   1      36.596  33.349  30.945  1.00  0.00    -0.014 A 
ATOM     50  C   UNL A   1      36.803  33.913  29.674  1.00  0.00     0.010 A 
ATOM     51  C   UNL A   1      35.320  33.439  31.533  1.00  0.00     0.010 A 
ATOM     52  C   UNL A   1      35.759  34.564  29.010  1.00  0.00     0.020 A 
ATOM     53  C   UNL A   1      34.266  34.060  30.859  1.00  0.00     0.020 A 
ATOM     54  C   UNL A   1      34.496  34.629  29.606  1.00  0.00     0.054 A 
BRANCH  54  55
ATOM     55  S   UNL A   1      33.142  35.425  28.699  1.00  0.00     0.124 S 
ATOM     56  O   UNL A   1      33.863  36.342  27.822  1.00  0.00    -0.237 OA
ATOM     57  O   UNL A   1      32.495  34.293  28.040  1.00  0.00    -0.237 OA
ATOM     58  O   UNL A   1      32.350  36.057  29.752  1.00  0.00    -0.744 OA
ENDBRANCH  54  55
ENDBRANCH  26  49
BRANCH  38  59
ATOM     59  C   UNL A   1      39.911  34.365  37.002  1.00  0.00    -0.014 A 
ATOM     60  C   UNL A   1      40.627  35.573  36.920  1.00  0.00     0.010 A 
ATOM     61  C   UNL A   1      39.029  34.163  38.079  1.00  0.00     0.010 A 
ATOM     62  C   UNL A   1      40.488  36.545  37.914  1.00  0.00     0.020 A 
ATOM     63  C   UNL A   1      38.865  35.145  39.059  1.00  0.00     0.020 A 
ATOM     64  C   UNL A   1      39.606  36.325  38.977  1.00  0.00     0.054 A 
BRANCH  64  65
ATOM     65  S   UNL A   1      39.410  37.621  40.232  1.00  0.00     0.124 S 
ATOM     66  O   UNL A   1      40.730  38.246  40.232  1.00  0.00    -0.237 OA
ATOM     67  O   UNL A   1      38.328  38.436  39.684  1.00  0.00    -0.237 OA
ATOM     68  O   UNL A   1      39.071  36.880  41.445  1.00  0.00    -0.744 OA
ENDBRANCH  64  65
ENDBRANCH  38  59
ENDBRANCH  12  13
ENDBRANCH   5   7
ENDBRANCH   2   3
ENDBRANCH   1   2
BRANCH   1  69
ATOM     69  C   UNL A   1      36.801  22.245  25.445  1.00  0.00     0.117 C 
BRANCH  69  70
ATOM     70  N   UNL A   1      35.850  21.920  26.488  1.00  0.00    -0.356 N 
ATOM     71  C   UNL A   1      34.500  21.750  26.423  1.00  0.00     0.224 C 
ATOM     72  H   UNL A   1      36.240  21.804  27.384  1.00  0.00     0.163 HD
ATOM     73  O   UNL A   1      33.985  21.149  27.369  1.00  0.00    -0.275 OA
BRANCH  71  74
ATOM     74  C   UNL A   1      33.681  22.334  25.258  1.00  0.00     0.095 C 
ATOM     75  C   UNL A   1      32.235  21.769  25.296  1.00  0.00     0.041 C 
ATOM     76  C   UNL A   1      33.646  23.882  25.355  1.00  0.00     0.095 C 
ATOM     77  C   UNL A   1      31.325  22.491  26.257  1.00  0.00    -0.030 C 
ATOM     78  C   UNL A   1      33.030  24.240  26.696  1.00  0.00     0.041 C 
ATOM     79  C   UNL A   1      31.699  23.597  26.915  1.00  0.00    -0.030 C 
BRANCH  76  80
ATOM     80  C   UNL A   1      32.970  24.541  24.136  1.00  0.00     0.224 C 
ATOM     81  O   UNL A   1      33.012  24.016  23.019  1.00  0.00    -0.275 OA
ATOM     82  N   UNL A   1      32.623  25.870  24.166  1.00  0.00    -0.344 N 
ATOM     83  H   UNL A   1      33.314  26.492  23.846  1.00  0.00     0.164 HD
BRANCH  82  84
ATOM     84  C   UNL A   1      31.341  26.512  24.615  1.00  0.00     0.172 C 
ATOM     85  C   UNL A   1      30.707  27.225  23.390  1.00  0.00     0.037 C 
ATOM     86  C   UNL A   1      31.392  27.489  25.824  1.00  0.00     0.249 C 
ATOM     87  C   UNL A   1      30.498  28.724  23.587  1.00  0.00     0.025 C 
ATOM     88  N   UNL A   1      31.947  28.740  25.532  1.00  0.00    -0.308 N 
ATOM     89  O   UNL A   1      31.070  27.124  26.954  1.00  0.00    -0.272 OA
ATOM     90  C   UNL A   1      31.750  29.321  24.217  1.00  0.00     0.126 C 
BRANCH  88  91
ATOM     91  C   UNL A   1      32.927  29.303  26.396  1.00  0.00     0.080 A 
ATOM     92  C   UNL A   1      34.196  28.732  26.514  1.00  0.00     0.029 A 
ATOM     93  C   UNL A   1      32.689  30.545  27.009  1.00  0.00     0.146 A 
ATOM     94  C   UNL A   1      35.195  29.383  27.250  1.00  0.00     0.002 A 
ATOM     95  C   UNL A   1      33.691  31.213  27.708  1.00  0.00     0.041 A 
ATOM     96  F   UNL A   1      31.527  31.188  26.812  1.00  0.00    -0.205 F 
ATOM     97  C   UNL A   1      34.947  30.627  27.835  1.00  0.00     0.003 A 
ENDBRANCH  88  91
ENDBRANCH  82  84
ENDBRANCH  76  80
ENDBRANCH  71  74
ENDBRANCH  69  70
ENDBRANCH   1  69
TORSDOF 16
ENDMDL
MODEL 2
REMARK VINA RESULT:     -12.6      6.267     11.853
REMARK SMILES O=C(NCCCNC(=O)[C@H]1CC=CC[C@@H]1C(=O)N[C@@H]1CCCN(c2ccccc2F)C1=O)c1ccc(-c2c3nc(c(-c4ccc(S(=O)(=O)[O-])cc4)c4ccc([nH]4)c(-c4ccc(S(=O)(=O)[O-])cc4)c4nc(c(-c5ccc(S(=O)(=O)[O-])cc5)c5ccc2[nH]5)C=C4)C=C3)cc1
REMARK SMILES IDX 5 1 4 2 3 3 1 4 2 5 33 7 34 8 92 9 35 10 91 11 36 12 37 13
REMARK SMILES IDX 38 14 85 15 39 16 90 17 84 18 86 19 40 20 89 21 83 22 82 23
REMARK SMILES IDX 41 25 71 26 52 27 70 28 53 29 56 30 69 31 87 32 54 33 55 34
REMARK SMILES IDX 68 36 88 37 57 38 42 39 43 40 51 41 44 42 50 43 45 44 46 45
REMARK SMILES IDX 47 46 48 47 49 48 72 49 73 50 81 51 74 52 80 53 75 54 76 55
REMARK SMILES IDX 77 56 78 57 79 58 58 59 59 60 67 61 60 62 66 63 61 64 62 65
REMARK SMILES IDX 63 66 64 67 65 68 6 69 7 70 8 71 9 73 10 74 11 75 15 76
REMARK SMILES IDX 12 77 14 78 13 79 16 80 17 81 18 82 19 84 20 85 31 86 21 87
REMARK SMILES IDX 23 88 32 89 22 90 24 91 25 92 29 93 26 94 28 95 30 96 27 97
REMARK H PARENT 3 6 86 24 56 35 7 72 18 83
REMARK Flexibility Score: inf
ROOT
ATOM      1  C   UNL A   1      33.891  30.378  27.091  1.00  0.00     0.042 C 
ENDROOT
BRANCH   1   2
ATOM      2  C   UNL A   1      35.275  30.534  27.714  1.00  0.00     0.118 C 
BRANCH   2   3
ATOM      3  N   UNL A   1      35.253  30.635  29.165  1.00  0.00    -0.352 N 
ATOM      4  O   UNL A   1      35.918  30.382  31.294  1.00  0.00    -0.269 OA
ATOM      5  C   UNL A   1      36.218  30.353  30.104  1.00  0.00     0.251 C 
ATOM      6  H   UNL A   1      34.403  30.962  29.539  1.00  0.00     0.163 HD
BRANCH   5   7
ATOM      7  C   UNL A   1      37.598  29.993  29.704  1.00  0.00     0.039 A 
ATOM      8  C   UNL A   1      38.005  30.020  28.369  1.00  0.00     0.014 A 
ATOM      9  C   UNL A   1      38.526  29.674  30.702  1.00  0.00     0.014 A 
ATOM     10  C   UNL A   1      39.286  29.593  28.021  1.00  0.00     0.010 A 
ATOM     11  C   UNL A   1      39.837  29.325  30.358  1.00  0.00     0.010 A 
ATOM     12  C   UNL A   1      40.221  29.251  29.011  1.00  0.00    -0.014 A 
BRANCH  12  13
ATOM     13  C   UNL A   1      41.608  28.876  28.625  1.00  0.00     0.031 A 
ATOM     14  C   UNL A   1      42.721  29.891  28.629  1.00  0.00     0.074 A 
ATOM     15  C   UNL A   1      41.868  27.600  28.271  1.00  0.00     0.049 A 
ATOM     16  N   UNL A   1      43.983  29.730  28.322  1.00  0.00    -0.248 NA
ATOM     17  C   UNL A   1      42.372  31.265  29.024  1.00  0.00     0.031 C 
ATOM     18  C   UNL A   1      40.876  26.523  28.219  1.00  0.00     0.029 A 
ATOM     19  N   UNL A   1      43.038  26.990  27.899  1.00  0.00    -0.354 N 
ATOM     20  C   UNL A   1      44.577  30.980  28.467  1.00  0.00     0.074 A 
ATOM     21  C   UNL A   1      43.528  31.896  28.864  1.00  0.00     0.031 C 
ATOM     22  C   UNL A   1      41.486  25.379  27.875  1.00  0.00     0.029 A 
ATOM     23  C   UNL A   1      42.896  25.651  27.619  1.00  0.00     0.049 A 
ATOM     24  H   UNL A   1      43.899  27.465  27.838  1.00  0.00     0.167 HD
ATOM     25  C   UNL A   1      45.875  31.331  28.291  1.00  0.00     0.031 A 
ATOM     26  C   UNL A   1      43.790  24.743  27.183  1.00  0.00     0.031 A 
ATOM     27  C   UNL A   1      46.913  30.417  27.887  1.00  0.00     0.049 A 
ATOM     28  C   UNL A   1      45.213  25.167  26.953  1.00  0.00     0.074 A 
ATOM     29  C   UNL A   1      48.262  30.672  27.712  1.00  0.00     0.029 A 
ATOM     30  N   UNL A   1      46.720  29.077  27.582  1.00  0.00    -0.354 N 
ATOM     31  N   UNL A   1      45.759  26.344  27.137  1.00  0.00    -0.248 NA
ATOM     32  C   UNL A   1      46.138  24.138  26.462  1.00  0.00     0.031 C 
ATOM     33  C   UNL A   1      48.873  29.503  27.246  1.00  0.00     0.029 A 
ATOM     34  C   UNL A   1      47.918  28.500  27.195  1.00  0.00     0.049 A 
ATOM     35  H   UNL A   1      45.857  28.606  27.634  1.00  0.00     0.167 HD
ATOM     36  C   UNL A   1      47.100  26.193  26.806  1.00  0.00     0.074 A 
ATOM     37  C   UNL A   1      47.284  24.805  26.428  1.00  0.00     0.031 C 
ATOM     38  C   UNL A   1      48.090  27.120  26.816  1.00  0.00     0.031 A 
BRANCH  25  39
ATOM     39  C   UNL A   1      46.245  32.777  28.507  1.00  0.00    -0.014 A 
ATOM     40  C   UNL A   1      46.225  33.703  27.447  1.00  0.00     0.010 A 
ATOM     41  C   UNL A   1      46.569  33.229  29.800  1.00  0.00     0.010 A 
ATOM     42  C   UNL A   1      46.566  35.041  27.669  1.00  0.00     0.020 A 
ATOM     43  C   UNL A   1      46.883  34.571  30.031  1.00  0.00     0.020 A 
ATOM     44  C   UNL A   1      46.896  35.466  28.960  1.00  0.00     0.054 A 
BRANCH  44  45
ATOM     45  S   UNL A   1      47.321  37.211  29.217  1.00  0.00     0.124 S 
ATOM     46  O   UNL A   1      48.538  37.108  30.017  1.00  0.00    -0.237 OA
ATOM     47  O   UNL A   1      47.507  37.699  27.853  1.00  0.00    -0.237 OA
ATOM     48  O   UNL A   1      46.159  37.752  29.917  1.00  0.00    -0.744 OA
ENDBRANCH  44  45
ENDBRANCH  25  39
BRANCH  26  49
ATOM     49  C   UNL A   1      43.351  23.344  26.926  1.00  0.00    -0.014 A 
ATOM     50  C   UNL A   1      43.213  22.866  25.612  1.00  0.00     0.010 A 
ATOM     51  C   UNL A   1      43.097  22.472  28.002  1.00  0.00     0.010 A 
ATOM     52  C   UNL A   1      42.816  21.545  25.378  1.00  0.00     0.020 A 
ATOM     53  C   UNL A   1      42.733  21.144  27.772  1.00  0.00     0.020 A 
ATOM     54  C   UNL A   1      42.584  20.691  26.460  1.00  0.00     0.054 A 
BRANCH  54  55
ATOM     55  S   UNL A   1      42.131  18.967  26.131  1.00  0.00     0.124 S 
ATOM     56  O   UNL A   1      40.727  19.088  25.754  1.00  0.00    -0.237 OA
ATOM     57  O   UNL A   1      43.048  18.600  25.053  1.00  0.00    -0.237 OA
ATOM     58  O   UNL A   1      42.384  18.297  27.406  1.00  0.00    -0.744 OA
ENDBRANCH  54  55
ENDBRANCH  26  49
BRANCH  38  59
ATOM     59  C   UNL A   1      49.474  26.659  26.440  1.00  0.00    -0.014 A 
ATOM     60  C   UNL A   1      50.329  26.062  27.384  1.00  0.00     0.010 A 
ATOM     61  C   UNL A   1      49.907  26.786  25.108  1.00  0.00     0.010 A 
ATOM     62  C   UNL A   1      51.604  25.629  27.009  1.00  0.00     0.020 A 
ATOM     63  C   UNL A   1      51.169  26.327  24.722  1.00  0.00     0.020 A 
ATOM     64  C   UNL A   1      52.014  25.764  25.678  1.00  0.00     0.054 A 
BRANCH  64  65
ATOM     65  S   UNL A   1      53.657  25.156  25.206  1.00  0.00     0.124 S 
ATOM     66  O   UNL A   1      53.801  25.686  23.854  1.00  0.00    -0.237 OA
ATOM     67  O   UNL A   1      54.524  25.761  26.215  1.00  0.00    -0.237 OA
ATOM     68  O   UNL A   1      53.528  23.703  25.296  1.00  0.00    -0.744 OA
ENDBRANCH  64  65
ENDBRANCH  38  59
ENDBRANCH  12  13
ENDBRANCH   5   7
ENDBRANCH   2   3
ENDBRANCH   1   2
BRANCH   1  69
ATOM     69  C   UNL A   1      33.664  29.099  26.290  1.00  0.00     0.117 C 
BRANCH  69  70
ATOM     70  N   UNL A   1      33.562  29.313  24.861  1.00  0.00    -0.356 N 
ATOM     71  C   UNL A   1      32.705  28.774  23.950  1.00  0.00     0.224 C 
ATOM     72  H   UNL A   1      34.216  29.949  24.489  1.00  0.00     0.163 HD
ATOM     73  O   UNL A   1      32.608  29.375  22.878  1.00  0.00    -0.275 OA
BRANCH  71  74
ATOM     74  C   UNL A   1      31.958  27.460  24.244  1.00  0.00     0.095 C 
ATOM     75  C   UNL A   1      30.883  27.211  23.153  1.00  0.00     0.041 C 
ATOM     76  C   UNL A   1      32.960  26.275  24.279  1.00  0.00     0.095 C 
ATOM     77  C   UNL A   1      31.426  26.585  21.894  1.00  0.00    -0.030 C 
ATOM     78  C   UNL A   1      33.653  26.225  22.929  1.00  0.00     0.041 C 
ATOM     79  C   UNL A   1      32.694  26.165  21.784  1.00  0.00    -0.030 C 
BRANCH  76  80
ATOM     80  C   UNL A   1      32.302  24.952  24.717  1.00  0.00     0.224 C 
ATOM     81  O   UNL A   1      31.161  24.930  25.190  1.00  0.00    -0.275 OA
ATOM     82  N   UNL A   1      33.067  23.832  24.934  1.00  0.00    -0.344 N 
ATOM     83  H   UNL A   1      33.398  23.721  25.855  1.00  0.00     0.164 HD
BRANCH  82  84
ATOM     84  C   UNL A   1      33.473  22.751  23.973  1.00  0.00     0.172 C 
ATOM     85  C   UNL A   1      32.791  21.430  24.421  1.00  0.00     0.037 C 
ATOM     86  C   UNL A   1      34.991  22.507  23.739  1.00  0.00     0.249 C 
ATOM     87  C   UNL A   1      33.772  20.303  24.731  1.00  0.00     0.025 C 
ATOM     88  N   UNL A   1      35.639  21.851  24.790  1.00  0.00    -0.308 N 
ATOM     89  O   UNL A   1      35.567  22.966  22.752  1.00  0.00    -0.272 OA
ATOM     90  C   UNL A   1      34.919  20.857  25.566  1.00  0.00     0.126 C 
BRANCH  88  91
ATOM     91  C   UNL A   1      36.878  22.347  25.283  1.00  0.00     0.080 A 
ATOM     92  C   UNL A   1      36.973  23.625  25.837  1.00  0.00     0.029 A 
ATOM     93  C   UNL A   1      37.987  21.488  25.379  1.00  0.00     0.146 A 
ATOM     94  C   UNL A   1      38.162  24.038  26.453  1.00  0.00     0.002 A 
ATOM     95  C   UNL A   1      39.156  21.882  26.025  1.00  0.00     0.041 A 
ATOM     96  F   UNL A   1      37.893  20.211  24.976  1.00  0.00    -0.205 F 
ATOM     97  C   UNL A   1      39.246  23.164  26.558  1.00  0.00     0.003 A 
ENDBRANCH  88  91
ENDBRANCH  82  84
ENDBRANCH  76  80
ENDBRANCH  71  74
ENDBRANCH  69  70
ENDBRANCH   1  69
TORSDOF 16
ENDMDL
MODEL 3
REMARK VINA RESULT:     -12.2      6.503     11.511
REMARK SMILES O=C(NCCCNC(=O)[C@H]1CC=CC[C@@H]1C(=O)N[C@@H]1CCCN(c2ccccc2F)C1=O)c1ccc(-c2c3nc(c(-c4ccc(S(=O)(=O)[O-])cc4)c4ccc([nH]4)c(-c4ccc(S(=O)(=O)[O-])cc4)c4nc(c(-c5ccc(S(=O)(=O)[O-])cc5)c5ccc2[nH]5)C=C4)C=C3)cc1
REMARK SMILES IDX 5 1 4 2 3 3 1 4 2 5 33 7 34 8 92 9 35 10 91 11 36 12 37 13
REMARK SMILES IDX 38 14 85 15 39 16 90 17 84 18 86 19 40 20 89 21 83 22 82 23
REMARK SMILES IDX 41 25 71 26 52 27 70 28 53 29 56 30 69 31 87 32 54 33 55 34
REMARK SMILES IDX 68 36 88 37 57 38 42 39 43 40 51 41 44 42 50 43 45 44 46 45
REMARK SMILES IDX 47 46 48 47 49 48 72 49 73 50 81 51 74 52 80 53 75 54 76 55
REMARK SMILES IDX 77 56 78 57 79 58 58 59 59 60 67 61 60 62 66 63 61 64 62 65
REMARK SMILES IDX 63 66 64 67 65 68 6 69 7 70 8 71 9 73 10 74 11 75 15 76
REMARK SMILES IDX 12 77 14 78 13 79 16 80 17 81 18 82 19 84 20 85 31 86 21 87
REMARK SMILES IDX 23 88 32 89 22 90 24 91 25 92 29 93 26 94 28 95 30 96 27 97
REMARK H PARENT 3 6 86 24 56 35 7 72 18 83
REMARK Flexibility Score: inf
ROOT
ATOM      1  C   UNL A   1      34.174  29.601  27.178  1.00  0.00     0.042 C 
ENDROOT
BRANCH   1   2
ATOM      2  C   UNL A   1      35.534  29.944  27.780  1.00  0.00     0.118 C 
BRANCH   2   3
ATOM      3  N   UNL A   1      35.529  30.012  29.233  1.00  0.00    -0.352 N 
ATOM      4  O   UNL A   1      36.228  29.730  31.347  1.00  0.00    -0.269 OA
ATOM      5  C   UNL A   1      36.513  29.737  30.153  1.00  0.00     0.251 C 
ATOM      6  H   UNL A   1      34.674  30.306  29.624  1.00  0.00     0.163 HD
BRANCH   5   7
ATOM      7  C   UNL A   1      37.898  29.425  29.728  1.00  0.00     0.039 A 
ATOM      8  C   UNL A   1      38.837  28.901  30.619  1.00  0.00     0.014 A 
ATOM      9  C   UNL A   1      38.248  29.610  28.385  1.00  0.00     0.014 A 
ATOM     10  C   UNL A   1      40.154  28.700  30.206  1.00  0.00     0.010 A 
ATOM     11  C   UNL A   1      39.549  29.329  27.953  1.00  0.00     0.010 A 
ATOM     12  C   UNL A   1      40.524  28.901  28.867  1.00  0.00    -0.014 A 
BRANCH  12  13
ATOM     13  C   UNL A   1      41.913  28.603  28.426  1.00  0.00     0.031 A 
ATOM     14  C   UNL A   1      42.316  27.217  27.995  1.00  0.00     0.074 A 
ATOM     15  C   UNL A   1      42.823  29.599  28.411  1.00  0.00     0.049 A 
ATOM     16  N   UNL A   1      43.482  26.789  27.584  1.00  0.00    -0.248 NA
ATOM     17  C   UNL A   1      41.277  26.176  28.037  1.00  0.00     0.031 C 
ATOM     18  C   UNL A   1      42.562  30.984  28.811  1.00  0.00     0.029 A 
ATOM     19  N   UNL A   1      44.143  29.607  28.038  1.00  0.00    -0.354 N 
ATOM     20  C   UNL A   1      43.327  25.429  27.334  1.00  0.00     0.074 A 
ATOM     21  C   UNL A   1      41.957  25.098  27.667  1.00  0.00     0.031 C 
ATOM     22  C   UNL A   1      43.672  31.713  28.626  1.00  0.00     0.029 A 
ATOM     23  C   UNL A   1      44.741  30.839  28.157  1.00  0.00     0.049 A 
ATOM     24  H   UNL A   1      44.617  28.806  27.715  1.00  0.00     0.167 HD
ATOM     25  C   UNL A   1      44.238  24.541  26.866  1.00  0.00     0.031 A 
ATOM     26  C   UNL A   1      46.013  31.225  27.937  1.00  0.00     0.031 A 
ATOM     27  C   UNL A   1      45.603  24.874  26.544  1.00  0.00     0.049 A 
ATOM     28  C   UNL A   1      47.014  30.212  27.461  1.00  0.00     0.074 A 
ATOM     29  C   UNL A   1      46.591  24.050  26.035  1.00  0.00     0.029 A 
ATOM     30  N   UNL A   1      46.177  26.127  26.711  1.00  0.00    -0.354 N 
ATOM     31  N   UNL A   1      46.834  28.942  27.192  1.00  0.00    -0.248 NA
ATOM     32  C   UNL A   1      48.388  30.687  27.254  1.00  0.00     0.031 C 
ATOM     33  C   UNL A   1      47.777  24.788  25.949  1.00  0.00     0.029 A 
ATOM     34  C   UNL A   1      47.511  26.090  26.340  1.00  0.00     0.049 A 
ATOM     35  H   UNL A   1      45.704  26.924  27.043  1.00  0.00     0.167 HD
ATOM     36  C   UNL A   1      48.068  28.469  26.762  1.00  0.00     0.074 A 
ATOM     37  C   UNL A   1      48.980  29.595  26.790  1.00  0.00     0.031 C 
ATOM     38  C   UNL A   1      48.413  27.215  26.377  1.00  0.00     0.031 A 
BRANCH  25  39
ATOM     39  C   UNL A   1      43.798  23.108  26.698  1.00  0.00    -0.014 A 
ATOM     40  C   UNL A   1      43.075  22.443  27.707  1.00  0.00     0.010 A 
ATOM     41  C   UNL A   1      44.066  22.432  25.494  1.00  0.00     0.010 A 
ATOM     42  C   UNL A   1      42.670  21.116  27.530  1.00  0.00     0.020 A 
ATOM     43  C   UNL A   1      43.638  21.115  25.302  1.00  0.00     0.020 A 
ATOM     44  C   UNL A   1      42.957  20.459  26.329  1.00  0.00     0.054 A 
BRANCH  44  45
ATOM     45  S   UNL A   1      42.407  18.742  26.126  1.00  0.00     0.124 S 
ATOM     46  O   UNL A   1      43.293  18.268  25.066  1.00  0.00    -0.237 OA
ATOM     47  O   UNL A   1      42.650  18.171  27.448  1.00  0.00    -0.237 OA
ATOM     48  O   UNL A   1      41.001  18.869  25.752  1.00  0.00    -0.744 OA
ENDBRANCH  44  45
ENDBRANCH  25  39
BRANCH  26  49
ATOM     49  C   UNL A   1      46.404  32.640  28.181  1.00  0.00    -0.014 A 
ATOM     50  C   UNL A   1      46.882  33.046  29.439  1.00  0.00     0.010 A 
ATOM     51  C   UNL A   1      46.326  33.586  27.141  1.00  0.00     0.010 A 
ATOM     52  C   UNL A   1      47.264  34.374  29.656  1.00  0.00     0.020 A 
ATOM     53  C   UNL A   1      46.737  34.905  27.345  1.00  0.00     0.020 A 
ATOM     54  C   UNL A   1      47.194  35.293  28.605  1.00  0.00     0.054 A 
BRANCH  54  55
ATOM     55  S   UNL A   1      47.753  36.994  28.895  1.00  0.00     0.124 S 
ATOM     56  O   UNL A   1      48.553  37.257  27.704  1.00  0.00    -0.237 OA
ATOM     57  O   UNL A   1      46.492  37.728  28.987  1.00  0.00    -0.237 OA
ATOM     58  O   UNL A   1      48.502  36.900  30.146  1.00  0.00    -0.744 OA
ENDBRANCH  54  55
ENDBRANCH  26  49
BRANCH  38  59
ATOM     59  C   UNL A   1      49.831  26.997  25.918  1.00  0.00    -0.014 A 
ATOM     60  C   UNL A   1      50.834  26.579  26.811  1.00  0.00     0.010 A 
ATOM     61  C   UNL A   1      50.151  27.171  24.559  1.00  0.00     0.010 A 
ATOM     62  C   UNL A   1      52.140  26.370  26.358  1.00  0.00     0.020 A 
ATOM     63  C   UNL A   1      51.449  26.934  24.097  1.00  0.00     0.020 A 
ATOM     64  C   UNL A   1      52.438  26.548  25.003  1.00  0.00     0.054 A 
BRANCH  64  65
ATOM     65  S   UNL A   1      54.130  26.229  24.433  1.00  0.00     0.124 S 
ATOM     66  O   UNL A   1      54.050  26.594  23.022  1.00  0.00    -0.237 OA
ATOM     67  O   UNL A   1      54.925  27.125  25.270  1.00  0.00    -0.237 OA
ATOM     68  O   UNL A   1      54.322  24.805  24.699  1.00  0.00    -0.744 OA
ENDBRANCH  64  65
ENDBRANCH  38  59
ENDBRANCH  12  13
ENDBRANCH   5   7
ENDBRANCH   2   3
ENDBRANCH   1   2
BRANCH   1  69
ATOM     69  C   UNL A   1      34.205  28.910  25.817  1.00  0.00     0.117 C 
BRANCH  69  70
ATOM     70  N   UNL A   1      33.165  29.355  24.912  1.00  0.00    -0.356 N 
ATOM     71  C   UNL A   1      31.900  28.884  24.728  1.00  0.00     0.224 C 
ATOM     72  H   UNL A   1      33.412  30.116  24.338  1.00  0.00     0.163 HD
ATOM     73  O   UNL A   1      31.119  29.645  24.153  1.00  0.00    -0.275 OA
BRANCH  71  74
ATOM     74  C   UNL A   1      31.510  27.462  25.170  1.00  0.00     0.095 C 
ATOM     75  C   UNL A   1      30.141  27.076  24.549  1.00  0.00     0.041 C 
ATOM     76  C   UNL A   1      32.597  26.449  24.722  1.00  0.00     0.095 C 
ATOM     77  C   UNL A   1      30.235  26.576  23.129  1.00  0.00    -0.030 C 
ATOM     78  C   UNL A   1      32.715  26.545  23.211  1.00  0.00     0.041 C 
ATOM     79  C   UNL A   1      31.406  26.365  22.513  1.00  0.00    -0.030 C 
BRANCH  76  80
ATOM     80  C   UNL A   1      32.345  25.027  25.262  1.00  0.00     0.224 C 
ATOM     81  O   UNL A   1      31.400  24.789  26.021  1.00  0.00    -0.275 OA
ATOM     82  N   UNL A   1      33.339  24.080  25.219  1.00  0.00    -0.344 N 
ATOM     83  H   UNL A   1      33.921  24.044  26.012  1.00  0.00     0.164 HD
BRANCH  82  84
ATOM     84  C   UNL A   1      33.667  23.089  24.139  1.00  0.00     0.172 C 
ATOM     85  C   UNL A   1      32.933  21.761  24.466  1.00  0.00     0.037 C 
ATOM     86  C   UNL A   1      35.165  22.801  23.835  1.00  0.00     0.249 C 
ATOM     87  C   UNL A   1      33.865  20.563  24.626  1.00  0.00     0.025 C 
ATOM     88  N   UNL A   1      35.806  22.008  24.792  1.00  0.00    -0.308 N 
ATOM     89  O   UNL A   1      35.738  23.335  22.885  1.00  0.00    -0.272 OA
ATOM     90  C   UNL A   1      35.058  20.973  25.481  1.00  0.00     0.126 C 
BRANCH  88  91
ATOM     91  C   UNL A   1      37.080  22.392  25.297  1.00  0.00     0.080 A 
ATOM     92  C   UNL A   1      37.277  23.647  25.876  1.00  0.00     0.029 A 
ATOM     93  C   UNL A   1      38.115  21.444  25.378  1.00  0.00     0.146 A 
ATOM     94  C   UNL A   1      38.493  23.950  26.502  1.00  0.00     0.002 A 
ATOM     95  C   UNL A   1      39.310  21.728  26.034  1.00  0.00     0.041 A 
ATOM     96  F   UNL A   1      37.919  20.187  24.950  1.00  0.00    -0.205 F 
ATOM     97  C   UNL A   1      39.502  22.989  26.592  1.00  0.00     0.003 A 
ENDBRANCH  88  91
ENDBRANCH  82  84
ENDBRANCH  76  80
ENDBRANCH  71  74
ENDBRANCH  69  70
ENDBRANCH   1  69
TORSDOF 16
ENDMDL
