MODEL 1
REMARK VINA RESULT:     -10.3      0.000      0.000
REMARK SMILES Cc1cccc(N2C(=O)/C(=C/c3cccn3-c3cccc(C(=O)NCCCNC(=O)c4ccc(-c5c6nc(c(-c7ccc(S(=O)(=O)[O-])cc7)c7ccc([nH]7)c(-c7ccc(S(=O)(=O)[O-])cc7)c7nc(c(-c8ccc(S(=O)(=O)[O-])cc8)c8ccc5[nH]8)C=C7)C=C6)cc4)c3)C(O)=NC2=S)c1C
REMARK SMILES IDX 26 1 25 2 24 3 22 4 23 5 21 7 17 8 18 9 91 10 19 11 20 12
REMARK SMILES IDX 16 13 12 14 13 15 14 16 15 17 11 18 7 19 8 20 95 21 9 22
REMARK SMILES IDX 10 23 94 24 96 25 92 26 6 27 1 28 2 29 3 30 97 31 4 32 98 33
REMARK SMILES IDX 5 34 93 35 27 37 28 38 29 39 30 41 31 42 32 43 90 44 33 45
REMARK SMILES IDX 89 46 34 47 35 48 36 49 83 50 37 51 88 52 82 53 84 54 38 55
REMARK SMILES IDX 87 56 81 57 80 58 39 60 69 61 50 62 68 63 51 64 54 65 67 66
REMARK SMILES IDX 85 67 52 68 53 69 66 71 86 72 55 73 40 74 41 75 49 76 42 77
REMARK SMILES IDX 48 78 43 79 44 80 45 81 46 82 47 83 70 84 71 85 79 86 72 87
REMARK SMILES IDX 78 88 73 89 74 90 75 91 76 92 77 93 56 94 57 95 65 96 58 97
REMARK SMILES IDX 64 98 59 99 60 100 61 101 62 102 63 103
REMARK H PARENT 24 6 93 36 28 40 84 59 54 70
REMARK Flexibility Score: inf
ROOT
ATOM      1  C   UNL A   1      36.455  33.731  29.586  1.00  0.00     0.042 C 
ENDROOT
BRANCH   1   2
ATOM      2  C   UNL A   1      36.572  33.385  31.074  1.00  0.00     0.118 C 
BRANCH   2   3
ATOM      3  N   UNL A   1      36.356  31.982  31.377  1.00  0.00    -0.352 N 
ATOM      4  C   UNL A   1      36.748  31.109  32.359  1.00  0.00     0.251 C 
ATOM      5  O   UNL A   1      36.244  29.984  32.325  1.00  0.00    -0.269 OA
ATOM      6  H   UNL A   1      35.782  31.546  30.707  1.00  0.00     0.163 HD
BRANCH   4   7
ATOM      7  C   UNL A   1      37.755  31.392  33.423  1.00  0.00     0.041 A 
ATOM      8  C   UNL A   1      39.212  32.858  34.718  1.00  0.00     0.046 A 
ATOM      9  C   UNL A   1      39.825  31.748  35.306  1.00  0.00     0.026 A 
ATOM     10  C   UNL A   1      38.169  32.665  33.804  1.00  0.00     0.040 A 
ATOM     11  C   UNL A   1      39.379  30.465  34.992  1.00  0.00     0.003 A 
ATOM     12  C   UNL A   1      38.358  30.290  34.051  1.00  0.00     0.014 A 
BRANCH   8  13
ATOM     13  N   UNL A   1      39.735  34.173  34.916  1.00  0.00    -0.317 N 
ATOM     14  C   UNL A   1      40.676  34.889  34.155  1.00  0.00     0.047 A 
ATOM     15  C   UNL A   1      41.013  36.031  34.867  1.00  0.00     0.028 A 
ATOM     16  C   UNL A   1      40.314  36.011  36.089  1.00  0.00     0.020 A 
ATOM     17  C   UNL A   1      39.508  34.897  36.074  1.00  0.00     0.092 A 
BRANCH  14  18
ATOM     18  C   UNL A   1      41.069  34.474  32.849  1.00  0.00     0.046 C 
ATOM     19  N   UNL A   1      43.593  32.874  30.740  1.00  0.00    -0.251 N 
ATOM     20  C   UNL A   1      42.365  33.455  31.076  1.00  0.00     0.270 C 
ATOM     21  C   UNL A   1      44.631  32.693  31.675  1.00  0.00     0.210 C 
ATOM     22  O   UNL A   1      41.473  33.724  30.271  1.00  0.00    -0.268 OA
ATOM     23  C   UNL A   1      42.174  33.761  32.535  1.00  0.00     0.104 C 
ATOM     24  N   UNL A   1      44.304  32.676  33.008  1.00  0.00    -0.184 NA
ATOM     25  S   UNL A   1      46.273  32.551  31.261  1.00  0.00    -0.038 S 
ATOM     26  C   UNL A   1      43.197  33.178  33.407  1.00  0.00     0.226 C 
BRANCH  19  27
ATOM     27  C   UNL A   1      43.804  32.561  29.352  1.00  0.00     0.055 A 
ATOM     28  C   UNL A   1      44.687  34.191  25.981  1.00  0.00     0.044 C 
ATOM     29  C   UNL A   1      44.307  33.195  27.048  1.00  0.00    -0.046 A 
ATOM     30  C   UNL A   1      44.081  31.864  26.659  1.00  0.00     0.004 A 
ATOM     31  C   UNL A   1      44.187  33.555  28.412  1.00  0.00    -0.024 A 
ATOM     32  C   UNL A   1      43.744  30.891  27.595  1.00  0.00     0.002 A 
ATOM     33  C   UNL A   1      44.495  34.961  28.869  1.00  0.00     0.047 C 
ATOM     34  C   UNL A   1      43.613  31.235  28.936  1.00  0.00     0.027 A 
ENDBRANCH  19  27
BRANCH  26  35
ATOM     35  O   UNL A   1      42.957  33.068  34.721  1.00  0.00    -0.493 OA
ATOM     36  H   UNL A   1      43.647  32.818  35.303  1.00  0.00     0.295 HD
ENDBRANCH  26  35
ENDBRANCH  14  18
ENDBRANCH   8  13
ENDBRANCH   4   7
ENDBRANCH   2   3
ENDBRANCH   1   2
BRANCH   1  37
ATOM     37  C   UNL A   1      37.165  32.689  28.725  1.00  0.00     0.118 C 
BRANCH  37  38
ATOM     38  N   UNL A   1      36.200  31.810  28.071  1.00  0.00    -0.352 N 
ATOM     39  C   UNL A   1      36.295  30.486  27.707  1.00  0.00     0.251 C 
ATOM     40  H   UNL A   1      35.338  32.235  27.854  1.00  0.00     0.163 HD
ATOM     41  O   UNL A   1      35.421  29.987  27.020  1.00  0.00    -0.269 OA
BRANCH  39  42
ATOM     42  C   UNL A   1      37.471  29.683  28.091  1.00  0.00     0.039 A 
ATOM     43  C   UNL A   1      38.592  29.733  27.255  1.00  0.00     0.014 A 
ATOM     44  C   UNL A   1      37.470  28.877  29.233  1.00  0.00     0.014 A 
ATOM     45  C   UNL A   1      39.741  29.040  27.611  1.00  0.00     0.010 A 
ATOM     46  C   UNL A   1      38.633  28.236  29.627  1.00  0.00     0.010 A 
ATOM     47  C   UNL A   1      39.765  28.321  28.814  1.00  0.00    -0.014 A 
BRANCH  47  48
ATOM     48  C   UNL A   1      41.035  27.711  29.255  1.00  0.00     0.031 A 
ATOM     49  C   UNL A   1      41.376  26.454  28.424  1.00  0.00     0.074 A 
ATOM     50  C   UNL A   1      41.635  28.324  30.323  1.00  0.00     0.049 A 
ATOM     51  N   UNL A   1      41.954  25.347  28.777  1.00  0.00    -0.248 NA
ATOM     52  C   UNL A   1      40.918  26.382  27.007  1.00  0.00     0.031 C 
ATOM     53  C   UNL A   1      41.166  29.585  30.955  1.00  0.00     0.029 A 
ATOM     54  N   UNL A   1      42.737  28.041  31.094  1.00  0.00    -0.354 N 
ATOM     55  C   UNL A   1      42.068  24.524  27.627  1.00  0.00     0.074 A 
ATOM     56  C   UNL A   1      41.326  25.177  26.592  1.00  0.00     0.031 C 
ATOM     57  C   UNL A   1      41.917  29.903  32.030  1.00  0.00     0.029 A 
ATOM     58  C   UNL A   1      42.928  28.886  32.221  1.00  0.00     0.049 A 
ATOM     59  H   UNL A   1      43.353  27.303  30.882  1.00  0.00     0.167 HD
ATOM     60  C   UNL A   1      42.865  23.411  27.573  1.00  0.00     0.031 A 
ATOM     61  C   UNL A   1      43.786  28.730  33.274  1.00  0.00     0.031 A 
ATOM     62  C   UNL A   1      43.510  23.221  28.828  1.00  0.00     0.049 A 
ATOM     63  C   UNL A   1      44.525  27.493  32.977  1.00  0.00     0.074 A 
ATOM     64  C   UNL A   1      43.092  22.735  30.037  1.00  0.00     0.029 A 
ATOM     65  N   UNL A   1      44.702  23.881  28.998  1.00  0.00    -0.354 N 
ATOM     66  N   UNL A   1      45.452  27.370  32.079  1.00  0.00    -0.248 NA
ATOM     67  C   UNL A   1      44.110  26.254  33.648  1.00  0.00     0.031 C 
ATOM     68  C   UNL A   1      43.779  23.548  30.967  1.00  0.00     0.029 A 
ATOM     69  C   UNL A   1      44.708  24.347  30.291  1.00  0.00     0.049 A 
ATOM     70  H   UNL A   1      45.412  23.999  28.327  1.00  0.00     0.167 HD
ATOM     71  C   UNL A   1      45.455  26.020  31.830  1.00  0.00     0.074 A 
ATOM     72  C   UNL A   1      44.880  25.387  32.998  1.00  0.00     0.031 C 
ATOM     73  C   UNL A   1      45.451  25.557  30.555  1.00  0.00     0.031 A 
BRANCH  60  74
ATOM     74  C   UNL A   1      43.353  22.543  26.436  1.00  0.00    -0.014 A 
ATOM     75  C   UNL A   1      42.831  21.221  26.372  1.00  0.00     0.010 A 
ATOM     76  C   UNL A   1      44.494  22.817  25.672  1.00  0.00     0.010 A 
ATOM     77  C   UNL A   1      43.498  20.189  25.709  1.00  0.00     0.020 A 
ATOM     78  C   UNL A   1      45.152  21.787  24.967  1.00  0.00     0.020 A 
ATOM     79  C   UNL A   1      44.681  20.472  25.039  1.00  0.00     0.054 A 
BRANCH  79  80
ATOM     80  S   UNL A   1      45.621  19.083  24.342  1.00  0.00     0.124 S 
ATOM     81  O   UNL A   1      44.997  18.914  23.033  1.00  0.00    -0.237 OA
ATOM     82  O   UNL A   1      46.987  19.603  24.320  1.00  0.00    -0.237 OA
ATOM     83  O   UNL A   1      45.392  18.001  25.295  1.00  0.00    -0.744 OA
ENDBRANCH  79  80
ENDBRANCH  60  74
BRANCH  61  84
ATOM     84  C   UNL A   1      44.011  29.337  34.641  1.00  0.00    -0.014 A 
ATOM     85  C   UNL A   1      45.183  29.949  35.107  1.00  0.00     0.010 A 
ATOM     86  C   UNL A   1      42.911  29.360  35.543  1.00  0.00     0.010 A 
ATOM     87  C   UNL A   1      45.196  30.664  36.333  1.00  0.00     0.020 A 
ATOM     88  C   UNL A   1      42.895  30.095  36.729  1.00  0.00     0.020 A 
ATOM     89  C   UNL A   1      44.037  30.773  37.109  1.00  0.00     0.054 A 
BRANCH  89  90
ATOM     90  S   UNL A   1      43.960  31.884  38.545  1.00  0.00     0.124 S 
ATOM     91  O   UNL A   1      43.890  33.201  37.921  1.00  0.00    -0.237 OA
ATOM     92  O   UNL A   1      42.748  31.441  39.230  1.00  0.00    -0.237 OA
ATOM     93  O   UNL A   1      45.202  31.600  39.264  1.00  0.00    -0.744 OA
ENDBRANCH  89  90
ENDBRANCH  61  84
BRANCH  73  94
ATOM     94  C   UNL A   1      45.884  26.569  29.495  1.00  0.00    -0.014 A 
ATOM     95  C   UNL A   1      44.977  26.979  28.504  1.00  0.00     0.010 A 
ATOM     96  C   UNL A   1      47.205  27.058  29.398  1.00  0.00     0.010 A 
ATOM     97  C   UNL A   1      45.368  27.833  27.460  1.00  0.00     0.020 A 
ATOM     98  C   UNL A   1      47.609  27.914  28.357  1.00  0.00     0.020 A 
ATOM     99  C   UNL A   1      46.683  28.298  27.391  1.00  0.00     0.054 A 
BRANCH  99 100
ATOM    100  S   UNL A   1      47.156  29.395  26.021  1.00  0.00     0.124 S 
ATOM    101  O   UNL A   1      48.385  28.781  25.523  1.00  0.00    -0.237 OA
ATOM    102  O   UNL A   1      46.004  29.297  25.128  1.00  0.00    -0.237 OA
ATOM    103  O   UNL A   1      47.335  30.698  26.658  1.00  0.00    -0.744 OA
ENDBRANCH  99 100
ENDBRANCH  73  94
ENDBRANCH  47  48
ENDBRANCH  39  42
ENDBRANCH  37  38
ENDBRANCH   1  37
TORSDOF 17
ENDMDL
MODEL 2
REMARK VINA RESULT:     -10.1      2.199      5.038
REMARK SMILES Cc1cccc(N2C(=O)/C(=C/c3cccn3-c3cccc(C(=O)NCCCNC(=O)c4ccc(-c5c6nc(c(-c7ccc(S(=O)(=O)[O-])cc7)c7ccc([nH]7)c(-c7ccc(S(=O)(=O)[O-])cc7)c7nc(c(-c8ccc(S(=O)(=O)[O-])cc8)c8ccc5[nH]8)C=C7)C=C6)cc4)c3)C(O)=NC2=S)c1C
REMARK SMILES IDX 26 1 25 2 24 3 22 4 23 5 21 7 17 8 18 9 91 10 19 11 20 12
REMARK SMILES IDX 16 13 12 14 13 15 14 16 15 17 11 18 7 19 8 20 95 21 9 22
REMARK SMILES IDX 10 23 94 24 96 25 92 26 6 27 1 28 2 29 3 30 97 31 4 32 98 33
REMARK SMILES IDX 5 34 93 35 27 37 28 38 29 39 30 41 31 42 32 43 90 44 33 45
REMARK SMILES IDX 89 46 34 47 35 48 36 49 83 50 37 51 88 52 82 53 84 54 38 55
REMARK SMILES IDX 87 56 81 57 80 58 39 60 69 61 50 62 68 63 51 64 54 65 67 66
REMARK SMILES IDX 85 67 52 68 53 69 66 71 86 72 55 73 40 74 41 75 49 76 42 77
REMARK SMILES IDX 48 78 43 79 44 80 45 81 46 82 47 83 70 84 71 85 79 86 72 87
REMARK SMILES IDX 78 88 73 89 74 90 75 91 76 92 77 93 56 94 57 95 65 96 58 97
REMARK SMILES IDX 64 98 59 99 60 100 61 101 62 102 63 103
REMARK H PARENT 24 6 93 36 28 40 84 59 54 70
REMARK Flexibility Score: inf
ROOT
ATOM      1  C   UNL A   1      36.190  34.172  28.799  1.00  0.00     0.042 C 
ENDROOT
BRANCH   1   2
ATOM      2  C   UNL A   1      34.711  34.168  29.199  1.00  0.00     0.118 C 
BRANCH   2   3
ATOM      3  N   UNL A   1      34.452  34.697  30.525  1.00  0.00    -0.352 N 
ATOM      4  C   UNL A   1      34.988  34.539  31.777  1.00  0.00     0.251 C 
ATOM      5  O   UNL A   1      34.545  35.276  32.660  1.00  0.00    -0.269 OA
ATOM      6  H   UNL A   1      33.699  35.331  30.527  1.00  0.00     0.163 HD
BRANCH   4   7
ATOM      7  C   UNL A   1      36.017  33.528  32.160  1.00  0.00     0.041 A 
ATOM      8  C   UNL A   1      38.295  32.803  32.644  1.00  0.00     0.046 A 
ATOM      9  C   UNL A   1      37.878  31.469  32.666  1.00  0.00     0.026 A 
ATOM     10  C   UNL A   1      37.354  33.815  32.416  1.00  0.00     0.040 A 
ATOM     11  C   UNL A   1      36.530  31.163  32.481  1.00  0.00     0.003 A 
ATOM     12  C   UNL A   1      35.610  32.185  32.222  1.00  0.00     0.014 A 
BRANCH   8  13
ATOM     13  N   UNL A   1      39.684  33.136  32.695  1.00  0.00    -0.317 N 
ATOM     14  C   UNL A   1      40.528  33.295  33.807  1.00  0.00     0.047 A 
ATOM     15  C   UNL A   1      41.728  33.823  33.354  1.00  0.00     0.028 A 
ATOM     16  C   UNL A   1      41.621  34.032  31.966  1.00  0.00     0.020 A 
ATOM     17  C   UNL A   1      40.387  33.563  31.581  1.00  0.00     0.092 A 
BRANCH  14  18
ATOM     18  C   UNL A   1      40.152  32.861  35.112  1.00  0.00     0.046 C 
ATOM     19  N   UNL A   1      39.184  33.779  38.518  1.00  0.00    -0.251 N 
ATOM     20  C   UNL A   1      39.420  32.946  37.419  1.00  0.00     0.270 C 
ATOM     21  C   UNL A   1      39.365  35.175  38.469  1.00  0.00     0.210 C 
ATOM     22  O   UNL A   1      39.374  31.716  37.448  1.00  0.00    -0.268 OA
ATOM     23  C   UNL A   1      39.758  33.652  36.135  1.00  0.00     0.104 C 
ATOM     24  N   UNL A   1      39.347  35.785  37.239  1.00  0.00    -0.184 NA
ATOM     25  S   UNL A   1      39.660  36.148  39.831  1.00  0.00    -0.038 S 
ATOM     26  C   UNL A   1      39.545  35.101  36.176  1.00  0.00     0.226 C 
BRANCH  19  27
ATOM     27  C   UNL A   1      38.851  33.134  39.759  1.00  0.00     0.055 A 
ATOM     28  C   UNL A   1      40.438  31.272  42.728  1.00  0.00     0.044 C 
ATOM     29  C   UNL A   1      39.447  31.902  41.782  1.00  0.00    -0.046 A 
ATOM     30  C   UNL A   1      38.081  31.807  42.097  1.00  0.00     0.004 A 
ATOM     31  C   UNL A   1      39.849  32.587  40.610  1.00  0.00    -0.024 A 
ATOM     32  C   UNL A   1      37.115  32.381  41.277  1.00  0.00     0.002 A 
ATOM     33  C   UNL A   1      41.312  32.767  40.285  1.00  0.00     0.047 C 
ATOM     34  C   UNL A   1      37.496  33.047  40.117  1.00  0.00     0.027 A 
ENDBRANCH  19  27
BRANCH  26  35
ATOM     35  O   UNL A   1      39.461  35.786  35.028  1.00  0.00    -0.493 OA
ATOM     36  H   UNL A   1      38.665  36.225  34.803  1.00  0.00     0.295 HD
ENDBRANCH  26  35
ENDBRANCH  14  18
ENDBRANCH   8  13
ENDBRANCH   4   7
ENDBRANCH   2   3
ENDBRANCH   1   2
BRANCH   1  37
ATOM     37  C   UNL A   1      36.748  32.752  28.756  1.00  0.00     0.118 C 
BRANCH  37  38
ATOM     38  N   UNL A   1      35.707  31.795  28.388  1.00  0.00    -0.352 N 
ATOM     39  C   UNL A   1      35.766  30.434  28.199  1.00  0.00     0.251 C 
ATOM     40  H   UNL A   1      34.815  32.191  28.252  1.00  0.00     0.163 HD
ATOM     41  O   UNL A   1      34.803  29.848  27.734  1.00  0.00    -0.269 OA
BRANCH  39  42
ATOM     42  C   UNL A   1      37.000  29.685  28.503  1.00  0.00     0.039 A 
ATOM     43  C   UNL A   1      38.025  29.710  27.549  1.00  0.00     0.014 A 
ATOM     44  C   UNL A   1      37.145  28.952  29.684  1.00  0.00     0.014 A 
ATOM     45  C   UNL A   1      39.226  29.069  27.821  1.00  0.00     0.010 A 
ATOM     46  C   UNL A   1      38.362  28.366  29.988  1.00  0.00     0.010 A 
ATOM     47  C   UNL A   1      39.399  28.428  29.054  1.00  0.00    -0.014 A 
BRANCH  47  48
ATOM     48  C   UNL A   1      40.726  27.877  29.392  1.00  0.00     0.031 A 
ATOM     49  C   UNL A   1      41.046  26.619  28.555  1.00  0.00     0.074 A 
ATOM     50  C   UNL A   1      41.391  28.535  30.393  1.00  0.00     0.049 A 
ATOM     51  N   UNL A   1      41.698  25.543  28.874  1.00  0.00    -0.248 NA
ATOM     52  C   UNL A   1      40.470  26.500  27.186  1.00  0.00     0.031 C 
ATOM     53  C   UNL A   1      40.928  29.789  31.043  1.00  0.00     0.029 A 
ATOM     54  N   UNL A   1      42.568  28.312  31.069  1.00  0.00    -0.354 N 
ATOM     55  C   UNL A   1      41.746  24.702  27.732  1.00  0.00     0.074 A 
ATOM     56  C   UNL A   1      40.889  25.304  26.756  1.00  0.00     0.031 C 
ATOM     57  C   UNL A   1      41.756  30.158  32.043  1.00  0.00     0.029 A 
ATOM     58  C   UNL A   1      42.821  29.186  32.160  1.00  0.00     0.049 A 
ATOM     59  H   UNL A   1      43.193  27.595  30.815  1.00  0.00     0.167 HD
ATOM     60  C   UNL A   1      42.580  23.621  27.626  1.00  0.00     0.031 A 
ATOM     61  C   UNL A   1      43.773  29.085  33.136  1.00  0.00     0.031 A 
ATOM     62  C   UNL A   1      43.340  23.482  28.823  1.00  0.00     0.049 A 
ATOM     63  C   UNL A   1      44.534  27.873  32.795  1.00  0.00     0.074 A 
ATOM     64  C   UNL A   1      43.049  23.004  30.072  1.00  0.00     0.029 A 
ATOM     65  N   UNL A   1      44.513  24.193  28.877  1.00  0.00    -0.354 N 
ATOM     66  N   UNL A   1      45.383  27.770  31.822  1.00  0.00    -0.248 NA
ATOM     67  C   UNL A   1      44.231  26.632  33.521  1.00  0.00     0.031 C 
ATOM     68  C   UNL A   1      43.780  23.862  30.925  1.00  0.00     0.029 A 
ATOM     69  C   UNL A   1      44.612  24.684  30.156  1.00  0.00     0.049 A 
ATOM     70  H   UNL A   1      45.156  24.325  28.144  1.00  0.00     0.167 HD
ATOM     71  C   UNL A   1      45.421  26.416  31.596  1.00  0.00     0.074 A 
ATOM     72  C   UNL A   1      44.977  25.784  32.820  1.00  0.00     0.031 C 
ATOM     73  C   UNL A   1      45.325  25.927  30.334  1.00  0.00     0.031 A 
BRANCH  60  74
ATOM     74  C   UNL A   1      43.003  22.751  26.466  1.00  0.00    -0.014 A 
ATOM     75  C   UNL A   1      42.528  21.410  26.466  1.00  0.00     0.010 A 
ATOM     76  C   UNL A   1      44.064  23.052  25.602  1.00  0.00     0.010 A 
ATOM     77  C   UNL A   1      43.176  20.390  25.765  1.00  0.00     0.020 A 
ATOM     78  C   UNL A   1      44.698  22.034  24.859  1.00  0.00     0.020 A 
ATOM     79  C   UNL A   1      44.286  20.705  24.992  1.00  0.00     0.054 A 
BRANCH  79  80
ATOM     80  S   UNL A   1      45.216  19.339  24.239  1.00  0.00     0.124 S 
ATOM     81  O   UNL A   1      44.634  19.270  22.902  1.00  0.00    -0.237 OA
ATOM     82  O   UNL A   1      46.594  19.822  24.297  1.00  0.00    -0.237 OA
ATOM     83  O   UNL A   1      44.926  18.204  25.111  1.00  0.00    -0.744 OA
ENDBRANCH  79  80
ENDBRANCH  60  74
BRANCH  61  84
ATOM     84  C   UNL A   1      44.091  29.728  34.468  1.00  0.00    -0.014 A 
ATOM     85  C   UNL A   1      43.173  30.156  35.436  1.00  0.00     0.010 A 
ATOM     86  C   UNL A   1      45.462  29.865  34.825  1.00  0.00     0.010 A 
ATOM     87  C   UNL A   1      43.604  30.550  36.730  1.00  0.00     0.020 A 
ATOM     88  C   UNL A   1      45.900  30.208  36.105  1.00  0.00     0.020 A 
ATOM     89  C   UNL A   1      44.962  30.525  37.068  1.00  0.00     0.054 A 
BRANCH  89  90
ATOM     90  S   UNL A   1      45.515  30.781  38.780  1.00  0.00     0.124 S 
ATOM     91  O   UNL A   1      46.268  32.028  38.685  1.00  0.00    -0.237 OA
ATOM     92  O   UNL A   1      44.257  30.855  39.518  1.00  0.00    -0.237 OA
ATOM     93  O   UNL A   1      46.316  29.590  39.062  1.00  0.00    -0.744 OA
ENDBRANCH  89  90
ENDBRANCH  61  84
BRANCH  73  94
ATOM     94  C   UNL A   1      45.622  26.935  29.224  1.00  0.00    -0.014 A 
ATOM     95  C   UNL A   1      46.950  27.276  28.923  1.00  0.00     0.010 A 
ATOM     96  C   UNL A   1      44.608  27.628  28.528  1.00  0.00     0.010 A 
ATOM     97  C   UNL A   1      47.257  28.267  27.977  1.00  0.00     0.020 A 
ATOM     98  C   UNL A   1      44.902  28.623  27.577  1.00  0.00     0.020 A 
ATOM     99  C   UNL A   1      46.231  28.937  27.306  1.00  0.00     0.054 A 
BRANCH  99 100
ATOM    100  S   UNL A   1      46.664  30.220  26.093  1.00  0.00     0.124 S 
ATOM    101  O   UNL A   1      45.600  31.206  26.270  1.00  0.00    -0.237 OA
ATOM    102  O   UNL A   1      47.988  30.643  26.544  1.00  0.00    -0.237 OA
ATOM    103  O   UNL A   1      46.643  29.515  24.813  1.00  0.00    -0.744 OA
ENDBRANCH  99 100
ENDBRANCH  73  94
ENDBRANCH  47  48
ENDBRANCH  39  42
ENDBRANCH  37  38
ENDBRANCH   1  37
TORSDOF 17
ENDMDL
MODEL 3
REMARK VINA RESULT:     -10.0      4.295     11.997
REMARK SMILES Cc1cccc(N2C(=O)/C(=C/c3cccn3-c3cccc(C(=O)NCCCNC(=O)c4ccc(-c5c6nc(c(-c7ccc(S(=O)(=O)[O-])cc7)c7ccc([nH]7)c(-c7ccc(S(=O)(=O)[O-])cc7)c7nc(c(-c8ccc(S(=O)(=O)[O-])cc8)c8ccc5[nH]8)C=C7)C=C6)cc4)c3)C(O)=NC2=S)c1C
REMARK SMILES IDX 26 1 25 2 24 3 22 4 23 5 21 7 17 8 18 9 91 10 19 11 20 12
REMARK SMILES IDX 16 13 12 14 13 15 14 16 15 17 11 18 7 19 8 20 95 21 9 22
REMARK SMILES IDX 10 23 94 24 96 25 92 26 6 27 1 28 2 29 3 30 97 31 4 32 98 33
REMARK SMILES IDX 5 34 93 35 27 37 28 38 29 39 30 41 31 42 32 43 90 44 33 45
REMARK SMILES IDX 89 46 34 47 35 48 36 49 83 50 37 51 88 52 82 53 84 54 38 55
REMARK SMILES IDX 87 56 81 57 80 58 39 60 69 61 50 62 68 63 51 64 54 65 67 66
REMARK SMILES IDX 85 67 52 68 53 69 66 71 86 72 55 73 40 74 41 75 49 76 42 77
REMARK SMILES IDX 48 78 43 79 44 80 45 81 46 82 47 83 70 84 71 85 79 86 72 87
REMARK SMILES IDX 78 88 73 89 74 90 75 91 76 92 77 93 56 94 57 95 65 96 58 97
REMARK SMILES IDX 64 98 59 99 60 100 61 101 62 102 63 103
REMARK H PARENT 24 6 93 36 28 40 84 59 54 70
REMARK Flexibility Score: inf
ROOT
ATOM      1  C   UNL A   1      47.790  21.674  35.263  1.00  0.00     0.042 C 
ENDROOT
BRANCH   1   2
ATOM      2  C   UNL A   1      48.108  20.527  34.299  1.00  0.00     0.118 C 
BRANCH   2   3
ATOM      3  N   UNL A   1      49.195  19.669  34.733  1.00  0.00    -0.352 N 
ATOM      4  C   UNL A   1      50.558  19.774  34.841  1.00  0.00     0.251 C 
ATOM      5  O   UNL A   1      51.139  18.830  35.380  1.00  0.00    -0.269 OA
ATOM      6  H   UNL A   1      48.872  18.786  35.025  1.00  0.00     0.163 HD
BRANCH   4   7
ATOM      7  C   UNL A   1      51.386  20.902  34.323  1.00  0.00     0.041 A 
ATOM      8  C   UNL A   1      52.154  23.217  34.299  1.00  0.00     0.046 A 
ATOM      9  C   UNL A   1      52.834  22.991  33.098  1.00  0.00     0.026 A 
ATOM     10  C   UNL A   1      51.461  22.164  34.906  1.00  0.00     0.040 A 
ATOM     11  C   UNL A   1      52.831  21.716  32.532  1.00  0.00     0.003 A 
ATOM     12  C   UNL A   1      52.105  20.684  33.136  1.00  0.00     0.014 A 
BRANCH   8  13
ATOM     13  N   UNL A   1      52.028  24.538  34.829  1.00  0.00    -0.317 N 
ATOM     14  C   UNL A   1      51.438  25.681  34.260  1.00  0.00     0.047 A 
ATOM     15  C   UNL A   1      51.752  26.764  35.068  1.00  0.00     0.028 A 
ATOM     16  C   UNL A   1      52.570  26.306  36.119  1.00  0.00     0.020 A 
ATOM     17  C   UNL A   1      52.684  24.944  35.978  1.00  0.00     0.092 A 
BRANCH  14  18
ATOM     18  C   UNL A   1      50.599  25.608  33.110  1.00  0.00     0.046 C 
ATOM     19  N   UNL A   1      50.187  26.267  29.536  1.00  0.00    -0.251 N 
ATOM     20  C   UNL A   1      49.874  25.770  30.805  1.00  0.00     0.270 C 
ATOM     21  C   UNL A   1      51.375  26.975  29.267  1.00  0.00     0.210 C 
ATOM     22  O   UNL A   1      48.804  25.238  31.106  1.00  0.00    -0.268 OA
ATOM     23  C   UNL A   1      50.949  25.928  31.843  1.00  0.00     0.104 C 
ATOM     24  N   UNL A   1      52.434  26.808  30.124  1.00  0.00    -0.184 NA
ATOM     25  S   UNL A   1      51.564  28.067  27.978  1.00  0.00    -0.038 S 
ATOM     26  C   UNL A   1      52.244  26.351  31.304  1.00  0.00     0.226 C 
BRANCH  19  27
ATOM     27  C   UNL A   1      49.182  26.123  28.517  1.00  0.00     0.055 A 
ATOM     28  C   UNL A   1      45.901  27.689  27.258  1.00  0.00     0.044 C 
ATOM     29  C   UNL A   1      47.100  26.791  27.428  1.00  0.00    -0.046 A 
ATOM     30  C   UNL A   1      47.226  25.687  26.567  1.00  0.00     0.004 A 
ATOM     31  C   UNL A   1      48.094  27.031  28.407  1.00  0.00    -0.024 A 
ATOM     32  C   UNL A   1      48.316  24.827  26.659  1.00  0.00     0.002 A 
ATOM     33  C   UNL A   1      48.023  28.249  29.297  1.00  0.00     0.047 C 
ATOM     34  C   UNL A   1      49.294  25.047  27.624  1.00  0.00     0.027 A 
ENDBRANCH  19  27
BRANCH  26  35
ATOM     35  O   UNL A   1      53.350  26.185  32.041  1.00  0.00    -0.493 OA
ATOM     36  H   UNL A   1      53.403  26.565  32.896  1.00  0.00     0.295 HD
ENDBRANCH  26  35
ENDBRANCH  14  18
ENDBRANCH   8  13
ENDBRANCH   4   7
ENDBRANCH   2   3
ENDBRANCH   1   2
BRANCH   1  37
ATOM     37  C   UNL A   1      48.191  23.019  34.663  1.00  0.00     0.118 C 
BRANCH  37  38
ATOM     38  N   UNL A   1      48.284  24.044  35.700  1.00  0.00    -0.352 N 
ATOM     39  C   UNL A   1      47.675  25.274  35.803  1.00  0.00     0.251 C 
ATOM     40  H   UNL A   1      48.882  23.818  36.448  1.00  0.00     0.163 HD
ATOM     41  O   UNL A   1      48.021  26.045  36.681  1.00  0.00    -0.269 OA
BRANCH  39  42
ATOM     42  C   UNL A   1      46.648  25.689  34.829  1.00  0.00     0.039 A 
ATOM     43  C   UNL A   1      47.018  26.624  33.855  1.00  0.00     0.014 A 
ATOM     44  C   UNL A   1      45.342  25.193  34.880  1.00  0.00     0.014 A 
ATOM     45  C   UNL A   1      46.101  26.996  32.882  1.00  0.00     0.010 A 
ATOM     46  C   UNL A   1      44.443  25.512  33.875  1.00  0.00     0.010 A 
ATOM     47  C   UNL A   1      44.827  26.412  32.879  1.00  0.00    -0.014 A 
BRANCH  47  48
ATOM     48  C   UNL A   1      43.911  26.703  31.758  1.00  0.00     0.031 A 
ATOM     49  C   UNL A   1      42.825  27.721  32.167  1.00  0.00     0.074 A 
ATOM     50  C   UNL A   1      44.156  25.998  30.610  1.00  0.00     0.049 A 
ATOM     51  N   UNL A   1      41.580  27.809  31.810  1.00  0.00    -0.248 NA
ATOM     52  C   UNL A   1      43.148  28.742  33.204  1.00  0.00     0.031 C 
ATOM     53  C   UNL A   1      45.314  25.090  30.397  1.00  0.00     0.029 A 
ATOM     54  N   UNL A   1      43.513  25.886  29.399  1.00  0.00    -0.354 N 
ATOM     55  C   UNL A   1      41.020  28.951  32.438  1.00  0.00     0.074 A 
ATOM     56  C   UNL A   1      42.009  29.426  33.358  1.00  0.00     0.031 C 
ATOM     57  C   UNL A   1      45.245  24.482  29.193  1.00  0.00     0.029 A 
ATOM     58  C   UNL A   1      44.042  24.910  28.513  1.00  0.00     0.049 A 
ATOM     59  H   UNL A   1      42.738  26.445  29.161  1.00  0.00     0.167 HD
ATOM     60  C   UNL A   1      39.818  29.498  32.075  1.00  0.00     0.031 A 
ATOM     61  C   UNL A   1      43.504  24.423  27.354  1.00  0.00     0.031 A 
ATOM     62  C   UNL A   1      39.244  28.736  31.018  1.00  0.00     0.049 A 
ATOM     63  C   UNL A   1      42.247  25.166  27.181  1.00  0.00     0.074 A 
ATOM     64  C   UNL A   1      38.592  27.533  30.971  1.00  0.00     0.029 A 
ATOM     65  N   UNL A   1      39.619  29.092  29.746  1.00  0.00    -0.354 N 
ATOM     66  N   UNL A   1      42.154  26.406  26.816  1.00  0.00    -0.248 NA
ATOM     67  C   UNL A   1      40.990  24.512  27.569  1.00  0.00     0.031 C 
ATOM     68  C   UNL A   1      39.042  26.969  29.756  1.00  0.00     0.029 A 
ATOM     69  C   UNL A   1      39.783  27.921  29.047  1.00  0.00     0.049 A 
ATOM     70  H   UNL A   1      39.746  30.006  29.404  1.00  0.00     0.167 HD
ATOM     71  C   UNL A   1      40.913  26.765  27.282  1.00  0.00     0.074 A 
ATOM     72  C   UNL A   1      40.158  25.539  27.427  1.00  0.00     0.031 C 
ATOM     73  C   UNL A   1      40.747  27.922  27.972  1.00  0.00     0.031 A 
BRANCH  60  74
ATOM     74  C   UNL A   1      39.143  30.813  32.390  1.00  0.00    -0.014 A 
ATOM     75  C   UNL A   1      38.249  30.824  33.496  1.00  0.00     0.010 A 
ATOM     76  C   UNL A   1      39.071  31.893  31.500  1.00  0.00     0.010 A 
ATOM     77  C   UNL A   1      37.234  31.775  33.624  1.00  0.00     0.020 A 
ATOM     78  C   UNL A   1      38.073  32.879  31.644  1.00  0.00     0.020 A 
ATOM     79  C   UNL A   1      37.129  32.779  32.671  1.00  0.00     0.054 A 
BRANCH  79  80
ATOM     80  S   UNL A   1      35.695  33.891  32.758  1.00  0.00     0.124 S 
ATOM     81  O   UNL A   1      35.422  34.152  31.347  1.00  0.00    -0.237 OA
ATOM     82  O   UNL A   1      34.699  33.071  33.445  1.00  0.00    -0.237 OA
ATOM     83  O   UNL A   1      36.189  35.030  33.526  1.00  0.00    -0.744 OA
ENDBRANCH  79  80
ENDBRANCH  60  74
BRANCH  61  84
ATOM     84  C   UNL A   1      43.748  23.278  26.396  1.00  0.00    -0.014 A 
ATOM     85  C   UNL A   1      44.609  23.274  25.291  1.00  0.00     0.010 A 
ATOM     86  C   UNL A   1      43.094  22.042  26.664  1.00  0.00     0.010 A 
ATOM     87  C   UNL A   1      44.904  22.072  24.597  1.00  0.00     0.020 A 
ATOM     88  C   UNL A   1      43.406  20.843  26.020  1.00  0.00     0.020 A 
ATOM     89  C   UNL A   1      44.338  20.857  25.001  1.00  0.00     0.054 A 
BRANCH  89  90
ATOM     90  S   UNL A   1      44.889  19.275  24.296  1.00  0.00     0.124 S 
ATOM     91  O   UNL A   1      46.322  19.290  24.571  1.00  0.00    -0.237 OA
ATOM     92  O   UNL A   1      44.108  18.297  25.050  1.00  0.00    -0.237 OA
ATOM     93  O   UNL A   1      44.524  19.385  22.884  1.00  0.00    -0.744 OA
ENDBRANCH  89  90
ENDBRANCH  61  84
BRANCH  73  94
ATOM     94  C   UNL A   1      41.868  28.947  27.800  1.00  0.00    -0.014 A 
ATOM     95  C   UNL A   1      42.265  29.343  26.512  1.00  0.00     0.010 A 
ATOM     96  C   UNL A   1      42.608  29.462  28.886  1.00  0.00     0.010 A 
ATOM     97  C   UNL A   1      43.353  30.208  26.314  1.00  0.00     0.020 A 
ATOM     98  C   UNL A   1      43.699  30.331  28.700  1.00  0.00     0.020 A 
ATOM     99  C   UNL A   1      44.066  30.700  27.409  1.00  0.00     0.054 A 
BRANCH  99 100
ATOM    100  S   UNL A   1      45.474  31.811  27.115  1.00  0.00     0.124 S 
ATOM    101  O   UNL A   1      46.422  31.417  28.155  1.00  0.00    -0.237 OA
ATOM    102  O   UNL A   1      45.867  31.466  25.751  1.00  0.00    -0.237 OA
ATOM    103  O   UNL A   1      44.906  33.149  27.275  1.00  0.00    -0.744 OA
ENDBRANCH  99 100
ENDBRANCH  73  94
ENDBRANCH  47  48
ENDBRANCH  39  42
ENDBRANCH  37  38
ENDBRANCH   1  37
TORSDOF 17
ENDMDL
