MODEL 1
REMARK VINA RESULT:     -14.4      0.000      0.000
REMARK SMILES CN1C(=O)C[C@@H](C(=O)NCCCNC(=O)c2ccc(-c3c4nc(c(-c5ccc(S(=O)(=O)[O-])cc5)c5ccc([nH]5)c(-c5ccc(S(=O)(=O)[O-])cc5)c5nc(c(-c6ccc(S(=O)(=O)[O-])cc6)c6ccc3[nH]6)C=C5)C=C4)cc2)C12CCN(C(=O)c1cccc3ccccc13)CC2
REMARK SMILES IDX 12 1 11 2 10 3 9 4 7 5 8 6 6 8 1 9 2 10 3 11 76 12 4 13 5 14
REMARK SMILES IDX 77 15 93 16 78 17 92 18 79 19 80 20 81 21 82 22 83 23 91 24
REMARK SMILES IDX 84 25 86 26 90 27 85 28 87 29 89 30 88 31 13 32 14 33 15 35
REMARK SMILES IDX 16 36 17 37 75 38 18 39 74 40 19 41 20 42 21 43 68 44 22 45
REMARK SMILES IDX 73 46 67 47 69 48 23 49 72 50 66 51 65 52 24 54 54 55 35 56
REMARK SMILES IDX 53 57 36 58 39 59 52 60 70 61 37 62 38 63 51 65 71 66 40 67
REMARK SMILES IDX 25 68 26 69 34 70 27 71 33 72 28 73 29 74 30 75 31 76 32 77
REMARK SMILES IDX 55 78 56 79 64 80 57 81 63 82 58 83 59 84 60 85 61 86 62 87
REMARK SMILES IDX 41 88 42 89 50 90 43 91 49 92 44 93 45 94 46 95 47 96 48 97
REMARK H PARENT 9 7 13 34 69 53 39 64
REMARK Flexibility Score: inf
ROOT
ATOM      1  C   UNL A   1      40.111  23.508  27.143  1.00  0.00     0.118 C 
ENDROOT
BRANCH   1   2
ATOM      2  C   UNL A   1      38.912  22.847  26.477  1.00  0.00     0.042 C 
BRANCH   2   3
ATOM      3  C   UNL A   1      37.838  23.841  26.030  1.00  0.00     0.117 C 
BRANCH   3   4
ATOM      4  N   UNL A   1      37.213  23.526  24.751  1.00  0.00    -0.356 N 
ATOM      5  C   UNL A   1      36.125  22.803  24.384  1.00  0.00     0.226 C 
ATOM      6  O   UNL A   1      35.828  22.843  23.183  1.00  0.00    -0.275 OA
ATOM      7  H   UNL A   1      37.682  23.925  23.985  1.00  0.00     0.163 HD
BRANCH   5   8
ATOM      8  C   UNL A   1      35.291  21.918  25.311  1.00  0.00     0.113 C 
ATOM      9  C   UNL A   1      32.473  20.018  23.720  1.00  0.00     0.147 C 
ATOM     10  N   UNL A   1      33.679  20.542  24.336  1.00  0.00    -0.339 N 
ATOM     11  C   UNL A   1      34.744  19.694  24.629  1.00  0.00     0.223 C 
ATOM     12  C   UNL A   1      33.774  21.839  25.026  1.00  0.00     0.058 C 
ATOM     13  O   UNL A   1      34.843  18.517  24.335  1.00  0.00    -0.275 OA
ATOM     14  C   UNL A   1      35.794  20.479  25.364  1.00  0.00     0.116 C 
ATOM     15  C   UNL A   1      33.253  23.038  24.203  1.00  0.00     0.051 C 
ATOM     16  C   UNL A   1      32.939  21.755  26.341  1.00  0.00     0.051 C 
ATOM     17  C   UNL A   1      33.222  24.343  24.999  1.00  0.00     0.122 C 
ATOM     18  C   UNL A   1      32.758  23.101  27.049  1.00  0.00     0.122 C 
ATOM     19  N   UNL A   1      32.330  24.146  26.119  1.00  0.00    -0.338 N 
ATOM     20  C   UNL A   1      31.105  24.779  26.302  1.00  0.00     0.254 C 
ATOM     21  O   UNL A   1      30.317  24.423  27.180  1.00  0.00    -0.269 OA
BRANCH  20  22
ATOM     22  C   UNL A   1      30.734  26.018  25.557  1.00  0.00     0.047 A 
ATOM     23  C   UNL A   1      30.052  25.757  24.355  1.00  0.00     0.014 A 
ATOM     24  C   UNL A   1      31.203  27.334  25.848  1.00  0.00    -0.006 A 
ATOM     25  C   UNL A   1      29.888  26.753  23.402  1.00  0.00     0.001 A 
ATOM     26  C   UNL A   1      31.064  28.324  24.839  1.00  0.00    -0.018 A 
ATOM     27  C   UNL A   1      31.795  27.754  27.062  1.00  0.00     0.009 A 
ATOM     28  C   UNL A   1      30.430  28.015  23.628  1.00  0.00     0.009 A 
ATOM     29  C   UNL A   1      31.560  29.624  25.039  1.00  0.00     0.009 A 
ATOM     30  C   UNL A   1      32.176  29.082  27.291  1.00  0.00     0.001 A 
ATOM     31  C   UNL A   1      32.088  30.009  26.267  1.00  0.00     0.001 A 
ENDBRANCH  20  22
ENDBRANCH   5   8
ENDBRANCH   3   4
ENDBRANCH   2   3
ENDBRANCH   1   2
BRANCH   1  32
ATOM     32  N   UNL A   1      40.955  24.169  26.158  1.00  0.00    -0.352 N 
ATOM     33  C   UNL A   1      41.284  25.498  26.051  1.00  0.00     0.251 C 
ATOM     34  H   UNL A   1      41.345  23.579  25.472  1.00  0.00     0.163 HD
ATOM     35  O   UNL A   1      41.703  25.933  24.983  1.00  0.00    -0.269 OA
BRANCH  33  36
ATOM     36  C   UNL A   1      41.136  26.396  27.218  1.00  0.00     0.039 A 
ATOM     37  C   UNL A   1      42.004  27.481  27.361  1.00  0.00     0.014 A 
ATOM     38  C   UNL A   1      40.168  26.142  28.194  1.00  0.00     0.014 A 
ATOM     39  C   UNL A   1      41.870  28.335  28.459  1.00  0.00     0.010 A 
ATOM     40  C   UNL A   1      39.978  27.043  29.236  1.00  0.00     0.010 A 
ATOM     41  C   UNL A   1      40.838  28.141  29.392  1.00  0.00    -0.014 A 
BRANCH  41  42
ATOM     42  C   UNL A   1      40.653  29.056  30.547  1.00  0.00     0.031 A 
ATOM     43  C   UNL A   1      41.508  28.898  31.779  1.00  0.00     0.074 A 
ATOM     44  C   UNL A   1      39.677  29.986  30.514  1.00  0.00     0.049 A 
ATOM     45  N   UNL A   1      41.453  29.555  32.909  1.00  0.00    -0.248 NA
ATOM     46  C   UNL A   1      42.541  27.848  31.749  1.00  0.00     0.031 C 
ATOM     47  C   UNL A   1      38.760  30.214  29.394  1.00  0.00     0.029 A 
ATOM     48  N   UNL A   1      39.292  30.915  31.449  1.00  0.00    -0.354 N 
ATOM     49  C   UNL A   1      42.423  28.985  33.727  1.00  0.00     0.074 A 
ATOM     50  C   UNL A   1      43.017  27.897  32.984  1.00  0.00     0.031 C 
ATOM     51  C   UNL A   1      37.944  31.237  29.694  1.00  0.00     0.029 A 
ATOM     52  C   UNL A   1      38.244  31.707  31.043  1.00  0.00     0.049 A 
ATOM     53  H   UNL A   1      39.726  31.005  32.328  1.00  0.00     0.167 HD
ATOM     54  C   UNL A   1      42.802  29.349  34.975  1.00  0.00     0.031 A 
ATOM     55  C   UNL A   1      37.591  32.695  31.686  1.00  0.00     0.031 A 
ATOM     56  C   UNL A   1      42.224  30.449  35.701  1.00  0.00     0.049 A 
ATOM     57  C   UNL A   1      38.023  33.069  33.079  1.00  0.00     0.074 A 
ATOM     58  C   UNL A   1      42.582  30.938  36.945  1.00  0.00     0.029 A 
ATOM     59  N   UNL A   1      41.169  31.228  35.252  1.00  0.00    -0.354 N 
ATOM     60  N   UNL A   1      38.990  32.563  33.806  1.00  0.00    -0.248 NA
ATOM     61  C   UNL A   1      37.282  34.156  33.734  1.00  0.00     0.031 C 
ATOM     62  C   UNL A   1      41.701  31.973  37.276  1.00  0.00     0.029 A 
ATOM     63  C   UNL A   1      40.843  32.175  36.207  1.00  0.00     0.049 A 
ATOM     64  H   UNL A   1      40.720  31.124  34.381  1.00  0.00     0.167 HD
ATOM     65  C   UNL A   1      38.997  33.295  34.988  1.00  0.00     0.074 A 
ATOM     66  C   UNL A   1      37.948  34.286  34.872  1.00  0.00     0.031 C 
ATOM     67  C   UNL A   1      39.800  33.161  36.072  1.00  0.00     0.031 A 
BRANCH  54  68
ATOM     68  C   UNL A   1      43.891  28.550  35.645  1.00  0.00    -0.014 A 
ATOM     69  C   UNL A   1      45.245  28.904  35.508  1.00  0.00     0.010 A 
ATOM     70  C   UNL A   1      43.548  27.470  36.478  1.00  0.00     0.010 A 
ATOM     71  C   UNL A   1      46.238  28.174  36.169  1.00  0.00     0.020 A 
ATOM     72  C   UNL A   1      44.535  26.756  37.165  1.00  0.00     0.020 A 
ATOM     73  C   UNL A   1      45.877  27.107  36.995  1.00  0.00     0.054 A 
BRANCH  73  74
ATOM     74  S   UNL A   1      47.183  26.210  37.877  1.00  0.00     0.124 S 
ATOM     75  O   UNL A   1      48.391  26.793  37.298  1.00  0.00    -0.237 OA
ATOM     76  O   UNL A   1      46.925  26.559  39.271  1.00  0.00    -0.237 OA
ATOM     77  O   UNL A   1      46.940  24.811  37.531  1.00  0.00    -0.744 OA
ENDBRANCH  73  74
ENDBRANCH  54  68
BRANCH  55  78
ATOM     78  C   UNL A   1      36.463  33.408  31.022  1.00  0.00    -0.014 A 
ATOM     79  C   UNL A   1      36.607  33.922  29.720  1.00  0.00     0.010 A 
ATOM     80  C   UNL A   1      35.241  33.592  31.695  1.00  0.00     0.010 A 
ATOM     81  C   UNL A   1      35.567  34.637  29.120  1.00  0.00     0.020 A 
ATOM     82  C   UNL A   1      34.186  34.277  31.085  1.00  0.00     0.020 A 
ATOM     83  C   UNL A   1      34.363  34.810  29.807  1.00  0.00     0.054 A 
BRANCH  83  84
ATOM     84  S   UNL A   1      33.019  35.723  29.000  1.00  0.00     0.124 S 
ATOM     85  O   UNL A   1      32.412  34.692  28.165  1.00  0.00    -0.237 OA
ATOM     86  O   UNL A   1      32.218  36.174  30.136  1.00  0.00    -0.237 OA
ATOM     87  O   UNL A   1      33.715  36.786  28.277  1.00  0.00    -0.744 OA
ENDBRANCH  83  84
ENDBRANCH  55  78
BRANCH  67  88
ATOM     88  C   UNL A   1      39.613  34.137  37.203  1.00  0.00    -0.014 A 
ATOM     89  C   UNL A   1      38.919  33.782  38.373  1.00  0.00     0.010 A 
ATOM     90  C   UNL A   1      40.195  35.416  37.114  1.00  0.00     0.010 A 
ATOM     91  C   UNL A   1      38.782  34.699  39.418  1.00  0.00     0.020 A 
ATOM     92  C   UNL A   1      40.090  36.323  38.169  1.00  0.00     0.020 A 
ATOM     93  C   UNL A   1      39.370  35.963  39.310  1.00  0.00     0.054 A 
BRANCH  93  94
ATOM     94  S   UNL A   1      39.217  37.118  40.700  1.00  0.00     0.124 S 
ATOM     95  O   UNL A   1      38.378  38.168  40.131  1.00  0.00    -0.237 OA
ATOM     96  O   UNL A   1      38.585  36.295  41.730  1.00  0.00    -0.237 OA
ATOM     97  O   UNL A   1      40.597  37.507  40.982  1.00  0.00    -0.744 OA
ENDBRANCH  93  94
ENDBRANCH  67  88
ENDBRANCH  41  42
ENDBRANCH  33  36
ENDBRANCH   1  32
TORSDOF 14
ENDMDL
MODEL 2
REMARK VINA RESULT:     -14.1      0.410      7.902
REMARK SMILES CN1C(=O)C[C@@H](C(=O)NCCCNC(=O)c2ccc(-c3c4nc(c(-c5ccc(S(=O)(=O)[O-])cc5)c5ccc([nH]5)c(-c5ccc(S(=O)(=O)[O-])cc5)c5nc(c(-c6ccc(S(=O)(=O)[O-])cc6)c6ccc3[nH]6)C=C5)C=C4)cc2)C12CCN(C(=O)c1cccc3ccccc13)CC2
REMARK SMILES IDX 12 1 11 2 10 3 9 4 7 5 8 6 6 8 1 9 2 10 3 11 76 12 4 13 5 14
REMARK SMILES IDX 77 15 93 16 78 17 92 18 79 19 80 20 81 21 82 22 83 23 91 24
REMARK SMILES IDX 84 25 86 26 90 27 85 28 87 29 89 30 88 31 13 32 14 33 15 35
REMARK SMILES IDX 16 36 17 37 75 38 18 39 74 40 19 41 20 42 21 43 68 44 22 45
REMARK SMILES IDX 73 46 67 47 69 48 23 49 72 50 66 51 65 52 24 54 54 55 35 56
REMARK SMILES IDX 53 57 36 58 39 59 52 60 70 61 37 62 38 63 51 65 71 66 40 67
REMARK SMILES IDX 25 68 26 69 34 70 27 71 33 72 28 73 29 74 30 75 31 76 32 77
REMARK SMILES IDX 55 78 56 79 64 80 57 81 63 82 58 83 59 84 60 85 61 86 62 87
REMARK SMILES IDX 41 88 42 89 50 90 43 91 49 92 44 93 45 94 46 95 47 96 48 97
REMARK H PARENT 9 7 13 34 69 53 39 64
REMARK Flexibility Score: inf
ROOT
ATOM      1  C   UNL A   1      40.020  23.489  27.158  1.00  0.00     0.118 C 
ENDROOT
BRANCH   1   2
ATOM      2  C   UNL A   1      38.788  22.873  26.509  1.00  0.00     0.042 C 
BRANCH   2   3
ATOM      3  C   UNL A   1      37.827  23.908  25.922  1.00  0.00     0.117 C 
BRANCH   3   4
ATOM      4  N   UNL A   1      37.223  23.525  24.650  1.00  0.00    -0.356 N 
ATOM      5  C   UNL A   1      36.162  22.754  24.303  1.00  0.00     0.226 C 
ATOM      6  O   UNL A   1      35.875  22.740  23.099  1.00  0.00    -0.275 OA
ATOM      7  H   UNL A   1      37.686  23.911  23.873  1.00  0.00     0.163 HD
BRANCH   5   8
ATOM      8  C   UNL A   1      35.350  21.878  25.256  1.00  0.00     0.113 C 
ATOM      9  C   UNL A   1      32.511  19.945  23.741  1.00  0.00     0.147 C 
ATOM     10  N   UNL A   1      33.726  20.482  24.328  1.00  0.00    -0.339 N 
ATOM     11  C   UNL A   1      34.799  19.642  24.612  1.00  0.00     0.223 C 
ATOM     12  C   UNL A   1      33.827  21.788  25.000  1.00  0.00     0.058 C 
ATOM     13  O   UNL A   1      34.898  18.462  24.332  1.00  0.00    -0.275 OA
ATOM     14  C   UNL A   1      35.860  20.441  25.317  1.00  0.00     0.116 C 
ATOM     15  C   UNL A   1      33.287  22.975  24.172  1.00  0.00     0.051 C 
ATOM     16  C   UNL A   1      33.017  21.718  26.332  1.00  0.00     0.051 C 
ATOM     17  C   UNL A   1      33.264  24.289  24.952  1.00  0.00     0.122 C 
ATOM     18  C   UNL A   1      32.843  23.072  27.026  1.00  0.00     0.122 C 
ATOM     19  N   UNL A   1      32.395  24.103  26.090  1.00  0.00    -0.338 N 
ATOM     20  C   UNL A   1      31.170  24.734  26.288  1.00  0.00     0.254 C 
ATOM     21  O   UNL A   1      30.400  24.385  27.185  1.00  0.00    -0.269 OA
BRANCH  20  22
ATOM     22  C   UNL A   1      30.780  25.961  25.535  1.00  0.00     0.047 A 
ATOM     23  C   UNL A   1      30.113  25.681  24.329  1.00  0.00     0.014 A 
ATOM     24  C   UNL A   1      31.220  27.288  25.823  1.00  0.00    -0.006 A 
ATOM     25  C   UNL A   1      29.936  26.669  23.370  1.00  0.00     0.001 A 
ATOM     26  C   UNL A   1      31.069  28.270  24.808  1.00  0.00    -0.018 A 
ATOM     27  C   UNL A   1      31.795  27.725  27.039  1.00  0.00     0.009 A 
ATOM     28  C   UNL A   1      30.451  27.943  23.594  1.00  0.00     0.009 A 
ATOM     29  C   UNL A   1      31.537  29.581  25.006  1.00  0.00     0.009 A 
ATOM     30  C   UNL A   1      32.147  29.061  27.265  1.00  0.00     0.001 A 
ATOM     31  C   UNL A   1      32.049  29.982  26.236  1.00  0.00     0.001 A 
ENDBRANCH  20  22
ENDBRANCH   5   8
ENDBRANCH   3   4
ENDBRANCH   2   3
ENDBRANCH   1   2
BRANCH   1  32
ATOM     32  N   UNL A   1      40.820  24.210  26.178  1.00  0.00    -0.352 N 
ATOM     33  C   UNL A   1      41.085  25.555  26.097  1.00  0.00     0.251 C 
ATOM     34  H   UNL A   1      41.228  23.655  25.474  1.00  0.00     0.163 HD
ATOM     35  O   UNL A   1      41.469  26.032  25.034  1.00  0.00    -0.269 OA
BRANCH  33  36
ATOM     36  C   UNL A   1      40.910  26.419  27.285  1.00  0.00     0.039 A 
ATOM     37  C   UNL A   1      39.928  26.099  28.225  1.00  0.00     0.014 A 
ATOM     38  C   UNL A   1      41.686  27.571  27.449  1.00  0.00     0.014 A 
ATOM     39  C   UNL A   1      39.757  26.909  29.351  1.00  0.00     0.010 A 
ATOM     40  C   UNL A   1      41.576  28.324  28.613  1.00  0.00     0.010 A 
ATOM     41  C   UNL A   1      40.598  28.013  29.570  1.00  0.00    -0.014 A 
BRANCH  41  42
ATOM     42  C   UNL A   1      40.460  28.868  30.777  1.00  0.00     0.031 A 
ATOM     43  C   UNL A   1      39.399  29.938  30.825  1.00  0.00     0.074 A 
ATOM     44  C   UNL A   1      41.325  28.724  31.802  1.00  0.00     0.049 A 
ATOM     45  N   UNL A   1      39.164  30.824  31.760  1.00  0.00    -0.248 NA
ATOM     46  C   UNL A   1      38.503  30.048  29.661  1.00  0.00     0.031 C 
ATOM     47  C   UNL A   1      42.417  27.749  31.859  1.00  0.00     0.029 A 
ATOM     48  N   UNL A   1      41.423  29.400  32.993  1.00  0.00    -0.354 N 
ATOM     49  C   UNL A   1      38.114  31.604  31.289  1.00  0.00     0.074 A 
ATOM     50  C   UNL A   1      37.790  31.123  29.965  1.00  0.00     0.031 C 
ATOM     51  C   UNL A   1      43.052  27.867  33.036  1.00  0.00     0.029 A 
ATOM     52  C   UNL A   1      42.447  28.955  33.798  1.00  0.00     0.049 A 
ATOM     53  H   UNL A   1      40.818  30.133  33.247  1.00  0.00     0.167 HD
ATOM     54  C   UNL A   1      37.463  32.616  31.910  1.00  0.00     0.031 A 
ATOM     55  C   UNL A   1      42.858  29.381  35.008  1.00  0.00     0.031 A 
ATOM     56  C   UNL A   1      37.774  33.075  33.238  1.00  0.00     0.049 A 
ATOM     57  C   UNL A   1      42.125  30.517  35.669  1.00  0.00     0.074 A 
ATOM     58  C   UNL A   1      37.131  34.050  33.981  1.00  0.00     0.029 A 
ATOM     59  N   UNL A   1      38.813  32.595  34.020  1.00  0.00    -0.354 N 
ATOM     60  N   UNL A   1      41.089  31.194  35.235  1.00  0.00    -0.248 NA
ATOM     61  C   UNL A   1      42.610  30.940  36.991  1.00  0.00     0.031 C 
ATOM     62  C   UNL A   1      37.821  34.204  35.187  1.00  0.00     0.029 A 
ATOM     63  C   UNL A   1      38.848  33.275  35.225  1.00  0.00     0.049 A 
ATOM     64  H   UNL A   1      39.432  31.876  33.756  1.00  0.00     0.167 HD
ATOM     65  C   UNL A   1      40.776  32.097  36.246  1.00  0.00     0.074 A 
ATOM     66  C   UNL A   1      41.723  31.869  37.317  1.00  0.00     0.031 C 
ATOM     67  C   UNL A   1      39.793  33.030  36.285  1.00  0.00     0.031 A 
BRANCH  54  68
ATOM     68  C   UNL A   1      36.349  33.304  31.163  1.00  0.00    -0.014 A 
ATOM     69  C   UNL A   1      35.078  33.473  31.741  1.00  0.00     0.010 A 
ATOM     70  C   UNL A   1      36.598  33.849  29.890  1.00  0.00     0.010 A 
ATOM     71  C   UNL A   1      34.069  34.148  31.048  1.00  0.00     0.020 A 
ATOM     72  C   UNL A   1      35.602  34.552  29.207  1.00  0.00     0.020 A 
ATOM     73  C   UNL A   1      34.338  34.686  29.786  1.00  0.00     0.054 A 
BRANCH  73  74
ATOM     74  S   UNL A   1      33.023  35.599  28.934  1.00  0.00     0.124 S 
ATOM     75  O   UNL A   1      33.783  36.610  28.204  1.00  0.00    -0.237 OA
ATOM     76  O   UNL A   1      32.401  34.566  28.110  1.00  0.00    -0.237 OA
ATOM     77  O   UNL A   1      32.192  36.110  30.022  1.00  0.00    -0.744 OA
ENDBRANCH  73  74
ENDBRANCH  54  68
BRANCH  55  78
ATOM     78  C   UNL A   1      44.017  28.729  35.680  1.00  0.00    -0.014 A 
ATOM     79  C   UNL A   1      43.822  27.642  36.552  1.00  0.00     0.010 A 
ATOM     80  C   UNL A   1      45.324  29.204  35.467  1.00  0.00     0.010 A 
ATOM     81  C   UNL A   1      44.904  27.067  37.223  1.00  0.00     0.020 A 
ATOM     82  C   UNL A   1      46.414  28.609  36.110  1.00  0.00     0.020 A 
ATOM     83  C   UNL A   1      46.194  27.555  36.998  1.00  0.00     0.054 A 
BRANCH  83  84
ATOM     84  S   UNL A   1      47.587  26.779  37.864  1.00  0.00     0.124 S 
ATOM     85  O   UNL A   1      48.689  27.016  36.938  1.00  0.00    -0.237 OA
ATOM     86  O   UNL A   1      47.636  27.531  39.116  1.00  0.00    -0.237 OA
ATOM     87  O   UNL A   1      47.169  25.385  37.999  1.00  0.00    -0.744 OA
ENDBRANCH  83  84
ENDBRANCH  55  78
BRANCH  67  88
ATOM     88  C   UNL A   1      39.656  33.844  37.544  1.00  0.00    -0.014 A 
ATOM     89  C   UNL A   1      39.076  33.306  38.707  1.00  0.00     0.010 A 
ATOM     90  C   UNL A   1      40.174  35.152  37.580  1.00  0.00     0.010 A 
ATOM     91  C   UNL A   1      38.984  34.074  39.870  1.00  0.00     0.020 A 
ATOM     92  C   UNL A   1      40.115  35.912  38.750  1.00  0.00     0.020 A 
ATOM     93  C   UNL A   1      39.507  35.372  39.884  1.00  0.00     0.054 A 
BRANCH  93  94
ATOM     94  S   UNL A   1      39.417  36.330  41.421  1.00  0.00     0.124 S 
ATOM     95  O   UNL A   1      39.171  37.680  40.923  1.00  0.00    -0.237 OA
ATOM     96  O   UNL A   1      38.298  35.704  42.123  1.00  0.00    -0.237 OA
ATOM     97  O   UNL A   1      40.726  36.123  42.037  1.00  0.00    -0.744 OA
ENDBRANCH  93  94
ENDBRANCH  67  88
ENDBRANCH  41  42
ENDBRANCH  33  36
ENDBRANCH   1  32
TORSDOF 14
ENDMDL
MODEL 3
REMARK VINA RESULT:     -14.0      6.227     12.051
REMARK SMILES CN1C(=O)C[C@@H](C(=O)NCCCNC(=O)c2ccc(-c3c4nc(c(-c5ccc(S(=O)(=O)[O-])cc5)c5ccc([nH]5)c(-c5ccc(S(=O)(=O)[O-])cc5)c5nc(c(-c6ccc(S(=O)(=O)[O-])cc6)c6ccc3[nH]6)C=C5)C=C4)cc2)C12CCN(C(=O)c1cccc3ccccc13)CC2
REMARK SMILES IDX 12 1 11 2 10 3 9 4 7 5 8 6 6 8 1 9 2 10 3 11 76 12 4 13 5 14
REMARK SMILES IDX 77 15 93 16 78 17 92 18 79 19 80 20 81 21 82 22 83 23 91 24
REMARK SMILES IDX 84 25 86 26 90 27 85 28 87 29 89 30 88 31 13 32 14 33 15 35
REMARK SMILES IDX 16 36 17 37 75 38 18 39 74 40 19 41 20 42 21 43 68 44 22 45
REMARK SMILES IDX 73 46 67 47 69 48 23 49 72 50 66 51 65 52 24 54 54 55 35 56
REMARK SMILES IDX 53 57 36 58 39 59 52 60 70 61 37 62 38 63 51 65 71 66 40 67
REMARK SMILES IDX 25 68 26 69 34 70 27 71 33 72 28 73 29 74 30 75 31 76 32 77
REMARK SMILES IDX 55 78 56 79 64 80 57 81 63 82 58 83 59 84 60 85 61 86 62 87
REMARK SMILES IDX 41 88 42 89 50 90 43 91 49 92 44 93 45 94 46 95 47 96 48 97
REMARK H PARENT 9 7 13 34 69 53 39 64
REMARK Flexibility Score: inf
ROOT
ATOM      1  C   UNL A   1      35.739  31.281  28.150  1.00  0.00     0.118 C 
ENDROOT
BRANCH   1   2
ATOM      2  C   UNL A   1      34.547  30.734  27.377  1.00  0.00     0.042 C 
BRANCH   2   3
ATOM      3  C   UNL A   1      34.535  29.208  27.275  1.00  0.00     0.117 C 
BRANCH   3   4
ATOM      4  N   UNL A   1      33.215  28.600  27.407  1.00  0.00    -0.356 N 
ATOM      5  C   UNL A   1      32.222  28.300  26.534  1.00  0.00     0.226 C 
ATOM      6  O   UNL A   1      31.261  27.675  27.001  1.00  0.00    -0.275 OA
ATOM      7  H   UNL A   1      32.998  28.353  28.334  1.00  0.00     0.163 HD
BRANCH   5   8
ATOM      8  C   UNL A   1      32.176  28.714  25.063  1.00  0.00     0.113 C 
ATOM      9  C   UNL A   1      29.052  27.836  23.176  1.00  0.00     0.147 C 
ATOM     10  N   UNL A   1      30.172  28.400  23.910  1.00  0.00    -0.339 N 
ATOM     11  C   UNL A   1      30.207  29.760  24.201  1.00  0.00     0.223 C 
ATOM     12  C   UNL A   1      31.478  27.743  24.083  1.00  0.00     0.058 C 
ATOM     13  O   UNL A   1      29.328  30.576  23.992  1.00  0.00    -0.275 OA
ATOM     14  C   UNL A   1      31.524  30.077  24.854  1.00  0.00     0.116 C 
ATOM     15  C   UNL A   1      31.398  26.298  24.624  1.00  0.00     0.051 C 
ATOM     16  C   UNL A   1      32.193  27.703  22.697  1.00  0.00     0.051 C 
ATOM     17  C   UNL A   1      32.754  25.591  24.647  1.00  0.00     0.122 C 
ATOM     18  C   UNL A   1      33.462  26.846  22.676  1.00  0.00     0.122 C 
ATOM     19  N   UNL A   1      33.238  25.536  23.287  1.00  0.00    -0.338 N 
ATOM     20  C   UNL A   1      33.395  24.381  22.528  1.00  0.00     0.254 C 
ATOM     21  O   UNL A   1      33.631  24.428  21.319  1.00  0.00    -0.269 OA
BRANCH  20  22
ATOM     22  C   UNL A   1      33.440  23.025  23.149  1.00  0.00     0.047 A 
ATOM     23  C   UNL A   1      32.168  22.451  23.318  1.00  0.00     0.014 A 
ATOM     24  C   UNL A   1      34.587  22.425  23.751  1.00  0.00    -0.006 A 
ATOM     25  C   UNL A   1      31.993  21.339  24.131  1.00  0.00     0.001 A 
ATOM     26  C   UNL A   1      34.376  21.317  24.615  1.00  0.00    -0.018 A 
ATOM     27  C   UNL A   1      35.929  22.831  23.566  1.00  0.00     0.009 A 
ATOM     28  C   UNL A   1      33.086  20.805  24.807  1.00  0.00     0.009 A 
ATOM     29  C   UNL A   1      35.457  20.720  25.288  1.00  0.00     0.009 A 
ATOM     30  C   UNL A   1      37.006  22.151  24.148  1.00  0.00     0.001 A 
ATOM     31  C   UNL A   1      36.767  21.116  25.036  1.00  0.00     0.001 A 
ENDBRANCH  20  22
ENDBRANCH   5   8
ENDBRANCH   3   4
ENDBRANCH   2   3
ENDBRANCH   1   2
BRANCH   1  32
ATOM     32  N   UNL A   1      35.607  31.010  29.574  1.00  0.00    -0.352 N 
ATOM     33  C   UNL A   1      36.366  30.191  30.374  1.00  0.00     0.251 C 
ATOM     34  H   UNL A   1      34.868  31.478  30.027  1.00  0.00     0.163 HD
ATOM     35  O   UNL A   1      35.912  29.806  31.447  1.00  0.00    -0.269 OA
BRANCH  33  36
ATOM     36  C   UNL A   1      37.721  29.781  29.944  1.00  0.00     0.039 A 
ATOM     37  C   UNL A   1      38.030  29.765  28.582  1.00  0.00     0.014 A 
ATOM     38  C   UNL A   1      38.672  29.370  30.882  1.00  0.00     0.014 A 
ATOM     39  C   UNL A   1      39.308  29.380  28.167  1.00  0.00     0.010 A 
ATOM     40  C   UNL A   1      39.969  29.075  30.475  1.00  0.00     0.010 A 
ATOM     41  C   UNL A   1      40.298  29.059  29.111  1.00  0.00    -0.014 A 
BRANCH  41  42
ATOM     42  C   UNL A   1      41.674  28.681  28.696  1.00  0.00     0.031 A 
ATOM     43  C   UNL A   1      42.758  29.727  28.640  1.00  0.00     0.074 A 
ATOM     44  C   UNL A   1      41.933  27.414  28.313  1.00  0.00     0.049 A 
ATOM     45  N   UNL A   1      43.999  29.606  28.243  1.00  0.00    -0.248 NA
ATOM     46  C   UNL A   1      42.396  31.093  29.057  1.00  0.00     0.031 C 
ATOM     47  C   UNL A   1      40.959  26.320  28.289  1.00  0.00     0.029 A 
ATOM     48  N   UNL A   1      43.094  26.833  27.867  1.00  0.00    -0.354 N 
ATOM     49  C   UNL A   1      44.555  30.877  28.342  1.00  0.00     0.074 A 
ATOM     50  C   UNL A   1      43.505  31.765  28.785  1.00  0.00     0.031 C 
ATOM     51  C   UNL A   1      41.572  25.195  27.884  1.00  0.00     0.029 A 
ATOM     52  C   UNL A   1      42.965  25.495  27.574  1.00  0.00     0.049 A 
ATOM     53  H   UNL A   1      43.939  27.327  27.767  1.00  0.00     0.167 HD
ATOM     54  C   UNL A   1      45.830  31.267  28.105  1.00  0.00     0.031 A 
ATOM     55  C   UNL A   1      43.865  24.611  27.100  1.00  0.00     0.031 A 
ATOM     56  C   UNL A   1      46.878  30.374  27.686  1.00  0.00     0.049 A 
ATOM     57  C   UNL A   1      45.272  25.075  26.832  1.00  0.00     0.074 A 
ATOM     58  C   UNL A   1      48.217  30.659  27.482  1.00  0.00     0.029 A 
ATOM     59  N   UNL A   1      46.707  29.027  27.406  1.00  0.00    -0.354 N 
ATOM     60  N   UNL A   1      45.794  26.266  27.000  1.00  0.00    -0.248 NA
ATOM     61  C   UNL A   1      46.216  24.070  26.321  1.00  0.00     0.031 C 
ATOM     62  C   UNL A   1      48.842  29.498  27.017  1.00  0.00     0.029 A 
ATOM     63  C   UNL A   1      47.909  28.474  27.001  1.00  0.00     0.049 A 
ATOM     64  H   UNL A   1      45.856  28.537  27.485  1.00  0.00     0.167 HD
ATOM     65  C   UNL A   1      47.134  26.145  26.650  1.00  0.00     0.074 A 
ATOM     66  C   UNL A   1      47.345  24.762  26.276  1.00  0.00     0.031 C 
ATOM     67  C   UNL A   1      48.104  27.092  26.640  1.00  0.00     0.031 A 
BRANCH  54  68
ATOM     68  C   UNL A   1      46.170  32.724  28.288  1.00  0.00    -0.014 A 
ATOM     69  C   UNL A   1      46.642  33.215  29.518  1.00  0.00     0.010 A 
ATOM     70  C   UNL A   1      46.079  33.602  27.192  1.00  0.00     0.010 A 
ATOM     71  C   UNL A   1      46.988  34.563  29.656  1.00  0.00     0.020 A 
ATOM     72  C   UNL A   1      46.454  34.942  27.317  1.00  0.00     0.020 A 
ATOM     73  C   UNL A   1      46.895  35.417  28.554  1.00  0.00     0.054 A 
BRANCH  73  74
ATOM     74  S   UNL A   1      47.398  37.148  28.753  1.00  0.00     0.124 S 
ATOM     75  O   UNL A   1      47.440  37.611  27.368  1.00  0.00    -0.237 OA
ATOM     76  O   UNL A   1      46.320  37.702  29.567  1.00  0.00    -0.237 OA
ATOM     77  O   UNL A   1      48.697  37.058  29.419  1.00  0.00    -0.744 OA
ENDBRANCH  73  74
ENDBRANCH  54  68
BRANCH  55  78
ATOM     78  C   UNL A   1      43.471  23.195  26.853  1.00  0.00    -0.014 A 
ATOM     79  C   UNL A   1      42.879  22.428  27.873  1.00  0.00     0.010 A 
ATOM     80  C   UNL A   1      43.700  22.599  25.600  1.00  0.00     0.010 A 
ATOM     81  C   UNL A   1      42.559  21.085  27.657  1.00  0.00     0.020 A 
ATOM     82  C   UNL A   1      43.350  21.266  25.368  1.00  0.00     0.020 A 
ATOM     83  C   UNL A   1      42.798  20.512  26.404  1.00  0.00     0.054 A 
BRANCH  83  84
ATOM     84  S   UNL A   1      42.354  18.773  26.139  1.00  0.00     0.124 S 
ATOM     85  O   UNL A   1      43.268  18.388  25.069  1.00  0.00    -0.237 OA
ATOM     86  O   UNL A   1      42.621  18.178  27.447  1.00  0.00    -0.237 OA
ATOM     87  O   UNL A   1      40.942  18.835  25.767  1.00  0.00    -0.744 OA
ENDBRANCH  83  84
ENDBRANCH  55  78
BRANCH  67  88
ATOM     88  C   UNL A   1      49.496  26.660  26.260  1.00  0.00    -0.014 A 
ATOM     89  C   UNL A   1      50.014  26.899  24.975  1.00  0.00     0.010 A 
ATOM     90  C   UNL A   1      50.319  26.056  27.229  1.00  0.00     0.010 A 
ATOM     91  C   UNL A   1      51.318  26.511  24.657  1.00  0.00     0.020 A 
ATOM     92  C   UNL A   1      51.634  25.697  26.925  1.00  0.00     0.020 A 
ATOM     93  C   UNL A   1      52.120  25.914  25.635  1.00  0.00     0.054 A 
BRANCH  93  94
ATOM     94  S   UNL A   1      53.823  25.463  25.208  1.00  0.00     0.124 S 
ATOM     95  O   UNL A   1      53.813  24.016  25.406  1.00  0.00    -0.237 OA
ATOM     96  O   UNL A   1      53.934  25.907  23.821  1.00  0.00    -0.237 OA
ATOM     97  O   UNL A   1      54.633  26.216  26.164  1.00  0.00    -0.744 OA
ENDBRANCH  93  94
ENDBRANCH  67  88
ENDBRANCH  41  42
ENDBRANCH  33  36
ENDBRANCH   1  32
TORSDOF 14
ENDMDL
