MODEL 1
REMARK VINA RESULT:     -11.5      0.000      0.000
REMARK SMILES Cc1cc(NC(=O)c2ccc(Br)nc2)sc1C(=O)NCCCNC(=O)c1ccc(-c2c3nc(c(-c4ccc(S(=O)(=O)[O-])cc4)c4ccc([nH]4)c(-c4ccc(S(=O)(=O)[O-])cc4)c4nc(c(-c5ccc(S(=O)(=O)[O-])cc5)c5ccc2[nH]5)C=C4)C=C3)cc1
REMARK SMILES IDX 21 1 20 2 19 3 17 4 18 5 16 7 1 8 2 9 3 10 4 11 15 12 5 13
REMARK SMILES IDX 6 14 7 16 8 17 9 18 14 19 10 20 13 21 11 22 12 23 22 24
REMARK SMILES IDX 23 25 24 26 25 28 26 29 27 30 85 31 28 32 84 33 29 34 30 35
REMARK SMILES IDX 31 36 78 37 32 38 83 39 77 40 79 41 33 42 82 43 76 44 75 45
REMARK SMILES IDX 34 47 64 48 45 49 63 50 46 51 49 52 62 53 80 54 47 55 48 56
REMARK SMILES IDX 61 58 81 59 50 60 35 61 36 62 44 63 37 64 43 65 38 66 39 67
REMARK SMILES IDX 40 68 41 69 42 70 65 71 66 72 74 73 67 74 73 75 68 76 69 77
REMARK SMILES IDX 70 78 71 79 72 80 51 81 52 82 60 83 53 84 59 85 54 86 55 87
REMARK SMILES IDX 56 88 57 89 58 90
REMARK H PARENT 19 6 5 15 23 27 79 46 49 57
REMARK Flexibility Score: inf
ROOT
ATOM      1  C   UNL A   1      33.223  28.375  24.803  1.00  0.00     0.042 C 
ENDROOT
BRANCH   1   2
ATOM      2  C   UNL A   1      33.463  29.017  23.441  1.00  0.00     0.118 C 
BRANCH   2   3
ATOM      3  N   UNL A   1      32.256  29.085  22.655  1.00  0.00    -0.351 N 
ATOM      4  C   UNL A   1      31.168  28.263  22.514  1.00  0.00     0.261 C 
ATOM      5  O   UNL A   1      30.250  28.802  21.880  1.00  0.00    -0.268 OA
ATOM      6  H   UNL A   1      32.202  29.898  22.100  1.00  0.00     0.163 HD
BRANCH   4   7
ATOM      7  C   UNL A   1      31.060  26.890  23.027  1.00  0.00     0.097 A 
ATOM      8  C   UNL A   1      32.472  25.117  21.659  1.00  0.00     0.046 C 
ATOM      9  C   UNL A   1      31.490  25.611  22.663  1.00  0.00    -0.025 A 
ATOM     10  C   UNL A   1      30.782  24.610  23.405  1.00  0.00     0.042 A 
ATOM     11  C   UNL A   1      30.288  25.096  24.578  1.00  0.00     0.096 A 
ATOM     12  S   UNL A   1      30.111  26.767  24.512  1.00  0.00    -0.112 S 
BRANCH  11  13
ATOM     13  N   UNL A   1      29.922  24.474  25.747  1.00  0.00    -0.313 N 
ATOM     14  C   UNL A   1      30.740  23.676  26.528  1.00  0.00     0.257 C 
ATOM     15  H   UNL A   1      28.998  24.609  26.056  1.00  0.00     0.171 HD
ATOM     16  O   UNL A   1      30.291  23.018  27.462  1.00  0.00    -0.269 OA
BRANCH  14  17
ATOM     17  C   UNL A   1      32.199  23.654  26.294  1.00  0.00     0.058 A 
ATOM     18  C   UNL A   1      32.966  24.825  26.307  1.00  0.00     0.018 A 
ATOM     19  C   UNL A   1      32.811  22.465  25.931  1.00  0.00     0.126 A 
ATOM     20  C   UNL A   1      34.290  24.772  25.871  1.00  0.00     0.037 A 
ATOM     21  N   UNL A   1      34.098  22.392  25.509  1.00  0.00    -0.249 NA
ATOM     22  C   UNL A   1      34.804  23.546  25.471  1.00  0.00     0.106 A 
ATOM     23  Br  UNL A   1      36.567  23.482  24.775  1.00  0.00    -0.029 Br
ENDBRANCH  14  17
ENDBRANCH  11  13
ENDBRANCH   4   7
ENDBRANCH   2   3
ENDBRANCH   1   2
BRANCH   1  24
ATOM     24  C   UNL A   1      34.298  28.669  25.835  1.00  0.00     0.118 C 
BRANCH  24  25
ATOM     25  N   UNL A   1      34.001  29.878  26.589  1.00  0.00    -0.352 N 
ATOM     26  C   UNL A   1      34.651  30.445  27.658  1.00  0.00     0.251 C 
ATOM     27  H   UNL A   1      33.204  30.368  26.283  1.00  0.00     0.163 HD
ATOM     28  O   UNL A   1      34.067  31.307  28.310  1.00  0.00    -0.269 OA
BRANCH  26  29
ATOM     29  C   UNL A   1      36.026  30.035  28.034  1.00  0.00     0.039 A 
ATOM     30  C   UNL A   1      36.254  29.550  29.326  1.00  0.00     0.014 A 
ATOM     31  C   UNL A   1      37.100  30.182  27.155  1.00  0.00     0.014 A 
ATOM     32  C   UNL A   1      37.544  29.177  29.716  1.00  0.00     0.010 A 
ATOM     33  C   UNL A   1      38.365  29.722  27.511  1.00  0.00     0.010 A 
ATOM     34  C   UNL A   1      38.606  29.232  28.801  1.00  0.00    -0.014 A 
BRANCH  34  35
ATOM     35  C   UNL A   1      39.980  28.812  29.180  1.00  0.00     0.031 A 
ATOM     36  C   UNL A   1      40.896  29.773  29.890  1.00  0.00     0.074 A 
ATOM     37  C   UNL A   1      40.423  27.589  28.828  1.00  0.00     0.049 A 
ATOM     38  N   UNL A   1      42.147  29.617  30.240  1.00  0.00    -0.248 NA
ATOM     39  C   UNL A   1      40.343  31.096  30.228  1.00  0.00     0.031 C 
ATOM     40  C   UNL A   1      39.646  26.583  28.100  1.00  0.00     0.029 A 
ATOM     41  N   UNL A   1      41.639  26.985  29.029  1.00  0.00    -0.354 N 
ATOM     42  C   UNL A   1      42.535  30.822  30.816  1.00  0.00     0.074 A 
ATOM     43  C   UNL A   1      41.404  31.718  30.721  1.00  0.00     0.031 C 
ATOM     44  C   UNL A   1      40.394  25.479  27.941  1.00  0.00     0.029 A 
ATOM     45  C   UNL A   1      41.714  25.712  28.516  1.00  0.00     0.049 A 
ATOM     46  H   UNL A   1      42.387  27.422  29.497  1.00  0.00     0.167 HD
ATOM     47  C   UNL A   1      43.717  31.147  31.391  1.00  0.00     0.031 A 
ATOM     48  C   UNL A   1      42.733  24.832  28.501  1.00  0.00     0.031 A 
ATOM     49  C   UNL A   1      44.834  30.246  31.496  1.00  0.00     0.049 A 
ATOM     50  C   UNL A   1      44.036  25.214  29.148  1.00  0.00     0.074 A 
ATOM     51  C   UNL A   1      46.058  30.458  32.107  1.00  0.00     0.029 A 
ATOM     52  N   UNL A   1      44.863  28.959  30.979  1.00  0.00    -0.354 N 
ATOM     53  N   UNL A   1      44.363  26.338  29.739  1.00  0.00    -0.248 NA
ATOM     54  C   UNL A   1      45.102  24.202  29.138  1.00  0.00     0.031 C 
ATOM     55  C   UNL A   1      46.843  29.317  31.916  1.00  0.00     0.029 A 
ATOM     56  C   UNL A   1      46.089  28.372  31.239  1.00  0.00     0.049 A 
ATOM     57  H   UNL A   1      44.120  28.526  30.498  1.00  0.00     0.167 HD
ATOM     58  C   UNL A   1      45.665  26.162  30.194  1.00  0.00     0.074 A 
ATOM     59  C   UNL A   1      46.058  24.817  29.824  1.00  0.00     0.031 C 
ATOM     60  C   UNL A   1      46.462  27.032  30.860  1.00  0.00     0.031 A 
BRANCH  47  61
ATOM     61  C   UNL A   1      43.861  32.540  31.950  1.00  0.00    -0.014 A 
ATOM     62  C   UNL A   1      44.264  33.612  31.133  1.00  0.00     0.010 A 
ATOM     63  C   UNL A   1      43.558  32.788  33.301  1.00  0.00     0.010 A 
ATOM     64  C   UNL A   1      44.408  34.896  31.666  1.00  0.00     0.020 A 
ATOM     65  C   UNL A   1      43.672  34.077  33.832  1.00  0.00     0.020 A 
ATOM     66  C   UNL A   1      44.115  35.119  33.015  1.00  0.00     0.054 A 
BRANCH  66  67
ATOM     67  S   UNL A   1      44.294  36.799  33.676  1.00  0.00     0.124 S 
ATOM     68  O   UNL A   1      44.644  36.537  35.070  1.00  0.00    -0.237 OA
ATOM     69  O   UNL A   1      45.365  37.355  32.854  1.00  0.00    -0.237 OA
ATOM     70  O   UNL A   1      42.977  37.396  33.467  1.00  0.00    -0.744 OA
ENDBRANCH  66  67
ENDBRANCH  47  61
BRANCH  48  71
ATOM     71  C   UNL A   1      42.550  23.496  27.869  1.00  0.00    -0.014 A 
ATOM     72  C   UNL A   1      43.069  23.236  26.589  1.00  0.00     0.010 A 
ATOM     73  C   UNL A   1      41.878  22.469  28.557  1.00  0.00     0.010 A 
ATOM     74  C   UNL A   1      42.907  21.978  26.001  1.00  0.00     0.020 A 
ATOM     75  C   UNL A   1      41.739  21.202  27.984  1.00  0.00     0.020 A 
ATOM     76  C   UNL A   1      42.246  20.967  26.704  1.00  0.00     0.054 A 
BRANCH  76  77
ATOM     77  S   UNL A   1      42.098  19.326  25.946  1.00  0.00     0.124 S 
ATOM     78  O   UNL A   1      40.662  19.229  25.707  1.00  0.00    -0.237 OA
ATOM     79  O   UNL A   1      42.932  19.454  24.752  1.00  0.00    -0.237 OA
ATOM     80  O   UNL A   1      42.626  18.428  26.970  1.00  0.00    -0.744 OA
ENDBRANCH  76  77
ENDBRANCH  48  71
BRANCH  60  81
ATOM     81  C   UNL A   1      47.831  26.548  31.261  1.00  0.00    -0.014 A 
ATOM     82  C   UNL A   1      48.953  26.782  30.448  1.00  0.00     0.010 A 
ATOM     83  C   UNL A   1      47.998  25.896  32.496  1.00  0.00     0.010 A 
ATOM     84  C   UNL A   1      50.218  26.340  30.849  1.00  0.00     0.020 A 
ATOM     85  C   UNL A   1      49.265  25.480  32.914  1.00  0.00     0.020 A 
ATOM     86  C   UNL A   1      50.364  25.691  32.079  1.00  0.00     0.054 A 
BRANCH  86  87
ATOM     87  S   UNL A   1      52.022  25.164  32.596  1.00  0.00     0.124 S 
ATOM     88  O   UNL A   1      52.199  25.902  33.843  1.00  0.00    -0.237 OA
ATOM     89  O   UNL A   1      51.868  23.718  32.738  1.00  0.00    -0.237 OA
ATOM     90  O   UNL A   1      52.880  25.588  31.492  1.00  0.00    -0.744 OA
ENDBRANCH  86  87
ENDBRANCH  60  81
ENDBRANCH  34  35
ENDBRANCH  26  29
ENDBRANCH  24  25
ENDBRANCH   1  24
TORSDOF 15
ENDMDL
MODEL 2
REMARK VINA RESULT:     -11.2      1.359      1.967
REMARK SMILES Cc1cc(NC(=O)c2ccc(Br)nc2)sc1C(=O)NCCCNC(=O)c1ccc(-c2c3nc(c(-c4ccc(S(=O)(=O)[O-])cc4)c4ccc([nH]4)c(-c4ccc(S(=O)(=O)[O-])cc4)c4nc(c(-c5ccc(S(=O)(=O)[O-])cc5)c5ccc2[nH]5)C=C4)C=C3)cc1
REMARK SMILES IDX 21 1 20 2 19 3 17 4 18 5 16 7 1 8 2 9 3 10 4 11 15 12 5 13
REMARK SMILES IDX 6 14 7 16 8 17 9 18 14 19 10 20 13 21 11 22 12 23 22 24
REMARK SMILES IDX 23 25 24 26 25 28 26 29 27 30 85 31 28 32 84 33 29 34 30 35
REMARK SMILES IDX 31 36 78 37 32 38 83 39 77 40 79 41 33 42 82 43 76 44 75 45
REMARK SMILES IDX 34 47 64 48 45 49 63 50 46 51 49 52 62 53 80 54 47 55 48 56
REMARK SMILES IDX 61 58 81 59 50 60 35 61 36 62 44 63 37 64 43 65 38 66 39 67
REMARK SMILES IDX 40 68 41 69 42 70 65 71 66 72 74 73 67 74 73 75 68 76 69 77
REMARK SMILES IDX 70 78 71 79 72 80 51 81 52 82 60 83 53 84 59 85 54 86 55 87
REMARK SMILES IDX 56 88 57 89 58 90
REMARK H PARENT 19 6 5 15 23 27 79 46 49 57
REMARK Flexibility Score: inf
ROOT
ATOM      1  C   UNL A   1      33.854  27.753  25.897  1.00  0.00     0.042 C 
ENDROOT
BRANCH   1   2
ATOM      2  C   UNL A   1      32.731  27.483  24.901  1.00  0.00     0.118 C 
BRANCH   2   3
ATOM      3  N   UNL A   1      31.528  27.030  25.554  1.00  0.00    -0.351 N 
ATOM      4  C   UNL A   1      30.972  25.795  25.767  1.00  0.00     0.261 C 
ATOM      5  O   UNL A   1      30.019  25.839  26.557  1.00  0.00    -0.268 OA
ATOM      6  H   UNL A   1      30.989  27.766  25.926  1.00  0.00     0.163 HD
BRANCH   4   7
ATOM      7  C   UNL A   1      31.413  24.539  25.146  1.00  0.00     0.097 A 
ATOM      8  C   UNL A   1      32.920  24.874  22.995  1.00  0.00     0.046 C 
ATOM      9  C   UNL A   1      32.109  24.136  24.001  1.00  0.00    -0.025 A 
ATOM     10  C   UNL A   1      31.940  22.732  23.775  1.00  0.00     0.042 A 
ATOM     11  C   UNL A   1      31.622  22.064  24.919  1.00  0.00     0.096 A 
ATOM     12  S   UNL A   1      30.936  23.099  26.052  1.00  0.00    -0.112 S 
BRANCH  11  13
ATOM     13  N   UNL A   1      31.757  20.745  25.279  1.00  0.00    -0.313 N 
ATOM     14  C   UNL A   1      32.951  20.098  25.548  1.00  0.00     0.257 C 
ATOM     15  H   UNL A   1      30.931  20.214  25.352  1.00  0.00     0.171 HD
ATOM     16  O   UNL A   1      33.002  18.880  25.692  1.00  0.00    -0.269 OA
BRANCH  14  17
ATOM     17  C   UNL A   1      34.191  20.879  25.738  1.00  0.00     0.058 A 
ATOM     18  C   UNL A   1      34.245  21.979  26.601  1.00  0.00     0.018 A 
ATOM     19  C   UNL A   1      35.298  20.597  24.953  1.00  0.00     0.126 A 
ATOM     20  C   UNL A   1      35.372  22.802  26.580  1.00  0.00     0.037 A 
ATOM     21  N   UNL A   1      36.404  21.382  24.921  1.00  0.00    -0.249 NA
ATOM     22  C   UNL A   1      36.411  22.475  25.719  1.00  0.00     0.106 A 
ATOM     23  Br  UNL A   1      37.898  23.646  25.603  1.00  0.00    -0.029 Br
ENDBRANCH  14  17
ENDBRANCH  11  13
ENDBRANCH   4   7
ENDBRANCH   2   3
ENDBRANCH   1   2
BRANCH   1  24
ATOM     24  C   UNL A   1      33.385  28.236  27.259  1.00  0.00     0.118 C 
BRANCH  24  25
ATOM     25  N   UNL A   1      33.341  29.689  27.326  1.00  0.00    -0.352 N 
ATOM     26  C   UNL A   1      34.231  30.584  27.868  1.00  0.00     0.251 C 
ATOM     27  H   UNL A   1      32.543  30.096  26.918  1.00  0.00     0.163 HD
ATOM     28  O   UNL A   1      33.859  31.739  28.060  1.00  0.00    -0.269 OA
BRANCH  26  29
ATOM     29  C   UNL A   1      35.614  30.182  28.222  1.00  0.00     0.039 A 
ATOM     30  C   UNL A   1      36.598  30.210  27.228  1.00  0.00     0.014 A 
ATOM     31  C   UNL A   1      35.939  29.719  29.499  1.00  0.00     0.014 A 
ATOM     32  C   UNL A   1      37.906  29.815  27.526  1.00  0.00     0.010 A 
ATOM     33  C   UNL A   1      37.260  29.417  29.820  1.00  0.00     0.010 A 
ATOM     34  C   UNL A   1      38.254  29.443  28.834  1.00  0.00    -0.014 A 
BRANCH  34  35
ATOM     35  C   UNL A   1      39.643  29.050  29.185  1.00  0.00     0.031 A 
ATOM     36  C   UNL A   1      40.563  30.040  29.852  1.00  0.00     0.074 A 
ATOM     37  C   UNL A   1      40.096  27.827  28.846  1.00  0.00     0.049 A 
ATOM     38  N   UNL A   1      41.825  29.909  30.172  1.00  0.00    -0.248 NA
ATOM     39  C   UNL A   1      39.998  31.361  30.177  1.00  0.00     0.031 C 
ATOM     40  C   UNL A   1      39.316  26.795  28.160  1.00  0.00     0.029 A 
ATOM     41  N   UNL A   1      41.326  27.246  29.029  1.00  0.00    -0.354 N 
ATOM     42  C   UNL A   1      42.208  31.132  30.713  1.00  0.00     0.074 A 
ATOM     43  C   UNL A   1      41.062  32.009  30.630  1.00  0.00     0.031 C 
ATOM     44  C   UNL A   1      40.077  25.699  28.004  1.00  0.00     0.029 A 
ATOM     45  C   UNL A   1      41.408  25.964  28.539  1.00  0.00     0.049 A 
ATOM     46  H   UNL A   1      42.079  27.704  29.468  1.00  0.00     0.167 HD
ATOM     47  C   UNL A   1      43.400  31.486  31.251  1.00  0.00     0.031 A 
ATOM     48  C   UNL A   1      42.440  25.099  28.516  1.00  0.00     0.031 A 
ATOM     49  C   UNL A   1      44.532  30.604  31.345  1.00  0.00     0.049 A 
ATOM     50  C   UNL A   1      43.753  25.513  29.121  1.00  0.00     0.074 A 
ATOM     51  C   UNL A   1      45.768  30.848  31.920  1.00  0.00     0.029 A 
ATOM     52  N   UNL A   1      44.568  29.307  30.854  1.00  0.00    -0.354 N 
ATOM     53  N   UNL A   1      44.077  26.655  29.680  1.00  0.00    -0.248 NA
ATOM     54  C   UNL A   1      44.834  24.518  29.104  1.00  0.00     0.031 C 
ATOM     55  C   UNL A   1      46.566  29.715  31.732  1.00  0.00     0.029 A 
ATOM     56  C   UNL A   1      45.809  28.745  31.094  1.00  0.00     0.049 A 
ATOM     57  H   UNL A   1      43.820  28.854  30.401  1.00  0.00     0.167 HD
ATOM     58  C   UNL A   1      45.393  26.507  30.105  1.00  0.00     0.074 A 
ATOM     59  C   UNL A   1      45.797  25.161  29.753  1.00  0.00     0.031 C 
ATOM     60  C   UNL A   1      46.193  27.403  30.733  1.00  0.00     0.031 A 
BRANCH  47  61
ATOM     61  C   UNL A   1      43.536  32.893  31.778  1.00  0.00    -0.014 A 
ATOM     62  C   UNL A   1      43.276  33.191  33.128  1.00  0.00     0.010 A 
ATOM     63  C   UNL A   1      43.960  33.925  30.921  1.00  0.00     0.010 A 
ATOM     64  C   UNL A   1      43.392  34.500  33.601  1.00  0.00     0.020 A 
ATOM     65  C   UNL A   1      44.106  35.231  31.397  1.00  0.00     0.020 A 
ATOM     66  C   UNL A   1      43.802  35.514  32.730  1.00  0.00     0.054 A 
BRANCH  66  67
ATOM     67  S   UNL A   1      43.960  37.203  33.375  1.00  0.00     0.124 S 
ATOM     68  O   UNL A   1      42.744  37.333  34.174  1.00  0.00    -0.237 OA
ATOM     69  O   UNL A   1      45.206  37.140  34.135  1.00  0.00    -0.237 OA
ATOM     70  O   UNL A   1      44.007  38.030  32.173  1.00  0.00    -0.744 OA
ENDBRANCH  66  67
ENDBRANCH  47  61
BRANCH  48  71
ATOM     71  C   UNL A   1      42.262  23.748  27.916  1.00  0.00    -0.014 A 
ATOM     72  C   UNL A   1      42.540  23.529  26.556  1.00  0.00     0.010 A 
ATOM     73  C   UNL A   1      41.837  22.667  28.710  1.00  0.00     0.010 A 
ATOM     74  C   UNL A   1      42.383  22.258  25.997  1.00  0.00     0.020 A 
ATOM     75  C   UNL A   1      41.707  21.388  28.161  1.00  0.00     0.020 A 
ATOM     76  C   UNL A   1      41.971  21.194  26.804  1.00  0.00     0.054 A 
BRANCH  76  77
ATOM     77  S   UNL A   1      41.831  19.541  26.069  1.00  0.00     0.124 S 
ATOM     78  O   UNL A   1      40.402  19.455  25.785  1.00  0.00    -0.237 OA
ATOM     79  O   UNL A   1      42.704  19.640  24.902  1.00  0.00    -0.237 OA
ATOM     80  O   UNL A   1      42.315  18.656  27.126  1.00  0.00    -0.744 OA
ENDBRANCH  76  77
ENDBRANCH  48  71
BRANCH  60  81
ATOM     81  C   UNL A   1      47.579  26.948  31.108  1.00  0.00    -0.014 A 
ATOM     82  C   UNL A   1      47.846  26.384  32.368  1.00  0.00     0.010 A 
ATOM     83  C   UNL A   1      48.615  27.039  30.161  1.00  0.00     0.010 A 
ATOM     84  C   UNL A   1      49.135  25.951  32.687  1.00  0.00     0.020 A 
ATOM     85  C   UNL A   1      49.899  26.579  30.466  1.00  0.00     0.020 A 
ATOM     86  C   UNL A   1      50.154  26.052  31.734  1.00  0.00     0.054 A 
BRANCH  86  87
ATOM     87  S   UNL A   1      51.810  25.444  32.158  1.00  0.00     0.124 S 
ATOM     88  O   UNL A   1      51.983  25.959  33.513  1.00  0.00    -0.237 OA
ATOM     89  O   UNL A   1      51.657  23.996  32.050  1.00  0.00    -0.237 OA
ATOM     90  O   UNL A   1      52.671  26.052  31.146  1.00  0.00    -0.744 OA
ENDBRANCH  86  87
ENDBRANCH  60  81
ENDBRANCH  34  35
ENDBRANCH  26  29
ENDBRANCH  24  25
ENDBRANCH   1  24
TORSDOF 15
ENDMDL
MODEL 3
REMARK VINA RESULT:     -11.2      5.782     12.113
REMARK SMILES Cc1cc(NC(=O)c2ccc(Br)nc2)sc1C(=O)NCCCNC(=O)c1ccc(-c2c3nc(c(-c4ccc(S(=O)(=O)[O-])cc4)c4ccc([nH]4)c(-c4ccc(S(=O)(=O)[O-])cc4)c4nc(c(-c5ccc(S(=O)(=O)[O-])cc5)c5ccc2[nH]5)C=C4)C=C3)cc1
REMARK SMILES IDX 21 1 20 2 19 3 17 4 18 5 16 7 1 8 2 9 3 10 4 11 15 12 5 13
REMARK SMILES IDX 6 14 7 16 8 17 9 18 14 19 10 20 13 21 11 22 12 23 22 24
REMARK SMILES IDX 23 25 24 26 25 28 26 29 27 30 85 31 28 32 84 33 29 34 30 35
REMARK SMILES IDX 31 36 78 37 32 38 83 39 77 40 79 41 33 42 82 43 76 44 75 45
REMARK SMILES IDX 34 47 64 48 45 49 63 50 46 51 49 52 62 53 80 54 47 55 48 56
REMARK SMILES IDX 61 58 81 59 50 60 35 61 36 62 44 63 37 64 43 65 38 66 39 67
REMARK SMILES IDX 40 68 41 69 42 70 65 71 66 72 74 73 67 74 73 75 68 76 69 77
REMARK SMILES IDX 70 78 71 79 72 80 51 81 52 82 60 83 53 84 59 85 54 86 55 87
REMARK SMILES IDX 56 88 57 89 58 90
REMARK H PARENT 19 6 5 15 23 27 79 46 49 57
REMARK Flexibility Score: inf
ROOT
ATOM      1  C   UNL A   1      40.300  21.641  27.102  1.00  0.00     0.042 C 
ENDROOT
BRANCH   1   2
ATOM      2  C   UNL A   1      41.552  20.860  27.492  1.00  0.00     0.118 C 
BRANCH   2   3
ATOM      3  N   UNL A   1      41.824  19.782  26.574  1.00  0.00    -0.351 N 
ATOM      4  C   UNL A   1      42.894  19.460  25.780  1.00  0.00     0.261 C 
ATOM      5  O   UNL A   1      42.793  18.324  25.294  1.00  0.00    -0.268 OA
ATOM      6  H   UNL A   1      41.081  19.139  26.503  1.00  0.00     0.163 HD
BRANCH   4   7
ATOM      7  C   UNL A   1      44.044  20.329  25.499  1.00  0.00     0.097 A 
ATOM      8  C   UNL A   1      46.341  19.033  25.264  1.00  0.00     0.046 C 
ATOM      9  C   UNL A   1      45.432  20.207  25.377  1.00  0.00    -0.025 A 
ATOM     10  C   UNL A   1      46.058  21.494  25.413  1.00  0.00     0.042 A 
ATOM     11  C   UNL A   1      45.205  22.490  25.045  1.00  0.00     0.096 A 
ATOM     12  S   UNL A   1      43.604  22.024  25.261  1.00  0.00    -0.112 S 
BRANCH  11  13
ATOM     13  N   UNL A   1      45.427  23.754  24.554  1.00  0.00    -0.313 N 
ATOM     14  C   UNL A   1      45.412  24.923  25.295  1.00  0.00     0.257 C 
ATOM     15  H   UNL A   1      45.614  23.834  23.592  1.00  0.00     0.171 HD
ATOM     16  O   UNL A   1      45.447  26.025  24.756  1.00  0.00    -0.269 OA
BRANCH  14  17
ATOM     17  C   UNL A   1      45.423  24.865  26.773  1.00  0.00     0.058 A 
ATOM     18  C   UNL A   1      44.244  24.940  27.522  1.00  0.00     0.018 A 
ATOM     19  C   UNL A   1      46.635  24.859  27.443  1.00  0.00     0.126 A 
ATOM     20  C   UNL A   1      44.330  25.095  28.907  1.00  0.00     0.037 A 
ATOM     21  N   UNL A   1      46.740  25.003  28.787  1.00  0.00    -0.249 NA
ATOM     22  C   UNL A   1      45.591  25.136  29.488  1.00  0.00     0.106 A 
ATOM     23  Br  UNL A   1      45.722  25.454  31.353  1.00  0.00    -0.029 Br
ENDBRANCH  14  17
ENDBRANCH  11  13
ENDBRANCH   4   7
ENDBRANCH   2   3
ENDBRANCH   1   2
BRANCH   1  24
ATOM     24  C   UNL A   1      40.353  23.122  27.435  1.00  0.00     0.118 C 
BRANCH  24  25
ATOM     25  N   UNL A   1      40.823  23.909  26.304  1.00  0.00    -0.352 N 
ATOM     26  C   UNL A   1      40.894  25.270  26.132  1.00  0.00     0.251 C 
ATOM     27  H   UNL A   1      41.139  23.378  25.537  1.00  0.00     0.163 HD
ATOM     28  O   UNL A   1      41.059  25.711  24.997  1.00  0.00    -0.269 OA
BRANCH  26  29
ATOM     29  C   UNL A   1      40.775  26.201  27.280  1.00  0.00     0.039 A 
ATOM     30  C   UNL A   1      41.577  27.347  27.303  1.00  0.00     0.014 A 
ATOM     31  C   UNL A   1      39.934  25.929  28.361  1.00  0.00     0.014 A 
ATOM     32  C   UNL A   1      41.503  28.232  28.382  1.00  0.00     0.010 A 
ATOM     33  C   UNL A   1      39.790  26.858  29.388  1.00  0.00     0.010 A 
ATOM     34  C   UNL A   1      40.587  28.010  29.421  1.00  0.00    -0.014 A 
BRANCH  34  35
ATOM     35  C   UNL A   1      40.464  28.951  30.564  1.00  0.00     0.031 A 
ATOM     36  C   UNL A   1      41.342  28.786  31.777  1.00  0.00     0.074 A 
ATOM     37  C   UNL A   1      39.521  29.913  30.537  1.00  0.00     0.049 A 
ATOM     38  N   UNL A   1      41.337  29.460  32.898  1.00  0.00    -0.248 NA
ATOM     39  C   UNL A   1      42.339  27.702  31.736  1.00  0.00     0.031 C 
ATOM     40  C   UNL A   1      38.582  30.148  29.438  1.00  0.00     0.029 A 
ATOM     41  N   UNL A   1      39.192  30.871  31.463  1.00  0.00    -0.354 N 
ATOM     42  C   UNL A   1      42.309  28.871  33.700  1.00  0.00     0.074 A 
ATOM     43  C   UNL A   1      42.847  27.752  32.959  1.00  0.00     0.031 C 
ATOM     44  C   UNL A   1      37.802  31.199  29.742  1.00  0.00     0.029 A 
ATOM     45  C   UNL A   1      38.156  31.685  31.071  1.00  0.00     0.049 A 
ATOM     46  H   UNL A   1      39.654  30.965  32.328  1.00  0.00     0.167 HD
ATOM     47  C   UNL A   1      42.731  29.241  34.933  1.00  0.00     0.031 A 
ATOM     48  C   UNL A   1      37.552  32.703  31.711  1.00  0.00     0.031 A 
ATOM     49  C   UNL A   1      42.203  30.365  35.659  1.00  0.00     0.049 A 
ATOM     50  C   UNL A   1      38.039  33.098  33.078  1.00  0.00     0.074 A 
ATOM     51  C   UNL A   1      42.597  30.856  36.892  1.00  0.00     0.029 A 
ATOM     52  N   UNL A   1      41.166  31.175  35.219  1.00  0.00    -0.354 N 
ATOM     53  N   UNL A   1      38.999  32.564  33.795  1.00  0.00    -0.248 NA
ATOM     54  C   UNL A   1      37.370  34.241  33.716  1.00  0.00     0.031 C 
ATOM     55  C   UNL A   1      41.766  31.933  37.217  1.00  0.00     0.029 A 
ATOM     56  C   UNL A   1      40.895  32.150  36.162  1.00  0.00     0.049 A 
ATOM     57  H   UNL A   1      40.694  31.070  34.361  1.00  0.00     0.167 HD
ATOM     58  C   UNL A   1      39.067  33.322  34.960  1.00  0.00     0.074 A 
ATOM     59  C   UNL A   1      38.063  34.360  34.842  1.00  0.00     0.031 C 
ATOM     60  C   UNL A   1      39.888  33.173  36.028  1.00  0.00     0.031 A 
BRANCH  47  61
ATOM     61  C   UNL A   1      43.820  28.417  35.573  1.00  0.00    -0.014 A 
ATOM     62  C   UNL A   1      43.510  27.304  36.377  1.00  0.00     0.010 A 
ATOM     63  C   UNL A   1      45.170  28.737  35.344  1.00  0.00     0.010 A 
ATOM     64  C   UNL A   1      44.527  26.557  36.977  1.00  0.00     0.020 A 
ATOM     65  C   UNL A   1      46.192  27.975  35.918  1.00  0.00     0.020 A 
ATOM     66  C   UNL A   1      45.862  26.901  36.747  1.00  0.00     0.054 A 
BRANCH  66  67
ATOM     67  S   UNL A   1      47.163  25.902  37.525  1.00  0.00     0.124 S 
ATOM     68  O   UNL A   1      47.337  26.583  38.805  1.00  0.00    -0.237 OA
ATOM     69  O   UNL A   1      46.551  24.578  37.596  1.00  0.00    -0.237 OA
ATOM     70  O   UNL A   1      48.288  26.017  36.601  1.00  0.00    -0.744 OA
ENDBRANCH  66  67
ENDBRANCH  47  61
BRANCH  48  71
ATOM     71  C   UNL A   1      36.433  33.433  31.053  1.00  0.00    -0.014 A 
ATOM     72  C   UNL A   1      35.212  33.620  31.723  1.00  0.00     0.010 A 
ATOM     73  C   UNL A   1      36.594  33.968  29.762  1.00  0.00     0.010 A 
ATOM     74  C   UNL A   1      34.166  34.315  31.108  1.00  0.00     0.020 A 
ATOM     75  C   UNL A   1      35.561  34.689  29.156  1.00  0.00     0.020 A 
ATOM     76  C   UNL A   1      34.349  34.849  29.829  1.00  0.00     0.054 A 
BRANCH  76  77
ATOM     77  S   UNL A   1      32.998  35.797  29.076  1.00  0.00     0.124 S 
ATOM     78  O   UNL A   1      33.722  36.866  28.393  1.00  0.00    -0.237 OA
ATOM     79  O   UNL A   1      32.364  34.807  28.208  1.00  0.00    -0.237 OA
ATOM     80  O   UNL A   1      32.194  36.216  30.221  1.00  0.00    -0.744 OA
ENDBRANCH  76  77
ENDBRANCH  48  71
BRANCH  60  81
ATOM     81  C   UNL A   1      39.758  34.176  37.144  1.00  0.00    -0.014 A 
ATOM     82  C   UNL A   1      40.355  35.445  37.057  1.00  0.00     0.010 A 
ATOM     83  C   UNL A   1      38.979  33.857  38.271  1.00  0.00     0.010 A 
ATOM     84  C   UNL A   1      40.205  36.367  38.097  1.00  0.00     0.020 A 
ATOM     85  C   UNL A   1      38.802  34.787  39.299  1.00  0.00     0.020 A 
ATOM     86  C   UNL A   1      39.429  36.031  39.211  1.00  0.00     0.054 A 
BRANCH  86  87
ATOM     87  S   UNL A   1      39.215  37.260  40.528  1.00  0.00     0.124 S 
ATOM     88  O   UNL A   1      38.667  36.451  41.612  1.00  0.00    -0.237 OA
ATOM     89  O   UNL A   1      40.576  37.749  40.735  1.00  0.00    -0.237 OA
ATOM     90  O   UNL A   1      38.292  38.232  39.948  1.00  0.00    -0.744 OA
ENDBRANCH  86  87
ENDBRANCH  60  81
ENDBRANCH  34  35
ENDBRANCH  26  29
ENDBRANCH  24  25
ENDBRANCH   1  24
TORSDOF 15
ENDMDL
