MODEL 1
REMARK VINA RESULT:      -8.8      0.000      0.000
REMARK SMILES Cn1ccnc1NCCOCC(=O)NCCCNC(=O)c1ccc(-c2c3nc(c(-c4ccc(S(=O)(=O)[O-])cc4)c4ccc([nH]4)c(-c4ccc(S(=O)(=O)[O-])cc4)c4nc(c(-c5ccc(S(=O)(=O)[O-])cc5)c5ccc2[nH]5)C=C4)C=C3)cc1
REMARK SMILES IDX 15 1 14 2 12 3 13 4 11 6 10 7 9 8 8 9 7 10 6 12 1 13 2 14
REMARK SMILES IDX 3 15 4 16 5 17 16 18 17 19 18 20 19 21 20 23 21 24 22 25
REMARK SMILES IDX 80 26 23 27 79 28 24 29 25 30 26 31 73 32 27 33 78 34 72 35
REMARK SMILES IDX 74 36 28 37 77 38 71 39 70 40 29 42 59 43 40 44 58 45 41 46
REMARK SMILES IDX 44 47 57 48 75 49 42 50 43 51 56 53 76 54 45 55 30 56 31 57
REMARK SMILES IDX 39 58 32 59 38 60 33 61 34 62 35 63 36 64 37 65 60 66 61 67
REMARK SMILES IDX 69 68 62 69 68 70 63 71 64 72 65 73 66 74 67 75 46 76 47 77
REMARK SMILES IDX 55 78 48 79 54 80 49 81 50 82 51 83 52 84 53 85
REMARK H PARENT 14 5 7 11 18 22 74 41 44 52
REMARK Flexibility Score: inf
ROOT
ATOM      1  C   UNL A   1      43.104  20.438  26.084  1.00  0.00     0.117 C 
ENDROOT
BRANCH   1   2
ATOM      2  N   UNL A   1      43.182  21.534  25.136  1.00  0.00    -0.354 N 
ATOM      3  C   UNL A   1      44.303  22.093  24.594  1.00  0.00     0.245 C 
ATOM      4  O   UNL A   1      44.186  22.927  23.694  1.00  0.00    -0.272 OA
ATOM      5  H   UNL A   1      42.323  21.922  24.851  1.00  0.00     0.163 HD
BRANCH   3   6
ATOM      6  C   UNL A   1      45.677  21.639  25.101  1.00  0.00     0.260 C 
BRANCH   6   7
ATOM      7  O   UNL A   1      46.431  22.557  25.872  1.00  0.00    -0.370 OA
BRANCH   7   8
ATOM      8  C   UNL A   1      45.682  23.283  26.861  1.00  0.00     0.182 C 
BRANCH   8   9
ATOM      9  C   UNL A   1      46.523  24.282  27.674  1.00  0.00     0.144 C 
BRANCH   9  10
ATOM     10  N   UNL A   1      45.980  25.631  27.606  1.00  0.00    -0.353 N 
ATOM     11  H   UNL A   1      45.358  25.936  28.306  1.00  0.00     0.163 HD
BRANCH  10  12
ATOM     12  C   UNL A   1      46.313  26.466  26.606  1.00  0.00     0.202 A 
ATOM     13  C   UNL A   1      44.088  26.324  25.402  1.00  0.00     0.153 C 
ATOM     14  N   UNL A   1      45.465  26.720  25.553  1.00  0.00    -0.321 N 
ATOM     15  C   UNL A   1      46.134  27.512  24.655  1.00  0.00     0.109 A 
ATOM     16  C   UNL A   1      47.351  27.756  25.242  1.00  0.00     0.133 A 
ATOM     17  N   UNL A   1      47.440  27.125  26.455  1.00  0.00    -0.222 NA
ENDBRANCH  10  12
ENDBRANCH   9  10
ENDBRANCH   8   9
ENDBRANCH   7   8
ENDBRANCH   6   7
ENDBRANCH   3   6
ENDBRANCH   1   2
BRANCH   1  18
ATOM     18  C   UNL A   1      41.743  20.327  26.756  1.00  0.00     0.042 C 
BRANCH  18  19
ATOM     19  C   UNL A   1      41.051  21.662  27.010  1.00  0.00     0.118 C 
BRANCH  19  20
ATOM     20  N   UNL A   1      39.792  21.798  26.289  1.00  0.00    -0.352 N 
ATOM     21  C   UNL A   1      38.905  22.845  26.223  1.00  0.00     0.251 C 
ATOM     22  H   UNL A   1      39.534  21.008  25.761  1.00  0.00     0.163 HD
ATOM     23  O   UNL A   1      37.813  22.671  25.689  1.00  0.00    -0.269 OA
BRANCH  21  24
ATOM     24  C   UNL A   1      39.243  24.163  26.803  1.00  0.00     0.039 A 
ATOM     25  C   UNL A   1      38.840  24.446  28.112  1.00  0.00     0.014 A 
ATOM     26  C   UNL A   1      39.926  25.130  26.062  1.00  0.00     0.014 A 
ATOM     27  C   UNL A   1      39.185  25.666  28.698  1.00  0.00     0.010 A 
ATOM     28  C   UNL A   1      40.342  26.309  26.674  1.00  0.00     0.010 A 
ATOM     29  C   UNL A   1      39.975  26.592  27.998  1.00  0.00    -0.014 A 
BRANCH  29  30
ATOM     30  C   UNL A   1      40.436  27.851  28.641  1.00  0.00     0.031 A 
ATOM     31  C   UNL A   1      41.818  27.948  29.227  1.00  0.00     0.074 A 
ATOM     32  C   UNL A   1      39.583  28.887  28.754  1.00  0.00     0.049 A 
ATOM     33  N   UNL A   1      42.375  28.946  29.864  1.00  0.00    -0.248 NA
ATOM     34  C   UNL A   1      42.677  26.759  29.106  1.00  0.00     0.031 C 
ATOM     35  C   UNL A   1      38.198  28.900  28.277  1.00  0.00     0.029 A 
ATOM     36  N   UNL A   1      39.751  30.127  29.317  1.00  0.00    -0.354 N 
ATOM     37  C   UNL A   1      43.642  28.504  30.227  1.00  0.00     0.074 A 
ATOM     38  C   UNL A   1      43.748  27.128  29.793  1.00  0.00     0.031 C 
ATOM     39  C   UNL A   1      37.651  30.095  28.549  1.00  0.00     0.029 A 
ATOM     40  C   UNL A   1      38.628  30.918  29.253  1.00  0.00     0.049 A 
ATOM     41  H   UNL A   1      40.596  30.423  29.728  1.00  0.00     0.167 HD
ATOM     42  C   UNL A   1      44.637  29.186  30.845  1.00  0.00     0.031 A 
ATOM     43  C   UNL A   1      38.401  32.163  29.717  1.00  0.00     0.031 A 
ATOM     44  C   UNL A   1      44.525  30.552  31.285  1.00  0.00     0.049 A 
ATOM     45  C   UNL A   1      39.513  32.901  30.407  1.00  0.00     0.074 A 
ATOM     46  C   UNL A   1      45.488  31.348  31.882  1.00  0.00     0.029 A 
ATOM     47  N   UNL A   1      43.376  31.325  31.185  1.00  0.00    -0.354 N 
ATOM     48  N   UNL A   1      40.730  32.491  30.678  1.00  0.00    -0.248 NA
ATOM     49  C   UNL A   1      39.227  34.276  30.840  1.00  0.00     0.031 C 
ATOM     50  C   UNL A   1      44.906  32.582  32.192  1.00  0.00     0.029 A 
ATOM     51  C   UNL A   1      43.599  32.579  31.732  1.00  0.00     0.049 A 
ATOM     52  H   UNL A   1      42.527  31.026  30.786  1.00  0.00     0.167 HD
ATOM     53  C   UNL A   1      41.362  33.563  31.298  1.00  0.00     0.074 A 
ATOM     54  C   UNL A   1      40.399  34.646  31.341  1.00  0.00     0.031 C 
ATOM     55  C   UNL A   1      42.625  33.643  31.785  1.00  0.00     0.031 A 
BRANCH  42  56
ATOM     56  C   UNL A   1      45.930  28.449  31.086  1.00  0.00    -0.014 A 
ATOM     57  C   UNL A   1      46.154  27.747  32.286  1.00  0.00     0.010 A 
ATOM     58  C   UNL A   1      46.937  28.453  30.103  1.00  0.00     0.010 A 
ATOM     59  C   UNL A   1      47.379  27.120  32.525  1.00  0.00     0.020 A 
ATOM     60  C   UNL A   1      48.152  27.798  30.324  1.00  0.00     0.020 A 
ATOM     61  C   UNL A   1      48.375  27.157  31.546  1.00  0.00     0.054 A 
BRANCH  61  62
ATOM     62  S   UNL A   1      49.961  26.346  31.888  1.00  0.00     0.124 S 
ATOM     63  O   UNL A   1      50.481  27.158  32.985  1.00  0.00    -0.237 OA
ATOM     64  O   UNL A   1      49.557  24.990  32.247  1.00  0.00    -0.237 OA
ATOM     65  O   UNL A   1      50.689  26.463  30.627  1.00  0.00    -0.744 OA
ENDBRANCH  61  62
ENDBRANCH  42  56
BRANCH  43  66
ATOM     66  C   UNL A   1      37.061  32.780  29.528  1.00  0.00    -0.014 A 
ATOM     67  C   UNL A   1      36.126  32.802  30.578  1.00  0.00     0.010 A 
ATOM     68  C   UNL A   1      36.734  33.401  28.308  1.00  0.00     0.010 A 
ATOM     69  C   UNL A   1      34.889  33.434  30.411  1.00  0.00     0.020 A 
ATOM     70  C   UNL A   1      35.511  34.057  28.147  1.00  0.00     0.020 A 
ATOM     71  C   UNL A   1      34.593  34.064  29.199  1.00  0.00     0.054 A 
BRANCH  71  72
ATOM     72  S   UNL A   1      33.019  34.952  29.036  1.00  0.00     0.124 S 
ATOM     73  O   UNL A   1      32.306  34.132  28.062  1.00  0.00    -0.237 OA
ATOM     74  O   UNL A   1      32.494  34.916  30.399  1.00  0.00    -0.237 OA
ATOM     75  O   UNL A   1      33.420  36.277  28.567  1.00  0.00    -0.744 OA
ENDBRANCH  71  72
ENDBRANCH  43  66
BRANCH  55  76
ATOM     76  C   UNL A   1      43.049  34.954  32.394  1.00  0.00    -0.014 A 
ATOM     77  C   UNL A   1      43.731  35.924  31.637  1.00  0.00     0.010 A 
ATOM     78  C   UNL A   1      42.718  35.239  33.732  1.00  0.00     0.010 A 
ATOM     79  C   UNL A   1      44.107  37.138  32.218  1.00  0.00     0.020 A 
ATOM     80  C   UNL A   1      43.065  36.464  34.307  1.00  0.00     0.020 A 
ATOM     81  C   UNL A   1      43.772  37.400  33.550  1.00  0.00     0.054 A 
BRANCH  81  82
ATOM     82  S   UNL A   1      44.240  38.997  34.271  1.00  0.00     0.124 S 
ATOM     83  O   UNL A   1      45.475  39.303  33.554  1.00  0.00    -0.237 OA
ATOM     84  O   UNL A   1      43.096  39.845  33.941  1.00  0.00    -0.237 OA
ATOM     85  O   UNL A   1      44.400  38.703  35.693  1.00  0.00    -0.744 OA
ENDBRANCH  81  82
ENDBRANCH  55  76
ENDBRANCH  29  30
ENDBRANCH  21  24
ENDBRANCH  19  20
ENDBRANCH  18  19
ENDBRANCH   1  18
TORSDOF 18
ENDMDL
MODEL 2
REMARK VINA RESULT:      -8.6      3.392      5.901
REMARK SMILES Cn1ccnc1NCCOCC(=O)NCCCNC(=O)c1ccc(-c2c3nc(c(-c4ccc(S(=O)(=O)[O-])cc4)c4ccc([nH]4)c(-c4ccc(S(=O)(=O)[O-])cc4)c4nc(c(-c5ccc(S(=O)(=O)[O-])cc5)c5ccc2[nH]5)C=C4)C=C3)cc1
REMARK SMILES IDX 15 1 14 2 12 3 13 4 11 6 10 7 9 8 8 9 7 10 6 12 1 13 2 14
REMARK SMILES IDX 3 15 4 16 5 17 16 18 17 19 18 20 19 21 20 23 21 24 22 25
REMARK SMILES IDX 80 26 23 27 79 28 24 29 25 30 26 31 73 32 27 33 78 34 72 35
REMARK SMILES IDX 74 36 28 37 77 38 71 39 70 40 29 42 59 43 40 44 58 45 41 46
REMARK SMILES IDX 44 47 57 48 75 49 42 50 43 51 56 53 76 54 45 55 30 56 31 57
REMARK SMILES IDX 39 58 32 59 38 60 33 61 34 62 35 63 36 64 37 65 60 66 61 67
REMARK SMILES IDX 69 68 62 69 68 70 63 71 64 72 65 73 66 74 67 75 46 76 47 77
REMARK SMILES IDX 55 78 48 79 54 80 49 81 50 82 51 83 52 84 53 85
REMARK H PARENT 14 5 7 11 18 22 74 41 44 52
REMARK Flexibility Score: inf
ROOT
ATOM      1  C   UNL A   1      35.266  21.782  26.112  1.00  0.00     0.117 C 
ENDROOT
BRANCH   1   2
ATOM      2  N   UNL A   1      33.846  21.497  26.213  1.00  0.00    -0.354 N 
ATOM      3  C   UNL A   1      32.977  21.207  25.201  1.00  0.00     0.245 C 
ATOM      4  O   UNL A   1      31.830  20.850  25.476  1.00  0.00    -0.272 OA
ATOM      5  H   UNL A   1      33.464  21.514  27.120  1.00  0.00     0.163 HD
BRANCH   3   6
ATOM      6  C   UNL A   1      33.469  21.305  23.751  1.00  0.00     0.260 C 
BRANCH   6   7
ATOM      7  O   UNL A   1      32.578  21.840  22.788  1.00  0.00    -0.370 OA
BRANCH   7   8
ATOM      8  C   UNL A   1      32.922  23.147  22.300  1.00  0.00     0.182 C 
BRANCH   8   9
ATOM      9  C   UNL A   1      32.008  24.270  22.822  1.00  0.00     0.144 C 
BRANCH   9  10
ATOM     10  N   UNL A   1      31.899  25.367  21.872  1.00  0.00    -0.353 N 
ATOM     11  H   UNL A   1      31.396  25.233  21.036  1.00  0.00     0.163 HD
BRANCH  10  12
ATOM     12  C   UNL A   1      32.473  26.559  22.115  1.00  0.00     0.202 A 
ATOM     13  C   UNL A   1      30.401  27.650  23.084  1.00  0.00     0.153 C 
ATOM     14  N   UNL A   1      31.759  27.629  22.601  1.00  0.00    -0.321 N 
ATOM     15  C   UNL A   1      32.595  28.715  22.631  1.00  0.00     0.109 A 
ATOM     16  C   UNL A   1      33.811  28.232  22.216  1.00  0.00     0.133 A 
ATOM     17  N   UNL A   1      33.729  26.896  21.923  1.00  0.00    -0.222 NA
ENDBRANCH  10  12
ENDBRANCH   9  10
ENDBRANCH   8   9
ENDBRANCH   7   8
ENDBRANCH   6   7
ENDBRANCH   3   6
ENDBRANCH   1   2
BRANCH   1  18
ATOM     18  C   UNL A   1      35.572  23.271  26.040  1.00  0.00     0.042 C 
BRANCH  18  19
ATOM     19  C   UNL A   1      36.849  23.619  25.282  1.00  0.00     0.118 C 
BRANCH  19  20
ATOM     20  N   UNL A   1      37.948  22.706  25.568  1.00  0.00    -0.352 N 
ATOM     21  C   UNL A   1      39.168  22.928  26.159  1.00  0.00     0.251 C 
ATOM     22  H   UNL A   1      37.790  21.774  25.293  1.00  0.00     0.163 HD
ATOM     23  O   UNL A   1      40.014  22.039  26.139  1.00  0.00    -0.269 OA
BRANCH  21  24
ATOM     24  C   UNL A   1      39.476  24.227  26.798  1.00  0.00     0.039 A 
ATOM     25  C   UNL A   1      39.054  24.446  28.114  1.00  0.00     0.014 A 
ATOM     26  C   UNL A   1      40.149  25.236  26.106  1.00  0.00     0.014 A 
ATOM     27  C   UNL A   1      39.372  25.646  28.754  1.00  0.00     0.010 A 
ATOM     28  C   UNL A   1      40.538  26.396  26.773  1.00  0.00     0.010 A 
ATOM     29  C   UNL A   1      40.152  26.615  28.103  1.00  0.00    -0.014 A 
BRANCH  29  30
ATOM     30  C   UNL A   1      40.583  27.853  28.804  1.00  0.00     0.031 A 
ATOM     31  C   UNL A   1      41.938  27.930  29.456  1.00  0.00     0.074 A 
ATOM     32  C   UNL A   1      39.726  28.887  28.910  1.00  0.00     0.049 A 
ATOM     33  N   UNL A   1      42.464  28.907  30.147  1.00  0.00    -0.248 NA
ATOM     34  C   UNL A   1      42.801  26.744  29.337  1.00  0.00     0.031 C 
ATOM     35  C   UNL A   1      38.364  28.917  28.371  1.00  0.00     0.029 A 
ATOM     36  N   UNL A   1      39.869  30.109  29.517  1.00  0.00    -0.354 N 
ATOM     37  C   UNL A   1      43.714  28.453  30.553  1.00  0.00     0.074 A 
ATOM     38  C   UNL A   1      43.839  27.091  30.083  1.00  0.00     0.031 C 
ATOM     39  C   UNL A   1      37.805  30.104  28.653  1.00  0.00     0.029 A 
ATOM     40  C   UNL A   1      38.750  30.904  29.426  1.00  0.00     0.049 A 
ATOM     41  H   UNL A   1      40.694  30.391  29.975  1.00  0.00     0.167 HD
ATOM     42  C   UNL A   1      44.680  29.115  31.236  1.00  0.00     0.031 A 
ATOM     43  C   UNL A   1      38.503  32.134  29.916  1.00  0.00     0.031 A 
ATOM     44  C   UNL A   1      44.548  30.467  31.712  1.00  0.00     0.049 A 
ATOM     45  C   UNL A   1      39.582  32.849  30.678  1.00  0.00     0.074 A 
ATOM     46  C   UNL A   1      45.483  31.243  32.375  1.00  0.00     0.029 A 
ATOM     47  N   UNL A   1      43.405  31.244  31.583  1.00  0.00    -0.354 N 
ATOM     48  N   UNL A   1      40.785  32.429  30.991  1.00  0.00    -0.248 NA
ATOM     49  C   UNL A   1      39.277  34.211  31.139  1.00  0.00     0.031 C 
ATOM     50  C   UNL A   1      44.888  32.468  32.696  1.00  0.00     0.029 A 
ATOM     51  C   UNL A   1      43.603  32.481  32.176  1.00  0.00     0.049 A 
ATOM     52  H   UNL A   1      42.576  30.958  31.137  1.00  0.00     0.167 HD
ATOM     53  C   UNL A   1      41.389  33.481  31.671  1.00  0.00     0.074 A 
ATOM     54  C   UNL A   1      40.425  34.564  31.704  1.00  0.00     0.031 C 
ATOM     55  C   UNL A   1      42.628  33.544  32.218  1.00  0.00     0.031 A 
BRANCH  42  56
ATOM     56  C   UNL A   1      45.961  28.369  31.514  1.00  0.00    -0.014 A 
ATOM     57  C   UNL A   1      46.111  27.592  32.679  1.00  0.00     0.010 A 
ATOM     58  C   UNL A   1      47.029  28.439  30.601  1.00  0.00     0.010 A 
ATOM     59  C   UNL A   1      47.324  26.956  32.956  1.00  0.00     0.020 A 
ATOM     60  C   UNL A   1      48.233  27.776  30.858  1.00  0.00     0.020 A 
ATOM     61  C   UNL A   1      48.380  27.059  32.048  1.00  0.00     0.054 A 
BRANCH  61  62
ATOM     62  S   UNL A   1      49.947  26.234  32.440  1.00  0.00     0.124 S 
ATOM     63  O   UNL A   1      50.476  27.086  33.503  1.00  0.00    -0.237 OA
ATOM     64  O   UNL A   1      49.514  24.904  32.860  1.00  0.00    -0.237 OA
ATOM     65  O   UNL A   1      50.687  26.276  31.181  1.00  0.00    -0.744 OA
ENDBRANCH  61  62
ENDBRANCH  42  56
BRANCH  43  66
ATOM     66  C   UNL A   1      37.172  32.759  29.685  1.00  0.00    -0.014 A 
ATOM     67  C   UNL A   1      36.183  32.731  30.684  1.00  0.00     0.010 A 
ATOM     68  C   UNL A   1      36.909  33.436  28.480  1.00  0.00     0.010 A 
ATOM     69  C   UNL A   1      34.954  33.369  30.481  1.00  0.00     0.020 A 
ATOM     70  C   UNL A   1      35.694  34.098  28.284  1.00  0.00     0.020 A 
ATOM     71  C   UNL A   1      34.721  34.056  29.285  1.00  0.00     0.054 A 
BRANCH  71  72
ATOM     72  S   UNL A   1      33.156  34.950  29.080  1.00  0.00     0.124 S 
ATOM     73  O   UNL A   1      33.612  36.266  28.645  1.00  0.00    -0.237 OA
ATOM     74  O   UNL A   1      32.467  34.152  28.069  1.00  0.00    -0.237 OA
ATOM     75  O   UNL A   1      32.558  34.903  30.413  1.00  0.00    -0.744 OA
ENDBRANCH  71  72
ENDBRANCH  43  66
BRANCH  55  76
ATOM     76  C   UNL A   1      43.024  34.836  32.884  1.00  0.00    -0.014 A 
ATOM     77  C   UNL A   1      42.736  35.076  34.240  1.00  0.00     0.010 A 
ATOM     78  C   UNL A   1      43.736  35.806  32.155  1.00  0.00     0.010 A 
ATOM     79  C   UNL A   1      43.119  36.277  34.843  1.00  0.00     0.020 A 
ATOM     80  C   UNL A   1      44.147  36.995  32.762  1.00  0.00     0.020 A 
ATOM     81  C   UNL A   1      43.823  37.230  34.099  1.00  0.00     0.054 A 
BRANCH  81  82
ATOM     82  S   UNL A   1      44.340  38.766  34.913  1.00  0.00     0.124 S 
ATOM     83  O   UNL A   1      43.463  39.751  34.287  1.00  0.00    -0.237 OA
ATOM     84  O   UNL A   1      44.068  38.488  36.323  1.00  0.00    -0.237 OA
ATOM     85  O   UNL A   1      45.755  38.881  34.570  1.00  0.00    -0.744 OA
ENDBRANCH  81  82
ENDBRANCH  55  76
ENDBRANCH  29  30
ENDBRANCH  21  24
ENDBRANCH  19  20
ENDBRANCH  18  19
ENDBRANCH   1  18
TORSDOF 18
ENDMDL
MODEL 3
REMARK VINA RESULT:      -8.6      3.648      5.046
REMARK SMILES Cn1ccnc1NCCOCC(=O)NCCCNC(=O)c1ccc(-c2c3nc(c(-c4ccc(S(=O)(=O)[O-])cc4)c4ccc([nH]4)c(-c4ccc(S(=O)(=O)[O-])cc4)c4nc(c(-c5ccc(S(=O)(=O)[O-])cc5)c5ccc2[nH]5)C=C4)C=C3)cc1
REMARK SMILES IDX 15 1 14 2 12 3 13 4 11 6 10 7 9 8 8 9 7 10 6 12 1 13 2 14
REMARK SMILES IDX 3 15 4 16 5 17 16 18 17 19 18 20 19 21 20 23 21 24 22 25
REMARK SMILES IDX 80 26 23 27 79 28 24 29 25 30 26 31 73 32 27 33 78 34 72 35
REMARK SMILES IDX 74 36 28 37 77 38 71 39 70 40 29 42 59 43 40 44 58 45 41 46
REMARK SMILES IDX 44 47 57 48 75 49 42 50 43 51 56 53 76 54 45 55 30 56 31 57
REMARK SMILES IDX 39 58 32 59 38 60 33 61 34 62 35 63 36 64 37 65 60 66 61 67
REMARK SMILES IDX 69 68 62 69 68 70 63 71 64 72 65 73 66 74 67 75 46 76 47 77
REMARK SMILES IDX 55 78 48 79 54 80 49 81 50 82 51 83 52 84 53 85
REMARK H PARENT 14 5 7 11 18 22 74 41 44 52
REMARK Flexibility Score: inf
ROOT
ATOM      1  C   UNL A   1      44.826  26.289  25.799  1.00  0.00     0.117 C 
ENDROOT
BRANCH   1   2
ATOM      2  N   UNL A   1      46.113  26.184  25.137  1.00  0.00    -0.354 N 
ATOM      3  C   UNL A   1      46.915  25.085  25.035  1.00  0.00     0.245 C 
ATOM      4  O   UNL A   1      47.913  25.132  24.314  1.00  0.00    -0.272 OA
ATOM      5  H   UNL A   1      46.448  27.006  24.710  1.00  0.00     0.163 HD
BRANCH   3   6
ATOM      6  C   UNL A   1      46.527  23.812  25.797  1.00  0.00     0.260 C 
BRANCH   6   7
ATOM      7  O   UNL A   1      46.665  22.573  25.123  1.00  0.00    -0.370 OA
BRANCH   7   8
ATOM      8  C   UNL A   1      45.554  21.673  25.267  1.00  0.00     0.182 C 
BRANCH   8   9
ATOM      9  C   UNL A   1      44.320  22.066  24.436  1.00  0.00     0.144 C 
BRANCH   9  10
ATOM     10  N   UNL A   1      43.092  21.977  25.213  1.00  0.00    -0.353 N 
ATOM     11  H   UNL A   1      42.527  22.776  25.317  1.00  0.00     0.163 HD
BRANCH  10  12
ATOM     12  C   UNL A   1      42.716  20.821  25.791  1.00  0.00     0.202 A 
ATOM     13  C   UNL A   1      42.120  21.838  28.034  1.00  0.00     0.153 C 
ATOM     14  N   UNL A   1      42.343  20.752  27.113  1.00  0.00    -0.321 N 
ATOM     15  C   UNL A   1      42.130  19.434  27.422  1.00  0.00     0.109 A 
ATOM     16  C   UNL A   1      42.326  18.761  26.242  1.00  0.00     0.133 A 
ATOM     17  N   UNL A   1      42.663  19.630  25.237  1.00  0.00    -0.222 NA
ENDBRANCH  10  12
ENDBRANCH   9  10
ENDBRANCH   8   9
ENDBRANCH   7   8
ENDBRANCH   6   7
ENDBRANCH   3   6
ENDBRANCH   1   2
BRANCH   1  18
ATOM     18  C   UNL A   1      43.707  25.586  25.044  1.00  0.00     0.042 C 
BRANCH  18  19
ATOM     19  C   UNL A   1      42.320  26.177  25.275  1.00  0.00     0.118 C 
BRANCH  19  20
ATOM     20  N   UNL A   1      41.293  25.162  25.475  1.00  0.00    -0.352 N 
ATOM     21  C   UNL A   1      40.502  24.890  26.563  1.00  0.00     0.251 C 
ATOM     22  H   UNL A   1      41.141  24.575  24.700  1.00  0.00     0.163 HD
ATOM     23  O   UNL A   1      39.822  23.867  26.568  1.00  0.00    -0.269 OA
BRANCH  21  24
ATOM     24  C   UNL A   1      40.476  25.800  27.729  1.00  0.00     0.039 A 
ATOM     25  C   UNL A   1      41.570  26.642  27.950  1.00  0.00     0.014 A 
ATOM     26  C   UNL A   1      39.399  25.812  28.619  1.00  0.00     0.014 A 
ATOM     27  C   UNL A   1      41.551  27.542  29.018  1.00  0.00     0.010 A 
ATOM     28  C   UNL A   1      39.344  26.766  29.631  1.00  0.00     0.010 A 
ATOM     29  C   UNL A   1      40.420  27.641  29.844  1.00  0.00    -0.014 A 
BRANCH  29  30
ATOM     30  C   UNL A   1      40.341  28.661  30.922  1.00  0.00     0.031 A 
ATOM     31  C   UNL A   1      41.206  28.547  32.148  1.00  0.00     0.074 A 
ATOM     32  C   UNL A   1      39.440  29.658  30.825  1.00  0.00     0.049 A 
ATOM     33  N   UNL A   1      41.241  29.315  33.206  1.00  0.00    -0.248 NA
ATOM     34  C   UNL A   1      42.133  27.405  32.204  1.00  0.00     0.031 C 
ATOM     35  C   UNL A   1      38.504  29.849  29.714  1.00  0.00     0.029 A 
ATOM     36  N   UNL A   1      39.155  30.694  31.680  1.00  0.00    -0.354 N 
ATOM     37  C   UNL A   1      42.184  28.748  34.056  1.00  0.00     0.074 A 
ATOM     38  C   UNL A   1      42.651  27.537  33.416  1.00  0.00     0.031 C 
ATOM     39  C   UNL A   1      37.765  30.945  29.946  1.00  0.00     0.029 A 
ATOM     40  C   UNL A   1      38.143  31.512  31.236  1.00  0.00     0.049 A 
ATOM     41  H   UNL A   1      39.630  30.837  32.531  1.00  0.00     0.167 HD
ATOM     42  C   UNL A   1      42.637  29.202  35.250  1.00  0.00     0.031 A 
ATOM     43  C   UNL A   1      37.572  32.592  31.804  1.00  0.00     0.031 A 
ATOM     44  C   UNL A   1      42.163  30.401  35.889  1.00  0.00     0.049 A 
ATOM     45  C   UNL A   1      38.082  33.076  33.132  1.00  0.00     0.074 A 
ATOM     46  C   UNL A   1      42.587  30.971  37.076  1.00  0.00     0.029 A 
ATOM     47  N   UNL A   1      41.148  31.212  35.397  1.00  0.00    -0.354 N 
ATOM     48  N   UNL A   1      39.026  32.565  33.888  1.00  0.00    -0.248 NA
ATOM     49  C   UNL A   1      37.462  34.292  33.676  1.00  0.00     0.031 C 
ATOM     50  C   UNL A   1      41.794  32.095  37.331  1.00  0.00     0.029 A 
ATOM     51  C   UNL A   1      40.917  32.263  36.270  1.00  0.00     0.049 A 
ATOM     52  H   UNL A   1      40.665  31.062  34.554  1.00  0.00     0.167 HD
ATOM     53  C   UNL A   1      39.125  33.407  34.990  1.00  0.00     0.074 A 
ATOM     54  C   UNL A   1      38.161  34.471  34.790  1.00  0.00     0.031 C 
ATOM     55  C   UNL A   1      39.942  33.307  36.068  1.00  0.00     0.031 A 
BRANCH  42  56
ATOM     56  C   UNL A   1      43.697  28.381  35.940  1.00  0.00    -0.014 A 
ATOM     57  C   UNL A   1      45.066  28.623  35.713  1.00  0.00     0.010 A 
ATOM     58  C   UNL A   1      43.326  27.356  36.830  1.00  0.00     0.010 A 
ATOM     59  C   UNL A   1      46.038  27.816  36.310  1.00  0.00     0.020 A 
ATOM     60  C   UNL A   1      44.297  26.568  37.455  1.00  0.00     0.020 A 
ATOM     61  C   UNL A   1      45.647  26.787  37.171  1.00  0.00     0.054 A 
BRANCH  61  62
ATOM     62  S   UNL A   1      46.930  25.747  37.920  1.00  0.00     0.124 S 
ATOM     63  O   UNL A   1      46.793  24.508  37.159  1.00  0.00    -0.237 OA
ATOM     64  O   UNL A   1      48.150  26.508  37.665  1.00  0.00    -0.237 OA
ATOM     65  O   UNL A   1      46.533  25.663  39.323  1.00  0.00    -0.744 OA
ENDBRANCH  61  62
ENDBRANCH  42  56
BRANCH  43  66
ATOM     66  C   UNL A   1      36.459  33.285  31.101  1.00  0.00    -0.014 A 
ATOM     67  C   UNL A   1      35.180  33.361  31.682  1.00  0.00     0.010 A 
ATOM     68  C   UNL A   1      36.689  33.923  29.868  1.00  0.00     0.010 A 
ATOM     69  C   UNL A   1      34.153  34.062  31.042  1.00  0.00     0.020 A 
ATOM     70  C   UNL A   1      35.673  34.647  29.239  1.00  0.00     0.020 A 
ATOM     71  C   UNL A   1      34.409  34.707  29.828  1.00  0.00     0.054 A 
BRANCH  71  72
ATOM     72  S   UNL A   1      33.086  35.684  29.061  1.00  0.00     0.124 S 
ATOM     73  O   UNL A   1      33.841  36.678  28.304  1.00  0.00    -0.237 OA
ATOM     74  O   UNL A   1      32.378  34.685  28.264  1.00  0.00    -0.237 OA
ATOM     75  O   UNL A   1      32.336  36.203  30.203  1.00  0.00    -0.744 OA
ENDBRANCH  71  72
ENDBRANCH  43  66
BRANCH  55  76
ATOM     76  C   UNL A   1      39.842  34.389  37.112  1.00  0.00    -0.014 A 
ATOM     77  C   UNL A   1      40.423  35.654  36.909  1.00  0.00     0.010 A 
ATOM     78  C   UNL A   1      39.117  34.152  38.294  1.00  0.00     0.010 A 
ATOM     79  C   UNL A   1      40.312  36.648  37.885  1.00  0.00     0.020 A 
ATOM     80  C   UNL A   1      38.978  35.152  39.259  1.00  0.00     0.020 A 
ATOM     81  C   UNL A   1      39.590  36.390  39.055  1.00  0.00     0.054 A 
BRANCH  81  82
ATOM     82  S   UNL A   1      39.431  37.708  40.291  1.00  0.00     0.124 S 
ATOM     83  O   UNL A   1      38.566  38.664  39.606  1.00  0.00    -0.237 OA
ATOM     84  O   UNL A   1      38.826  37.012  41.425  1.00  0.00    -0.237 OA
ATOM     85  O   UNL A   1      40.807  38.152  40.503  1.00  0.00    -0.744 OA
ENDBRANCH  81  82
ENDBRANCH  55  76
ENDBRANCH  29  30
ENDBRANCH  21  24
ENDBRANCH  19  20
ENDBRANCH  18  19
ENDBRANCH   1  18
TORSDOF 18
ENDMDL
