MODEL 1
REMARK VINA RESULT:     -10.6      0.000      0.000
REMARK SMILES O=C(Cc1cccn(C(F)F)c1=O)NCCCNC(=O)c1ccc(-c2c3nc(c(-c4ccc(S(=O)(=O)[O-])cc4)c4ccc([nH]4)c(-c4ccc(S(=O)(=O)[O-])cc4)c4nc(c(-c5ccc(S(=O)(=O)[O-])cc5)c5ccc2[nH]5)C=C4)C=C3)cc1
REMARK SMILES IDX 16 1 15 2 14 3 1 4 2 5 3 7 4 8 5 9 12 10 6 11 8 12 13 13
REMARK SMILES IDX 7 14 9 15 10 16 11 17 17 18 18 19 19 20 20 22 21 23 22 24
REMARK SMILES IDX 80 25 23 26 79 27 24 28 25 29 26 30 73 31 27 32 78 33 72 34
REMARK SMILES IDX 74 35 28 36 77 37 71 38 70 39 29 41 59 42 40 43 58 44 41 45
REMARK SMILES IDX 44 46 57 47 75 48 42 49 43 50 56 52 76 53 45 54 30 55 31 56
REMARK SMILES IDX 39 57 32 58 38 59 33 60 34 61 35 62 36 63 37 64 60 65 61 66
REMARK SMILES IDX 69 67 62 68 68 69 63 70 64 71 65 72 66 73 67 74 46 75 47 76
REMARK SMILES IDX 55 77 48 78 54 79 49 80 50 81 51 82 52 83 53 84
REMARK H PARENT 14 6 18 21 74 40 44 51
REMARK Flexibility Score: inf
ROOT
ATOM      1  C   UNL A   1      36.283  22.835  23.700  1.00  0.00     0.042 C 
ENDROOT
BRANCH   1   2
ATOM      2  C   UNL A   1      34.813  22.513  23.917  1.00  0.00     0.117 C 
BRANCH   2   3
ATOM      3  N   UNL A   1      33.952  23.668  23.759  1.00  0.00    -0.356 N 
ATOM      4  O   UNL A   1      33.575  23.396  21.505  1.00  0.00    -0.275 OA
ATOM      5  C   UNL A   1      33.350  23.984  22.557  1.00  0.00     0.224 C 
ATOM      6  H   UNL A   1      33.792  24.250  24.537  1.00  0.00     0.163 HD
BRANCH   5   7
ATOM      7  C   UNL A   1      32.305  25.085  22.670  1.00  0.00     0.141 C 
BRANCH   7   8
ATOM      8  C   UNL A   1      32.825  26.320  23.362  1.00  0.00     0.027 A 
ATOM      9  C   UNL A   1      33.545  27.311  22.803  1.00  0.00     0.011 A 
ATOM     10  C   UNL A   1      32.474  26.430  24.820  1.00  0.00     0.258 A 
ATOM     11  C   UNL A   1      33.934  28.478  23.551  1.00  0.00     0.019 A 
ATOM     12  N   UNL A   1      32.894  27.577  25.471  1.00  0.00    -0.258 N 
ATOM     13  O   UNL A   1      31.841  25.530  25.368  1.00  0.00    -0.269 OA
ATOM     14  C   UNL A   1      33.605  28.580  24.841  1.00  0.00     0.095 A 
BRANCH  12  15
ATOM     15  C   UNL A   1      32.590  27.703  26.873  1.00  0.00     0.451 C 
ATOM     16  F   UNL A   1      33.608  28.358  27.496  1.00  0.00    -0.185 F 
ATOM     17  F   UNL A   1      31.489  28.485  27.032  1.00  0.00    -0.185 F 
ENDBRANCH  12  15
ENDBRANCH   7   8
ENDBRANCH   5   7
ENDBRANCH   2   3
ENDBRANCH   1   2
BRANCH   1  18
ATOM     18  C   UNL A   1      37.026  23.319  24.940  1.00  0.00     0.118 C 
BRANCH  18  19
ATOM     19  N   UNL A   1      38.080  22.417  25.389  1.00  0.00    -0.352 N 
ATOM     20  C   UNL A   1      39.187  22.678  26.165  1.00  0.00     0.251 C 
ATOM     21  H   UNL A   1      37.985  21.483  25.094  1.00  0.00     0.163 HD
ATOM     22  O   UNL A   1      40.014  21.789  26.357  1.00  0.00    -0.269 OA
BRANCH  20  23
ATOM     23  C   UNL A   1      39.407  24.032  26.726  1.00  0.00     0.039 A 
ATOM     24  C   UNL A   1      40.044  25.026  25.983  1.00  0.00     0.014 A 
ATOM     25  C   UNL A   1      38.990  24.302  28.034  1.00  0.00     0.014 A 
ATOM     26  C   UNL A   1      40.434  26.209  26.603  1.00  0.00     0.010 A 
ATOM     27  C   UNL A   1      39.302  25.529  28.627  1.00  0.00     0.010 A 
ATOM     28  C   UNL A   1      40.079  26.472  27.937  1.00  0.00    -0.014 A 
BRANCH  28  29
ATOM     29  C   UNL A   1      40.545  27.729  28.585  1.00  0.00     0.031 A 
ATOM     30  C   UNL A   1      41.996  27.921  28.944  1.00  0.00     0.074 A 
ATOM     31  C   UNL A   1      39.667  28.733  28.785  1.00  0.00     0.049 A 
ATOM     32  N   UNL A   1      42.581  28.975  29.456  1.00  0.00    -0.248 NA
ATOM     33  C   UNL A   1      42.911  26.794  28.698  1.00  0.00     0.031 C 
ATOM     34  C   UNL A   1      38.241  28.677  28.461  1.00  0.00     0.029 A 
ATOM     35  N   UNL A   1      39.848  30.006  29.268  1.00  0.00    -0.354 N 
ATOM     36  C   UNL A   1      43.922  28.637  29.603  1.00  0.00     0.074 A 
ATOM     37  C   UNL A   1      44.060  27.267  29.160  1.00  0.00     0.031 C 
ATOM     38  C   UNL A   1      37.692  29.879  28.689  1.00  0.00     0.029 A 
ATOM     39  C   UNL A   1      38.707  30.773  29.238  1.00  0.00     0.049 A 
ATOM     40  H   UNL A   1      40.712  30.337  29.604  1.00  0.00     0.167 HD
ATOM     41  C   UNL A   1      44.945  29.401  30.049  1.00  0.00     0.031 A 
ATOM     42  C   UNL A   1      38.491  32.051  29.608  1.00  0.00     0.031 A 
ATOM     43  C   UNL A   1      44.808  30.771  30.474  1.00  0.00     0.049 A 
ATOM     44  C   UNL A   1      39.634  32.865  30.146  1.00  0.00     0.074 A 
ATOM     45  C   UNL A   1      45.797  31.629  30.924  1.00  0.00     0.029 A 
ATOM     46  N   UNL A   1      43.619  31.483  30.499  1.00  0.00    -0.354 N 
ATOM     47  N   UNL A   1      40.893  32.525  30.271  1.00  0.00    -0.248 NA
ATOM     48  C   UNL A   1      39.328  34.230  30.596  1.00  0.00     0.031 C 
ATOM     49  C   UNL A   1      45.197  32.839  31.278  1.00  0.00     0.029 A 
ATOM     50  C   UNL A   1      43.845  32.761  30.985  1.00  0.00     0.049 A 
ATOM     51  H   UNL A   1      42.744  31.134  30.215  1.00  0.00     0.167 HD
ATOM     52  C   UNL A   1      41.533  33.634  30.809  1.00  0.00     0.074 A 
ATOM     53  C   UNL A   1      40.527  34.665  30.964  1.00  0.00     0.031 C 
ATOM     54  C   UNL A   1      42.838  33.779  31.147  1.00  0.00     0.031 A 
BRANCH  41  55
ATOM     55  C   UNL A   1      46.324  28.794  30.103  1.00  0.00    -0.014 A 
ATOM     56  C   UNL A   1      47.178  28.898  28.989  1.00  0.00     0.010 A 
ATOM     57  C   UNL A   1      46.729  28.018  31.204  1.00  0.00     0.010 A 
ATOM     58  C   UNL A   1      48.398  28.216  28.962  1.00  0.00     0.020 A 
ATOM     59  C   UNL A   1      47.960  27.356  31.192  1.00  0.00     0.020 A 
ATOM     60  C   UNL A   1      48.777  27.441  30.060  1.00  0.00     0.054 A 
BRANCH  60  61
ATOM     61  S   UNL A   1      50.354  26.546  30.002  1.00  0.00     0.124 S 
ATOM     62  O   UNL A   1      51.206  27.369  30.855  1.00  0.00    -0.237 OA
ATOM     63  O   UNL A   1      49.999  25.236  30.541  1.00  0.00    -0.237 OA
ATOM     64  O   UNL A   1      50.696  26.552  28.582  1.00  0.00    -0.744 OA
ENDBRANCH  60  61
ENDBRANCH  41  55
BRANCH  42  65
ATOM     65  C   UNL A   1      37.127  32.627  29.452  1.00  0.00    -0.014 A 
ATOM     66  C   UNL A   1      36.692  33.090  28.196  1.00  0.00     0.010 A 
ATOM     67  C   UNL A   1      36.298  32.807  30.573  1.00  0.00     0.010 A 
ATOM     68  C   UNL A   1      35.485  33.782  28.073  1.00  0.00     0.020 A 
ATOM     69  C   UNL A   1      35.074  33.472  30.448  1.00  0.00     0.020 A 
ATOM     70  C   UNL A   1      34.692  33.984  29.205  1.00  0.00     0.054 A 
BRANCH  70  71
ATOM     71  S   UNL A   1      33.161  34.943  29.038  1.00  0.00     0.124 S 
ATOM     72  O   UNL A   1      33.668  36.235  28.582  1.00  0.00    -0.237 OA
ATOM     73  O   UNL A   1      32.410  34.176  28.047  1.00  0.00    -0.237 OA
ATOM     74  O   UNL A   1      32.602  34.931  30.387  1.00  0.00    -0.744 OA
ENDBRANCH  70  71
ENDBRANCH  42  65
BRANCH  54  75
ATOM     75  C   UNL A   1      43.278  35.093  31.737  1.00  0.00    -0.014 A 
ATOM     76  C   UNL A   1      42.942  35.411  33.067  1.00  0.00     0.010 A 
ATOM     77  C   UNL A   1      43.902  36.066  30.936  1.00  0.00     0.010 A 
ATOM     78  C   UNL A   1      43.186  36.689  33.573  1.00  0.00     0.020 A 
ATOM     79  C   UNL A   1      44.171  37.337  31.449  1.00  0.00     0.020 A 
ATOM     80  C   UNL A   1      43.787  37.649  32.755  1.00  0.00     0.054 A 
BRANCH  80  81
ATOM     81  S   UNL A   1      44.060  39.316  33.416  1.00  0.00     0.124 S 
ATOM     82  O   UNL A   1      45.091  39.082  34.422  1.00  0.00    -0.237 OA
ATOM     83  O   UNL A   1      44.488  40.066  32.238  1.00  0.00    -0.237 OA
ATOM     84  O   UNL A   1      42.750  39.693  33.942  1.00  0.00    -0.744 OA
ENDBRANCH  80  81
ENDBRANCH  54  75
ENDBRANCH  28  29
ENDBRANCH  20  23
ENDBRANCH  18  19
ENDBRANCH   1  18
TORSDOF 15
ENDMDL
MODEL 2
REMARK VINA RESULT:     -10.5      4.047     10.781
REMARK SMILES O=C(Cc1cccn(C(F)F)c1=O)NCCCNC(=O)c1ccc(-c2c3nc(c(-c4ccc(S(=O)(=O)[O-])cc4)c4ccc([nH]4)c(-c4ccc(S(=O)(=O)[O-])cc4)c4nc(c(-c5ccc(S(=O)(=O)[O-])cc5)c5ccc2[nH]5)C=C4)C=C3)cc1
REMARK SMILES IDX 16 1 15 2 14 3 1 4 2 5 3 7 4 8 5 9 12 10 6 11 8 12 13 13
REMARK SMILES IDX 7 14 9 15 10 16 11 17 17 18 18 19 19 20 20 22 21 23 22 24
REMARK SMILES IDX 80 25 23 26 79 27 24 28 25 29 26 30 73 31 27 32 78 33 72 34
REMARK SMILES IDX 74 35 28 36 77 37 71 38 70 39 29 41 59 42 40 43 58 44 41 45
REMARK SMILES IDX 44 46 57 47 75 48 42 49 43 50 56 52 76 53 45 54 30 55 31 56
REMARK SMILES IDX 39 57 32 58 38 59 33 60 34 61 35 62 36 63 37 64 60 65 61 66
REMARK SMILES IDX 69 67 62 68 68 69 63 70 64 71 65 72 66 73 67 74 46 75 47 76
REMARK SMILES IDX 55 77 48 78 54 79 49 80 50 81 51 82 52 83 53 84
REMARK H PARENT 14 6 18 21 74 40 44 51
REMARK Flexibility Score: inf
ROOT
ATOM      1  C   UNL A   1      33.383  33.828  28.195  1.00  0.00     0.042 C 
ENDROOT
BRANCH   1   2
ATOM      2  C   UNL A   1      33.842  34.606  29.418  1.00  0.00     0.117 C 
BRANCH   2   3
ATOM      3  N   UNL A   1      35.139  34.178  29.904  1.00  0.00    -0.356 N 
ATOM      4  O   UNL A   1      34.342  32.832  31.594  1.00  0.00    -0.275 OA
ATOM      5  C   UNL A   1      35.280  33.267  30.933  1.00  0.00     0.224 C 
ATOM      6  H   UNL A   1      35.949  34.552  29.487  1.00  0.00     0.163 HD
BRANCH   5   7
ATOM      7  C   UNL A   1      36.708  32.776  31.121  1.00  0.00     0.141 C 
BRANCH   7   8
ATOM      8  C   UNL A   1      37.280  33.138  32.469  1.00  0.00     0.027 A 
ATOM      9  C   UNL A   1      37.661  34.364  32.878  1.00  0.00     0.011 A 
ATOM     10  C   UNL A   1      37.412  31.993  33.435  1.00  0.00     0.258 A 
ATOM     11  C   UNL A   1      38.136  34.601  34.215  1.00  0.00     0.019 A 
ATOM     12  N   UNL A   1      37.888  32.302  34.697  1.00  0.00    -0.258 N 
ATOM     13  O   UNL A   1      37.099  30.857  33.084  1.00  0.00    -0.269 OA
ATOM     14  C   UNL A   1      38.235  33.585  35.075  1.00  0.00     0.095 A 
BRANCH  12  15
ATOM     15  C   UNL A   1      38.043  31.224  35.639  1.00  0.00     0.451 C 
ATOM     16  F   UNL A   1      39.086  30.438  35.254  1.00  0.00    -0.185 F 
ATOM     17  F   UNL A   1      38.383  31.726  36.856  1.00  0.00    -0.185 F 
ENDBRANCH  12  15
ENDBRANCH   7   8
ENDBRANCH   5   7
ENDBRANCH   2   3
ENDBRANCH   1   2
BRANCH   1  18
ATOM     18  C   UNL A   1      34.348  32.748  27.719  1.00  0.00     0.118 C 
BRANCH  18  19
ATOM     19  N   UNL A   1      33.735  31.437  27.548  1.00  0.00    -0.352 N 
ATOM     20  C   UNL A   1      34.285  30.184  27.695  1.00  0.00     0.251 C 
ATOM     21  H   UNL A   1      32.784  31.450  27.290  1.00  0.00     0.163 HD
ATOM     22  O   UNL A   1      33.616  29.192  27.412  1.00  0.00    -0.269 OA
BRANCH  20  23
ATOM     23  C   UNL A   1      35.689  30.030  28.145  1.00  0.00     0.039 A 
ATOM     24  C   UNL A   1      36.754  30.254  27.273  1.00  0.00     0.014 A 
ATOM     25  C   UNL A   1      35.940  29.626  29.461  1.00  0.00     0.014 A 
ATOM     26  C   UNL A   1      38.044  29.892  27.651  1.00  0.00     0.010 A 
ATOM     27  C   UNL A   1      37.250  29.350  29.868  1.00  0.00     0.010 A 
ATOM     28  C   UNL A   1      38.307  29.424  28.949  1.00  0.00    -0.014 A 
BRANCH  28  29
ATOM     29  C   UNL A   1      39.690  29.007  29.311  1.00  0.00     0.031 A 
ATOM     30  C   UNL A   1      40.544  29.860  30.213  1.00  0.00     0.074 A 
ATOM     31  C   UNL A   1      40.153  27.814  28.883  1.00  0.00     0.049 A 
ATOM     32  N   UNL A   1      41.745  29.617  30.677  1.00  0.00    -0.248 NA
ATOM     33  C   UNL A   1      39.986  31.149  30.655  1.00  0.00     0.031 C 
ATOM     34  C   UNL A   1      39.415  26.888  28.023  1.00  0.00     0.029 A 
ATOM     35  N   UNL A   1      41.332  27.159  29.142  1.00  0.00    -0.354 N 
ATOM     36  C   UNL A   1      42.088  30.719  31.452  1.00  0.00     0.074 A 
ATOM     37  C   UNL A   1      40.985  31.651  31.369  1.00  0.00     0.031 C 
ATOM     38  C   UNL A   1      40.125  25.760  27.881  1.00  0.00     0.029 A 
ATOM     39  C   UNL A   1      41.397  25.904  28.583  1.00  0.00     0.049 A 
ATOM     40  H   UNL A   1      42.059  27.551  29.676  1.00  0.00     0.167 HD
ATOM     41  C   UNL A   1      43.210  30.928  32.179  1.00  0.00     0.031 A 
ATOM     42  C   UNL A   1      42.367  24.969  28.624  1.00  0.00     0.031 A 
ATOM     43  C   UNL A   1      44.300  29.992  32.273  1.00  0.00     0.049 A 
ATOM     44  C   UNL A   1      43.624  25.244  29.398  1.00  0.00     0.074 A 
ATOM     45  C   UNL A   1      45.470  30.114  33.004  1.00  0.00     0.029 A 
ATOM     46  N   UNL A   1      44.357  28.766  31.628  1.00  0.00    -0.354 N 
ATOM     47  N   UNL A   1      43.924  26.292  30.127  1.00  0.00    -0.248 NA
ATOM     48  C   UNL A   1      44.675  24.217  29.353  1.00  0.00     0.031 C 
ATOM     49  C   UNL A   1      46.261  28.990  32.752  1.00  0.00     0.029 A 
ATOM     50  C   UNL A   1      45.555  28.135  31.920  1.00  0.00     0.049 A 
ATOM     51  H   UNL A   1      43.652  28.398  31.048  1.00  0.00     0.167 HD
ATOM     52  C   UNL A   1      45.195  26.050  30.633  1.00  0.00     0.074 A 
ATOM     53  C   UNL A   1      45.599  24.746  30.147  1.00  0.00     0.031 C 
ATOM     54  C   UNL A   1      45.956  26.842  31.425  1.00  0.00     0.031 A 
BRANCH  41  55
ATOM     55  C   UNL A   1      43.335  32.218  32.949  1.00  0.00    -0.014 A 
ATOM     56  C   UNL A   1      42.756  32.329  34.227  1.00  0.00     0.010 A 
ATOM     57  C   UNL A   1      43.919  33.356  32.362  1.00  0.00     0.010 A 
ATOM     58  C   UNL A   1      42.731  33.559  34.892  1.00  0.00     0.020 A 
ATOM     59  C   UNL A   1      43.919  34.581  33.036  1.00  0.00     0.020 A 
ATOM     60  C   UNL A   1      43.305  34.679  34.288  1.00  0.00     0.054 A 
BRANCH  60  61
ATOM     61  S   UNL A   1      43.248  36.271  35.156  1.00  0.00     0.124 S 
ATOM     62  O   UNL A   1      44.149  37.092  34.352  1.00  0.00    -0.237 OA
ATOM     63  O   UNL A   1      41.833  36.627  35.079  1.00  0.00    -0.237 OA
ATOM     64  O   UNL A   1      43.725  35.945  36.497  1.00  0.00    -0.744 OA
ENDBRANCH  60  61
ENDBRANCH  41  55
BRANCH  42  65
ATOM     65  C   UNL A   1      42.153  23.676  27.916  1.00  0.00    -0.014 A 
ATOM     66  C   UNL A   1      41.403  22.651  28.521  1.00  0.00     0.010 A 
ATOM     67  C   UNL A   1      42.779  23.429  26.682  1.00  0.00     0.010 A 
ATOM     68  C   UNL A   1      41.337  21.382  27.942  1.00  0.00     0.020 A 
ATOM     69  C   UNL A   1      42.689  22.168  26.083  1.00  0.00     0.020 A 
ATOM     70  C   UNL A   1      41.997  21.144  26.734  1.00  0.00     0.054 A 
BRANCH  70  71
ATOM     71  S   UNL A   1      41.955  19.472  26.032  1.00  0.00     0.124 S 
ATOM     72  O   UNL A   1      42.463  18.670  27.143  1.00  0.00    -0.237 OA
ATOM     73  O   UNL A   1      40.540  19.290  25.721  1.00  0.00    -0.237 OA
ATOM     74  O   UNL A   1      42.839  19.566  24.873  1.00  0.00    -0.744 OA
ENDBRANCH  70  71
ENDBRANCH  42  65
BRANCH  54  75
ATOM     75  C   UNL A   1      47.323  26.349  31.822  1.00  0.00    -0.014 A 
ATOM     76  C   UNL A   1      48.426  26.591  30.982  1.00  0.00     0.010 A 
ATOM     77  C   UNL A   1      47.489  25.529  32.952  1.00  0.00     0.010 A 
ATOM     78  C   UNL A   1      49.661  25.994  31.243  1.00  0.00     0.020 A 
ATOM     79  C   UNL A   1      48.730  24.950  33.230  1.00  0.00     0.020 A 
ATOM     80  C   UNL A   1      49.801  25.165  32.360  1.00  0.00     0.054 A 
BRANCH  80  81
ATOM     81  S   UNL A   1      51.401  24.364  32.660  1.00  0.00     0.124 S 
ATOM     82  O   UNL A   1      51.605  24.613  34.084  1.00  0.00    -0.237 OA
ATOM     83  O   UNL A   1      51.140  22.974  32.294  1.00  0.00    -0.237 OA
ATOM     84  O   UNL A   1      52.311  25.075  31.765  1.00  0.00    -0.744 OA
ENDBRANCH  80  81
ENDBRANCH  54  75
ENDBRANCH  28  29
ENDBRANCH  20  23
ENDBRANCH  18  19
ENDBRANCH   1  18
TORSDOF 15
ENDMDL
MODEL 3
REMARK VINA RESULT:     -10.4      3.229      9.656
REMARK SMILES O=C(Cc1cccn(C(F)F)c1=O)NCCCNC(=O)c1ccc(-c2c3nc(c(-c4ccc(S(=O)(=O)[O-])cc4)c4ccc([nH]4)c(-c4ccc(S(=O)(=O)[O-])cc4)c4nc(c(-c5ccc(S(=O)(=O)[O-])cc5)c5ccc2[nH]5)C=C4)C=C3)cc1
REMARK SMILES IDX 16 1 15 2 14 3 1 4 2 5 3 7 4 8 5 9 12 10 6 11 8 12 13 13
REMARK SMILES IDX 7 14 9 15 10 16 11 17 17 18 18 19 19 20 20 22 21 23 22 24
REMARK SMILES IDX 80 25 23 26 79 27 24 28 25 29 26 30 73 31 27 32 78 33 72 34
REMARK SMILES IDX 74 35 28 36 77 37 71 38 70 39 29 41 59 42 40 43 58 44 41 45
REMARK SMILES IDX 44 46 57 47 75 48 42 49 43 50 56 52 76 53 45 54 30 55 31 56
REMARK SMILES IDX 39 57 32 58 38 59 33 60 34 61 35 62 36 63 37 64 60 65 61 66
REMARK SMILES IDX 69 67 62 68 68 69 63 70 64 71 65 72 66 73 67 74 46 75 47 76
REMARK SMILES IDX 55 77 48 78 54 79 49 80 50 81 51 82 52 83 53 84
REMARK H PARENT 14 6 18 21 74 40 44 51
REMARK Flexibility Score: inf
ROOT
ATOM      1  C   UNL A   1      31.955  27.959  27.402  1.00  0.00     0.042 C 
ENDROOT
BRANCH   1   2
ATOM      2  C   UNL A   1      31.245  27.306  26.227  1.00  0.00     0.117 C 
BRANCH   2   3
ATOM      3  N   UNL A   1      30.896  25.921  26.478  1.00  0.00    -0.356 N 
ATOM      4  O   UNL A   1      31.247  25.178  24.327  1.00  0.00    -0.275 OA
ATOM      5  C   UNL A   1      30.983  24.947  25.503  1.00  0.00     0.224 C 
ATOM      6  H   UNL A   1      30.584  25.667  27.376  1.00  0.00     0.163 HD
BRANCH   5   7
ATOM      7  C   UNL A   1      30.806  23.533  26.036  1.00  0.00     0.141 C 
BRANCH   7   8
ATOM      8  C   UNL A   1      32.116  22.861  26.365  1.00  0.00     0.027 A 
ATOM      9  C   UNL A   1      32.844  23.024  27.487  1.00  0.00     0.011 A 
ATOM     10  C   UNL A   1      32.626  21.910  25.318  1.00  0.00     0.258 A 
ATOM     11  C   UNL A   1      34.052  22.279  27.719  1.00  0.00     0.019 A 
ATOM     12  N   UNL A   1      33.801  21.240  25.613  1.00  0.00    -0.258 N 
ATOM     13  O   UNL A   1      32.000  21.758  24.271  1.00  0.00    -0.269 OA
ATOM     14  C   UNL A   1      34.492  21.421  26.795  1.00  0.00     0.095 A 
BRANCH  12  15
ATOM     15  C   UNL A   1      34.325  20.336  24.622  1.00  0.00     0.451 C 
ATOM     16  F   UNL A   1      35.678  20.260  24.755  1.00  0.00    -0.185 F 
ATOM     17  F   UNL A   1      33.855  19.081  24.855  1.00  0.00    -0.185 F 
ENDBRANCH  12  15
ENDBRANCH   7   8
ENDBRANCH   5   7
ENDBRANCH   2   3
ENDBRANCH   1   2
BRANCH   1  18
ATOM     18  C   UNL A   1      33.241  28.697  27.048  1.00  0.00     0.118 C 
BRANCH  18  19
ATOM     19  N   UNL A   1      33.262  30.091  27.472  1.00  0.00    -0.352 N 
ATOM     20  C   UNL A   1      34.272  30.812  28.070  1.00  0.00     0.251 C 
ATOM     21  H   UNL A   1      32.431  30.592  27.306  1.00  0.00     0.163 HD
ATOM     22  O   UNL A   1      34.056  31.964  28.438  1.00  0.00    -0.269 OA
BRANCH  20  23
ATOM     23  C   UNL A   1      35.595  30.189  28.313  1.00  0.00     0.039 A 
ATOM     24  C   UNL A   1      35.906  29.615  29.546  1.00  0.00     0.014 A 
ATOM     25  C   UNL A   1      36.551  30.206  27.293  1.00  0.00     0.014 A 
ATOM     26  C   UNL A   1      37.217  29.239  29.821  1.00  0.00     0.010 A 
ATOM     27  C   UNL A   1      37.847  29.741  27.543  1.00  0.00     0.010 A 
ATOM     28  C   UNL A   1      38.208  29.307  28.827  1.00  0.00    -0.014 A 
BRANCH  28  29
ATOM     29  C   UNL A   1      39.610  28.935  29.163  1.00  0.00     0.031 A 
ATOM     30  C   UNL A   1      40.464  29.834  30.019  1.00  0.00     0.074 A 
ATOM     31  C   UNL A   1      40.093  27.744  28.755  1.00  0.00     0.049 A 
ATOM     32  N   UNL A   1      41.682  29.634  30.457  1.00  0.00    -0.248 NA
ATOM     33  C   UNL A   1      39.884  31.120  30.442  1.00  0.00     0.031 C 
ATOM     34  C   UNL A   1      39.357  26.776  27.939  1.00  0.00     0.029 A 
ATOM     35  N   UNL A   1      41.294  27.126  29.000  1.00  0.00    -0.354 N 
ATOM     36  C   UNL A   1      42.016  30.766  31.194  1.00  0.00     0.074 A 
ATOM     37  C   UNL A   1      40.888  31.666  31.115  1.00  0.00     0.031 C 
ATOM     38  C   UNL A   1      40.093  25.663  27.809  1.00  0.00     0.029 A 
ATOM     39  C   UNL A   1      41.379  25.858  28.473  1.00  0.00     0.049 A 
ATOM     40  H   UNL A   1      42.025  27.551  29.504  1.00  0.00     0.167 HD
ATOM     41  C   UNL A   1      43.151  31.023  31.885  1.00  0.00     0.031 A 
ATOM     42  C   UNL A   1      42.373  24.950  28.512  1.00  0.00     0.031 A 
ATOM     43  C   UNL A   1      44.267  30.118  31.975  1.00  0.00     0.049 A 
ATOM     44  C   UNL A   1      43.642  25.277  29.245  1.00  0.00     0.074 A 
ATOM     45  C   UNL A   1      45.452  30.289  32.671  1.00  0.00     0.029 A 
ATOM     46  N   UNL A   1      44.340  28.877  31.362  1.00  0.00    -0.354 N 
ATOM     47  N   UNL A   1      43.933  26.352  29.938  1.00  0.00    -0.248 NA
ATOM     48  C   UNL A   1      44.718  24.277  29.200  1.00  0.00     0.031 C 
ATOM     49  C   UNL A   1      46.265  29.179  32.428  1.00  0.00     0.029 A 
ATOM     50  C   UNL A   1      45.561  28.285  31.638  1.00  0.00     0.049 A 
ATOM     51  H   UNL A   1      43.629  28.475  30.810  1.00  0.00     0.167 HD
ATOM     52  C   UNL A   1      45.223  26.156  30.416  1.00  0.00     0.074 A 
ATOM     53  C   UNL A   1      45.648  24.851  29.954  1.00  0.00     0.031 C 
ATOM     54  C   UNL A   1      45.983  26.990  31.167  1.00  0.00     0.031 A 
BRANCH  41  55
ATOM     55  C   UNL A   1      43.262  32.336  32.617  1.00  0.00    -0.014 A 
ATOM     56  C   UNL A   1      43.903  33.428  32.000  1.00  0.00     0.010 A 
ATOM     57  C   UNL A   1      42.844  32.456  33.954  1.00  0.00     0.010 A 
ATOM     58  C   UNL A   1      44.149  34.604  32.715  1.00  0.00     0.020 A 
ATOM     59  C   UNL A   1      43.064  33.640  34.664  1.00  0.00     0.020 A 
ATOM     60  C   UNL A   1      43.736  34.699  34.046  1.00  0.00     0.054 A 
BRANCH  60  61
ATOM     61  S   UNL A   1      44.079  36.225  34.966  1.00  0.00     0.124 S 
ATOM     62  O   UNL A   1      44.888  36.982  34.015  1.00  0.00    -0.237 OA
ATOM     63  O   UNL A   1      42.741  36.754  35.219  1.00  0.00    -0.237 OA
ATOM     64  O   UNL A   1      44.786  35.754  36.154  1.00  0.00    -0.744 OA
ENDBRANCH  60  61
ENDBRANCH  41  55
BRANCH  42  65
ATOM     65  C   UNL A   1      42.175  23.633  27.844  1.00  0.00    -0.014 A 
ATOM     66  C   UNL A   1      41.581  22.565  28.543  1.00  0.00     0.010 A 
ATOM     67  C   UNL A   1      42.667  23.413  26.547  1.00  0.00     0.010 A 
ATOM     68  C   UNL A   1      41.543  21.286  27.985  1.00  0.00     0.020 A 
ATOM     69  C   UNL A   1      42.603  22.139  25.972  1.00  0.00     0.020 A 
ATOM     70  C   UNL A   1      42.071  21.077  26.709  1.00  0.00     0.054 A 
BRANCH  70  71
ATOM     71  S   UNL A   1      42.073  19.395  26.030  1.00  0.00     0.124 S 
ATOM     72  O   UNL A   1      42.588  18.620  27.156  1.00  0.00    -0.237 OA
ATOM     73  O   UNL A   1      40.665  19.179  25.707  1.00  0.00    -0.237 OA
ATOM     74  O   UNL A   1      42.966  19.494  24.878  1.00  0.00    -0.744 OA
ENDBRANCH  70  71
ENDBRANCH  42  65
BRANCH  54  75
ATOM     75  C   UNL A   1      47.372  26.542  31.540  1.00  0.00    -0.014 A 
ATOM     76  C   UNL A   1      48.463  26.889  30.721  1.00  0.00     0.010 A 
ATOM     77  C   UNL A   1      47.577  25.666  32.621  1.00  0.00     0.010 A 
ATOM     78  C   UNL A   1      49.726  26.339  30.953  1.00  0.00     0.020 A 
ATOM     79  C   UNL A   1      48.845  25.134  32.870  1.00  0.00     0.020 A 
ATOM     80  C   UNL A   1      49.905  25.453  32.019  1.00  0.00     0.054 A 
BRANCH  80  81
ATOM     81  S   UNL A   1      51.543  24.717  32.279  1.00  0.00     0.124 S 
ATOM     82  O   UNL A   1      51.257  23.289  32.176  1.00  0.00    -0.237 OA
ATOM     83  O   UNL A   1      52.329  25.283  31.186  1.00  0.00    -0.237 OA
ATOM     84  O   UNL A   1      51.919  25.183  33.612  1.00  0.00    -0.744 OA
ENDBRANCH  80  81
ENDBRANCH  54  75
ENDBRANCH  28  29
ENDBRANCH  20  23
ENDBRANCH  18  19
ENDBRANCH   1  18
TORSDOF 15
ENDMDL
