MODEL 1
REMARK VINA RESULT:     -10.7      0.000      0.000
REMARK SMILES C[C@@H](C(=O)NCCCNC(=O)c1ccc(-c2c3nc(c(-c4ccc(S(=O)(=O)[O-])cc4)c4ccc([nH]4)c(-c4ccc(S(=O)(=O)[O-])cc4)c4nc(c(-c5ccc(S(=O)(=O)[O-])cc5)c5ccc2[nH]5)C=C4)C=C3)cc1)c1ccc(=O)n(C(F)F)c1
REMARK SMILES IDX 7 1 6 2 5 3 3 4 4 5 2 7 1 8 72 9 73 10 81 11 74 12 77 13
REMARK SMILES IDX 75 14 76 15 78 16 79 17 80 18 8 19 9 20 10 21 11 23 12 24
REMARK SMILES IDX 13 25 71 26 14 27 70 28 15 29 16 30 17 31 64 32 18 33 69 34
REMARK SMILES IDX 63 35 65 36 19 37 68 38 62 39 61 40 20 42 50 43 31 44 49 45
REMARK SMILES IDX 32 46 35 47 48 48 66 49 33 50 34 51 47 53 67 54 36 55 21 56
REMARK SMILES IDX 22 57 30 58 23 59 29 60 24 61 25 62 26 63 27 64 28 65 51 66
REMARK SMILES IDX 52 67 60 68 53 69 59 70 54 71 55 72 56 73 57 74 58 75 37 76
REMARK SMILES IDX 38 77 46 78 39 79 45 80 40 81 41 82 42 83 43 84 44 85
REMARK H PARENT 5 6 9 22 65 41 35 52
REMARK Flexibility Score: inf
ROOT
ATOM      1  C   UNL A   1      33.767  27.612  25.915  1.00  0.00     0.042 C 
ENDROOT
BRANCH   1   2
ATOM      2  C   UNL A   1      33.681  26.099  25.718  1.00  0.00     0.117 C 
BRANCH   2   3
ATOM      3  N   UNL A   1      33.752  25.724  24.319  1.00  0.00    -0.356 N 
ATOM      4  C   UNL A   1      34.318  24.644  23.709  1.00  0.00     0.227 C 
ATOM      5  O   UNL A   1      34.194  24.587  22.484  1.00  0.00    -0.274 OA
ATOM      6  H   UNL A   1      33.315  26.358  23.704  1.00  0.00     0.163 HD
BRANCH   4   7
ATOM      7  C   UNL A   1      35.044  23.563  24.546  1.00  0.00     0.107 C 
ATOM      8  C   UNL A   1      36.430  23.226  23.995  1.00  0.00     0.023 C 
BRANCH   7   9
ATOM      9  C   UNL A   1      34.247  22.271  24.712  1.00  0.00    -0.019 A 
ATOM     10  C   UNL A   1      32.800  22.316  24.832  1.00  0.00     0.012 A 
ATOM     11  C   UNL A   1      34.841  21.064  24.707  1.00  0.00     0.099 A 
ATOM     12  C   UNL A   1      32.079  21.202  25.003  1.00  0.00     0.072 A 
ATOM     13  N   UNL A   1      34.115  19.890  24.828  1.00  0.00    -0.258 N 
ATOM     14  C   UNL A   1      32.744  19.874  25.023  1.00  0.00     0.254 A 
ATOM     15  O   UNL A   1      32.054  18.871  25.190  1.00  0.00    -0.269 OA
BRANCH  13  16
ATOM     16  C   UNL A   1      34.778  18.614  24.774  1.00  0.00     0.451 C 
ATOM     17  F   UNL A   1      34.338  17.877  23.725  1.00  0.00    -0.185 F 
ATOM     18  F   UNL A   1      36.121  18.760  24.650  1.00  0.00    -0.185 F 
ENDBRANCH  13  16
ENDBRANCH   7   9
ENDBRANCH   4   7
ENDBRANCH   2   3
ENDBRANCH   1   2
BRANCH   1  19
ATOM     19  C   UNL A   1      33.466  28.090  27.334  1.00  0.00     0.118 C 
BRANCH  19  20
ATOM     20  N   UNL A   1      33.407  29.537  27.441  1.00  0.00    -0.352 N 
ATOM     21  C   UNL A   1      34.330  30.439  27.909  1.00  0.00     0.251 C 
ATOM     22  H   UNL A   1      32.566  29.939  27.124  1.00  0.00     0.163 HD
ATOM     23  O   UNL A   1      33.980  31.605  28.077  1.00  0.00    -0.269 OA
BRANCH  21  24
ATOM     24  C   UNL A   1      35.719  30.032  28.228  1.00  0.00     0.039 A 
ATOM     25  C   UNL A   1      36.673  30.079  27.208  1.00  0.00     0.014 A 
ATOM     26  C   UNL A   1      36.084  29.555  29.492  1.00  0.00     0.014 A 
ATOM     27  C   UNL A   1      37.992  29.700  27.467  1.00  0.00     0.010 A 
ATOM     28  C   UNL A   1      37.419  29.256  29.770  1.00  0.00     0.010 A 
ATOM     29  C   UNL A   1      38.387  29.316  28.760  1.00  0.00    -0.014 A 
BRANCH  29  30
ATOM     30  C   UNL A   1      39.813  29.002  29.047  1.00  0.00     0.031 A 
ATOM     31  C   UNL A   1      40.715  30.014  29.706  1.00  0.00     0.074 A 
ATOM     32  C   UNL A   1      40.303  27.794  28.698  1.00  0.00     0.049 A 
ATOM     33  N   UNL A   1      41.964  29.884  30.076  1.00  0.00    -0.248 NA
ATOM     34  C   UNL A   1      40.150  31.347  29.966  1.00  0.00     0.031 C 
ATOM     35  C   UNL A   1      39.549  26.745  28.008  1.00  0.00     0.029 A 
ATOM     36  N   UNL A   1      41.544  27.240  28.888  1.00  0.00    -0.354 N 
ATOM     37  C   UNL A   1      42.334  31.114  30.607  1.00  0.00     0.074 A 
ATOM     38  C   UNL A   1      41.196  31.995  30.459  1.00  0.00     0.031 C 
ATOM     39  C   UNL A   1      40.327  25.659  27.875  1.00  0.00     0.029 A 
ATOM     40  C   UNL A   1      41.645  25.946  28.431  1.00  0.00     0.049 A 
ATOM     41  H   UNL A   1      42.292  27.722  29.310  1.00  0.00     0.167 HD
ATOM     42  C   UNL A   1      43.506  31.474  31.187  1.00  0.00     0.031 A 
ATOM     43  C   UNL A   1      42.678  25.081  28.460  1.00  0.00     0.031 A 
ATOM     44  C   UNL A   1      44.640  30.597  31.329  1.00  0.00     0.049 A 
ATOM     45  C   UNL A   1      43.969  25.506  29.101  1.00  0.00     0.074 A 
ATOM     46  C   UNL A   1      45.853  30.851  31.947  1.00  0.00     0.029 A 
ATOM     47  N   UNL A   1      44.706  29.299  30.844  1.00  0.00    -0.354 N 
ATOM     48  N   UNL A   1      44.272  26.650  29.669  1.00  0.00    -0.248 NA
ATOM     49  C   UNL A   1      45.054  24.515  29.121  1.00  0.00     0.031 C 
ATOM     50  C   UNL A   1      46.674  29.730  31.779  1.00  0.00     0.029 A 
ATOM     51  C   UNL A   1      45.949  28.751  31.121  1.00  0.00     0.049 A 
ATOM     52  H   UNL A   1      43.977  28.835  30.372  1.00  0.00     0.167 HD
ATOM     53  C   UNL A   1      45.575  26.508  30.133  1.00  0.00     0.074 A 
ATOM     54  C   UNL A   1      45.990  25.159  29.804  1.00  0.00     0.031 C 
ATOM     55  C   UNL A   1      46.358  27.413  30.773  1.00  0.00     0.031 A 
BRANCH  42  56
ATOM     56  C   UNL A   1      43.624  32.885  31.708  1.00  0.00    -0.014 A 
ATOM     57  C   UNL A   1      44.063  33.933  30.879  1.00  0.00     0.010 A 
ATOM     58  C   UNL A   1      43.246  33.178  33.032  1.00  0.00     0.010 A 
ATOM     59  C   UNL A   1      44.162  35.237  31.373  1.00  0.00     0.020 A 
ATOM     60  C   UNL A   1      43.313  34.487  33.521  1.00  0.00     0.020 A 
ATOM     61  C   UNL A   1      43.788  35.505  32.692  1.00  0.00     0.054 A 
BRANCH  61  62
ATOM     62  S   UNL A   1      43.904  37.211  33.298  1.00  0.00     0.124 S 
ATOM     63  O   UNL A   1      43.895  37.974  32.052  1.00  0.00    -0.237 OA
ATOM     64  O   UNL A   1      42.704  37.340  34.120  1.00  0.00    -0.237 OA
ATOM     65  O   UNL A   1      45.166  37.234  34.033  1.00  0.00    -0.744 OA
ENDBRANCH  61  62
ENDBRANCH  42  56
BRANCH  43  66
ATOM     66  C   UNL A   1      42.523  23.720  27.876  1.00  0.00    -0.014 A 
ATOM     67  C   UNL A   1      42.042  22.653  28.655  1.00  0.00     0.010 A 
ATOM     68  C   UNL A   1      42.845  23.488  26.525  1.00  0.00     0.010 A 
ATOM     69  C   UNL A   1      41.906  21.376  28.103  1.00  0.00     0.020 A 
ATOM     70  C   UNL A   1      42.678  22.221  25.960  1.00  0.00     0.020 A 
ATOM     71  C   UNL A   1      42.220  21.169  26.756  1.00  0.00     0.054 A 
BRANCH  71  72
ATOM     72  S   UNL A   1      41.983  19.517  26.046  1.00  0.00     0.124 S 
ATOM     73  O   UNL A   1      40.542  19.486  25.821  1.00  0.00    -0.237 OA
ATOM     74  O   UNL A   1      42.813  19.569  24.844  1.00  0.00    -0.237 OA
ATOM     75  O   UNL A   1      42.474  18.622  27.092  1.00  0.00    -0.744 OA
ENDBRANCH  71  72
ENDBRANCH  43  66
BRANCH  55  76
ATOM     76  C   UNL A   1      47.738  26.961  31.178  1.00  0.00    -0.014 A 
ATOM     77  C   UNL A   1      48.836  27.090  30.308  1.00  0.00     0.010 A 
ATOM     78  C   UNL A   1      47.941  26.414  32.458  1.00  0.00     0.010 A 
ATOM     79  C   UNL A   1      50.098  26.628  30.689  1.00  0.00     0.020 A 
ATOM     80  C   UNL A   1      49.210  25.982  32.856  1.00  0.00     0.020 A 
ATOM     81  C   UNL A   1      50.276  26.070  31.959  1.00  0.00     0.054 A 
BRANCH  81  82
ATOM     82  S   UNL A   1      51.924  25.483  32.432  1.00  0.00     0.124 S 
ATOM     83  O   UNL A   1      52.120  26.136  33.723  1.00  0.00    -0.237 OA
ATOM     84  O   UNL A   1      51.747  24.034  32.480  1.00  0.00    -0.237 OA
ATOM     85  O   UNL A   1      52.786  25.964  31.354  1.00  0.00    -0.744 OA
ENDBRANCH  81  82
ENDBRANCH  55  76
ENDBRANCH  29  30
ENDBRANCH  21  24
ENDBRANCH  19  20
ENDBRANCH   1  19
TORSDOF 15
ENDMDL
MODEL 2
REMARK VINA RESULT:     -10.3      3.949     10.655
REMARK SMILES C[C@@H](C(=O)NCCCNC(=O)c1ccc(-c2c3nc(c(-c4ccc(S(=O)(=O)[O-])cc4)c4ccc([nH]4)c(-c4ccc(S(=O)(=O)[O-])cc4)c4nc(c(-c5ccc(S(=O)(=O)[O-])cc5)c5ccc2[nH]5)C=C4)C=C3)cc1)c1ccc(=O)n(C(F)F)c1
REMARK SMILES IDX 7 1 6 2 5 3 3 4 4 5 2 7 1 8 72 9 73 10 81 11 74 12 77 13
REMARK SMILES IDX 75 14 76 15 78 16 79 17 80 18 8 19 9 20 10 21 11 23 12 24
REMARK SMILES IDX 13 25 71 26 14 27 70 28 15 29 16 30 17 31 64 32 18 33 69 34
REMARK SMILES IDX 63 35 65 36 19 37 68 38 62 39 61 40 20 42 50 43 31 44 49 45
REMARK SMILES IDX 32 46 35 47 48 48 66 49 33 50 34 51 47 53 67 54 36 55 21 56
REMARK SMILES IDX 22 57 30 58 23 59 29 60 24 61 25 62 26 63 27 64 28 65 51 66
REMARK SMILES IDX 52 67 60 68 53 69 59 70 54 71 55 72 56 73 57 74 58 75 37 76
REMARK SMILES IDX 38 77 46 78 39 79 45 80 40 81 41 82 42 83 43 84 44 85
REMARK H PARENT 5 6 9 22 65 41 35 52
REMARK Flexibility Score: inf
ROOT
ATOM      1  C   UNL A   1      41.651  20.402  26.458  1.00  0.00     0.042 C 
ENDROOT
BRANCH   1   2
ATOM      2  C   UNL A   1      42.965  20.865  25.832  1.00  0.00     0.117 C 
BRANCH   2   3
ATOM      3  N   UNL A   1      43.771  21.637  26.758  1.00  0.00    -0.356 N 
ATOM      4  C   UNL A   1      44.547  22.742  26.564  1.00  0.00     0.227 C 
ATOM      5  O   UNL A   1      45.105  23.193  27.566  1.00  0.00    -0.274 OA
ATOM      6  H   UNL A   1      43.756  21.307  27.686  1.00  0.00     0.163 HD
BRANCH   4   7
ATOM      7  C   UNL A   1      44.673  23.373  25.157  1.00  0.00     0.107 C 
ATOM      8  C   UNL A   1      45.675  22.634  24.269  1.00  0.00     0.023 C 
BRANCH   7   9
ATOM      9  C   UNL A   1      45.024  24.859  25.175  1.00  0.00    -0.019 A 
ATOM     10  C   UNL A   1      46.405  25.285  25.019  1.00  0.00     0.012 A 
ATOM     11  C   UNL A   1      44.080  25.812  25.285  1.00  0.00     0.099 A 
ATOM     12  C   UNL A   1      46.744  26.579  25.055  1.00  0.00     0.072 A 
ATOM     13  N   UNL A   1      44.396  27.161  25.270  1.00  0.00    -0.258 N 
ATOM     14  C   UNL A   1      45.700  27.623  25.204  1.00  0.00     0.254 A 
ATOM     15  O   UNL A   1      46.046  28.802  25.241  1.00  0.00    -0.269 OA
BRANCH  13  16
ATOM     16  C   UNL A   1      43.358  28.154  25.346  1.00  0.00     0.451 C 
ATOM     17  F   UNL A   1      42.221  27.721  24.749  1.00  0.00    -0.185 F 
ATOM     18  F   UNL A   1      43.064  28.463  26.634  1.00  0.00    -0.185 F 
ENDBRANCH  13  16
ENDBRANCH   7   9
ENDBRANCH   4   7
ENDBRANCH   2   3
ENDBRANCH   1   2
BRANCH   1  19
ATOM     19  C   UNL A   1      40.793  21.519  27.047  1.00  0.00     0.118 C 
BRANCH  19  20
ATOM     20  N   UNL A   1      39.632  21.828  26.230  1.00  0.00    -0.352 N 
ATOM     21  C   UNL A   1      38.868  22.966  26.153  1.00  0.00     0.251 C 
ATOM     22  H   UNL A   1      39.344  21.100  25.633  1.00  0.00     0.163 HD
ATOM     23  O   UNL A   1      37.814  22.925  25.522  1.00  0.00    -0.269 OA
BRANCH  21  24
ATOM     24  C   UNL A   1      39.279  24.222  26.824  1.00  0.00     0.039 A 
ATOM     25  C   UNL A   1      38.829  24.454  28.126  1.00  0.00     0.014 A 
ATOM     26  C   UNL A   1      40.049  25.194  26.176  1.00  0.00     0.014 A 
ATOM     27  C   UNL A   1      39.191  25.628  28.792  1.00  0.00     0.010 A 
ATOM     28  C   UNL A   1      40.476  26.327  26.871  1.00  0.00     0.010 A 
ATOM     29  C   UNL A   1      40.046  26.562  28.184  1.00  0.00    -0.014 A 
BRANCH  29  30
ATOM     30  C   UNL A   1      40.500  27.765  28.933  1.00  0.00     0.031 A 
ATOM     31  C   UNL A   1      41.877  27.829  29.541  1.00  0.00     0.074 A 
ATOM     32  C   UNL A   1      39.654  28.807  29.078  1.00  0.00     0.049 A 
ATOM     33  N   UNL A   1      42.449  28.820  30.178  1.00  0.00    -0.248 NA
ATOM     34  C   UNL A   1      42.712  26.622  29.439  1.00  0.00     0.031 C 
ATOM     35  C   UNL A   1      38.276  28.850  28.582  1.00  0.00     0.029 A 
ATOM     36  N   UNL A   1      39.832  30.032  29.670  1.00  0.00    -0.354 N 
ATOM     37  C   UNL A   1      43.705  28.357  30.555  1.00  0.00     0.074 A 
ATOM     38  C   UNL A   1      43.789  26.977  30.125  1.00  0.00     0.031 C 
ATOM     39  C   UNL A   1      37.751  30.056  28.848  1.00  0.00     0.029 A 
ATOM     40  C   UNL A   1      38.735  30.857  29.567  1.00  0.00     0.049 A 
ATOM     41  H   UNL A   1      40.664  30.296  30.124  1.00  0.00     0.167 HD
ATOM     42  C   UNL A   1      44.707  29.023  31.179  1.00  0.00     0.031 A 
ATOM     43  C   UNL A   1      38.541  32.119  29.997  1.00  0.00     0.031 A 
ATOM     44  C   UNL A   1      44.619  30.395  31.610  1.00  0.00     0.049 A 
ATOM     45  C   UNL A   1      39.665  32.834  30.694  1.00  0.00     0.074 A 
ATOM     46  C   UNL A   1      45.595  31.175  32.206  1.00  0.00     0.029 A 
ATOM     47  N   UNL A   1      43.489  31.192  31.499  1.00  0.00    -0.354 N 
ATOM     48  N   UNL A   1      40.873  32.403  30.970  1.00  0.00    -0.248 NA
ATOM     49  C   UNL A   1      39.403  34.215  31.123  1.00  0.00     0.031 C 
ATOM     50  C   UNL A   1      45.037  32.421  32.511  1.00  0.00     0.029 A 
ATOM     51  C   UNL A   1      43.734  32.443  32.041  1.00  0.00     0.049 A 
ATOM     52  H   UNL A   1      42.637  30.909  31.093  1.00  0.00     0.167 HD
ATOM     53  C   UNL A   1      41.523  33.468  31.585  1.00  0.00     0.074 A 
ATOM     54  C   UNL A   1      40.582  34.570  31.614  1.00  0.00     0.031 C 
ATOM     55  C   UNL A   1      42.784  33.527  32.082  1.00  0.00     0.031 A 
BRANCH  42  56
ATOM     56  C   UNL A   1      45.989  28.272  31.442  1.00  0.00    -0.014 A 
ATOM     57  C   UNL A   1      46.160  27.510  32.612  1.00  0.00     0.010 A 
ATOM     58  C   UNL A   1      47.021  28.290  30.484  1.00  0.00     0.010 A 
ATOM     59  C   UNL A   1      47.350  26.814  32.839  1.00  0.00     0.020 A 
ATOM     60  C   UNL A   1      48.201  27.569  30.694  1.00  0.00     0.020 A 
ATOM     61  C   UNL A   1      48.365  26.850  31.879  1.00  0.00     0.054 A 
BRANCH  61  62
ATOM     62  S   UNL A   1      49.889  25.917  32.191  1.00  0.00     0.124 S 
ATOM     63  O   UNL A   1      49.609  25.309  33.489  1.00  0.00    -0.237 OA
ATOM     64  O   UNL A   1      49.935  24.992  31.062  1.00  0.00    -0.237 OA
ATOM     65  O   UNL A   1      50.930  26.943  32.196  1.00  0.00    -0.744 OA
ENDBRANCH  61  62
ENDBRANCH  42  56
BRANCH  43  66
ATOM     66  C   UNL A   1      37.233  32.791  29.763  1.00  0.00    -0.014 A 
ATOM     67  C   UNL A   1      36.328  32.992  30.820  1.00  0.00     0.010 A 
ATOM     68  C   UNL A   1      36.890  33.246  28.476  1.00  0.00     0.010 A 
ATOM     69  C   UNL A   1      35.098  33.616  30.592  1.00  0.00     0.020 A 
ATOM     70  C   UNL A   1      35.676  33.900  28.250  1.00  0.00     0.020 A 
ATOM     71  C   UNL A   1      34.782  34.071  29.309  1.00  0.00     0.054 A 
BRANCH  71  72
ATOM     72  S   UNL A   1      33.205  34.927  29.047  1.00  0.00     0.124 S 
ATOM     73  O   UNL A   1      32.587  34.116  28.002  1.00  0.00    -0.237 OA
ATOM     74  O   UNL A   1      32.581  34.847  30.365  1.00  0.00    -0.237 OA
ATOM     75  O   UNL A   1      33.610  36.272  28.640  1.00  0.00    -0.744 OA
ENDBRANCH  71  72
ENDBRANCH  43  66
BRANCH  55  76
ATOM     76  C   UNL A   1      43.225  34.839  32.680  1.00  0.00    -0.014 A 
ATOM     77  C   UNL A   1      43.047  35.116  34.048  1.00  0.00     0.010 A 
ATOM     78  C   UNL A   1      43.841  35.804  31.863  1.00  0.00     0.010 A 
ATOM     79  C   UNL A   1      43.426  36.354  34.574  1.00  0.00     0.020 A 
ATOM     80  C   UNL A   1      44.253  37.030  32.392  1.00  0.00     0.020 A 
ATOM     81  C   UNL A   1      44.021  37.306  33.740  1.00  0.00     0.054 A 
BRANCH  81  82
ATOM     82  S   UNL A   1      44.509  38.902  34.448  1.00  0.00     0.124 S 
ATOM     83  O   UNL A   1      44.555  38.600  35.875  1.00  0.00    -0.237 OA
ATOM     84  O   UNL A   1      45.802  39.152  33.815  1.00  0.00    -0.237 OA
ATOM     85  O   UNL A   1      43.436  39.806  34.037  1.00  0.00    -0.744 OA
ENDBRANCH  81  82
ENDBRANCH  55  76
ENDBRANCH  29  30
ENDBRANCH  21  24
ENDBRANCH  19  20
ENDBRANCH   1  19
TORSDOF 15
ENDMDL
MODEL 3
REMARK VINA RESULT:     -10.3      3.721      9.215
REMARK SMILES C[C@@H](C(=O)NCCCNC(=O)c1ccc(-c2c3nc(c(-c4ccc(S(=O)(=O)[O-])cc4)c4ccc([nH]4)c(-c4ccc(S(=O)(=O)[O-])cc4)c4nc(c(-c5ccc(S(=O)(=O)[O-])cc5)c5ccc2[nH]5)C=C4)C=C3)cc1)c1ccc(=O)n(C(F)F)c1
REMARK SMILES IDX 7 1 6 2 5 3 3 4 4 5 2 7 1 8 72 9 73 10 81 11 74 12 77 13
REMARK SMILES IDX 75 14 76 15 78 16 79 17 80 18 8 19 9 20 10 21 11 23 12 24
REMARK SMILES IDX 13 25 71 26 14 27 70 28 15 29 16 30 17 31 64 32 18 33 69 34
REMARK SMILES IDX 63 35 65 36 19 37 68 38 62 39 61 40 20 42 50 43 31 44 49 45
REMARK SMILES IDX 32 46 35 47 48 48 66 49 33 50 34 51 47 53 67 54 36 55 21 56
REMARK SMILES IDX 22 57 30 58 23 59 29 60 24 61 25 62 26 63 27 64 28 65 51 66
REMARK SMILES IDX 52 67 60 68 53 69 59 70 54 71 55 72 56 73 57 74 58 75 37 76
REMARK SMILES IDX 38 77 46 78 39 79 45 80 40 81 41 82 42 83 43 84 44 85
REMARK H PARENT 5 6 9 22 65 41 35 52
REMARK Flexibility Score: inf
ROOT
ATOM      1  C   UNL A   1      37.793  20.616  25.066  1.00  0.00     0.042 C 
ENDROOT
BRANCH   1   2
ATOM      2  C   UNL A   1      36.619  21.592  25.124  1.00  0.00     0.117 C 
BRANCH   2   3
ATOM      3  N   UNL A   1      35.828  21.427  26.329  1.00  0.00    -0.356 N 
ATOM      4  C   UNL A   1      34.487  21.553  26.544  1.00  0.00     0.227 C 
ATOM      5  O   UNL A   1      34.100  21.325  27.692  1.00  0.00    -0.274 OA
ATOM      6  H   UNL A   1      36.349  21.181  27.127  1.00  0.00     0.163 HD
BRANCH   4   7
ATOM      7  C   UNL A   1      33.541  21.939  25.383  1.00  0.00     0.107 C 
ATOM      8  C   UNL A   1      32.249  22.596  25.871  1.00  0.00     0.023 C 
BRANCH   7   9
ATOM      9  C   UNL A   1      33.188  20.775  24.459  1.00  0.00    -0.019 A 
ATOM     10  C   UNL A   1      32.444  21.014  23.235  1.00  0.00     0.012 A 
ATOM     11  C   UNL A   1      33.589  19.516  24.717  1.00  0.00     0.099 A 
ATOM     12  C   UNL A   1      32.100  20.009  22.420  1.00  0.00     0.072 A 
ATOM     13  N   UNL A   1      33.295  18.465  23.864  1.00  0.00    -0.258 N 
ATOM     14  C   UNL A   1      32.522  18.619  22.725  1.00  0.00     0.254 A 
ATOM     15  O   UNL A   1      32.184  17.719  21.959  1.00  0.00    -0.269 OA
BRANCH  13  16
ATOM     16  C   UNL A   1      33.775  17.139  24.148  1.00  0.00     0.451 C 
ATOM     17  F   UNL A   1      32.752  16.293  24.418  1.00  0.00    -0.185 F 
ATOM     18  F   UNL A   1      34.473  16.632  23.100  1.00  0.00    -0.185 F 
ENDBRANCH  13  16
ENDBRANCH   7   9
ENDBRANCH   4   7
ENDBRANCH   2   3
ENDBRANCH   1   2
BRANCH   1  19
ATOM     19  C   UNL A   1      39.025  21.049  25.858  1.00  0.00     0.118 C 
BRANCH  19  20
ATOM     20  N   UNL A   1      40.043  20.015  25.927  1.00  0.00    -0.352 N 
ATOM     21  C   UNL A   1      41.399  20.106  26.117  1.00  0.00     0.251 C 
ATOM     22  H   UNL A   1      39.704  19.097  25.820  1.00  0.00     0.163 HD
ATOM     23  O   UNL A   1      42.084  19.100  25.948  1.00  0.00    -0.269 OA
BRANCH  21  24
ATOM     24  C   UNL A   1      42.045  21.383  26.499  1.00  0.00     0.039 A 
ATOM     25  C   UNL A   1      42.306  22.319  25.494  1.00  0.00     0.014 A 
ATOM     26  C   UNL A   1      42.446  21.652  27.812  1.00  0.00     0.014 A 
ATOM     27  C   UNL A   1      42.918  23.534  25.812  1.00  0.00     0.010 A 
ATOM     28  C   UNL A   1      42.982  22.899  28.141  1.00  0.00     0.010 A 
ATOM     29  C   UNL A   1      43.232  23.851  27.144  1.00  0.00    -0.014 A 
BRANCH  29  30
ATOM     30  C   UNL A   1      43.799  25.184  27.486  1.00  0.00     0.031 A 
ATOM     31  C   UNL A   1      45.253  25.496  27.242  1.00  0.00     0.074 A 
ATOM     32  C   UNL A   1      42.996  26.119  28.034  1.00  0.00     0.049 A 
ATOM     33  N   UNL A   1      45.895  26.621  27.432  1.00  0.00    -0.248 NA
ATOM     34  C   UNL A   1      46.099  24.401  26.741  1.00  0.00     0.031 C 
ATOM     35  C   UNL A   1      41.582  25.926  28.369  1.00  0.00     0.029 A 
ATOM     36  N   UNL A   1      43.247  27.420  28.394  1.00  0.00    -0.354 N 
ATOM     37  C   UNL A   1      47.216  26.370  27.077  1.00  0.00     0.074 A 
ATOM     38  C   UNL A   1      47.295  24.971  26.717  1.00  0.00     0.031 C 
ATOM     39  C   UNL A   1      41.081  27.079  28.839  1.00  0.00     0.029 A 
ATOM     40  C   UNL A   1      42.141  28.080  28.879  1.00  0.00     0.049 A 
ATOM     41  H   UNL A   1      44.133  27.841  28.312  1.00  0.00     0.167 HD
ATOM     42  C   UNL A   1      48.264  27.229  27.033  1.00  0.00     0.031 A 
ATOM     43  C   UNL A   1      41.992  29.350  29.303  1.00  0.00     0.031 A 
ATOM     44  C   UNL A   1      48.184  28.621  27.397  1.00  0.00     0.049 A 
ATOM     45  C   UNL A   1      43.171  30.281  29.252  1.00  0.00     0.074 A 
ATOM     46  C   UNL A   1      49.176  29.585  27.338  1.00  0.00     0.029 A 
ATOM     47  N   UNL A   1      47.051  29.248  27.894  1.00  0.00    -0.354 N 
ATOM     48  N   UNL A   1      44.393  30.044  28.838  1.00  0.00    -0.248 NA
ATOM     49  C   UNL A   1      42.944  31.659  29.709  1.00  0.00     0.031 C 
ATOM     50  C   UNL A   1      48.661  30.778  27.858  1.00  0.00     0.029 A 
ATOM     51  C   UNL A   1      47.327  30.577  28.174  1.00  0.00     0.049 A 
ATOM     52  H   UNL A   1      46.178  28.812  28.028  1.00  0.00     0.167 HD
ATOM     53  C   UNL A   1      45.076  31.249  28.964  1.00  0.00     0.074 A 
ATOM     54  C   UNL A   1      44.121  32.218  29.466  1.00  0.00     0.031 C 
ATOM     55  C   UNL A   1      46.375  31.528  28.691  1.00  0.00     0.031 A 
BRANCH  42  56
ATOM     56  C   UNL A   1      49.596  26.685  26.578  1.00  0.00    -0.014 A 
ATOM     57  C   UNL A   1      50.447  26.006  27.469  1.00  0.00     0.010 A 
ATOM     58  C   UNL A   1      49.982  26.811  25.230  1.00  0.00     0.010 A 
ATOM     59  C   UNL A   1      51.675  25.502  27.032  1.00  0.00     0.020 A 
ATOM     60  C   UNL A   1      51.196  26.280  24.783  1.00  0.00     0.020 A 
ATOM     61  C   UNL A   1      52.043  25.643  25.692  1.00  0.00     0.054 A 
BRANCH  61  62
ATOM     62  S   UNL A   1      53.632  24.957  25.149  1.00  0.00     0.124 S 
ATOM     63  O   UNL A   1      53.364  23.521  25.176  1.00  0.00    -0.237 OA
ATOM     64  O   UNL A   1      53.795  25.540  23.820  1.00  0.00    -0.237 OA
ATOM     65  O   UNL A   1      54.578  25.432  26.156  1.00  0.00    -0.744 OA
ENDBRANCH  61  62
ENDBRANCH  42  56
BRANCH  43  66
ATOM     66  C   UNL A   1      40.667  29.816  29.799  1.00  0.00    -0.014 A 
ATOM     67  C   UNL A   1      39.617  30.082  28.903  1.00  0.00     0.010 A 
ATOM     68  C   UNL A   1      40.446  29.984  31.179  1.00  0.00     0.010 A 
ATOM     69  C   UNL A   1      38.378  30.526  29.374  1.00  0.00     0.020 A 
ATOM     70  C   UNL A   1      39.199  30.395  31.656  1.00  0.00     0.020 A 
ATOM     71  C   UNL A   1      38.175  30.675  30.749  1.00  0.00     0.054 A 
BRANCH  71  72
ATOM     72  S   UNL A   1      36.543  31.200  31.342  1.00  0.00     0.124 S 
ATOM     73  O   UNL A   1      36.890  32.221  32.326  1.00  0.00    -0.237 OA
ATOM     74  O   UNL A   1      35.905  31.685  30.121  1.00  0.00    -0.237 OA
ATOM     75  O   UNL A   1      35.968  29.972  31.889  1.00  0.00    -0.744 OA
ENDBRANCH  71  72
ENDBRANCH  43  66
BRANCH  55  76
ATOM     76  C   UNL A   1      46.833  32.948  28.910  1.00  0.00    -0.014 A 
ATOM     77  C   UNL A   1      46.727  33.916  27.895  1.00  0.00     0.010 A 
ATOM     78  C   UNL A   1      47.363  33.322  30.158  1.00  0.00     0.010 A 
ATOM     79  C   UNL A   1      47.195  35.216  28.106  1.00  0.00     0.020 A 
ATOM     80  C   UNL A   1      47.800  34.630  30.385  1.00  0.00     0.020 A 
ATOM     81  C   UNL A   1      47.735  35.563  29.348  1.00  0.00     0.054 A 
BRANCH  81  82
ATOM     82  S   UNL A   1      48.330  37.257  29.599  1.00  0.00     0.124 S 
ATOM     83  O   UNL A   1      49.681  37.032  30.105  1.00  0.00    -0.237 OA
ATOM     84  O   UNL A   1      48.249  37.827  28.256  1.00  0.00    -0.237 OA
ATOM     85  O   UNL A   1      47.388  37.816  30.565  1.00  0.00    -0.744 OA
ENDBRANCH  81  82
ENDBRANCH  55  76
ENDBRANCH  29  30
ENDBRANCH  21  24
ENDBRANCH  19  20
ENDBRANCH   1  19
TORSDOF 15
ENDMDL
