MODEL 1
REMARK VINA RESULT:     -10.1      0.000      0.000
REMARK SMILES C[C@H](NC(=O)c1ccc(C(C)(C)C)cc1)C(=O)N[C@@H](C(=O)OCCOC(=O)c1ccc(-c2c3nc(c(-c4ccc(S(=O)(=O)[O-])cc4)c4ccc([nH]4)c(-c4ccc(S(=O)(=O)[O-])cc4)c4nc(c(-c5ccc(S(=O)(=O)[O-])cc5)c5ccc2[nH]5)C=C4)C=C3)cc1)[C@H](C)O
REMARK SMILES IDX 23 1 22 2 20 3 21 4 19 5 18 6 16 7 17 8 2 10 1 11 3 12 4 13
REMARK SMILES IDX 5 15 6 16 7 17 15 18 8 19 14 20 9 21 10 22 11 23 12 24 13 25
REMARK SMILES IDX 88 26 89 27 90 28 24 30 25 31 26 32 27 33 28 34 29 35 87 36
REMARK SMILES IDX 30 37 86 38 31 39 32 40 33 41 80 42 34 43 85 44 79 45 81 46
REMARK SMILES IDX 35 47 84 48 78 49 77 50 36 52 66 53 47 54 65 55 48 56 51 57
REMARK SMILES IDX 64 58 82 59 49 60 50 61 63 63 83 64 52 65 37 66 38 67 46 68
REMARK SMILES IDX 39 69 45 70 40 71 41 72 42 73 43 74 44 75 67 76 68 77 76 78
REMARK SMILES IDX 69 79 75 80 70 81 71 82 72 83 73 84 74 85 53 86 54 87 62 88
REMARK SMILES IDX 55 89 61 90 56 91 57 92 58 93 59 94 60 95
REMARK H PARENT 18 9 3 14 90 29 81 51 51 62
REMARK Flexibility Score: inf
ROOT
ATOM      1  C   UNL A   1      34.353  31.628  27.737  1.00  0.00     0.274 C 
ENDROOT
BRANCH   1   2
ATOM      2  O   UNL A   1      34.015  30.368  27.119  1.00  0.00    -0.460 OA
BRANCH   2   3
ATOM      3  C   UNL A   1      32.748  30.259  26.636  1.00  0.00     0.331 C 
ATOM      4  O   UNL A   1      31.857  31.075  26.843  1.00  0.00    -0.250 OA
BRANCH   3   5
ATOM      5  C   UNL A   1      32.543  29.022  25.748  1.00  0.00     0.221 C 
BRANCH   5   6
ATOM      6  N   UNL A   1      31.577  28.042  26.257  1.00  0.00    -0.339 N 
ATOM      7  C   UNL A   1      30.806  27.146  25.579  1.00  0.00     0.243 C 
ATOM      8  O   UNL A   1      30.172  26.306  26.221  1.00  0.00    -0.273 OA
ATOM      9  H   UNL A   1      31.469  28.031  27.235  1.00  0.00     0.164 HD
BRANCH   7  10
ATOM     10  C   UNL A   1      30.735  27.179  24.039  1.00  0.00     0.168 C 
ATOM     11  C   UNL A   1      30.115  28.482  23.530  1.00  0.00     0.041 C 
BRANCH  10  12
ATOM     12  N   UNL A   1      30.090  25.934  23.597  1.00  0.00    -0.341 N 
ATOM     13  C   UNL A   1      30.572  24.656  23.498  1.00  0.00     0.251 C 
ATOM     14  H   UNL A   1      29.149  26.037  23.325  1.00  0.00     0.164 HD
ATOM     15  O   UNL A   1      29.831  23.739  23.159  1.00  0.00    -0.269 OA
BRANCH  13  16
ATOM     16  C   UNL A   1      32.004  24.403  23.721  1.00  0.00     0.039 A 
ATOM     17  C   UNL A   1      32.417  24.069  25.008  1.00  0.00     0.014 A 
ATOM     18  C   UNL A   1      32.916  24.423  22.669  1.00  0.00     0.014 A 
ATOM     19  C   UNL A   1      33.726  23.635  25.216  1.00  0.00     0.005 A 
ATOM     20  C   UNL A   1      34.220  23.970  22.883  1.00  0.00     0.005 A 
ATOM     21  C   UNL A   1      34.636  23.511  24.147  1.00  0.00    -0.043 A 
BRANCH  21  22
ATOM     22  C   UNL A   1      36.029  22.896  24.376  1.00  0.00    -0.013 C 
ATOM     23  C   UNL A   1      36.777  23.747  25.416  1.00  0.00     0.016 C 
ATOM     24  C   UNL A   1      35.918  21.441  24.892  1.00  0.00     0.016 C 
ATOM     25  C   UNL A   1      36.882  22.833  23.087  1.00  0.00     0.016 C 
ENDBRANCH  21  22
ENDBRANCH  13  16
ENDBRANCH  10  12
ENDBRANCH   7  10
ENDBRANCH   5   6
BRANCH   5  26
ATOM     26  C   UNL A   1      33.896  28.329  25.486  1.00  0.00     0.145 C 
ATOM     27  C   UNL A   1      34.026  27.802  24.061  1.00  0.00     0.041 C 
BRANCH  26  28
ATOM     28  O   UNL A   1      34.079  27.197  26.342  1.00  0.00    -0.391 OA
ATOM     29  H   UNL A   1      33.375  26.550  26.178  1.00  0.00     0.211 HD
ENDBRANCH  26  28
ENDBRANCH   5  26
ENDBRANCH   3   5
ENDBRANCH   2   3
ENDBRANCH   1   2
BRANCH   1  30
ATOM     30  C   UNL A   1      35.214  31.441  28.990  1.00  0.00     0.275 C 
BRANCH  30  31
ATOM     31  O   UNL A   1      36.509  30.891  28.673  1.00  0.00    -0.458 OA
BRANCH  31  32
ATOM     32  C   UNL A   1      36.870  29.832  29.431  1.00  0.00     0.338 C 
ATOM     33  O   UNL A   1      36.245  29.359  30.368  1.00  0.00    -0.246 OA
BRANCH  32  34
ATOM     34  C   UNL A   1      38.043  29.134  28.881  1.00  0.00     0.060 A 
ATOM     35  C   UNL A   1      38.814  28.395  29.767  1.00  0.00     0.016 A 
ATOM     36  C   UNL A   1      38.558  29.486  27.634  1.00  0.00     0.016 A 
ATOM     37  C   UNL A   1      40.164  28.181  29.495  1.00  0.00     0.010 A 
ATOM     38  C   UNL A   1      39.872  29.124  27.302  1.00  0.00     0.010 A 
ATOM     39  C   UNL A   1      40.723  28.537  28.258  1.00  0.00    -0.014 A 
BRANCH  39  40
ATOM     40  C   UNL A   1      42.193  28.378  28.009  1.00  0.00     0.031 A 
ATOM     41  C   UNL A   1      43.163  29.472  28.405  1.00  0.00     0.074 A 
ATOM     42  C   UNL A   1      42.695  27.245  27.470  1.00  0.00     0.049 A 
ATOM     43  N   UNL A   1      44.422  29.624  28.070  1.00  0.00    -0.248 NA
ATOM     44  C   UNL A   1      42.647  30.547  29.270  1.00  0.00     0.031 C 
ATOM     45  C   UNL A   1      41.921  26.062  27.087  1.00  0.00     0.029 A 
ATOM     46  N   UNL A   1      43.991  26.895  27.169  1.00  0.00    -0.354 N 
ATOM     47  C   UNL A   1      44.815  30.851  28.599  1.00  0.00     0.074 A 
ATOM     48  C   UNL A   1      43.666  31.397  29.289  1.00  0.00     0.031 C 
ATOM     49  C   UNL A   1      42.757  25.097  26.676  1.00  0.00     0.029 A 
ATOM     50  C   UNL A   1      44.114  25.627  26.648  1.00  0.00     0.049 A 
ATOM     51  H   UNL A   1      44.758  27.494  27.313  1.00  0.00     0.167 HD
ATOM     52  C   UNL A   1      46.018  31.471  28.512  1.00  0.00     0.031 A 
ATOM     53  C   UNL A   1      45.180  24.971  26.151  1.00  0.00     0.031 A 
ATOM     54  C   UNL A   1      47.191  30.891  27.907  1.00  0.00     0.049 A 
ATOM     55  C   UNL A   1      46.509  25.665  26.079  1.00  0.00     0.074 A 
ATOM     56  C   UNL A   1      48.454  31.443  27.771  1.00  0.00     0.029 A 
ATOM     57  N   UNL A   1      47.258  29.612  27.377  1.00  0.00    -0.354 N 
ATOM     58  N   UNL A   1      46.826  26.876  26.468  1.00  0.00    -0.248 NA
ATOM     59  C   UNL A   1      47.617  24.909  25.480  1.00  0.00     0.031 C 
ATOM     60  C   UNL A   1      49.278  30.505  27.138  1.00  0.00     0.029 A 
ATOM     61  C   UNL A   1      48.540  29.355  26.921  1.00  0.00     0.049 A 
ATOM     62  H   UNL A   1      46.503  28.980  27.332  1.00  0.00     0.167 HD
ATOM     63  C   UNL A   1      48.175  27.025  26.167  1.00  0.00     0.074 A 
ATOM     64  C   UNL A   1      48.617  25.774  25.588  1.00  0.00     0.031 C 
ATOM     65  C   UNL A   1      48.971  28.107  26.345  1.00  0.00     0.031 A 
BRANCH  52  66
ATOM     66  C   UNL A   1      46.122  32.879  29.043  1.00  0.00    -0.014 A 
ATOM     67  C   UNL A   1      45.852  34.000  28.240  1.00  0.00     0.010 A 
ATOM     68  C   UNL A   1      46.457  33.074  30.397  1.00  0.00     0.010 A 
ATOM     69  C   UNL A   1      45.957  35.291  28.770  1.00  0.00     0.020 A 
ATOM     70  C   UNL A   1      46.536  34.360  30.937  1.00  0.00     0.020 A 
ATOM     71  C   UNL A   1      46.304  35.463  30.114  1.00  0.00     0.054 A 
BRANCH  71  72
ATOM     72  S   UNL A   1      46.416  37.145  30.786  1.00  0.00     0.124 S 
ATOM     73  O   UNL A   1      46.292  36.904  32.222  1.00  0.00    -0.237 OA
ATOM     74  O   UNL A   1      47.734  37.586  30.336  1.00  0.00    -0.237 OA
ATOM     75  O   UNL A   1      45.288  37.839  30.171  1.00  0.00    -0.744 OA
ENDBRANCH  71  72
ENDBRANCH  52  66
BRANCH  53  76
ATOM     76  C   UNL A   1      45.014  23.587  25.625  1.00  0.00    -0.014 A 
ATOM     77  C   UNL A   1      44.669  23.369  24.280  1.00  0.00     0.010 A 
ATOM     78  C   UNL A   1      45.232  22.480  26.465  1.00  0.00     0.010 A 
ATOM     79  C   UNL A   1      44.544  22.067  23.786  1.00  0.00     0.020 A 
ATOM     80  C   UNL A   1      45.141  21.179  25.966  1.00  0.00     0.020 A 
ATOM     81  C   UNL A   1      44.787  20.981  24.631  1.00  0.00     0.054 A 
BRANCH  81  82
ATOM     82  S   UNL A   1      44.705  19.300  23.953  1.00  0.00     0.124 S 
ATOM     83  O   UNL A   1      43.548  18.749  24.649  1.00  0.00    -0.237 OA
ATOM     84  O   UNL A   1      44.529  19.540  22.522  1.00  0.00    -0.237 OA
ATOM     85  O   UNL A   1      45.995  18.722  24.323  1.00  0.00    -0.744 OA
ENDBRANCH  81  82
ENDBRANCH  53  76
BRANCH  65  86
ATOM     86  C   UNL A   1      50.414  27.964  25.948  1.00  0.00    -0.014 A 
ATOM     87  C   UNL A   1      51.389  27.554  26.875  1.00  0.00     0.010 A 
ATOM     88  C   UNL A   1      50.799  28.240  24.624  1.00  0.00     0.010 A 
ATOM     89  C   UNL A   1      52.732  27.471  26.497  1.00  0.00     0.020 A 
ATOM     90  C   UNL A   1      52.136  28.137  24.237  1.00  0.00     0.020 A 
ATOM     91  C   UNL A   1      53.098  27.772  25.181  1.00  0.00     0.054 A 
BRANCH  91  92
ATOM     92  S   UNL A   1      54.845  27.657  24.708  1.00  0.00     0.124 S 
ATOM     93  O   UNL A   1      54.891  26.363  24.034  1.00  0.00    -0.237 OA
ATOM     94  O   UNL A   1      55.024  28.822  23.844  1.00  0.00    -0.237 OA
ATOM     95  O   UNL A   1      55.553  27.721  25.983  1.00  0.00    -0.744 OA
ENDBRANCH  91  92
ENDBRANCH  65  86
ENDBRANCH  39  40
ENDBRANCH  32  34
ENDBRANCH  31  32
ENDBRANCH  30  31
ENDBRANCH   1  30
TORSDOF 21
ENDMDL
MODEL 2
REMARK VINA RESULT:      -9.5      8.213     14.281
REMARK SMILES C[C@H](NC(=O)c1ccc(C(C)(C)C)cc1)C(=O)N[C@@H](C(=O)OCCOC(=O)c1ccc(-c2c3nc(c(-c4ccc(S(=O)(=O)[O-])cc4)c4ccc([nH]4)c(-c4ccc(S(=O)(=O)[O-])cc4)c4nc(c(-c5ccc(S(=O)(=O)[O-])cc5)c5ccc2[nH]5)C=C4)C=C3)cc1)[C@H](C)O
REMARK SMILES IDX 23 1 22 2 20 3 21 4 19 5 18 6 16 7 17 8 2 10 1 11 3 12 4 13
REMARK SMILES IDX 5 15 6 16 7 17 15 18 8 19 14 20 9 21 10 22 11 23 12 24 13 25
REMARK SMILES IDX 88 26 89 27 90 28 24 30 25 31 26 32 27 33 28 34 29 35 87 36
REMARK SMILES IDX 30 37 86 38 31 39 32 40 33 41 80 42 34 43 85 44 79 45 81 46
REMARK SMILES IDX 35 47 84 48 78 49 77 50 36 52 66 53 47 54 65 55 48 56 51 57
REMARK SMILES IDX 64 58 82 59 49 60 50 61 63 63 83 64 52 65 37 66 38 67 46 68
REMARK SMILES IDX 39 69 45 70 40 71 41 72 42 73 43 74 44 75 67 76 68 77 76 78
REMARK SMILES IDX 69 79 75 80 70 81 71 82 72 83 73 84 74 85 53 86 54 87 62 88
REMARK SMILES IDX 55 89 61 90 56 91 57 92 58 93 59 94 60 95
REMARK H PARENT 18 9 3 14 90 29 81 51 51 62
REMARK Flexibility Score: inf
ROOT
ATOM      1  C   UNL A   1      45.918  23.347  39.472  1.00  0.00     0.274 C 
ENDROOT
BRANCH   1   2
ATOM      2  O   UNL A   1      46.337  22.243  40.303  1.00  0.00    -0.460 OA
BRANCH   2   3
ATOM      3  C   UNL A   1      46.184  21.001  39.771  1.00  0.00     0.331 C 
ATOM      4  O   UNL A   1      45.560  20.092  40.308  1.00  0.00    -0.250 OA
BRANCH   3   5
ATOM      5  C   UNL A   1      46.831  20.849  38.387  1.00  0.00     0.221 C 
BRANCH   5   6
ATOM      6  N   UNL A   1      46.148  19.925  37.475  1.00  0.00    -0.339 N 
ATOM      7  C   UNL A   1      45.846  20.069  36.154  1.00  0.00     0.243 C 
ATOM      8  O   UNL A   1      45.401  19.097  35.540  1.00  0.00    -0.273 OA
ATOM      9  H   UNL A   1      45.865  19.073  37.879  1.00  0.00     0.164 HD
BRANCH   7  10
ATOM     10  C   UNL A   1      46.062  21.419  35.442  1.00  0.00     0.168 C 
ATOM     11  C   UNL A   1      47.541  21.809  35.407  1.00  0.00     0.041 C 
BRANCH  10  12
ATOM     12  N   UNL A   1      45.145  22.394  36.050  1.00  0.00    -0.341 N 
ATOM     13  C   UNL A   1      44.488  23.469  35.514  1.00  0.00     0.251 C 
ATOM     14  H   UNL A   1      44.973  22.250  37.009  1.00  0.00     0.164 HD
ATOM     15  O   UNL A   1      43.707  24.124  36.197  1.00  0.00    -0.269 OA
BRANCH  13  16
ATOM     16  C   UNL A   1      44.785  23.884  34.133  1.00  0.00     0.039 A 
ATOM     17  C   UNL A   1      44.139  23.218  33.096  1.00  0.00     0.014 A 
ATOM     18  C   UNL A   1      45.630  24.958  33.866  1.00  0.00     0.014 A 
ATOM     19  C   UNL A   1      44.246  23.709  31.794  1.00  0.00     0.005 A 
ATOM     20  C   UNL A   1      45.717  25.454  32.562  1.00  0.00     0.005 A 
ATOM     21  C   UNL A   1      44.983  24.877  31.510  1.00  0.00    -0.043 A 
BRANCH  21  22
ATOM     22  C   UNL A   1      44.970  25.480  30.094  1.00  0.00    -0.013 C 
ATOM     23  C   UNL A   1      46.161  24.908  29.305  1.00  0.00     0.016 C 
ATOM     24  C   UNL A   1      43.655  25.137  29.353  1.00  0.00     0.016 C 
ATOM     25  C   UNL A   1      45.077  27.023  30.093  1.00  0.00     0.016 C 
ENDBRANCH  21  22
ENDBRANCH  13  16
ENDBRANCH  10  12
ENDBRANCH   7  10
ENDBRANCH   5   6
BRANCH   5  26
ATOM     26  C   UNL A   1      48.309  20.431  38.538  1.00  0.00     0.145 C 
ATOM     27  C   UNL A   1      48.473  18.970  38.942  1.00  0.00     0.041 C 
BRANCH  26  28
ATOM     28  O   UNL A   1      48.969  21.196  39.552  1.00  0.00    -0.391 OA
ATOM     29  H   UNL A   1      49.545  21.857  39.136  1.00  0.00     0.211 HD
ENDBRANCH  26  28
ENDBRANCH   5  26
ENDBRANCH   3   5
ENDBRANCH   2   3
ENDBRANCH   1   2
BRANCH   1  30
ATOM     30  C   UNL A   1      47.054  24.344  39.226  1.00  0.00     0.275 C 
BRANCH  30  31
ATOM     31  O   UNL A   1      46.553  25.656  38.895  1.00  0.00    -0.458 OA
BRANCH  31  32
ATOM     32  C   UNL A   1      46.670  25.988  37.590  1.00  0.00     0.338 C 
ATOM     33  O   UNL A   1      47.211  25.329  36.715  1.00  0.00    -0.246 OA
BRANCH  32  34
ATOM     34  C   UNL A   1      45.875  27.178  37.251  1.00  0.00     0.060 A 
ATOM     35  C   UNL A   1      44.558  27.208  37.689  1.00  0.00     0.016 A 
ATOM     36  C   UNL A   1      46.295  28.049  36.247  1.00  0.00     0.016 A 
ATOM     37  C   UNL A   1      43.615  27.960  36.992  1.00  0.00     0.010 A 
ATOM     38  C   UNL A   1      45.368  28.923  35.657  1.00  0.00     0.010 A 
ATOM     39  C   UNL A   1      43.997  28.835  35.964  1.00  0.00    -0.014 A 
BRANCH  39  40
ATOM     40  C   UNL A   1      42.964  29.574  35.166  1.00  0.00     0.031 A 
ATOM     41  C   UNL A   1      42.410  30.895  35.660  1.00  0.00     0.074 A 
ATOM     42  C   UNL A   1      42.535  29.109  33.972  1.00  0.00     0.049 A 
ATOM     43  N   UNL A   1      41.363  31.562  35.240  1.00  0.00    -0.248 NA
ATOM     44  C   UNL A   1      43.110  31.538  36.785  1.00  0.00     0.031 C 
ATOM     45  C   UNL A   1      43.004  27.890  33.308  1.00  0.00     0.029 A 
ATOM     46  N   UNL A   1      41.616  29.625  33.088  1.00  0.00    -0.354 N 
ATOM     47  C   UNL A   1      41.223  32.643  36.107  1.00  0.00     0.074 A 
ATOM     48  C   UNL A   1      42.302  32.551  37.067  1.00  0.00     0.031 C 
ATOM     49  C   UNL A   1      42.430  27.792  32.100  1.00  0.00     0.029 A 
ATOM     50  C   UNL A   1      41.461  28.871  31.948  1.00  0.00     0.049 A 
ATOM     51  H   UNL A   1      41.116  30.456  33.256  1.00  0.00     0.167 HD
ATOM     52  C   UNL A   1      40.281  33.619  36.109  1.00  0.00     0.031 A 
ATOM     53  C   UNL A   1      40.607  28.989  30.913  1.00  0.00     0.031 A 
ATOM     54  C   UNL A   1      39.262  33.768  35.100  1.00  0.00     0.049 A 
ATOM     55  C   UNL A   1      39.582  30.085  30.922  1.00  0.00     0.074 A 
ATOM     56  C   UNL A   1      38.262  34.724  35.018  1.00  0.00     0.029 A 
ATOM     57  N   UNL A   1      39.137  32.966  33.977  1.00  0.00    -0.354 N 
ATOM     58  N   UNL A   1      39.386  31.020  31.819  1.00  0.00    -0.248 NA
ATOM     59  C   UNL A   1      38.650  30.127  29.788  1.00  0.00     0.031 C 
ATOM     60  C   UNL A   1      37.520  34.485  33.856  1.00  0.00     0.029 A 
ATOM     61  C   UNL A   1      38.084  33.409  33.192  1.00  0.00     0.049 A 
ATOM     62  H   UNL A   1      39.713  32.195  33.767  1.00  0.00     0.167 HD
ATOM     63  C   UNL A   1      38.311  31.767  31.353  1.00  0.00     0.074 A 
ATOM     64  C   UNL A   1      37.917  31.191  30.085  1.00  0.00     0.031 C 
ATOM     65  C   UNL A   1      37.699  32.829  31.932  1.00  0.00     0.031 A 
BRANCH  52  66
ATOM     66  C   UNL A   1      40.272  34.583  37.268  1.00  0.00    -0.014 A 
ATOM     67  C   UNL A   1      39.551  34.325  38.446  1.00  0.00     0.010 A 
ATOM     68  C   UNL A   1      41.045  35.758  37.184  1.00  0.00     0.010 A 
ATOM     69  C   UNL A   1      39.569  35.244  39.501  1.00  0.00     0.020 A 
ATOM     70  C   UNL A   1      41.088  36.664  38.247  1.00  0.00     0.020 A 
ATOM     71  C   UNL A   1      40.333  36.410  39.392  1.00  0.00     0.054 A 
BRANCH  71  72
ATOM     72  S   UNL A   1      40.358  37.580  40.780  1.00  0.00     0.124 S 
ATOM     73  O   UNL A   1      41.246  38.625  40.278  1.00  0.00    -0.237 OA
ATOM     74  O   UNL A   1      38.953  37.959  40.910  1.00  0.00    -0.237 OA
ATOM     75  O   UNL A   1      40.890  36.790  41.889  1.00  0.00    -0.744 OA
ENDBRANCH  71  72
ENDBRANCH  52  66
BRANCH  53  76
ATOM     76  C   UNL A   1      40.651  27.997  29.803  1.00  0.00    -0.014 A 
ATOM     77  C   UNL A   1      39.824  26.861  29.825  1.00  0.00     0.010 A 
ATOM     78  C   UNL A   1      41.504  28.203  28.703  1.00  0.00     0.010 A 
ATOM     79  C   UNL A   1      39.849  25.950  28.765  1.00  0.00     0.020 A 
ATOM     80  C   UNL A   1      41.507  27.312  27.628  1.00  0.00     0.020 A 
ATOM     81  C   UNL A   1      40.686  26.184  27.671  1.00  0.00     0.054 A 
BRANCH  81  82
ATOM     82  S   UNL A   1      40.645  25.037  26.266  1.00  0.00     0.124 S 
ATOM     83  O   UNL A   1      41.175  25.862  25.186  1.00  0.00    -0.237 OA
ATOM     84  O   UNL A   1      41.510  23.949  26.715  1.00  0.00    -0.237 OA
ATOM     85  O   UNL A   1      39.230  24.689  26.155  1.00  0.00    -0.744 OA
ENDBRANCH  81  82
ENDBRANCH  53  76
BRANCH  65  86
ATOM     86  C   UNL A   1      36.566  33.462  31.172  1.00  0.00    -0.014 A 
ATOM     87  C   UNL A   1      36.764  34.012  29.893  1.00  0.00     0.010 A 
ATOM     88  C   UNL A   1      35.283  33.499  31.745  1.00  0.00     0.010 A 
ATOM     89  C   UNL A   1      35.707  34.635  29.222  1.00  0.00     0.020 A 
ATOM     90  C   UNL A   1      34.220  34.101  31.068  1.00  0.00     0.020 A 
ATOM     91  C   UNL A   1      34.444  34.683  29.819  1.00  0.00     0.054 A 
BRANCH  91  92
ATOM     92  S   UNL A   1      33.084  35.493  28.933  1.00  0.00     0.124 S 
ATOM     93  O   UNL A   1      32.506  34.382  28.184  1.00  0.00    -0.237 OA
ATOM     94  O   UNL A   1      32.257  36.018  30.018  1.00  0.00    -0.237 OA
ATOM     95  O   UNL A   1      33.755  36.508  28.124  1.00  0.00    -0.744 OA
ENDBRANCH  91  92
ENDBRANCH  65  86
ENDBRANCH  39  40
ENDBRANCH  32  34
ENDBRANCH  31  32
ENDBRANCH  30  31
ENDBRANCH   1  30
TORSDOF 21
ENDMDL
MODEL 3
REMARK VINA RESULT:      -9.3      5.016     10.465
REMARK SMILES C[C@H](NC(=O)c1ccc(C(C)(C)C)cc1)C(=O)N[C@@H](C(=O)OCCOC(=O)c1ccc(-c2c3nc(c(-c4ccc(S(=O)(=O)[O-])cc4)c4ccc([nH]4)c(-c4ccc(S(=O)(=O)[O-])cc4)c4nc(c(-c5ccc(S(=O)(=O)[O-])cc5)c5ccc2[nH]5)C=C4)C=C3)cc1)[C@H](C)O
REMARK SMILES IDX 23 1 22 2 20 3 21 4 19 5 18 6 16 7 17 8 2 10 1 11 3 12 4 13
REMARK SMILES IDX 5 15 6 16 7 17 15 18 8 19 14 20 9 21 10 22 11 23 12 24 13 25
REMARK SMILES IDX 88 26 89 27 90 28 24 30 25 31 26 32 27 33 28 34 29 35 87 36
REMARK SMILES IDX 30 37 86 38 31 39 32 40 33 41 80 42 34 43 85 44 79 45 81 46
REMARK SMILES IDX 35 47 84 48 78 49 77 50 36 52 66 53 47 54 65 55 48 56 51 57
REMARK SMILES IDX 64 58 82 59 49 60 50 61 63 63 83 64 52 65 37 66 38 67 46 68
REMARK SMILES IDX 39 69 45 70 40 71 41 72 42 73 43 74 44 75 67 76 68 77 76 78
REMARK SMILES IDX 69 79 75 80 70 81 71 82 72 83 73 84 74 85 53 86 54 87 62 88
REMARK SMILES IDX 55 89 61 90 56 91 57 92 58 93 59 94 60 95
REMARK H PARENT 18 9 3 14 90 29 81 51 51 62
REMARK Flexibility Score: inf
ROOT
ATOM      1  C   UNL A   1      35.575  33.216  33.275  1.00  0.00     0.274 C 
ENDROOT
BRANCH   1   2
ATOM      2  O   UNL A   1      35.462  34.335  32.370  1.00  0.00    -0.460 OA
BRANCH   2   3
ATOM      3  C   UNL A   1      34.359  34.352  31.574  1.00  0.00     0.331 C 
ATOM      4  O   UNL A   1      33.220  34.560  31.976  1.00  0.00    -0.250 OA
BRANCH   3   5
ATOM      5  C   UNL A   1      34.681  34.134  30.088  1.00  0.00     0.221 C 
BRANCH   5   6
ATOM      6  N   UNL A   1      36.109  34.116  29.754  1.00  0.00    -0.339 N 
ATOM      7  C   UNL A   1      36.850  33.146  29.149  1.00  0.00     0.243 C 
ATOM      8  O   UNL A   1      38.011  33.403  28.827  1.00  0.00    -0.273 OA
ATOM      9  H   UNL A   1      36.608  34.926  30.007  1.00  0.00     0.164 HD
BRANCH   7  10
ATOM     10  C   UNL A   1      36.244  31.756  28.869  1.00  0.00     0.168 C 
ATOM     11  C   UNL A   1      35.038  31.843  27.933  1.00  0.00     0.041 C 
BRANCH  10  12
ATOM     12  N   UNL A   1      36.017  31.101  30.166  1.00  0.00    -0.341 N 
ATOM     13  C   UNL A   1      36.692  30.090  30.795  1.00  0.00     0.251 C 
ATOM     14  H   UNL A   1      35.245  31.449  30.669  1.00  0.00     0.164 HD
ATOM     15  O   UNL A   1      36.365  29.732  31.922  1.00  0.00    -0.269 OA
BRANCH  13  16
ATOM     16  C   UNL A   1      37.764  29.380  30.079  1.00  0.00     0.039 A 
ATOM     17  C   UNL A   1      38.396  28.322  30.727  1.00  0.00     0.014 A 
ATOM     18  C   UNL A   1      38.093  29.701  28.765  1.00  0.00     0.014 A 
ATOM     19  C   UNL A   1      39.275  27.508  30.013  1.00  0.00     0.005 A 
ATOM     20  C   UNL A   1      38.961  28.869  28.052  1.00  0.00     0.005 A 
ATOM     21  C   UNL A   1      39.524  27.723  28.643  1.00  0.00    -0.043 A 
BRANCH  21  22
ATOM     22  C   UNL A   1      40.385  26.729  27.842  1.00  0.00    -0.013 C 
ATOM     23  C   UNL A   1      40.789  27.388  26.512  1.00  0.00     0.016 C 
ATOM     24  C   UNL A   1      41.660  26.337  28.626  1.00  0.00     0.016 C 
ATOM     25  C   UNL A   1      39.647  25.406  27.530  1.00  0.00     0.016 C 
ENDBRANCH  21  22
ENDBRANCH  13  16
ENDBRANCH  10  12
ENDBRANCH   7  10
ENDBRANCH   5   6
BRANCH   5  26
ATOM     26  C   UNL A   1      33.961  35.197  29.230  1.00  0.00     0.145 C 
ATOM     27  C   UNL A   1      32.831  34.613  28.390  1.00  0.00     0.041 C 
BRANCH  26  28
ATOM     28  O   UNL A   1      34.859  35.818  28.304  1.00  0.00    -0.391 OA
ATOM     29  H   UNL A   1      34.417  35.924  27.447  1.00  0.00     0.211 HD
ENDBRANCH  26  28
ENDBRANCH   5  26
ENDBRANCH   3   5
ENDBRANCH   2   3
ENDBRANCH   1   2
BRANCH   1  30
ATOM     30  C   UNL A   1      36.032  33.651  34.671  1.00  0.00     0.275 C 
BRANCH  30  31
ATOM     31  O   UNL A   1      37.454  33.488  34.844  1.00  0.00    -0.458 OA
BRANCH  31  32
ATOM     32  C   UNL A   1      37.875  32.204  34.859  1.00  0.00     0.338 C 
ATOM     33  O   UNL A   1      37.406  31.291  35.520  1.00  0.00    -0.246 OA
BRANCH  32  34
ATOM     34  C   UNL A   1      38.868  31.937  33.807  1.00  0.00     0.060 A 
ATOM     35  C   UNL A   1      40.166  31.662  34.215  1.00  0.00     0.016 A 
ATOM     36  C   UNL A   1      38.616  32.298  32.484  1.00  0.00     0.016 A 
ATOM     37  C   UNL A   1      41.232  31.940  33.362  1.00  0.00     0.010 A 
ATOM     38  C   UNL A   1      39.685  32.420  31.584  1.00  0.00     0.010 A 
ATOM     39  C   UNL A   1      41.017  32.322  32.030  1.00  0.00    -0.014 A 
BRANCH  39  40
ATOM     40  C   UNL A   1      42.170  32.700  31.147  1.00  0.00     0.031 A 
ATOM     41  C   UNL A   1      42.739  31.705  30.156  1.00  0.00     0.074 A 
ATOM     42  C   UNL A   1      42.701  33.942  31.180  1.00  0.00     0.049 A 
ATOM     43  N   UNL A   1      43.862  31.759  29.480  1.00  0.00    -0.248 NA
ATOM     44  C   UNL A   1      41.957  30.482  29.909  1.00  0.00     0.031 C 
ATOM     45  C   UNL A   1      42.241  35.048  32.023  1.00  0.00     0.029 A 
ATOM     46  N   UNL A   1      43.738  34.492  30.463  1.00  0.00    -0.354 N 
ATOM     47  C   UNL A   1      43.965  30.543  28.810  1.00  0.00     0.074 A 
ATOM     48  C   UNL A   1      42.784  29.777  29.148  1.00  0.00     0.031 C 
ATOM     49  C   UNL A   1      42.937  36.155  31.724  1.00  0.00     0.029 A 
ATOM     50  C   UNL A   1      43.975  35.814  30.758  1.00  0.00     0.049 A 
ATOM     51  H   UNL A   1      44.262  33.986  29.801  1.00  0.00     0.167 HD
ATOM     52  C   UNL A   1      44.954  30.101  27.994  1.00  0.00     0.031 A 
ATOM     53  C   UNL A   1      44.942  36.658  30.348  1.00  0.00     0.031 A 
ATOM     54  C   UNL A   1      46.084  30.895  27.580  1.00  0.00     0.049 A 
ATOM     55  C   UNL A   1      46.019  36.157  29.430  1.00  0.00     0.074 A 
ATOM     56  C   UNL A   1      47.137  30.532  26.757  1.00  0.00     0.029 A 
ATOM     57  N   UNL A   1      46.286  32.222  27.922  1.00  0.00    -0.354 N 
ATOM     58  N   UNL A   1      46.167  34.962  28.911  1.00  0.00    -0.248 NA
ATOM     59  C   UNL A   1      47.070  37.114  29.062  1.00  0.00     0.031 C 
ATOM     60  C   UNL A   1      47.988  31.635  26.620  1.00  0.00     0.029 A 
ATOM     61  C   UNL A   1      47.441  32.696  27.321  1.00  0.00     0.049 A 
ATOM     62  H   UNL A   1      45.695  32.750  28.507  1.00  0.00     0.167 HD
ATOM     63  C   UNL A   1      47.327  35.027  28.148  1.00  0.00     0.074 A 
ATOM     64  C   UNL A   1      47.824  36.382  28.253  1.00  0.00     0.031 C 
ATOM     65  C   UNL A   1      47.929  34.046  27.432  1.00  0.00     0.031 A 
BRANCH  52  66
ATOM     66  C   UNL A   1      44.889  28.668  27.526  1.00  0.00    -0.014 A 
ATOM     67  C   UNL A   1      44.370  28.317  26.269  1.00  0.00     0.010 A 
ATOM     68  C   UNL A   1      45.405  27.655  28.359  1.00  0.00     0.010 A 
ATOM     69  C   UNL A   1      44.329  26.976  25.870  1.00  0.00     0.020 A 
ATOM     70  C   UNL A   1      45.391  26.319  27.952  1.00  0.00     0.020 A 
ATOM     71  C   UNL A   1      44.835  25.985  26.717  1.00  0.00     0.054 A 
BRANCH  71  72
ATOM     72  S   UNL A   1      44.790  24.255  26.172  1.00  0.00     0.124 S 
ATOM     73  O   UNL A   1      45.918  23.680  26.902  1.00  0.00    -0.237 OA
ATOM     74  O   UNL A   1      43.469  23.811  26.611  1.00  0.00    -0.237 OA
ATOM     75  O   UNL A   1      44.964  24.343  24.724  1.00  0.00    -0.744 OA
ENDBRANCH  71  72
ENDBRANCH  52  66
BRANCH  53  76
ATOM     76  C   UNL A   1      44.965  38.057  30.856  1.00  0.00    -0.014 A 
ATOM     77  C   UNL A   1      45.566  38.362  32.089  1.00  0.00     0.010 A 
ATOM     78  C   UNL A   1      44.408  39.098  30.089  1.00  0.00     0.010 A 
ATOM     79  C   UNL A   1      45.610  39.682  32.546  1.00  0.00     0.020 A 
ATOM     80  C   UNL A   1      44.480  40.422  30.528  1.00  0.00     0.020 A 
ATOM     81  C   UNL A   1      45.072  40.704  31.759  1.00  0.00     0.054 A 
BRANCH  81  82
ATOM     82  S   UNL A   1      45.213  42.422  32.326  1.00  0.00     0.124 S 
ATOM     83  O   UNL A   1      45.849  43.067  31.183  1.00  0.00    -0.237 OA
ATOM     84  O   UNL A   1      43.821  42.793  32.570  1.00  0.00    -0.237 OA
ATOM     85  O   UNL A   1      46.038  42.315  33.527  1.00  0.00    -0.744 OA
ENDBRANCH  81  82
ENDBRANCH  53  76
BRANCH  65  86
ATOM     86  C   UNL A   1      49.171  34.421  26.672  1.00  0.00    -0.014 A 
ATOM     87  C   UNL A   1      50.450  34.229  27.224  1.00  0.00     0.010 A 
ATOM     88  C   UNL A   1      49.055  34.968  25.382  1.00  0.00     0.010 A 
ATOM     89  C   UNL A   1      51.590  34.626  26.519  1.00  0.00     0.020 A 
ATOM     90  C   UNL A   1      50.193  35.344  24.665  1.00  0.00     0.020 A 
ATOM     91  C   UNL A   1      51.452  35.190  25.247  1.00  0.00     0.054 A 
BRANCH  91  92
ATOM     92  S   UNL A   1      52.942  35.696  24.345  1.00  0.00     0.124 S 
ATOM     93  O   UNL A   1      54.002  35.104  25.155  1.00  0.00    -0.237 OA
ATOM     94  O   UNL A   1      52.746  35.093  23.028  1.00  0.00    -0.237 OA
ATOM     95  O   UNL A   1      52.881  37.155  24.369  1.00  0.00    -0.744 OA
ENDBRANCH  91  92
ENDBRANCH  65  86
ENDBRANCH  39  40
ENDBRANCH  32  34
ENDBRANCH  31  32
ENDBRANCH  30  31
ENDBRANCH   1  30
TORSDOF 21
ENDMDL
