MODEL 1
REMARK VINA RESULT:      -9.0      0.000      0.000
REMARK SMILES C[C@H](C[NH+](C)[C@@H](C)[C@@H](C)O)C(=O)OCCOC(=O)c1ccc(-c2c3nc(c(-c4ccc(S(=O)(=O)[O-])cc4)c4ccc([nH]4)c(-c4ccc(S(=O)(=O)[O-])cc4)c4nc(c(-c5ccc(S(=O)(=O)[O-])cc5)c5ccc2[nH]5)C=C4)C=C3)cc1
REMARK SMILES IDX 14 1 13 2 11 3 12 4 2 5 1 6 3 7 4 8 5 9 6 11 7 12 8 13 9 14
REMARK SMILES IDX 10 15 15 17 16 18 17 19 18 20 19 21 20 22 78 23 21 24 77 25
REMARK SMILES IDX 22 26 23 27 24 28 71 29 25 30 76 31 70 32 72 33 26 34 75 35
REMARK SMILES IDX 69 36 68 37 27 39 57 40 38 41 56 42 39 43 42 44 55 45 73 46
REMARK SMILES IDX 40 47 41 48 54 50 74 51 43 52 28 53 29 54 37 55 30 56 36 57
REMARK SMILES IDX 31 58 32 59 33 60 34 61 35 62 58 63 59 64 67 65 60 66 66 67
REMARK SMILES IDX 61 68 62 69 63 70 64 71 65 72 44 73 45 74 53 75 46 76 52 77
REMARK SMILES IDX 47 78 48 79 49 80 50 81 51 82
REMARK H PARENT 4 10 10 16 72 38 42 49
REMARK Flexibility Score: inf
ROOT
ATOM      1  C   UNL A   1      33.336  34.392  28.783  1.00  0.00     0.274 C 
ENDROOT
BRANCH   1   2
ATOM      2  O   UNL A   1      33.372  34.786  30.329  1.00  0.00    -0.462 OA
BRANCH   2   3
ATOM      3  C   UNL A   1      34.209  35.075  31.415  1.00  0.00     0.314 C 
ATOM      4  O   UNL A   1      33.991  35.987  32.205  1.00  0.00    -0.252 OA
BRANCH   3   5
ATOM      5  C   UNL A   1      35.279  33.848  31.760  1.00  0.00     0.151 C 
ATOM      6  C   UNL A   1      34.867  32.376  31.783  1.00  0.00     0.026 C 
BRANCH   5   7
ATOM      7  C   UNL A   1      36.277  34.023  32.903  1.00  0.00     0.277 C 
BRANCH   7   8
ATOM      8  N   UNL A   1      37.569  33.614  32.512  1.00  0.00    -0.332 N 
ATOM      9  C   UNL A   1      37.999  33.996  31.180  1.00  0.00     0.333 C 
ATOM     10  H   UNL A   1      38.571  33.425  32.484  1.00  0.00     0.348 HD
BRANCH   8  11
ATOM     11  C   UNL A   1      38.372  32.823  33.462  1.00  0.00     0.209 C 
ATOM     12  C   UNL A   1      38.108  31.364  33.031  1.00  0.00     0.078 C 
BRANCH  11  13
ATOM     13  C   UNL A   1      39.892  33.618  34.096  1.00  0.00     0.169 C 
ATOM     14  C   UNL A   1      40.886  34.686  33.452  1.00  0.00     0.045 C 
BRANCH  13  15
ATOM     15  O   UNL A   1      39.918  34.348  35.303  1.00  0.00    -0.387 OA
ATOM     16  H   UNL A   1      39.306  35.098  35.240  1.00  0.00     0.211 HD
ENDBRANCH  13  15
ENDBRANCH  11  13
ENDBRANCH   8  11
ENDBRANCH   7   8
ENDBRANCH   5   7
ENDBRANCH   3   5
ENDBRANCH   2   3
ENDBRANCH   1   2
BRANCH   1  17
ATOM     17  C   UNL A   1      34.596  33.323  28.057  1.00  0.00     0.275 C 
BRANCH  17  18
ATOM     18  O   UNL A   1      34.291  31.978  27.301  1.00  0.00    -0.458 OA
BRANCH  18  19
ATOM     19  C   UNL A   1      34.501  30.597  27.626  1.00  0.00     0.338 C 
ATOM     20  O   UNL A   1      33.595  29.770  27.559  1.00  0.00    -0.246 OA
BRANCH  19  21
ATOM     21  C   UNL A   1      35.931  30.026  28.095  1.00  0.00     0.060 A 
ATOM     22  C   UNL A   1      36.387  29.741  29.420  1.00  0.00     0.016 A 
ATOM     23  C   UNL A   1      36.957  29.988  27.147  1.00  0.00     0.016 A 
ATOM     24  C   UNL A   1      37.664  29.267  29.762  1.00  0.00     0.010 A 
ATOM     25  C   UNL A   1      38.287  29.618  27.491  1.00  0.00     0.010 A 
ATOM     26  C   UNL A   1      38.644  29.233  28.796  1.00  0.00    -0.014 A 
BRANCH  26  27
ATOM     27  C   UNL A   1      40.046  28.928  29.163  1.00  0.00     0.031 A 
ATOM     28  C   UNL A   1      40.925  30.041  29.644  1.00  0.00     0.074 A 
ATOM     29  C   UNL A   1      40.531  27.680  29.034  1.00  0.00     0.049 A 
ATOM     30  N   UNL A   1      42.227  30.113  29.678  1.00  0.00    -0.248 NA
ATOM     31  C   UNL A   1      40.237  31.243  30.141  1.00  0.00     0.031 C 
ATOM     32  C   UNL A   1      39.736  26.491  28.724  1.00  0.00     0.029 A 
ATOM     33  N   UNL A   1      41.823  27.218  29.087  1.00  0.00    -0.354 N 
ATOM     34  C   UNL A   1      42.519  31.398  30.121  1.00  0.00     0.074 A 
ATOM     35  C   UNL A   1      41.256  32.057  30.374  1.00  0.00     0.031 C 
ATOM     36  C   UNL A   1      40.562  25.451  28.536  1.00  0.00     0.029 A 
ATOM     37  C   UNL A   1      41.938  25.924  28.633  1.00  0.00     0.049 A 
ATOM     38  H   UNL A   1      42.582  27.753  29.414  1.00  0.00     0.167 HD
ATOM     39  C   UNL A   1      43.738  31.972  30.261  1.00  0.00     0.031 A 
ATOM     40  C   UNL A   1      43.025  25.231  28.244  1.00  0.00     0.031 A 
ATOM     41  C   UNL A   1      44.968  31.275  29.981  1.00  0.00     0.049 A 
ATOM     42  C   UNL A   1      44.367  25.900  28.313  1.00  0.00     0.074 A 
ATOM     43  C   UNL A   1      46.267  31.736  30.083  1.00  0.00     0.029 A 
ATOM     44  N   UNL A   1      45.043  29.961  29.532  1.00  0.00    -0.354 N 
ATOM     45  N   UNL A   1      44.649  27.130  28.676  1.00  0.00    -0.248 NA
ATOM     46  C   UNL A   1      45.532  25.099  27.926  1.00  0.00     0.031 C 
ATOM     47  C   UNL A   1      47.122  30.722  29.635  1.00  0.00     0.029 A 
ATOM     48  C   UNL A   1      46.363  29.602  29.327  1.00  0.00     0.049 A 
ATOM     49  H   UNL A   1      44.269  29.372  29.382  1.00  0.00     0.167 HD
ATOM     50  C   UNL A   1      46.031  27.241  28.595  1.00  0.00     0.074 A 
ATOM     51  C   UNL A   1      46.523  25.953  28.145  1.00  0.00     0.031 C 
ATOM     52  C   UNL A   1      46.821  28.308  28.878  1.00  0.00     0.031 A 
BRANCH  39  53
ATOM     53  C   UNL A   1      43.786  33.433  30.632  1.00  0.00    -0.014 A 
ATOM     54  C   UNL A   1      43.476  34.451  29.711  1.00  0.00     0.010 A 
ATOM     55  C   UNL A   1      44.165  33.795  31.938  1.00  0.00     0.010 A 
ATOM     56  C   UNL A   1      43.610  35.797  30.070  1.00  0.00     0.020 A 
ATOM     57  C   UNL A   1      44.267  35.139  32.312  1.00  0.00     0.020 A 
ATOM     58  C   UNL A   1      44.015  36.132  31.364  1.00  0.00     0.054 A 
BRANCH  58  59
ATOM     59  S   UNL A   1      44.208  37.882  31.807  1.00  0.00     0.124 S 
ATOM     60  O   UNL A   1      43.866  38.549  30.546  1.00  0.00    -0.237 OA
ATOM     61  O   UNL A   1      43.214  38.047  32.879  1.00  0.00    -0.237 OA
ATOM     62  O   UNL A   1      45.587  37.995  32.220  1.00  0.00    -0.744 OA
ENDBRANCH  58  59
ENDBRANCH  39  53
BRANCH  40  63
ATOM     63  C   UNL A   1      42.847  23.857  27.701  1.00  0.00    -0.014 A 
ATOM     64  C   UNL A   1      43.010  22.737  28.532  1.00  0.00     0.010 A 
ATOM     65  C   UNL A   1      42.400  23.669  26.377  1.00  0.00     0.010 A 
ATOM     66  C   UNL A   1      42.711  21.456  28.056  1.00  0.00     0.020 A 
ATOM     67  C   UNL A   1      42.074  22.393  25.908  1.00  0.00     0.020 A 
ATOM     68  C   UNL A   1      42.230  21.294  26.753  1.00  0.00     0.054 A 
BRANCH  68  69
ATOM     69  S   UNL A   1      41.742  19.635  26.205  1.00  0.00     0.124 S 
ATOM     70  O   UNL A   1      40.312  19.803  25.962  1.00  0.00    -0.237 OA
ATOM     71  O   UNL A   1      42.567  19.442  25.015  1.00  0.00    -0.237 OA
ATOM     72  O   UNL A   1      42.089  18.782  27.339  1.00  0.00    -0.744 OA
ENDBRANCH  68  69
ENDBRANCH  40  63
BRANCH  52  73
ATOM     73  C   UNL A   1      48.308  28.110  28.770  1.00  0.00    -0.014 A 
ATOM     74  C   UNL A   1      49.008  28.420  27.592  1.00  0.00     0.010 A 
ATOM     75  C   UNL A   1      49.023  27.680  29.904  1.00  0.00     0.010 A 
ATOM     76  C   UNL A   1      50.398  28.289  27.546  1.00  0.00     0.020 A 
ATOM     77  C   UNL A   1      50.413  27.577  29.871  1.00  0.00     0.020 A 
ATOM     78  C   UNL A   1      51.092  27.875  28.688  1.00  0.00     0.054 A 
BRANCH  78  79
ATOM     79  S   UNL A   1      52.902  27.787  28.625  1.00  0.00     0.124 S 
ATOM     80  O   UNL A   1      53.176  26.603  29.434  1.00  0.00    -0.237 OA
ATOM     81  O   UNL A   1      53.166  27.647  27.196  1.00  0.00    -0.237 OA
ATOM     82  O   UNL A   1      53.332  29.055  29.211  1.00  0.00    -0.744 OA
ENDBRANCH  78  79
ENDBRANCH  52  73
ENDBRANCH  26  27
ENDBRANCH  19  21
ENDBRANCH  18  19
ENDBRANCH  17  18
ENDBRANCH   1  17
TORSDOF 19
ENDMDL
MODEL 2
REMARK VINA RESULT:      -9.0      2.774      9.147
REMARK SMILES C[C@H](C[NH+](C)[C@@H](C)[C@@H](C)O)C(=O)OCCOC(=O)c1ccc(-c2c3nc(c(-c4ccc(S(=O)(=O)[O-])cc4)c4ccc([nH]4)c(-c4ccc(S(=O)(=O)[O-])cc4)c4nc(c(-c5ccc(S(=O)(=O)[O-])cc5)c5ccc2[nH]5)C=C4)C=C3)cc1
REMARK SMILES IDX 14 1 13 2 11 3 12 4 2 5 1 6 3 7 4 8 5 9 6 11 7 12 8 13 9 14
REMARK SMILES IDX 10 15 15 17 16 18 17 19 18 20 19 21 20 22 78 23 21 24 77 25
REMARK SMILES IDX 22 26 23 27 24 28 71 29 25 30 76 31 70 32 72 33 26 34 75 35
REMARK SMILES IDX 69 36 68 37 27 39 57 40 38 41 56 42 39 43 42 44 55 45 73 46
REMARK SMILES IDX 40 47 41 48 54 50 74 51 43 52 28 53 29 54 37 55 30 56 36 57
REMARK SMILES IDX 31 58 32 59 33 60 34 61 35 62 58 63 59 64 67 65 60 66 66 67
REMARK SMILES IDX 61 68 62 69 63 70 64 71 65 72 44 73 45 74 53 75 46 76 52 77
REMARK SMILES IDX 47 78 48 79 49 80 50 81 51 82
REMARK H PARENT 4 10 10 16 72 38 42 49
REMARK Flexibility Score: inf
ROOT
ATOM      1  C   UNL A   1      33.109  34.394  28.249  1.00  0.00     0.274 C 
ENDROOT
BRANCH   1   2
ATOM      2  O   UNL A   1      32.768  35.254  29.549  1.00  0.00    -0.462 OA
BRANCH   2   3
ATOM      3  C   UNL A   1      33.213  36.287  30.384  1.00  0.00     0.314 C 
ATOM      4  O   UNL A   1      33.162  37.472  30.072  1.00  0.00    -0.252 OA
BRANCH   3   5
ATOM      5  C   UNL A   1      33.439  35.802  31.960  1.00  0.00     0.151 C 
ATOM      6  C   UNL A   1      32.645  36.391  33.127  1.00  0.00     0.026 C 
BRANCH   5   7
ATOM      7  C   UNL A   1      34.858  35.589  32.483  1.00  0.00     0.277 C 
BRANCH   7   8
ATOM      8  N   UNL A   1      35.088  34.230  32.781  1.00  0.00    -0.332 N 
ATOM      9  C   UNL A   1      34.264  33.262  32.084  1.00  0.00     0.333 C 
ATOM     10  H   UNL A   1      35.525  33.324  32.955  1.00  0.00     0.348 HD
BRANCH   8  11
ATOM     11  C   UNL A   1      36.120  33.895  33.779  1.00  0.00     0.209 C 
ATOM     12  C   UNL A   1      35.461  34.273  35.122  1.00  0.00     0.078 C 
BRANCH  11  13
ATOM     13  C   UNL A   1      37.240  32.512  33.352  1.00  0.00     0.169 C 
ATOM     14  C   UNL A   1      38.779  32.247  33.673  1.00  0.00     0.045 C 
BRANCH  13  15
ATOM     15  O   UNL A   1      36.956  31.174  33.696  1.00  0.00    -0.387 OA
ATOM     16  H   UNL A   1      37.258  31.002  34.601  1.00  0.00     0.211 HD
ENDBRANCH  13  15
ENDBRANCH  11  13
ENDBRANCH   8  11
ENDBRANCH   7   8
ENDBRANCH   5   7
ENDBRANCH   3   5
ENDBRANCH   2   3
ENDBRANCH   1   2
BRANCH   1  17
ATOM     17  C   UNL A   1      34.151  32.924  28.342  1.00  0.00     0.275 C 
BRANCH  17  18
ATOM     18  O   UNL A   1      33.964  31.645  27.447  1.00  0.00    -0.458 OA
BRANCH  18  19
ATOM     19  C   UNL A   1      34.308  30.264  27.621  1.00  0.00     0.338 C 
ATOM     20  O   UNL A   1      33.492  29.363  27.435  1.00  0.00    -0.246 OA
BRANCH  19  21
ATOM     21  C   UNL A   1      35.781  29.787  28.065  1.00  0.00     0.060 A 
ATOM     22  C   UNL A   1      36.240  29.404  29.363  1.00  0.00     0.016 A 
ATOM     23  C   UNL A   1      36.821  29.954  27.147  1.00  0.00     0.016 A 
ATOM     24  C   UNL A   1      37.553  29.022  29.688  1.00  0.00     0.010 A 
ATOM     25  C   UNL A   1      38.175  29.680  27.486  1.00  0.00     0.010 A 
ATOM     26  C   UNL A   1      38.547  29.191  28.751  1.00  0.00    -0.014 A 
BRANCH  26  27
ATOM     27  C   UNL A   1      39.966  28.987  29.121  1.00  0.00     0.031 A 
ATOM     28  C   UNL A   1      40.629  27.694  28.757  1.00  0.00     0.074 A 
ATOM     29  C   UNL A   1      40.638  29.932  29.803  1.00  0.00     0.049 A 
ATOM     30  N   UNL A   1      41.697  27.140  29.260  1.00  0.00    -0.248 NA
ATOM     31  C   UNL A   1      39.987  26.915  27.686  1.00  0.00     0.031 C 
ATOM     32  C   UNL A   1      40.150  31.284  30.079  1.00  0.00     0.029 A 
ATOM     33  N   UNL A   1      41.852  29.874  30.442  1.00  0.00    -0.354 N 
ATOM     34  C   UNL A   1      41.812  25.907  28.628  1.00  0.00     0.074 A 
ATOM     35  C   UNL A   1      40.721  25.812  27.682  1.00  0.00     0.031 C 
ATOM     36  C   UNL A   1      41.018  31.902  30.896  1.00  0.00     0.029 A 
ATOM     37  C   UNL A   1      42.070  30.960  31.258  1.00  0.00     0.049 A 
ATOM     38  H   UNL A   1      42.496  29.138  30.328  1.00  0.00     0.167 HD
ATOM     39  C   UNL A   1      42.729  24.937  28.859  1.00  0.00     0.031 A 
ATOM     40  C   UNL A   1      42.956  31.136  32.257  1.00  0.00     0.031 A 
ATOM     41  C   UNL A   1      43.789  25.076  29.825  1.00  0.00     0.049 A 
ATOM     42  C   UNL A   1      43.913  30.023  32.572  1.00  0.00     0.074 A 
ATOM     43  C   UNL A   1      44.784  24.175  30.155  1.00  0.00     0.029 A 
ATOM     44  N   UNL A   1      43.981  26.197  30.626  1.00  0.00    -0.354 N 
ATOM     45  N   UNL A   1      43.995  28.834  32.021  1.00  0.00    -0.248 NA
ATOM     46  C   UNL A   1      44.895  30.268  33.633  1.00  0.00     0.031 C 
ATOM     47  C   UNL A   1      45.537  24.725  31.198  1.00  0.00     0.029 A 
ATOM     48  C   UNL A   1      45.061  26.001  31.468  1.00  0.00     0.049 A 
ATOM     49  H   UNL A   1      43.429  27.011  30.598  1.00  0.00     0.167 HD
ATOM     50  C   UNL A   1      45.061  28.199  32.645  1.00  0.00     0.074 A 
ATOM     51  C   UNL A   1      45.589  29.138  33.617  1.00  0.00     0.031 C 
ATOM     52  C   UNL A   1      45.563  26.958  32.426  1.00  0.00     0.031 A 
BRANCH  39  53
ATOM     53  C   UNL A   1      42.559  23.626  28.133  1.00  0.00    -0.014 A 
ATOM     54  C   UNL A   1      41.641  22.648  28.558  1.00  0.00     0.010 A 
ATOM     55  C   UNL A   1      43.353  23.362  27.001  1.00  0.00     0.010 A 
ATOM     56  C   UNL A   1      41.569  21.412  27.906  1.00  0.00     0.020 A 
ATOM     57  C   UNL A   1      43.261  22.141  26.325  1.00  0.00     0.020 A 
ATOM     58  C   UNL A   1      42.386  21.162  26.801  1.00  0.00     0.054 A 
BRANCH  58  59
ATOM     59  S   UNL A   1      42.300  19.545  25.982  1.00  0.00     0.124 S 
ATOM     60  O   UNL A   1      42.836  18.656  27.019  1.00  0.00    -0.237 OA
ATOM     61  O   UNL A   1      40.859  19.396  25.728  1.00  0.00    -0.237 OA
ATOM     62  O   UNL A   1      43.123  19.697  24.805  1.00  0.00    -0.744 OA
ENDBRANCH  58  59
ENDBRANCH  39  53
BRANCH  40  63
ATOM     63  C   UNL A   1      42.910  32.395  33.049  1.00  0.00    -0.014 A 
ATOM     64  C   UNL A   1      43.337  33.606  32.484  1.00  0.00     0.010 A 
ATOM     65  C   UNL A   1      42.328  32.404  34.333  1.00  0.00     0.010 A 
ATOM     66  C   UNL A   1      43.168  34.808  33.180  1.00  0.00     0.020 A 
ATOM     67  C   UNL A   1      42.132  33.607  35.019  1.00  0.00     0.020 A 
ATOM     68  C   UNL A   1      42.552  34.802  34.436  1.00  0.00     0.054 A 
BRANCH  68  69
ATOM     69  S   UNL A   1      42.241  36.388  35.260  1.00  0.00     0.124 S 
ATOM     70  O   UNL A   1      40.785  36.478  35.209  1.00  0.00    -0.237 OA
ATOM     71  O   UNL A   1      42.814  36.169  36.587  1.00  0.00    -0.237 OA
ATOM     72  O   UNL A   1      42.959  37.354  34.431  1.00  0.00    -0.744 OA
ENDBRANCH  68  69
ENDBRANCH  40  63
BRANCH  52  73
ATOM     73  C   UNL A   1      46.786  26.563  33.209  1.00  0.00    -0.014 A 
ATOM     74  C   UNL A   1      46.689  25.835  34.406  1.00  0.00     0.010 A 
ATOM     75  C   UNL A   1      48.057  26.863  32.684  1.00  0.00     0.010 A 
ATOM     76  C   UNL A   1      47.846  25.425  35.074  1.00  0.00     0.020 A 
ATOM     77  C   UNL A   1      49.214  26.430  33.331  1.00  0.00     0.020 A 
ATOM     78  C   UNL A   1      49.101  25.719  34.528  1.00  0.00     0.054 A 
BRANCH  78  79
ATOM     79  S   UNL A   1      50.584  25.110  35.373  1.00  0.00     0.124 S 
ATOM     80  O   UNL A   1      51.529  26.201  35.152  1.00  0.00    -0.237 OA
ATOM     81  O   UNL A   1      50.124  24.946  36.750  1.00  0.00    -0.237 OA
ATOM     82  O   UNL A   1      50.896  23.865  34.674  1.00  0.00    -0.744 OA
ENDBRANCH  78  79
ENDBRANCH  52  73
ENDBRANCH  26  27
ENDBRANCH  19  21
ENDBRANCH  18  19
ENDBRANCH  17  18
ENDBRANCH   1  17
TORSDOF 19
ENDMDL
MODEL 3
REMARK VINA RESULT:      -8.8      3.130      5.572
REMARK SMILES C[C@H](C[NH+](C)[C@@H](C)[C@@H](C)O)C(=O)OCCOC(=O)c1ccc(-c2c3nc(c(-c4ccc(S(=O)(=O)[O-])cc4)c4ccc([nH]4)c(-c4ccc(S(=O)(=O)[O-])cc4)c4nc(c(-c5ccc(S(=O)(=O)[O-])cc5)c5ccc2[nH]5)C=C4)C=C3)cc1
REMARK SMILES IDX 14 1 13 2 11 3 12 4 2 5 1 6 3 7 4 8 5 9 6 11 7 12 8 13 9 14
REMARK SMILES IDX 10 15 15 17 16 18 17 19 18 20 19 21 20 22 78 23 21 24 77 25
REMARK SMILES IDX 22 26 23 27 24 28 71 29 25 30 76 31 70 32 72 33 26 34 75 35
REMARK SMILES IDX 69 36 68 37 27 39 57 40 38 41 56 42 39 43 42 44 55 45 73 46
REMARK SMILES IDX 40 47 41 48 54 50 74 51 43 52 28 53 29 54 37 55 30 56 36 57
REMARK SMILES IDX 31 58 32 59 33 60 34 61 35 62 58 63 59 64 67 65 60 66 66 67
REMARK SMILES IDX 61 68 62 69 63 70 64 71 65 72 44 73 45 74 53 75 46 76 52 77
REMARK SMILES IDX 47 78 48 79 49 80 50 81 51 82
REMARK H PARENT 4 10 10 16 72 38 42 49
REMARK Flexibility Score: inf
ROOT
ATOM      1  C   UNL A   1      31.436  29.389  25.381  1.00  0.00     0.274 C 
ENDROOT
BRANCH   1   2
ATOM      2  O   UNL A   1      31.303  29.217  23.800  1.00  0.00    -0.462 OA
BRANCH   2   3
ATOM      3  C   UNL A   1      30.807  28.396  22.779  1.00  0.00     0.314 C 
ATOM      4  O   UNL A   1      30.213  28.830  21.798  1.00  0.00    -0.252 OA
BRANCH   3   5
ATOM      5  C   UNL A   1      31.436  26.855  22.815  1.00  0.00     0.151 C 
ATOM      6  C   UNL A   1      32.261  26.273  21.666  1.00  0.00     0.026 C 
BRANCH   5   7
ATOM      7  C   UNL A   1      30.577  25.707  23.340  1.00  0.00     0.277 C 
BRANCH   7   8
ATOM      8  N   UNL A   1      30.906  25.398  24.676  1.00  0.00    -0.332 N 
ATOM      9  C   UNL A   1      30.271  26.200  25.704  1.00  0.00     0.333 C 
ATOM     10  H   UNL A   1      31.090  24.911  25.553  1.00  0.00     0.348 HD
BRANCH   8  11
ATOM     11  C   UNL A   1      31.872  24.315  24.929  1.00  0.00     0.209 C 
ATOM     12  C   UNL A   1      31.299  23.124  24.131  1.00  0.00     0.078 C 
BRANCH  11  13
ATOM     13  C   UNL A   1      33.605  24.827  25.219  1.00  0.00     0.169 C 
ATOM     14  C   UNL A   1      34.854  24.060  25.846  1.00  0.00     0.045 C 
BRANCH  13  15
ATOM     15  O   UNL A   1      34.437  25.301  24.185  1.00  0.00    -0.387 OA
ATOM     16  H   UNL A   1      35.349  25.009  24.343  1.00  0.00     0.211 HD
ENDBRANCH  13  15
ENDBRANCH  11  13
ENDBRANCH   8  11
ENDBRANCH   7   8
ENDBRANCH   5   7
ENDBRANCH   3   5
ENDBRANCH   2   3
ENDBRANCH   1   2
BRANCH   1  17
ATOM     17  C   UNL A   1      33.049  29.421  26.190  1.00  0.00     0.275 C 
BRANCH  17  18
ATOM     18  O   UNL A   1      33.308  29.993  27.632  1.00  0.00    -0.458 OA
BRANCH  18  19
ATOM     19  C   UNL A   1      34.375  30.757  28.209  1.00  0.00     0.338 C 
ATOM     20  O   UNL A   1      34.235  31.939  28.516  1.00  0.00    -0.246 OA
BRANCH  19  21
ATOM     21  C   UNL A   1      35.828  30.129  28.506  1.00  0.00     0.060 A 
ATOM     22  C   UNL A   1      36.397  29.753  29.762  1.00  0.00     0.016 A 
ATOM     23  C   UNL A   1      36.760  30.131  27.465  1.00  0.00     0.016 A 
ATOM     24  C   UNL A   1      37.688  29.233  29.954  1.00  0.00     0.010 A 
ATOM     25  C   UNL A   1      38.106  29.714  27.659  1.00  0.00     0.010 A 
ATOM     26  C   UNL A   1      38.573  29.242  28.899  1.00  0.00    -0.014 A 
BRANCH  26  27
ATOM     27  C   UNL A   1      39.995  28.888  29.113  1.00  0.00     0.031 A 
ATOM     28  C   UNL A   1      40.966  29.974  29.460  1.00  0.00     0.074 A 
ATOM     29  C   UNL A   1      40.413  27.618  28.966  1.00  0.00     0.049 A 
ATOM     30  N   UNL A   1      42.265  29.992  29.343  1.00  0.00    -0.248 NA
ATOM     31  C   UNL A   1      40.386  31.215  29.997  1.00  0.00     0.031 C 
ATOM     32  C   UNL A   1      39.542  26.456  28.782  1.00  0.00     0.029 A 
ATOM     33  N   UNL A   1      41.684  27.104  28.886  1.00  0.00    -0.354 N 
ATOM     34  C   UNL A   1      42.655  31.275  29.714  1.00  0.00     0.074 A 
ATOM     35  C   UNL A   1      41.456  31.992  30.089  1.00  0.00     0.031 C 
ATOM     36  C   UNL A   1      40.300  25.377  28.532  1.00  0.00     0.029 A 
ATOM     37  C   UNL A   1      41.696  25.795  28.459  1.00  0.00     0.049 A 
ATOM     38  H   UNL A   1      42.495  27.613  29.109  1.00  0.00     0.167 HD
ATOM     39  C   UNL A   1      43.904  31.800  29.698  1.00  0.00     0.031 A 
ATOM     40  C   UNL A   1      42.703  25.048  27.969  1.00  0.00     0.031 A 
ATOM     41  C   UNL A   1      45.066  31.045  29.301  1.00  0.00     0.049 A 
ATOM     42  C   UNL A   1      44.069  25.662  27.866  1.00  0.00     0.074 A 
ATOM     43  C   UNL A   1      46.385  31.454  29.241  1.00  0.00     0.029 A 
ATOM     44  N   UNL A   1      45.037  29.719  28.884  1.00  0.00    -0.354 N 
ATOM     45  N   UNL A   1      44.439  26.887  28.160  1.00  0.00    -0.248 NA
ATOM     46  C   UNL A   1      45.150  24.804  27.373  1.00  0.00     0.031 C 
ATOM     47  C   UNL A   1      47.143  30.395  28.729  1.00  0.00     0.029 A 
ATOM     48  C   UNL A   1      46.310  29.300  28.541  1.00  0.00     0.049 A 
ATOM     49  H   UNL A   1      44.229  29.159  28.839  1.00  0.00     0.167 HD
ATOM     50  C   UNL A   1      45.806  26.939  27.920  1.00  0.00     0.074 A 
ATOM     51  C   UNL A   1      46.193  25.620  27.454  1.00  0.00     0.031 C 
ATOM     52  C   UNL A   1      46.663  27.978  28.080  1.00  0.00     0.031 A 
BRANCH  39  53
ATOM     53  C   UNL A   1      44.050  33.266  30.020  1.00  0.00    -0.014 A 
ATOM     54  C   UNL A   1      44.767  34.148  29.189  1.00  0.00     0.010 A 
ATOM     55  C   UNL A   1      43.463  33.770  31.195  1.00  0.00     0.010 A 
ATOM     56  C   UNL A   1      44.948  35.484  29.562  1.00  0.00     0.020 A 
ATOM     57  C   UNL A   1      43.613  35.114  31.556  1.00  0.00     0.020 A 
ATOM     58  C   UNL A   1      44.380  35.956  30.748  1.00  0.00     0.054 A 
BRANCH  58  59
ATOM     59  S   UNL A   1      44.644  37.685  31.232  1.00  0.00     0.124 S 
ATOM     60  O   UNL A   1      46.077  37.690  31.550  1.00  0.00    -0.237 OA
ATOM     61  O   UNL A   1      44.284  38.415  30.006  1.00  0.00    -0.237 OA
ATOM     62  O   UNL A   1      43.755  37.882  32.353  1.00  0.00    -0.744 OA
ENDBRANCH  58  59
ENDBRANCH  39  53
BRANCH  40  63
ATOM     63  C   UNL A   1      42.412  23.670  27.489  1.00  0.00    -0.014 A 
ATOM     64  C   UNL A   1      42.389  23.384  26.116  1.00  0.00     0.010 A 
ATOM     65  C   UNL A   1      42.272  22.612  28.411  1.00  0.00     0.010 A 
ATOM     66  C   UNL A   1      42.250  22.066  25.670  1.00  0.00     0.020 A 
ATOM     67  C   UNL A   1      42.162  21.290  27.970  1.00  0.00     0.020 A 
ATOM     68  C   UNL A   1      42.153  21.025  26.601  1.00  0.00     0.054 A 
BRANCH  68  69
ATOM     69  S   UNL A   1      42.092  19.317  25.993  1.00  0.00     0.124 S 
ATOM     70  O   UNL A   1      40.682  19.166  25.650  1.00  0.00    -0.237 OA
ATOM     71  O   UNL A   1      43.018  19.353  24.863  1.00  0.00    -0.237 OA
ATOM     72  O   UNL A   1      42.548  18.529  27.136  1.00  0.00    -0.744 OA
ENDBRANCH  68  69
ENDBRANCH  40  63
BRANCH  52  73
ATOM     73  C   UNL A   1      48.120  27.715  27.810  1.00  0.00    -0.014 A 
ATOM     74  C   UNL A   1      48.994  27.302  28.828  1.00  0.00     0.010 A 
ATOM     75  C   UNL A   1      48.594  27.807  26.488  1.00  0.00     0.010 A 
ATOM     76  C   UNL A   1      50.326  27.000  28.531  1.00  0.00     0.020 A 
ATOM     77  C   UNL A   1      49.914  27.477  26.181  1.00  0.00     0.020 A 
ATOM     78  C   UNL A   1      50.775  27.082  27.208  1.00  0.00     0.054 A 
BRANCH  78  79
ATOM     79  S   UNL A   1      52.486  26.611  26.837  1.00  0.00     0.124 S 
ATOM     80  O   UNL A   1      53.050  27.870  26.358  1.00  0.00    -0.237 OA
ATOM     81  O   UNL A   1      52.979  26.152  28.132  1.00  0.00    -0.237 OA
ATOM     82  O   UNL A   1      52.346  25.567  25.824  1.00  0.00    -0.744 OA
ENDBRANCH  78  79
ENDBRANCH  52  73
ENDBRANCH  26  27
ENDBRANCH  19  21
ENDBRANCH  18  19
ENDBRANCH  17  18
ENDBRANCH   1  17
TORSDOF 19
ENDMDL
