MODEL 1
REMARK VINA RESULT:      -9.4      0.000      0.000
REMARK SMILES [NH3+][C@@H](CC(=O)OCCOC(=O)c1ccc(-c2c3nc(c(-c4ccc(S(=O)(=O)[O-])cc4)c4ccc([nH]4)c(-c4ccc(S(=O)(=O)[O-])cc4)c4nc(c(-c5ccc(S(=O)(=O)[O-])cc5)c5ccc2[nH]5)C=C4)C=C3)cc1)Cc1ccc(F)cc1
REMARK SMILES IDX 7 1 6 2 4 3 5 4 3 5 2 6 1 7 72 11 73 12 74 13 79 14 75 15
REMARK SMILES IDX 78 16 76 17 77 18 8 19 9 20 10 21 11 22 12 23 13 24 71 25
REMARK SMILES IDX 14 26 70 27 15 28 16 29 17 30 64 31 18 32 69 33 63 34 65 35
REMARK SMILES IDX 19 36 68 37 62 38 61 39 20 41 50 42 31 43 49 44 32 45 35 46
REMARK SMILES IDX 48 47 66 48 33 49 34 50 47 52 67 53 36 54 21 55 22 56 30 57
REMARK SMILES IDX 23 58 29 59 24 60 25 61 26 62 27 63 28 64 51 65 52 66 60 67
REMARK SMILES IDX 53 68 59 69 54 70 55 71 56 72 57 73 58 74 37 75 38 76 46 77
REMARK SMILES IDX 39 78 45 79 40 80 41 81 42 82 43 83 44 84
REMARK H PARENT 1 8 1 9 1 10 65 40 35 51
REMARK Flexibility Score: inf
ROOT
ATOM      1  C   UNL A   1      34.065  34.338  28.432  1.00  0.00     0.274 C 
ENDROOT
BRANCH   1   2
ATOM      2  O   UNL A   1      32.982  34.762  29.287  1.00  0.00    -0.462 OA
BRANCH   2   3
ATOM      3  C   UNL A   1      32.943  36.090  29.569  1.00  0.00     0.311 C 
ATOM      4  O   UNL A   1      32.875  36.978  28.726  1.00  0.00    -0.252 OA
BRANCH   3   5
ATOM      5  C   UNL A   1      33.093  36.405  31.039  1.00  0.00     0.187 C 
BRANCH   5   6
ATOM      6  C   UNL A   1      33.379  35.266  32.028  1.00  0.00     0.196 C 
BRANCH   6   7
ATOM      7  N   UNL A   1      32.219  34.955  32.876  1.00  0.00    -0.354 N 
ATOM      8  H   UNL A   1      31.469  35.617  32.681  1.00  0.00     0.344 HD
ATOM      9  H   UNL A   1      32.487  35.023  33.857  1.00  0.00     0.344 HD
ATOM     10  H   UNL A   1      31.898  34.007  32.678  1.00  0.00     0.344 HD
ENDBRANCH   6   7
BRANCH   6  11
ATOM     11  C   UNL A   1      34.668  35.508  32.854  1.00  0.00     0.101 C 
BRANCH  11  12
ATOM     12  C   UNL A   1      35.663  34.365  32.800  1.00  0.00    -0.042 A 
ATOM     13  C   UNL A   1      35.685  33.400  33.819  1.00  0.00     0.007 A 
ATOM     14  C   UNL A   1      36.585  34.260  31.745  1.00  0.00     0.007 A 
ATOM     15  C   UNL A   1      36.583  32.332  33.762  1.00  0.00     0.039 A 
ATOM     16  C   UNL A   1      37.479  33.189  31.688  1.00  0.00     0.039 A 
ATOM     17  C   UNL A   1      37.465  32.232  32.694  1.00  0.00     0.123 A 
ATOM     18  F   UNL A   1      38.312  31.196  32.631  1.00  0.00    -0.207 F 
ENDBRANCH  11  12
ENDBRANCH   6  11
ENDBRANCH   5   6
ENDBRANCH   3   5
ENDBRANCH   2   3
ENDBRANCH   1   2
BRANCH   1  19
ATOM     19  C   UNL A   1      33.764  32.989  27.786  1.00  0.00     0.275 C 
BRANCH  19  20
ATOM     20  O   UNL A   1      34.161  31.924  28.663  1.00  0.00    -0.458 OA
BRANCH  20  21
ATOM     21  C   UNL A   1      34.315  30.712  28.085  1.00  0.00     0.338 C 
ATOM     22  O   UNL A   1      33.482  30.076  27.463  1.00  0.00    -0.246 OA
BRANCH  21  23
ATOM     23  C   UNL A   1      35.682  30.230  28.326  1.00  0.00     0.060 A 
ATOM     24  C   UNL A   1      36.080  29.851  29.611  1.00  0.00     0.016 A 
ATOM     25  C   UNL A   1      36.599  30.247  27.274  1.00  0.00     0.016 A 
ATOM     26  C   UNL A   1      37.413  29.521  29.855  1.00  0.00     0.010 A 
ATOM     27  C   UNL A   1      37.922  29.871  27.511  1.00  0.00     0.010 A 
ATOM     28  C   UNL A   1      38.345  29.530  28.808  1.00  0.00    -0.014 A 
BRANCH  28  29
ATOM     29  C   UNL A   1      39.775  29.212  29.057  1.00  0.00     0.031 A 
ATOM     30  C   UNL A   1      40.707  30.281  29.558  1.00  0.00     0.074 A 
ATOM     31  C   UNL A   1      40.242  27.976  28.799  1.00  0.00     0.049 A 
ATOM     32  N   UNL A   1      42.006  30.238  29.709  1.00  0.00    -0.248 NA
ATOM     33  C   UNL A   1      40.100  31.569  29.930  1.00  0.00     0.031 C 
ATOM     34  C   UNL A   1      39.439  26.848  28.323  1.00  0.00     0.029 A 
ATOM     35  N   UNL A   1      41.514  27.468  28.884  1.00  0.00    -0.354 N 
ATOM     36  C   UNL A   1      42.377  31.500  30.158  1.00  0.00     0.074 A 
ATOM     37  C   UNL A   1      41.166  32.288  30.251  1.00  0.00     0.031 C 
ATOM     38  C   UNL A   1      40.238  25.780  28.159  1.00  0.00     0.029 A 
ATOM     39  C   UNL A   1      41.613  26.161  28.469  1.00  0.00     0.049 A 
ATOM     40  H   UNL A   1      42.282  27.989  29.212  1.00  0.00     0.167 HD
ATOM     41  C   UNL A   1      43.615  31.961  30.460  1.00  0.00     0.031 A 
ATOM     42  C   UNL A   1      42.690  25.368  28.321  1.00  0.00     0.031 A 
ATOM     43  C   UNL A   1      44.816  31.172  30.381  1.00  0.00     0.049 A 
ATOM     44  C   UNL A   1      44.054  25.906  28.651  1.00  0.00     0.074 A 
ATOM     45  C   UNL A   1      46.113  31.547  30.690  1.00  0.00     0.029 A 
ATOM     46  N   UNL A   1      44.869  29.851  29.967  1.00  0.00    -0.354 N 
ATOM     47  N   UNL A   1      44.386  27.102  29.074  1.00  0.00    -0.248 NA
ATOM     48  C   UNL A   1      45.187  24.985  28.486  1.00  0.00     0.031 C 
ATOM     49  C   UNL A   1      46.956  30.459  30.430  1.00  0.00     0.029 A 
ATOM     50  C   UNL A   1      46.177  29.397  30.000  1.00  0.00     0.049 A 
ATOM     51  H   UNL A   1      44.092  29.315  29.691  1.00  0.00     0.167 HD
ATOM     52  C   UNL A   1      45.765  27.075  29.237  1.00  0.00     0.074 A 
ATOM     53  C   UNL A   1      46.204  25.739  28.885  1.00  0.00     0.031 C 
ATOM     54  C   UNL A   1      46.596  28.067  29.642  1.00  0.00     0.031 A 
BRANCH  41  55
ATOM     55  C   UNL A   1      43.737  33.402  30.874  1.00  0.00    -0.014 A 
ATOM     56  C   UNL A   1      43.753  33.772  32.230  1.00  0.00     0.010 A 
ATOM     57  C   UNL A   1      43.881  34.396  29.889  1.00  0.00     0.010 A 
ATOM     58  C   UNL A   1      43.881  35.116  32.594  1.00  0.00     0.020 A 
ATOM     59  C   UNL A   1      44.028  35.739  30.250  1.00  0.00     0.020 A 
ATOM     60  C   UNL A   1      44.011  36.091  31.601  1.00  0.00     0.054 A 
BRANCH  60  61
ATOM     61  S   UNL A   1      44.202  37.828  32.095  1.00  0.00     0.124 S 
ATOM     62  O   UNL A   1      43.961  38.526  30.835  1.00  0.00    -0.237 OA
ATOM     63  O   UNL A   1      43.166  37.990  33.112  1.00  0.00    -0.237 OA
ATOM     64  O   UNL A   1      45.574  37.896  32.592  1.00  0.00    -0.744 OA
ENDBRANCH  60  61
ENDBRANCH  41  55
BRANCH  42  65
ATOM     65  C   UNL A   1      42.520  23.984  27.808  1.00  0.00    -0.014 A 
ATOM     66  C   UNL A   1      42.289  22.916  28.692  1.00  0.00     0.010 A 
ATOM     67  C   UNL A   1      42.562  23.734  26.424  1.00  0.00     0.010 A 
ATOM     68  C   UNL A   1      42.113  21.618  28.201  1.00  0.00     0.020 A 
ATOM     69  C   UNL A   1      42.363  22.442  25.929  1.00  0.00     0.020 A 
ATOM     70  C   UNL A   1      42.149  21.390  26.823  1.00  0.00     0.054 A 
BRANCH  70  71
ATOM     71  S   UNL A   1      41.847  19.714  26.197  1.00  0.00     0.124 S 
ATOM     72  O   UNL A   1      42.692  19.678  25.007  1.00  0.00    -0.237 OA
ATOM     73  O   UNL A   1      42.284  18.873  27.309  1.00  0.00    -0.237 OA
ATOM     74  O   UNL A   1      40.407  19.701  25.946  1.00  0.00    -0.744 OA
ENDBRANCH  70  71
ENDBRANCH  42  65
BRANCH  54  75
ATOM     75  C   UNL A   1      48.058  27.734  29.750  1.00  0.00    -0.014 A 
ATOM     76  C   UNL A   1      48.940  27.985  28.684  1.00  0.00     0.010 A 
ATOM     77  C   UNL A   1      48.559  27.186  30.945  1.00  0.00     0.010 A 
ATOM     78  C   UNL A   1      50.294  27.661  28.799  1.00  0.00     0.020 A 
ATOM     79  C   UNL A   1      49.916  26.880  31.070  1.00  0.00     0.020 A 
ATOM     80  C   UNL A   1      50.772  27.104  29.989  1.00  0.00     0.054 A 
BRANCH  80  81
ATOM     81  S   UNL A   1      52.538  26.711  30.130  1.00  0.00     0.124 S 
ATOM     82  O   UNL A   1      52.529  25.627  31.109  1.00  0.00    -0.237 OA
ATOM     83  O   UNL A   1      52.895  26.324  28.767  1.00  0.00    -0.237 OA
ATOM     84  O   UNL A   1      53.133  27.963  30.590  1.00  0.00    -0.744 OA
ENDBRANCH  80  81
ENDBRANCH  54  75
ENDBRANCH  28  29
ENDBRANCH  21  23
ENDBRANCH  20  21
ENDBRANCH  19  20
ENDBRANCH   1  19
TORSDOF 18
ENDMDL
MODEL 2
REMARK VINA RESULT:      -9.0      4.962      9.903
REMARK SMILES [NH3+][C@@H](CC(=O)OCCOC(=O)c1ccc(-c2c3nc(c(-c4ccc(S(=O)(=O)[O-])cc4)c4ccc([nH]4)c(-c4ccc(S(=O)(=O)[O-])cc4)c4nc(c(-c5ccc(S(=O)(=O)[O-])cc5)c5ccc2[nH]5)C=C4)C=C3)cc1)Cc1ccc(F)cc1
REMARK SMILES IDX 7 1 6 2 4 3 5 4 3 5 2 6 1 7 72 11 73 12 74 13 79 14 75 15
REMARK SMILES IDX 78 16 76 17 77 18 8 19 9 20 10 21 11 22 12 23 13 24 71 25
REMARK SMILES IDX 14 26 70 27 15 28 16 29 17 30 64 31 18 32 69 33 63 34 65 35
REMARK SMILES IDX 19 36 68 37 62 38 61 39 20 41 50 42 31 43 49 44 32 45 35 46
REMARK SMILES IDX 48 47 66 48 33 49 34 50 47 52 67 53 36 54 21 55 22 56 30 57
REMARK SMILES IDX 23 58 29 59 24 60 25 61 26 62 27 63 28 64 51 65 52 66 60 67
REMARK SMILES IDX 53 68 59 69 54 70 55 71 56 72 57 73 58 74 37 75 38 76 46 77
REMARK SMILES IDX 39 78 45 79 40 80 41 81 42 82 43 83 44 84
REMARK H PARENT 1 8 1 9 1 10 65 40 35 51
REMARK Flexibility Score: inf
ROOT
ATOM      1  C   UNL A   1      36.470  23.071  23.664  1.00  0.00     0.274 C 
ENDROOT
BRANCH   1   2
ATOM      2  O   UNL A   1      35.639  23.808  24.585  1.00  0.00    -0.462 OA
BRANCH   2   3
ATOM      3  C   UNL A   1      34.371  24.052  24.164  1.00  0.00     0.311 C 
ATOM      4  O   UNL A   1      33.585  24.807  24.726  1.00  0.00    -0.252 OA
BRANCH   3   5
ATOM      5  C   UNL A   1      33.954  23.224  22.972  1.00  0.00     0.187 C 
BRANCH   5   6
ATOM      6  C   UNL A   1      32.686  22.362  23.059  1.00  0.00     0.196 C 
BRANCH   6   7
ATOM      7  N   UNL A   1      31.456  23.162  22.959  1.00  0.00    -0.354 N 
ATOM      8  H   UNL A   1      30.665  22.612  23.292  1.00  0.00     0.344 HD
ATOM      9  H   UNL A   1      31.301  23.426  21.986  1.00  0.00     0.344 HD
ATOM     10  H   UNL A   1      31.550  24.004  23.528  1.00  0.00     0.344 HD
ENDBRANCH   6   7
BRANCH   6  11
ATOM     11  C   UNL A   1      32.686  21.429  24.296  1.00  0.00     0.101 C 
BRANCH  11  12
ATOM     12  C   UNL A   1      33.026  19.985  23.983  1.00  0.00    -0.042 A 
ATOM     13  C   UNL A   1      34.091  19.352  24.642  1.00  0.00     0.007 A 
ATOM     14  C   UNL A   1      32.298  19.264  23.022  1.00  0.00     0.007 A 
ATOM     15  C   UNL A   1      34.394  18.015  24.376  1.00  0.00     0.039 A 
ATOM     16  C   UNL A   1      32.599  17.926  22.760  1.00  0.00     0.039 A 
ATOM     17  C   UNL A   1      33.641  17.312  23.443  1.00  0.00     0.123 A 
ATOM     18  F   UNL A   1      33.920  16.025  23.203  1.00  0.00    -0.207 F 
ENDBRANCH  11  12
ENDBRANCH   6  11
ENDBRANCH   5   6
ENDBRANCH   3   5
ENDBRANCH   2   3
ENDBRANCH   1   2
BRANCH   1  19
ATOM     19  C   UNL A   1      37.316  22.032  24.392  1.00  0.00     0.275 C 
BRANCH  19  20
ATOM     20  O   UNL A   1      37.601  22.478  25.727  1.00  0.00    -0.458 OA
BRANCH  20  21
ATOM     21  C   UNL A   1      38.841  22.201  26.187  1.00  0.00     0.338 C 
ATOM     22  O   UNL A   1      39.411  21.124  26.184  1.00  0.00    -0.246 OA
BRANCH  21  23
ATOM     23  C   UNL A   1      39.441  23.427  26.733  1.00  0.00     0.060 A 
ATOM     24  C   UNL A   1      39.284  24.645  26.067  1.00  0.00     0.016 A 
ATOM     25  C   UNL A   1      40.243  23.337  27.871  1.00  0.00     0.016 A 
ATOM     26  C   UNL A   1      39.964  25.776  26.521  1.00  0.00     0.010 A 
ATOM     27  C   UNL A   1      40.886  24.480  28.349  1.00  0.00     0.010 A 
ATOM     28  C   UNL A   1      40.772  25.702  27.664  1.00  0.00    -0.014 A 
BRANCH  28  29
ATOM     29  C   UNL A   1      41.528  26.888  28.141  1.00  0.00     0.031 A 
ATOM     30  C   UNL A   1      40.794  28.058  28.737  1.00  0.00     0.074 A 
ATOM     31  C   UNL A   1      42.867  26.930  28.006  1.00  0.00     0.049 A 
ATOM     32  N   UNL A   1      41.256  29.231  29.088  1.00  0.00    -0.248 NA
ATOM     33  C   UNL A   1      39.349  27.889  28.962  1.00  0.00     0.031 C 
ATOM     34  C   UNL A   1      43.698  25.857  27.457  1.00  0.00     0.029 A 
ATOM     35  N   UNL A   1      43.763  27.926  28.306  1.00  0.00    -0.354 N 
ATOM     36  C   UNL A   1      40.157  29.952  29.539  1.00  0.00     0.074 A 
ATOM     37  C   UNL A   1      39.004  29.086  29.414  1.00  0.00     0.031 C 
ATOM     38  C   UNL A   1      44.982  26.253  27.459  1.00  0.00     0.029 A 
ATOM     39  C   UNL A   1      45.058  27.622  27.961  1.00  0.00     0.049 A 
ATOM     40  H   UNL A   1      43.502  28.776  28.727  1.00  0.00     0.167 HD
ATOM     41  C   UNL A   1      40.112  31.222  30.009  1.00  0.00     0.031 A 
ATOM     42  C   UNL A   1      46.177  28.369  28.012  1.00  0.00     0.031 A 
ATOM     43  C   UNL A   1      41.262  32.077  30.146  1.00  0.00     0.049 A 
ATOM     44  C   UNL A   1      46.100  29.779  28.526  1.00  0.00     0.074 A 
ATOM     45  C   UNL A   1      41.319  33.371  30.636  1.00  0.00     0.029 A 
ATOM     46  N   UNL A   1      42.556  31.725  29.797  1.00  0.00    -0.354 N 
ATOM     47  N   UNL A   1      45.052  30.444  28.948  1.00  0.00    -0.248 NA
ATOM     48  C   UNL A   1      47.358  30.536  28.573  1.00  0.00     0.031 C 
ATOM     49  C   UNL A   1      42.645  33.813  30.551  1.00  0.00     0.029 A 
ATOM     50  C   UNL A   1      43.417  32.780  30.048  1.00  0.00     0.049 A 
ATOM     51  H   UNL A   1      42.823  30.853  29.426  1.00  0.00     0.167 HD
ATOM     52  C   UNL A   1      45.525  31.696  29.322  1.00  0.00     0.074 A 
ATOM     53  C   UNL A   1      46.957  31.689  29.093  1.00  0.00     0.031 C 
ATOM     54  C   UNL A   1      44.837  32.757  29.810  1.00  0.00     0.031 A 
BRANCH  41  55
ATOM     55  C   UNL A   1      38.765  31.778  30.381  1.00  0.00    -0.014 A 
ATOM     56  C   UNL A   1      38.274  31.681  31.694  1.00  0.00     0.010 A 
ATOM     57  C   UNL A   1      37.999  32.446  29.408  1.00  0.00     0.010 A 
ATOM     58  C   UNL A   1      37.024  32.216  32.022  1.00  0.00     0.020 A 
ATOM     59  C   UNL A   1      36.758  32.999  29.737  1.00  0.00     0.020 A 
ATOM     60  C   UNL A   1      36.272  32.867  31.039  1.00  0.00     0.054 A 
BRANCH  60  61
ATOM     61  S   UNL A   1      34.664  33.578  31.491  1.00  0.00     0.124 S 
ATOM     62  O   UNL A   1      35.061  34.807  32.174  1.00  0.00    -0.237 OA
ATOM     63  O   UNL A   1      34.016  33.762  30.194  1.00  0.00    -0.237 OA
ATOM     64  O   UNL A   1      34.062  32.556  32.345  1.00  0.00    -0.744 OA
ENDBRANCH  60  61
ENDBRANCH  41  55
BRANCH  42  65
ATOM     65  C   UNL A   1      47.463  27.801  27.532  1.00  0.00    -0.014 A 
ATOM     66  C   UNL A   1      47.840  27.922  26.184  1.00  0.00     0.010 A 
ATOM     67  C   UNL A   1      48.330  27.156  28.434  1.00  0.00     0.010 A 
ATOM     68  C   UNL A   1      49.060  27.399  25.743  1.00  0.00     0.020 A 
ATOM     69  C   UNL A   1      49.560  26.653  28.001  1.00  0.00     0.020 A 
ATOM     70  C   UNL A   1      49.913  26.770  26.654  1.00  0.00     0.054 A 
BRANCH  70  71
ATOM     71  S   UNL A   1      51.524  26.160  26.081  1.00  0.00     0.124 S 
ATOM     72  O   UNL A   1      51.411  26.324  24.635  1.00  0.00    -0.237 OA
ATOM     73  O   UNL A   1      52.462  27.059  26.749  1.00  0.00    -0.237 OA
ATOM     74  O   UNL A   1      51.551  24.779  26.558  1.00  0.00    -0.744 OA
ENDBRANCH  70  71
ENDBRANCH  42  65
BRANCH  54  75
ATOM     75  C   UNL A   1      45.631  33.987  30.154  1.00  0.00    -0.014 A 
ATOM     76  C   UNL A   1      45.877  34.983  29.194  1.00  0.00     0.010 A 
ATOM     77  C   UNL A   1      46.112  34.159  31.465  1.00  0.00     0.010 A 
ATOM     78  C   UNL A   1      46.624  36.116  29.529  1.00  0.00     0.020 A 
ATOM     79  C   UNL A   1      46.841  35.299  31.809  1.00  0.00     0.020 A 
ATOM     80  C   UNL A   1      47.107  36.263  30.833  1.00  0.00     0.054 A 
BRANCH  80  81
ATOM     81  S   UNL A   1      48.055  37.751  31.257  1.00  0.00     0.124 S 
ATOM     82  O   UNL A   1      49.223  37.185  31.925  1.00  0.00    -0.237 OA
ATOM     83  O   UNL A   1      48.310  38.358  29.953  1.00  0.00    -0.237 OA
ATOM     84  O   UNL A   1      47.146  38.503  32.118  1.00  0.00    -0.744 OA
ENDBRANCH  80  81
ENDBRANCH  54  75
ENDBRANCH  28  29
ENDBRANCH  21  23
ENDBRANCH  20  21
ENDBRANCH  19  20
ENDBRANCH   1  19
TORSDOF 18
ENDMDL
MODEL 3
REMARK VINA RESULT:      -9.0      3.205      3.774
REMARK SMILES [NH3+][C@@H](CC(=O)OCCOC(=O)c1ccc(-c2c3nc(c(-c4ccc(S(=O)(=O)[O-])cc4)c4ccc([nH]4)c(-c4ccc(S(=O)(=O)[O-])cc4)c4nc(c(-c5ccc(S(=O)(=O)[O-])cc5)c5ccc2[nH]5)C=C4)C=C3)cc1)Cc1ccc(F)cc1
REMARK SMILES IDX 7 1 6 2 4 3 5 4 3 5 2 6 1 7 72 11 73 12 74 13 79 14 75 15
REMARK SMILES IDX 78 16 76 17 77 18 8 19 9 20 10 21 11 22 12 23 13 24 71 25
REMARK SMILES IDX 14 26 70 27 15 28 16 29 17 30 64 31 18 32 69 33 63 34 65 35
REMARK SMILES IDX 19 36 68 37 62 38 61 39 20 41 50 42 31 43 49 44 32 45 35 46
REMARK SMILES IDX 48 47 66 48 33 49 34 50 47 52 67 53 36 54 21 55 22 56 30 57
REMARK SMILES IDX 23 58 29 59 24 60 25 61 26 62 27 63 28 64 51 65 52 66 60 67
REMARK SMILES IDX 53 68 59 69 54 70 55 71 56 72 57 73 58 74 37 75 38 76 46 77
REMARK SMILES IDX 39 78 45 79 40 80 41 81 42 82 43 83 44 84
REMARK H PARENT 1 8 1 9 1 10 65 40 35 51
REMARK Flexibility Score: inf
ROOT
ATOM      1  C   UNL A   1      33.831  34.788  29.208  1.00  0.00     0.274 C 
ENDROOT
BRANCH   1   2
ATOM      2  O   UNL A   1      32.753  34.809  30.165  1.00  0.00    -0.462 OA
BRANCH   2   3
ATOM      3  C   UNL A   1      32.876  35.717  31.168  1.00  0.00     0.311 C 
ATOM      4  O   UNL A   1      32.131  36.677  31.334  1.00  0.00    -0.252 OA
BRANCH   3   5
ATOM      5  C   UNL A   1      34.097  35.508  32.032  1.00  0.00     0.187 C 
BRANCH   5   6
ATOM      6  C   UNL A   1      34.420  34.100  32.553  1.00  0.00     0.196 C 
BRANCH   6   7
ATOM      7  N   UNL A   1      33.255  33.449  33.169  1.00  0.00    -0.354 N 
ATOM      8  H   UNL A   1      32.599  34.160  33.492  1.00  0.00     0.344 HD
ATOM      9  H   UNL A   1      33.560  32.883  33.960  1.00  0.00     0.344 HD
ATOM     10  H   UNL A   1      32.796  32.850  32.481  1.00  0.00     0.344 HD
ENDBRANCH   6   7
BRANCH   6  11
ATOM     11  C   UNL A   1      35.665  34.079  33.475  1.00  0.00     0.101 C 
BRANCH  11  12
ATOM     12  C   UNL A   1      36.984  34.198  32.737  1.00  0.00    -0.042 A 
ATOM     13  C   UNL A   1      38.144  34.591  33.423  1.00  0.00     0.007 A 
ATOM     14  C   UNL A   1      37.067  33.934  31.359  1.00  0.00     0.007 A 
ATOM     15  C   UNL A   1      39.367  34.679  32.754  1.00  0.00     0.039 A 
ATOM     16  C   UNL A   1      38.291  34.019  30.693  1.00  0.00     0.039 A 
ATOM     17  C   UNL A   1      39.431  34.384  31.397  1.00  0.00     0.123 A 
ATOM     18  F   UNL A   1      40.607  34.450  30.761  1.00  0.00    -0.207 F 
ENDBRANCH  11  12
ENDBRANCH   6  11
ENDBRANCH   5   6
ENDBRANCH   3   5
ENDBRANCH   2   3
ENDBRANCH   1   2
BRANCH   1  19
ATOM     19  C   UNL A   1      33.822  33.498  28.393  1.00  0.00     0.275 C 
BRANCH  19  20
ATOM     20  O   UNL A   1      34.589  32.487  29.065  1.00  0.00    -0.458 OA
BRANCH  20  21
ATOM     21  C   UNL A   1      34.859  31.377  28.344  1.00  0.00     0.338 C 
ATOM     22  O   UNL A   1      34.210  30.915  27.421  1.00  0.00    -0.246 OA
BRANCH  21  23
ATOM     23  C   UNL A   1      36.093  30.758  28.849  1.00  0.00     0.060 A 
ATOM     24  C   UNL A   1      36.030  29.710  29.771  1.00  0.00     0.016 A 
ATOM     25  C   UNL A   1      37.322  31.296  28.467  1.00  0.00     0.016 A 
ATOM     26  C   UNL A   1      37.203  29.219  30.343  1.00  0.00     0.010 A 
ATOM     27  C   UNL A   1      38.498  30.771  29.007  1.00  0.00     0.010 A 
ATOM     28  C   UNL A   1      38.447  29.746  29.968  1.00  0.00    -0.014 A 
BRANCH  28  29
ATOM     29  C   UNL A   1      39.703  29.256  30.591  1.00  0.00     0.031 A 
ATOM     30  C   UNL A   1      40.241  29.925  31.826  1.00  0.00     0.074 A 
ATOM     31  C   UNL A   1      40.378  28.237  30.028  1.00  0.00     0.049 A 
ATOM     32  N   UNL A   1      41.380  29.734  32.439  1.00  0.00    -0.248 NA
ATOM     33  C   UNL A   1      39.388  30.950  32.450  1.00  0.00     0.031 C 
ATOM     34  C   UNL A   1      39.956  27.494  28.838  1.00  0.00     0.029 A 
ATOM     35  N   UNL A   1      41.574  27.660  30.374  1.00  0.00    -0.354 N 
ATOM     36  C   UNL A   1      41.400  30.636  33.496  1.00  0.00     0.074 A 
ATOM     37  C   UNL A   1      40.158  31.378  33.439  1.00  0.00     0.031 C 
ATOM     38  C   UNL A   1      40.880  26.562  28.554  1.00  0.00     0.029 A 
ATOM     39  C   UNL A   1      41.979  26.672  29.509  1.00  0.00     0.049 A 
ATOM     40  H   UNL A   1      42.092  27.928  31.167  1.00  0.00     0.167 HD
ATOM     41  C   UNL A   1      42.366  30.831  34.425  1.00  0.00     0.031 A 
ATOM     42  C   UNL A   1      43.120  25.958  29.466  1.00  0.00     0.031 A 
ATOM     43  C   UNL A   1      43.593  30.082  34.489  1.00  0.00     0.049 A 
ATOM     44  C   UNL A   1      44.181  26.201  30.501  1.00  0.00     0.074 A 
ATOM     45  C   UNL A   1      44.622  30.192  35.409  1.00  0.00     0.029 A 
ATOM     46  N   UNL A   1      43.958  29.083  33.600  1.00  0.00    -0.354 N 
ATOM     47  N   UNL A   1      44.182  27.058  31.493  1.00  0.00    -0.248 NA
ATOM     48  C   UNL A   1      45.395  25.377  30.411  1.00  0.00     0.031 C 
ATOM     49  C   UNL A   1      45.624  29.280  35.056  1.00  0.00     0.029 A 
ATOM     50  C   UNL A   1      45.200  28.576  33.942  1.00  0.00     0.049 A 
ATOM     51  H   UNL A   1      43.413  28.779  32.839  1.00  0.00     0.167 HD
ATOM     52  C   UNL A   1      45.390  26.869  32.154  1.00  0.00     0.074 A 
ATOM     53  C   UNL A   1      46.087  25.805  31.460  1.00  0.00     0.031 C 
ATOM     54  C   UNL A   1      45.880  27.520  33.237  1.00  0.00     0.031 A 
BRANCH  41  55
ATOM     55  C   UNL A   1      42.148  31.924  35.435  1.00  0.00    -0.014 A 
ATOM     56  C   UNL A   1      42.414  33.269  35.123  1.00  0.00     0.010 A 
ATOM     57  C   UNL A   1      41.629  31.603  36.702  1.00  0.00     0.010 A 
ATOM     58  C   UNL A   1      42.192  34.271  36.072  1.00  0.00     0.020 A 
ATOM     59  C   UNL A   1      41.388  32.604  37.647  1.00  0.00     0.020 A 
ATOM     60  C   UNL A   1      41.685  33.931  37.330  1.00  0.00     0.054 A 
BRANCH  60  61
ATOM     61  S   UNL A   1      41.380  35.250  38.540  1.00  0.00     0.124 S 
ATOM     62  O   UNL A   1      41.450  36.446  37.703  1.00  0.00    -0.237 OA
ATOM     63  O   UNL A   1      40.052  34.919  39.051  1.00  0.00    -0.237 OA
ATOM     64  O   UNL A   1      42.469  35.097  39.501  1.00  0.00    -0.744 OA
ENDBRANCH  60  61
ENDBRANCH  41  55
BRANCH  42  65
ATOM     65  C   UNL A   1      43.324  24.962  28.382  1.00  0.00    -0.014 A 
ATOM     66  C   UNL A   1      43.966  25.328  27.187  1.00  0.00     0.010 A 
ATOM     67  C   UNL A   1      42.897  23.633  28.554  1.00  0.00     0.010 A 
ATOM     68  C   UNL A   1      44.170  24.382  26.177  1.00  0.00     0.020 A 
ATOM     69  C   UNL A   1      43.119  22.680  27.557  1.00  0.00     0.020 A 
ATOM     70  C   UNL A   1      43.747  23.064  26.370  1.00  0.00     0.054 A 
BRANCH  70  71
ATOM     71  S   UNL A   1      44.083  21.832  25.080  1.00  0.00     0.124 S 
ATOM     72  O   UNL A   1      43.866  22.604  23.860  1.00  0.00    -0.237 OA
ATOM     73  O   UNL A   1      45.468  21.454  25.352  1.00  0.00    -0.237 OA
ATOM     74  O   UNL A   1      43.097  20.786  25.346  1.00  0.00    -0.744 OA
ENDBRANCH  70  71
ENDBRANCH  42  65
BRANCH  54  75
ATOM     75  C   UNL A   1      47.221  27.077  33.753  1.00  0.00    -0.014 A 
ATOM     76  C   UNL A   1      48.411  27.632  33.249  1.00  0.00     0.010 A 
ATOM     77  C   UNL A   1      47.289  26.112  34.774  1.00  0.00     0.010 A 
ATOM     78  C   UNL A   1      49.649  27.202  33.733  1.00  0.00     0.020 A 
ATOM     79  C   UNL A   1      48.524  25.695  35.275  1.00  0.00     0.020 A 
ATOM     80  C   UNL A   1      49.698  26.230  34.738  1.00  0.00     0.054 A 
BRANCH  80  81
ATOM     81  S   UNL A   1      51.313  25.701  35.373  1.00  0.00     0.124 S 
ATOM     82  O   UNL A   1      51.536  24.462  34.634  1.00  0.00    -0.237 OA
ATOM     83  O   UNL A   1      52.187  26.815  35.010  1.00  0.00    -0.237 OA
ATOM     84  O   UNL A   1      51.084  25.541  36.807  1.00  0.00    -0.744 OA
ENDBRANCH  80  81
ENDBRANCH  54  75
ENDBRANCH  28  29
ENDBRANCH  21  23
ENDBRANCH  20  21
ENDBRANCH  19  20
ENDBRANCH   1  19
TORSDOF 18
ENDMDL
