MODEL 1
REMARK VINA RESULT:     -10.8      0.000      0.000
REMARK SMILES CN(Cc1ccnn1C)C(=O)c1c(C(=O)OCCOC(=O)c2ccc(-c3c4nc(c(-c5ccc(S(=O)(=O)[O-])cc5)c5ccc([nH]5)c(-c5ccc(S(=O)(=O)[O-])cc5)c5nc(c(-c6ccc(S(=O)(=O)[O-])cc6)c6ccc3[nH]6)C=C5)C=C4)cc2)cnn1C
REMARK SMILES IDX 17 1 16 2 14 3 15 4 13 5 12 6 84 7 82 8 83 9 85 10 10 11
REMARK SMILES IDX 11 12 2 13 1 14 3 15 4 16 5 17 8 18 6 19 7 20 9 21 18 22
REMARK SMILES IDX 19 23 20 24 21 25 22 26 23 27 81 28 24 29 80 30 25 31 26 32
REMARK SMILES IDX 27 33 74 34 28 35 79 36 73 37 75 38 29 39 78 40 72 41 71 42
REMARK SMILES IDX 30 44 60 45 41 46 59 47 42 48 45 49 58 50 76 51 43 52 44 53
REMARK SMILES IDX 57 55 77 56 46 57 31 58 32 59 40 60 33 61 39 62 34 63 35 64
REMARK SMILES IDX 36 65 37 66 38 67 61 68 62 69 70 70 63 71 69 72 64 73 65 74
REMARK SMILES IDX 66 75 67 76 68 77 47 78 48 79 56 80 49 81 55 82 50 83 51 84
REMARK SMILES IDX 52 85 53 86 54 87
REMARK H PARENT 75 43 45 54
REMARK Flexibility Score: inf
ROOT
ATOM      1  C   UNL A   1      33.739  32.246  27.910  1.00  0.00     0.275 C 
ENDROOT
BRANCH   1   2
ATOM      2  O   UNL A   1      33.920  32.964  29.150  1.00  0.00    -0.458 OA
BRANCH   2   3
ATOM      3  C   UNL A   1      34.174  34.295  29.006  1.00  0.00     0.342 C 
ATOM      4  O   UNL A   1      34.770  34.776  28.045  1.00  0.00    -0.246 OA
BRANCH   3   5
ATOM      5  C   UNL A   1      33.638  35.143  30.053  1.00  0.00     0.111 A 
ATOM      6  C   UNL A   1      33.826  35.076  31.431  1.00  0.00     0.140 A 
ATOM      7  N   UNL A   1      33.441  36.321  31.873  1.00  0.00    -0.262 N 
ATOM      8  C   UNL A   1      32.879  36.322  29.864  1.00  0.00     0.151 A 
ATOM      9  N   UNL A   1      32.666  36.981  30.998  1.00  0.00    -0.180 NA
ATOM     10  C   UNL A   1      34.021  37.087  32.953  1.00  0.00     0.174 C 
BRANCH   6  11
ATOM     11  C   UNL A   1      34.566  34.109  32.195  1.00  0.00     0.273 C 
ATOM     12  O   UNL A   1      34.008  33.100  32.625  1.00  0.00    -0.267 OA
BRANCH  11  13
ATOM     13  N   UNL A   1      35.926  34.351  32.465  1.00  0.00    -0.334 N 
ATOM     14  C   UNL A   1      36.829  34.085  31.356  1.00  0.00     0.147 C 
BRANCH  13  15
ATOM     15  C   UNL A   1      36.521  34.375  33.805  1.00  0.00     0.175 C 
BRANCH  15  16
ATOM     16  C   UNL A   1      37.068  33.053  34.232  1.00  0.00     0.057 A 
ATOM     17  C   UNL A   1      37.362  31.950  33.448  1.00  0.00     0.047 A 
ATOM     18  N   UNL A   1      37.447  32.689  35.503  1.00  0.00    -0.271 N 
ATOM     19  C   UNL A   1      37.804  30.961  34.338  1.00  0.00     0.135 A 
ATOM     20  N   UNL A   1      37.835  31.400  35.595  1.00  0.00    -0.181 NA
ATOM     21  C   UNL A   1      37.447  33.468  36.716  1.00  0.00     0.174 C 
ENDBRANCH  15  16
ENDBRANCH  13  15
ENDBRANCH  11  13
ENDBRANCH   6  11
ENDBRANCH   3   5
ENDBRANCH   2   3
ENDBRANCH   1   2
BRANCH   1  22
ATOM     22  C   UNL A   1      34.656  31.024  27.804  1.00  0.00     0.275 C 
BRANCH  22  23
ATOM     23  O   UNL A   1      36.008  31.339  28.186  1.00  0.00    -0.458 OA
BRANCH  23  24
ATOM     24  C   UNL A   1      36.464  30.685  29.279  1.00  0.00     0.338 C 
ATOM     25  O   UNL A   1      35.902  30.565  30.353  1.00  0.00    -0.246 OA
BRANCH  24  26
ATOM     26  C   UNL A   1      37.737  30.010  28.975  1.00  0.00     0.060 A 
ATOM     27  C   UNL A   1      38.598  29.752  30.033  1.00  0.00     0.016 A 
ATOM     28  C   UNL A   1      38.162  29.800  27.667  1.00  0.00     0.016 A 
ATOM     29  C   UNL A   1      39.919  29.384  29.801  1.00  0.00     0.010 A 
ATOM     30  C   UNL A   1      39.461  29.319  27.437  1.00  0.00     0.010 A 
ATOM     31  C   UNL A   1      40.367  29.138  28.500  1.00  0.00    -0.014 A 
BRANCH  31  32
ATOM     32  C   UNL A   1      41.781  28.716  28.270  1.00  0.00     0.031 A 
ATOM     33  C   UNL A   1      42.905  29.716  28.375  1.00  0.00     0.074 A 
ATOM     34  C   UNL A   1      42.065  27.425  27.994  1.00  0.00     0.049 A 
ATOM     35  N   UNL A   1      44.168  29.574  28.062  1.00  0.00    -0.248 NA
ATOM     36  C   UNL A   1      42.564  31.053  28.889  1.00  0.00     0.031 C 
ATOM     37  C   UNL A   1      41.090  26.334  27.921  1.00  0.00     0.029 A 
ATOM     38  N   UNL A   1      43.265  26.806  27.734  1.00  0.00    -0.354 N 
ATOM     39  C   UNL A   1      44.759  30.814  28.283  1.00  0.00     0.074 A 
ATOM     40  C   UNL A   1      43.714  31.699  28.753  1.00  0.00     0.031 C 
ATOM     41  C   UNL A   1      41.730  25.181  27.684  1.00  0.00     0.029 A 
ATOM     42  C   UNL A   1      43.146  25.458  27.482  1.00  0.00     0.049 A 
ATOM     43  H   UNL A   1      44.128  27.281  27.730  1.00  0.00     0.167 HD
ATOM     44  C   UNL A   1      46.051  31.182  28.106  1.00  0.00     0.031 A 
ATOM     45  C   UNL A   1      44.056  24.550  27.080  1.00  0.00     0.031 A 
ATOM     46  C   UNL A   1      47.093  30.286  27.673  1.00  0.00     0.049 A 
ATOM     47  C   UNL A   1      45.470  24.993  26.835  1.00  0.00     0.074 A 
ATOM     48  C   UNL A   1      48.435  30.562  27.475  1.00  0.00     0.029 A 
ATOM     49  N   UNL A   1      46.916  28.942  27.382  1.00  0.00    -0.354 N 
ATOM     50  N   UNL A   1      45.999  26.182  27.000  1.00  0.00    -0.248 NA
ATOM     51  C   UNL A   1      46.406  23.977  26.334  1.00  0.00     0.031 C 
ATOM     52  C   UNL A   1      49.058  29.397  27.011  1.00  0.00     0.029 A 
ATOM     53  C   UNL A   1      48.118  28.381  26.982  1.00  0.00     0.049 A 
ATOM     54  H   UNL A   1      46.061  28.458  27.448  1.00  0.00     0.167 HD
ATOM     55  C   UNL A   1      47.334  26.054  26.637  1.00  0.00     0.074 A 
ATOM     56  C   UNL A   1      47.536  24.667  26.266  1.00  0.00     0.031 C 
ATOM     57  C   UNL A   1      48.304  27.000  26.611  1.00  0.00     0.031 A 
BRANCH  44  58
ATOM     58  C   UNL A   1      46.407  32.631  28.329  1.00  0.00    -0.014 A 
ATOM     59  C   UNL A   1      46.949  33.081  29.546  1.00  0.00     0.010 A 
ATOM     60  C   UNL A   1      46.237  33.550  27.276  1.00  0.00     0.010 A 
ATOM     61  C   UNL A   1      47.276  34.431  29.718  1.00  0.00     0.020 A 
ATOM     62  C   UNL A   1      46.590  34.893  27.434  1.00  0.00     0.020 A 
ATOM     63  C   UNL A   1      47.092  35.329  28.661  1.00  0.00     0.054 A 
BRANCH  63  64
ATOM     64  S   UNL A   1      47.543  37.069  28.905  1.00  0.00     0.124 S 
ATOM     65  O   UNL A   1      46.962  37.699  27.721  1.00  0.00    -0.237 OA
ATOM     66  O   UNL A   1      46.892  37.395  30.171  1.00  0.00    -0.237 OA
ATOM     67  O   UNL A   1      49.002  37.049  28.946  1.00  0.00    -0.744 OA
ENDBRANCH  63  64
ENDBRANCH  44  58
BRANCH  45  68
ATOM     68  C   UNL A   1      43.637  23.142  26.824  1.00  0.00    -0.014 A 
ATOM     69  C   UNL A   1      43.908  22.522  25.592  1.00  0.00     0.010 A 
ATOM     70  C   UNL A   1      42.978  22.407  27.828  1.00  0.00     0.010 A 
ATOM     71  C   UNL A   1      43.520  21.198  25.366  1.00  0.00     0.020 A 
ATOM     72  C   UNL A   1      42.620  21.073  27.618  1.00  0.00     0.020 A 
ATOM     73  C   UNL A   1      42.882  20.480  26.383  1.00  0.00     0.054 A 
BRANCH  73  74
ATOM     74  S   UNL A   1      42.441  18.745  26.090  1.00  0.00     0.124 S 
ATOM     75  O   UNL A   1      41.026  18.847  25.742  1.00  0.00    -0.237 OA
ATOM     76  O   UNL A   1      43.335  18.370  24.998  1.00  0.00    -0.237 OA
ATOM     77  O   UNL A   1      42.726  18.098  27.369  1.00  0.00    -0.744 OA
ENDBRANCH  73  74
ENDBRANCH  45  68
BRANCH  57  78
ATOM     78  C   UNL A   1      49.683  26.561  26.198  1.00  0.00    -0.014 A 
ATOM     79  C   UNL A   1      50.181  26.832  24.911  1.00  0.00     0.010 A 
ATOM     80  C   UNL A   1      50.508  25.903  27.129  1.00  0.00     0.010 A 
ATOM     81  C   UNL A   1      51.467  26.423  24.551  1.00  0.00     0.020 A 
ATOM     82  C   UNL A   1      51.805  25.518  26.781  1.00  0.00     0.020 A 
ATOM     83  C   UNL A   1      52.271  25.768  25.489  1.00  0.00     0.054 A 
BRANCH  83  84
ATOM     84  S   UNL A   1      53.951  25.281  25.011  1.00  0.00     0.124 S 
ATOM     85  O   UNL A   1      54.094  25.920  23.706  1.00  0.00    -0.237 OA
ATOM     86  O   UNL A   1      54.767  25.850  26.082  1.00  0.00    -0.237 OA
ATOM     87  O   UNL A   1      53.897  23.821  24.987  1.00  0.00    -0.744 OA
ENDBRANCH  83  84
ENDBRANCH  57  78
ENDBRANCH  31  32
ENDBRANCH  24  26
ENDBRANCH  23  24
ENDBRANCH  22  23
ENDBRANCH   1  22
TORSDOF 18
ENDMDL
MODEL 2
REMARK VINA RESULT:     -10.6      5.780     14.598
REMARK SMILES CN(Cc1ccnn1C)C(=O)c1c(C(=O)OCCOC(=O)c2ccc(-c3c4nc(c(-c5ccc(S(=O)(=O)[O-])cc5)c5ccc([nH]5)c(-c5ccc(S(=O)(=O)[O-])cc5)c5nc(c(-c6ccc(S(=O)(=O)[O-])cc6)c6ccc3[nH]6)C=C5)C=C4)cc2)cnn1C
REMARK SMILES IDX 17 1 16 2 14 3 15 4 13 5 12 6 84 7 82 8 83 9 85 10 10 11
REMARK SMILES IDX 11 12 2 13 1 14 3 15 4 16 5 17 8 18 6 19 7 20 9 21 18 22
REMARK SMILES IDX 19 23 20 24 21 25 22 26 23 27 81 28 24 29 80 30 25 31 26 32
REMARK SMILES IDX 27 33 74 34 28 35 79 36 73 37 75 38 29 39 78 40 72 41 71 42
REMARK SMILES IDX 30 44 60 45 41 46 59 47 42 48 45 49 58 50 76 51 43 52 44 53
REMARK SMILES IDX 57 55 77 56 46 57 31 58 32 59 40 60 33 61 39 62 34 63 35 64
REMARK SMILES IDX 36 65 37 66 38 67 61 68 62 69 70 70 63 71 69 72 64 73 65 74
REMARK SMILES IDX 66 75 67 76 68 77 47 78 48 79 56 80 49 81 55 82 50 83 51 84
REMARK SMILES IDX 52 85 53 86 54 87
REMARK H PARENT 75 43 45 54
REMARK Flexibility Score: inf
ROOT
ATOM      1  C   UNL A   1      39.996  22.173  26.903  1.00  0.00     0.275 C 
ENDROOT
BRANCH   1   2
ATOM      2  O   UNL A   1      41.276  21.828  26.330  1.00  0.00    -0.458 OA
BRANCH   2   3
ATOM      3  C   UNL A   1      41.803  20.654  26.781  1.00  0.00     0.342 C 
ATOM      4  O   UNL A   1      41.415  20.075  27.792  1.00  0.00    -0.246 OA
BRANCH   3   5
ATOM      5  C   UNL A   1      42.841  20.083  25.945  1.00  0.00     0.111 A 
ATOM      6  C   UNL A   1      43.803  20.721  25.165  1.00  0.00     0.140 A 
ATOM      7  N   UNL A   1      44.741  19.739  24.937  1.00  0.00    -0.262 N 
ATOM      8  C   UNL A   1      43.168  18.710  25.843  1.00  0.00     0.151 A 
ATOM      9  N   UNL A   1      44.270  18.497  25.131  1.00  0.00    -0.180 NA
ATOM     10  C   UNL A   1      46.175  19.899  24.852  1.00  0.00     0.174 C 
BRANCH   6  11
ATOM     11  C   UNL A   1      43.992  22.127  24.937  1.00  0.00     0.273 C 
ATOM     12  O   UNL A   1      43.467  22.673  23.967  1.00  0.00    -0.267 OA
BRANCH  11  13
ATOM     13  N   UNL A   1      44.806  22.858  25.822  1.00  0.00    -0.334 N 
ATOM     14  C   UNL A   1      45.964  23.491  25.212  1.00  0.00     0.147 C 
BRANCH  13  15
ATOM     15  C   UNL A   1      44.860  22.649  27.273  1.00  0.00     0.175 C 
BRANCH  15  16
ATOM     16  C   UNL A   1      44.353  23.815  28.056  1.00  0.00     0.057 A 
ATOM     17  C   UNL A   1      43.053  24.089  28.446  1.00  0.00     0.047 A 
ATOM     18  N   UNL A   1      45.103  24.830  28.603  1.00  0.00    -0.271 N 
ATOM     19  C   UNL A   1      43.111  25.319  29.116  1.00  0.00     0.135 A 
ATOM     20  N   UNL A   1      44.356  25.786  29.193  1.00  0.00    -0.181 NA
ATOM     21  C   UNL A   1      46.532  25.020  28.594  1.00  0.00     0.174 C 
ENDBRANCH  15  16
ENDBRANCH  13  15
ENDBRANCH  11  13
ENDBRANCH   6  11
ENDBRANCH   3   5
ENDBRANCH   2   3
ENDBRANCH   1   2
BRANCH   1  22
ATOM     22  C   UNL A   1      39.482  23.528  26.407  1.00  0.00     0.275 C 
BRANCH  22  23
ATOM     23  O   UNL A   1      39.489  24.516  27.455  1.00  0.00    -0.458 OA
BRANCH  23  24
ATOM     24  C   UNL A   1      39.974  25.728  27.098  1.00  0.00     0.338 C 
ATOM     25  O   UNL A   1      40.392  26.061  26.004  1.00  0.00    -0.246 OA
BRANCH  24  26
ATOM     26  C   UNL A   1      39.835  26.680  28.213  1.00  0.00     0.060 A 
ATOM     27  C   UNL A   1      40.552  27.866  28.141  1.00  0.00     0.016 A 
ATOM     28  C   UNL A   1      39.168  26.343  29.387  1.00  0.00     0.016 A 
ATOM     29  C   UNL A   1      40.699  28.678  29.260  1.00  0.00     0.010 A 
ATOM     30  C   UNL A   1      39.224  27.218  30.484  1.00  0.00     0.010 A 
ATOM     31  C   UNL A   1      40.019  28.381  30.445  1.00  0.00    -0.014 A 
BRANCH  31  32
ATOM     32  C   UNL A   1      40.165  29.278  31.629  1.00  0.00     0.031 A 
ATOM     33  C   UNL A   1      41.341  29.128  32.562  1.00  0.00     0.074 A 
ATOM     34  C   UNL A   1      39.258  30.252  31.857  1.00  0.00     0.049 A 
ATOM     35  N   UNL A   1      41.557  29.705  33.717  1.00  0.00    -0.248 NA
ATOM     36  C   UNL A   1      42.407  28.201  32.148  1.00  0.00     0.031 C 
ATOM     37  C   UNL A   1      38.103  30.557  31.008  1.00  0.00     0.029 A 
ATOM     38  N   UNL A   1      39.170  31.178  32.869  1.00  0.00    -0.354 N 
ATOM     39  C   UNL A   1      42.750  29.170  34.195  1.00  0.00     0.074 A 
ATOM     40  C   UNL A   1      43.208  28.218  33.206  1.00  0.00     0.031 C 
ATOM     41  C   UNL A   1      37.454  31.619  31.505  1.00  0.00     0.029 A 
ATOM     42  C   UNL A   1      38.077  32.008  32.763  1.00  0.00     0.049 A 
ATOM     43  H   UNL A   1      39.826  31.242  33.601  1.00  0.00     0.167 HD
ATOM     44  C   UNL A   1      43.399  29.443  35.352  1.00  0.00     0.031 A 
ATOM     45  C   UNL A   1      37.592  32.943  33.603  1.00  0.00     0.031 A 
ATOM     46  C   UNL A   1      42.955  30.419  36.315  1.00  0.00     0.049 A 
ATOM     47  C   UNL A   1      38.297  33.189  34.906  1.00  0.00     0.074 A 
ATOM     48  C   UNL A   1      43.550  30.777  37.513  1.00  0.00     0.029 A 
ATOM     49  N   UNL A   1      41.817  31.201  36.188  1.00  0.00    -0.354 N 
ATOM     50  N   UNL A   1      39.394  32.636  35.364  1.00  0.00    -0.248 NA
ATOM     51  C   UNL A   1      37.689  34.172  35.813  1.00  0.00     0.031 C 
ATOM     52  C   UNL A   1      42.742  31.735  38.135  1.00  0.00     0.029 A 
ATOM     53  C   UNL A   1      41.678  32.021  37.296  1.00  0.00     0.049 A 
ATOM     54  H   UNL A   1      41.197  31.177  35.423  1.00  0.00     0.167 HD
ATOM     55  C   UNL A   1      39.617  33.215  36.607  1.00  0.00     0.074 A 
ATOM     56  C   UNL A   1      38.553  34.177  36.818  1.00  0.00     0.031 C 
ATOM     57  C   UNL A   1      40.612  32.970  37.495  1.00  0.00     0.031 A 
BRANCH  44  58
ATOM     58  C   UNL A   1      44.634  28.640  35.674  1.00  0.00    -0.014 A 
ATOM     59  C   UNL A   1      45.921  29.094  35.336  1.00  0.00     0.010 A 
ATOM     60  C   UNL A   1      44.500  27.425  36.372  1.00  0.00     0.010 A 
ATOM     61  C   UNL A   1      47.048  28.327  35.655  1.00  0.00     0.020 A 
ATOM     62  C   UNL A   1      45.625  26.670  36.719  1.00  0.00     0.020 A 
ATOM     63  C   UNL A   1      46.891  27.119  36.342  1.00  0.00     0.054 A 
BRANCH  63  64
ATOM     64  S   UNL A   1      48.370  26.155  36.762  1.00  0.00     0.124 S 
ATOM     65  O   UNL A   1      49.236  26.416  35.614  1.00  0.00    -0.237 OA
ATOM     66  O   UNL A   1      48.800  26.757  38.021  1.00  0.00    -0.237 OA
ATOM     67  O   UNL A   1      47.876  24.785  36.867  1.00  0.00    -0.744 OA
ENDBRANCH  63  64
ENDBRANCH  44  58
BRANCH  45  68
ATOM     68  C   UNL A   1      36.337  33.671  33.258  1.00  0.00    -0.014 A 
ATOM     69  C   UNL A   1      36.382  34.933  32.643  1.00  0.00     0.010 A 
ATOM     70  C   UNL A   1      35.084  33.087  33.530  1.00  0.00     0.010 A 
ATOM     71  C   UNL A   1      35.199  35.602  32.315  1.00  0.00     0.020 A 
ATOM     72  C   UNL A   1      33.901  33.737  33.171  1.00  0.00     0.020 A 
ATOM     73  C   UNL A   1      33.965  34.998  32.577  1.00  0.00     0.054 A 
BRANCH  73  74
ATOM     74  S   UNL A   1      32.444  35.857  32.089  1.00  0.00     0.124 S 
ATOM     75  O   UNL A   1      31.412  34.971  32.621  1.00  0.00    -0.237 OA
ATOM     76  O   UNL A   1      32.579  37.146  32.761  1.00  0.00    -0.237 OA
ATOM     77  O   UNL A   1      32.533  35.911  30.631  1.00  0.00    -0.744 OA
ENDBRANCH  73  74
ENDBRANCH  45  68
BRANCH  57  78
ATOM     78  C   UNL A   1      40.616  33.780  38.765  1.00  0.00    -0.014 A 
ATOM     79  C   UNL A   1      39.910  33.355  39.903  1.00  0.00     0.010 A 
ATOM     80  C   UNL A   1      41.374  34.963  38.828  1.00  0.00     0.010 A 
ATOM     81  C   UNL A   1      39.934  34.117  41.074  1.00  0.00     0.020 A 
ATOM     82  C   UNL A   1      41.425  35.713  40.006  1.00  0.00     0.020 A 
ATOM     83  C   UNL A   1      40.691  35.292  41.117  1.00  0.00     0.054 A 
BRANCH  83  84
ATOM     84  S   UNL A   1      40.739  36.243  42.661  1.00  0.00     0.124 S 
ATOM     85  O   UNL A   1      41.548  35.386  43.522  1.00  0.00    -0.237 OA
ATOM     86  O   UNL A   1      41.371  37.495  42.246  1.00  0.00    -0.237 OA
ATOM     87  O   UNL A   1      39.333  36.359  43.041  1.00  0.00    -0.744 OA
ENDBRANCH  83  84
ENDBRANCH  57  78
ENDBRANCH  31  32
ENDBRANCH  24  26
ENDBRANCH  23  24
ENDBRANCH  22  23
ENDBRANCH   1  22
TORSDOF 18
ENDMDL
MODEL 3
REMARK VINA RESULT:     -10.5      4.191      6.032
REMARK SMILES CN(Cc1ccnn1C)C(=O)c1c(C(=O)OCCOC(=O)c2ccc(-c3c4nc(c(-c5ccc(S(=O)(=O)[O-])cc5)c5ccc([nH]5)c(-c5ccc(S(=O)(=O)[O-])cc5)c5nc(c(-c6ccc(S(=O)(=O)[O-])cc6)c6ccc3[nH]6)C=C5)C=C4)cc2)cnn1C
REMARK SMILES IDX 17 1 16 2 14 3 15 4 13 5 12 6 84 7 82 8 83 9 85 10 10 11
REMARK SMILES IDX 11 12 2 13 1 14 3 15 4 16 5 17 8 18 6 19 7 20 9 21 18 22
REMARK SMILES IDX 19 23 20 24 21 25 22 26 23 27 81 28 24 29 80 30 25 31 26 32
REMARK SMILES IDX 27 33 74 34 28 35 79 36 73 37 75 38 29 39 78 40 72 41 71 42
REMARK SMILES IDX 30 44 60 45 41 46 59 47 42 48 45 49 58 50 76 51 43 52 44 53
REMARK SMILES IDX 57 55 77 56 46 57 31 58 32 59 40 60 33 61 39 62 34 63 35 64
REMARK SMILES IDX 36 65 37 66 38 67 61 68 62 69 70 70 63 71 69 72 64 73 65 74
REMARK SMILES IDX 66 75 67 76 68 77 47 78 48 79 56 80 49 81 55 82 50 83 51 84
REMARK SMILES IDX 52 85 53 86 54 87
REMARK H PARENT 75 43 45 54
REMARK Flexibility Score: inf
ROOT
ATOM      1  C   UNL A   1      34.068  29.229  26.539  1.00  0.00     0.275 C 
ENDROOT
BRANCH   1   2
ATOM      2  O   UNL A   1      33.448  27.967  26.871  1.00  0.00    -0.458 OA
BRANCH   2   3
ATOM      3  C   UNL A   1      32.085  27.987  26.887  1.00  0.00     0.342 C 
ATOM      4  O   UNL A   1      31.417  28.133  27.907  1.00  0.00    -0.246 OA
BRANCH   3   5
ATOM      5  C   UNL A   1      31.452  27.880  25.587  1.00  0.00     0.111 A 
ATOM      6  C   UNL A   1      30.747  26.816  25.029  1.00  0.00     0.140 A 
ATOM      7  N   UNL A   1      30.046  27.395  23.996  1.00  0.00    -0.262 N 
ATOM      8  C   UNL A   1      31.321  28.918  24.635  1.00  0.00     0.151 A 
ATOM      9  N   UNL A   1      30.550  28.578  23.607  1.00  0.00    -0.180 NA
ATOM     10  C   UNL A   1      28.715  27.061  23.542  1.00  0.00     0.174 C 
BRANCH   6  11
ATOM     11  C   UNL A   1      30.502  25.510  25.577  1.00  0.00     0.273 C 
ATOM     12  O   UNL A   1      29.691  25.364  26.490  1.00  0.00    -0.267 OA
BRANCH  11  13
ATOM     13  N   UNL A   1      31.223  24.412  25.070  1.00  0.00    -0.334 N 
ATOM     14  C   UNL A   1      30.807  23.960  23.752  1.00  0.00     0.147 C 
BRANCH  13  15
ATOM     15  C   UNL A   1      31.967  23.451  25.891  1.00  0.00     0.175 C 
BRANCH  15  16
ATOM     16  C   UNL A   1      33.444  23.518  25.687  1.00  0.00     0.057 A 
ATOM     17  C   UNL A   1      34.227  24.633  25.435  1.00  0.00     0.047 A 
ATOM     18  N   UNL A   1      34.337  22.476  25.769  1.00  0.00    -0.271 N 
ATOM     19  C   UNL A   1      35.534  24.149  25.281  1.00  0.00     0.135 A 
ATOM     20  N   UNL A   1      35.601  22.831  25.460  1.00  0.00    -0.181 NA
ATOM     21  C   UNL A   1      34.100  21.091  26.093  1.00  0.00     0.174 C 
ENDBRANCH  15  16
ENDBRANCH  13  15
ENDBRANCH  11  13
ENDBRANCH   6  11
ENDBRANCH   3   5
ENDBRANCH   2   3
ENDBRANCH   1   2
BRANCH   1  22
ATOM     22  C   UNL A   1      34.889  29.799  27.700  1.00  0.00     0.275 C 
BRANCH  22  23
ATOM     23  O   UNL A   1      36.017  28.960  28.014  1.00  0.00    -0.458 OA
BRANCH  23  24
ATOM     24  C   UNL A   1      36.917  29.505  28.866  1.00  0.00     0.338 C 
ATOM     25  O   UNL A   1      36.683  30.161  29.864  1.00  0.00    -0.246 OA
BRANCH  24  26
ATOM     26  C   UNL A   1      38.283  29.105  28.486  1.00  0.00     0.060 A 
ATOM     27  C   UNL A   1      39.116  28.626  29.488  1.00  0.00     0.016 A 
ATOM     28  C   UNL A   1      38.799  29.365  27.221  1.00  0.00     0.016 A 
ATOM     29  C   UNL A   1      40.484  28.498  29.276  1.00  0.00     0.010 A 
ATOM     30  C   UNL A   1      40.161  29.128  26.973  1.00  0.00     0.010 A 
ATOM     31  C   UNL A   1      41.027  28.725  28.008  1.00  0.00    -0.014 A 
BRANCH  31  32
ATOM     32  C   UNL A   1      42.494  28.555  27.789  1.00  0.00     0.031 A 
ATOM     33  C   UNL A   1      43.450  29.677  28.109  1.00  0.00     0.074 A 
ATOM     34  C   UNL A   1      42.980  27.382  27.328  1.00  0.00     0.049 A 
ATOM     35  N   UNL A   1      44.728  29.773  27.844  1.00  0.00    -0.248 NA
ATOM     36  C   UNL A   1      42.895  30.848  28.808  1.00  0.00     0.031 C 
ATOM     37  C   UNL A   1      42.184  26.188  27.032  1.00  0.00     0.029 A 
ATOM     38  N   UNL A   1      44.266  26.995  27.037  1.00  0.00    -0.354 N 
ATOM     39  C   UNL A   1      45.118  31.034  28.289  1.00  0.00     0.074 A 
ATOM     40  C   UNL A   1      43.938  31.667  28.837  1.00  0.00     0.031 C 
ATOM     41  C   UNL A   1      42.998  25.195  26.650  1.00  0.00     0.029 A 
ATOM     42  C   UNL A   1      44.360  25.704  26.569  1.00  0.00     0.049 A 
ATOM     43  H   UNL A   1      45.046  27.584  27.153  1.00  0.00     0.167 HD
ATOM     44  C   UNL A   1      46.344  31.609  28.241  1.00  0.00     0.031 A 
ATOM     45  C   UNL A   1      45.409  25.016  26.077  1.00  0.00     0.031 A 
ATOM     46  C   UNL A   1      47.522  30.958  27.726  1.00  0.00     0.049 A 
ATOM     47  C   UNL A   1      46.745  25.695  25.979  1.00  0.00     0.074 A 
ATOM     48  C   UNL A   1      48.811  31.454  27.645  1.00  0.00     0.029 A 
ATOM     49  N   UNL A   1      47.559  29.668  27.218  1.00  0.00    -0.354 N 
ATOM     50  N   UNL A   1      47.083  26.904  26.357  1.00  0.00    -0.248 NA
ATOM     51  C   UNL A   1      47.838  24.921  25.375  1.00  0.00     0.031 C 
ATOM     52  C   UNL A   1      49.617  30.484  27.037  1.00  0.00     0.029 A 
ATOM     53  C   UNL A   1      48.843  29.361  26.798  1.00  0.00     0.049 A 
ATOM     54  H   UNL A   1      46.786  29.060  27.162  1.00  0.00     0.167 HD
ATOM     55  C   UNL A   1      48.431  27.033  26.050  1.00  0.00     0.074 A 
ATOM     56  C   UNL A   1      48.852  25.770  25.476  1.00  0.00     0.031 C 
ATOM     57  C   UNL A   1      49.246  28.101  26.224  1.00  0.00     0.031 A 
BRANCH  44  58
ATOM     58  C   UNL A   1      46.469  33.038  28.708  1.00  0.00    -0.014 A 
ATOM     59  C   UNL A   1      46.838  33.355  30.027  1.00  0.00     0.010 A 
ATOM     60  C   UNL A   1      46.258  34.082  27.788  1.00  0.00     0.010 A 
ATOM     61  C   UNL A   1      46.953  34.692  30.426  1.00  0.00     0.020 A 
ATOM     62  C   UNL A   1      46.400  35.418  28.175  1.00  0.00     0.020 A 
ATOM     63  C   UNL A   1      46.731  35.714  29.498  1.00  0.00     0.054 A 
BRANCH  63  64
ATOM     64  S   UNL A   1      46.906  37.438  30.038  1.00  0.00     0.124 S 
ATOM     65  O   UNL A   1      48.200  37.802  29.466  1.00  0.00    -0.237 OA
ATOM     66  O   UNL A   1      45.747  38.085  29.428  1.00  0.00    -0.237 OA
ATOM     67  O   UNL A   1      46.873  37.352  31.495  1.00  0.00    -0.744 OA
ENDBRANCH  63  64
ENDBRANCH  44  58
BRANCH  45  68
ATOM     68  C   UNL A   1      45.216  23.624  25.580  1.00  0.00    -0.014 A 
ATOM     69  C   UNL A   1      44.716  23.382  24.289  1.00  0.00     0.010 A 
ATOM     70  C   UNL A   1      45.554  22.528  26.398  1.00  0.00     0.010 A 
ATOM     71  C   UNL A   1      44.549  22.072  23.830  1.00  0.00     0.020 A 
ATOM     72  C   UNL A   1      45.421  21.219  25.929  1.00  0.00     0.020 A 
ATOM     73  C   UNL A   1      44.907  20.998  24.651  1.00  0.00     0.054 A 
BRANCH  73  74
ATOM     74  S   UNL A   1      44.738  19.309  24.013  1.00  0.00     0.124 S 
ATOM     75  O   UNL A   1      43.468  18.889  24.598  1.00  0.00    -0.237 OA
ATOM     76  O   UNL A   1      44.731  19.515  22.568  1.00  0.00    -0.237 OA
ATOM     77  O   UNL A   1      45.922  18.626  24.531  1.00  0.00    -0.744 OA
ENDBRANCH  73  74
ENDBRANCH  45  68
BRANCH  57  78
ATOM     78  C   UNL A   1      50.688  27.941  25.820  1.00  0.00    -0.014 A 
ATOM     79  C   UNL A   1      51.132  28.310  24.538  1.00  0.00     0.010 A 
ATOM     80  C   UNL A   1      51.618  27.451  26.755  1.00  0.00     0.010 A 
ATOM     81  C   UNL A   1      52.476  28.161  24.186  1.00  0.00     0.020 A 
ATOM     82  C   UNL A   1      52.968  27.327  26.416  1.00  0.00     0.020 A 
ATOM     83  C   UNL A   1      53.385  27.669  25.128  1.00  0.00     0.054 A 
BRANCH  83  84
ATOM     84  S   UNL A   1      55.131  27.522  24.661  1.00  0.00     0.124 S 
ATOM     85  O   UNL A   1      55.761  27.191  25.936  1.00  0.00    -0.237 OA
ATOM     86  O   UNL A   1      55.109  26.445  23.673  1.00  0.00    -0.237 OA
ATOM     87  O   UNL A   1      55.461  28.842  24.127  1.00  0.00    -0.744 OA
ENDBRANCH  83  84
ENDBRANCH  57  78
ENDBRANCH  31  32
ENDBRANCH  24  26
ENDBRANCH  23  24
ENDBRANCH  22  23
ENDBRANCH   1  22
TORSDOF 18
ENDMDL
