MODEL 1
REMARK VINA RESULT:      -8.9      0.000      0.000
REMARK SMILES O=C(OCCOC(=O)c1ccc(-c2c3nc(c(-c4ccc(S(=O)(=O)[O-])cc4)c4ccc([nH]4)c(-c4ccc(S(=O)(=O)[O-])cc4)c4nc(c(-c5ccc(S(=O)(=O)[O-])cc5)c5ccc2[nH]5)C=C4)C=C3)cc1)c1ccc(/N=C\c2ccccc2O)cc1
REMARK SMILES IDX 4 1 3 2 2 3 1 4 69 5 70 6 83 7 71 8 82 9 72 10 73 11 74 12
REMARK SMILES IDX 75 13 76 14 80 15 77 16 79 17 78 18 81 19 5 21 6 22 7 23
REMARK SMILES IDX 8 24 9 25 10 26 68 27 11 28 67 29 12 30 13 31 14 32 61 33
REMARK SMILES IDX 15 34 66 35 60 36 62 37 16 38 65 39 59 40 58 41 17 43 47 44
REMARK SMILES IDX 28 45 46 46 29 47 32 48 45 49 63 50 30 51 31 52 44 54 64 55
REMARK SMILES IDX 33 56 18 57 19 58 27 59 20 60 26 61 21 62 22 63 23 64 24 65
REMARK SMILES IDX 25 66 48 67 49 68 57 69 50 70 56 71 51 72 52 73 53 74 54 75
REMARK SMILES IDX 55 76 34 77 35 78 43 79 36 80 42 81 37 82 38 83 39 84 40 85
REMARK SMILES IDX 41 86
REMARK H PARENT 81 20 62 42 32 53
REMARK Flexibility Score: inf
ROOT
ATOM      1  C   UNL A   1      41.393  20.132  26.244  1.00  0.00     0.275 C 
ENDROOT
BRANCH   1   2
ATOM      2  O   UNL A   1      42.335  20.642  27.203  1.00  0.00    -0.458 OA
BRANCH   2   3
ATOM      3  C   UNL A   1      42.507  21.898  27.673  1.00  0.00     0.338 C 
ATOM      4  O   UNL A   1      41.979  22.209  28.740  1.00  0.00    -0.246 OA
BRANCH   3   5
ATOM      5  C   UNL A   1      43.225  22.966  26.917  1.00  0.00     0.060 A 
ATOM      6  C   UNL A   1      43.028  23.297  25.573  1.00  0.00     0.018 A 
ATOM      7  C   UNL A   1      44.213  23.661  27.627  1.00  0.00     0.018 A 
ATOM      8  C   UNL A   1      43.774  24.314  24.965  1.00  0.00     0.029 A 
ATOM      9  C   UNL A   1      44.958  24.669  27.011  1.00  0.00     0.029 A 
ATOM     10  C   UNL A   1      44.789  24.963  25.658  1.00  0.00     0.063 A 
BRANCH  10  11
ATOM     11  N   UNL A   1      45.648  25.808  24.939  1.00  0.00    -0.256 NA
ATOM     12  C   UNL A   1      45.547  27.108  25.008  1.00  0.00     0.123 C 
BRANCH  12  13
ATOM     13  C   UNL A   1      44.607  27.918  25.820  1.00  0.00     0.035 A 
ATOM     14  C   UNL A   1      45.144  28.495  26.969  1.00  0.00     0.013 A 
ATOM     15  C   UNL A   1      43.303  28.242  25.437  1.00  0.00     0.124 A 
ATOM     16  C   UNL A   1      44.439  29.485  27.654  1.00  0.00     0.001 A 
ATOM     17  C   UNL A   1      42.620  29.268  26.086  1.00  0.00     0.047 A 
ATOM     18  C   UNL A   1      43.200  29.909  27.180  1.00  0.00     0.004 A 
BRANCH  15  19
ATOM     19  O   UNL A   1      42.636  27.612  24.423  1.00  0.00    -0.507 OA
ATOM     20  H   UNL A   1      41.702  27.666  24.371  1.00  0.00     0.293 HD
ENDBRANCH  15  19
ENDBRANCH  12  13
ENDBRANCH  10  11
ENDBRANCH   3   5
ENDBRANCH   2   3
ENDBRANCH   1   2
BRANCH   1  21
ATOM     21  C   UNL A   1      40.006  20.771  26.301  1.00  0.00     0.275 C 
BRANCH  21  22
ATOM     22  O   UNL A   1      39.971  22.111  25.783  1.00  0.00    -0.458 OA
BRANCH  22  23
ATOM     23  C   UNL A   1      38.868  22.841  26.115  1.00  0.00     0.338 C 
ATOM     24  O   UNL A   1      37.715  22.500  25.948  1.00  0.00    -0.246 OA
BRANCH  23  25
ATOM     25  C   UNL A   1      39.255  24.097  26.821  1.00  0.00     0.060 A 
ATOM     26  C   UNL A   1      40.039  25.033  26.128  1.00  0.00     0.016 A 
ATOM     27  C   UNL A   1      38.837  24.386  28.121  1.00  0.00     0.016 A 
ATOM     28  C   UNL A   1      40.399  26.254  26.725  1.00  0.00     0.010 A 
ATOM     29  C   UNL A   1      39.191  25.610  28.713  1.00  0.00     0.010 A 
ATOM     30  C   UNL A   1      39.987  26.554  28.029  1.00  0.00    -0.014 A 
BRANCH  30  31
ATOM     31  C   UNL A   1      40.482  27.756  28.765  1.00  0.00     0.031 A 
ATOM     32  C   UNL A   1      41.759  27.642  29.549  1.00  0.00     0.074 A 
ATOM     33  C   UNL A   1      39.853  28.948  28.780  1.00  0.00     0.049 A 
ATOM     34  N   UNL A   1      42.330  28.531  30.322  1.00  0.00    -0.248 NA
ATOM     35  C   UNL A   1      42.509  26.386  29.405  1.00  0.00     0.031 C 
ATOM     36  C   UNL A   1      38.718  29.336  27.955  1.00  0.00     0.029 A 
ATOM     37  N   UNL A   1      40.082  30.062  29.566  1.00  0.00    -0.354 N 
ATOM     38  C   UNL A   1      43.537  27.968  30.705  1.00  0.00     0.074 A 
ATOM     39  C   UNL A   1      43.568  26.625  30.163  1.00  0.00     0.031 C 
ATOM     40  C   UNL A   1      38.287  30.545  28.353  1.00  0.00     0.029 A 
ATOM     41  C   UNL A   1      39.083  31.003  29.481  1.00  0.00     0.049 A 
ATOM     42  H   UNL A   1      40.881  30.170  30.131  1.00  0.00     0.167 HD
ATOM     43  C   UNL A   1      44.556  28.532  31.395  1.00  0.00     0.031 A 
ATOM     44  C   UNL A   1      38.807  32.089  30.234  1.00  0.00     0.031 A 
ATOM     45  C   UNL A   1      44.535  29.846  31.975  1.00  0.00     0.049 A 
ATOM     46  C   UNL A   1      39.799  32.571  31.247  1.00  0.00     0.074 A 
ATOM     47  C   UNL A   1      45.548  30.498  32.659  1.00  0.00     0.029 A 
ATOM     48  N   UNL A   1      43.443  30.696  31.978  1.00  0.00    -0.354 N 
ATOM     49  N   UNL A   1      40.958  32.052  31.561  1.00  0.00    -0.248 NA
ATOM     50  C   UNL A   1      39.489  33.828  31.945  1.00  0.00     0.031 C 
ATOM     51  C   UNL A   1      45.044  31.712  33.136  1.00  0.00     0.029 A 
ATOM     52  C   UNL A   1      43.738  31.846  32.695  1.00  0.00     0.049 A 
ATOM     53  H   UNL A   1      42.583  30.512  31.535  1.00  0.00     0.167 HD
ATOM     54  C   UNL A   1      41.561  32.968  32.414  1.00  0.00     0.074 A 
ATOM     55  C   UNL A   1      40.613  34.043  32.618  1.00  0.00     0.031 C 
ATOM     56  C   UNL A   1      42.817  32.931  32.919  1.00  0.00     0.031 A 
BRANCH  43  57
ATOM     57  C   UNL A   1      45.784  27.687  31.562  1.00  0.00    -0.014 A 
ATOM     58  C   UNL A   1      45.956  26.886  32.707  1.00  0.00     0.010 A 
ATOM     59  C   UNL A   1      46.792  27.726  30.586  1.00  0.00     0.010 A 
ATOM     60  C   UNL A   1      47.151  26.194  32.906  1.00  0.00     0.020 A 
ATOM     61  C   UNL A   1      47.976  27.013  30.769  1.00  0.00     0.020 A 
ATOM     62  C   UNL A   1      48.159  26.276  31.941  1.00  0.00     0.054 A 
BRANCH  62  63
ATOM     63  S   UNL A   1      49.722  25.411  32.244  1.00  0.00     0.124 S 
ATOM     64  O   UNL A   1      50.068  24.943  30.905  1.00  0.00    -0.237 OA
ATOM     65  O   UNL A   1      50.576  26.468  32.779  1.00  0.00    -0.237 OA
ATOM     66  O   UNL A   1      49.360  24.365  33.196  1.00  0.00    -0.744 OA
ENDBRANCH  62  63
ENDBRANCH  43  57
BRANCH  44  67
ATOM     67  C   UNL A   1      37.504  32.791  30.083  1.00  0.00    -0.014 A 
ATOM     68  C   UNL A   1      37.295  33.750  29.081  1.00  0.00     0.010 A 
ATOM     69  C   UNL A   1      36.457  32.493  30.977  1.00  0.00     0.010 A 
ATOM     70  C   UNL A   1      36.052  34.380  28.959  1.00  0.00     0.020 A 
ATOM     71  C   UNL A   1      35.208  33.104  30.844  1.00  0.00     0.020 A 
ATOM     72  C   UNL A   1      35.012  34.043  29.832  1.00  0.00     0.054 A 
BRANCH  72  73
ATOM     73  S   UNL A   1      33.381  34.800  29.586  1.00  0.00     0.124 S 
ATOM     74  O   UNL A   1      33.725  36.076  28.969  1.00  0.00    -0.237 OA
ATOM     75  O   UNL A   1      32.719  33.830  28.716  1.00  0.00    -0.237 OA
ATOM     76  O   UNL A   1      32.838  34.883  30.940  1.00  0.00    -0.744 OA
ENDBRANCH  72  73
ENDBRANCH  44  67
BRANCH  56  77
ATOM     77  C   UNL A   1      43.304  34.130  33.686  1.00  0.00    -0.014 A 
ATOM     78  C   UNL A   1      43.735  35.302  33.043  1.00  0.00     0.010 A 
ATOM     79  C   UNL A   1      43.257  34.099  35.093  1.00  0.00     0.010 A 
ATOM     80  C   UNL A   1      44.118  36.418  33.793  1.00  0.00     0.020 A 
ATOM     81  C   UNL A   1      43.613  35.221  35.846  1.00  0.00     0.020 A 
ATOM     82  C   UNL A   1      44.047  36.374  35.190  1.00  0.00     0.054 A 
BRANCH  82  83
ATOM     83  S   UNL A   1      44.467  37.863  36.138  1.00  0.00     0.124 S 
ATOM     84  O   UNL A   1      45.866  37.623  36.479  1.00  0.00    -0.237 OA
ATOM     85  O   UNL A   1      44.229  38.934  35.174  1.00  0.00    -0.237 OA
ATOM     86  O   UNL A   1      43.536  37.830  37.265  1.00  0.00    -0.744 OA
ENDBRANCH  82  83
ENDBRANCH  56  77
ENDBRANCH  30  31
ENDBRANCH  23  25
ENDBRANCH  22  23
ENDBRANCH  21  22
ENDBRANCH   1  21
TORSDOF 17
ENDMDL
MODEL 2
REMARK VINA RESULT:      -8.3      1.284      2.096
REMARK SMILES O=C(OCCOC(=O)c1ccc(-c2c3nc(c(-c4ccc(S(=O)(=O)[O-])cc4)c4ccc([nH]4)c(-c4ccc(S(=O)(=O)[O-])cc4)c4nc(c(-c5ccc(S(=O)(=O)[O-])cc5)c5ccc2[nH]5)C=C4)C=C3)cc1)c1ccc(/N=C\c2ccccc2O)cc1
REMARK SMILES IDX 4 1 3 2 2 3 1 4 69 5 70 6 83 7 71 8 82 9 72 10 73 11 74 12
REMARK SMILES IDX 75 13 76 14 80 15 77 16 79 17 78 18 81 19 5 21 6 22 7 23
REMARK SMILES IDX 8 24 9 25 10 26 68 27 11 28 67 29 12 30 13 31 14 32 61 33
REMARK SMILES IDX 15 34 66 35 60 36 62 37 16 38 65 39 59 40 58 41 17 43 47 44
REMARK SMILES IDX 28 45 46 46 29 47 32 48 45 49 63 50 30 51 31 52 44 54 64 55
REMARK SMILES IDX 33 56 18 57 19 58 27 59 20 60 26 61 21 62 22 63 23 64 24 65
REMARK SMILES IDX 25 66 48 67 49 68 57 69 50 70 56 71 51 72 52 73 53 74 54 75
REMARK SMILES IDX 55 76 34 77 35 78 43 79 36 80 42 81 37 82 38 83 39 84 40 85
REMARK SMILES IDX 41 86
REMARK H PARENT 81 20 62 42 32 53
REMARK Flexibility Score: inf
ROOT
ATOM      1  C   UNL A   1      41.974  20.820  26.859  1.00  0.00     0.275 C 
ENDROOT
BRANCH   1   2
ATOM      2  O   UNL A   1      42.935  21.890  26.851  1.00  0.00    -0.458 OA
BRANCH   2   3
ATOM      3  C   UNL A   1      43.336  22.694  25.841  1.00  0.00     0.338 C 
ATOM      4  O   UNL A   1      43.291  22.264  24.688  1.00  0.00    -0.246 OA
BRANCH   3   5
ATOM      5  C   UNL A   1      43.928  24.047  26.054  1.00  0.00     0.060 A 
ATOM      6  C   UNL A   1      44.863  24.390  27.034  1.00  0.00     0.018 A 
ATOM      7  C   UNL A   1      43.458  25.062  25.209  1.00  0.00     0.018 A 
ATOM      8  C   UNL A   1      45.339  25.703  27.148  1.00  0.00     0.029 A 
ATOM      9  C   UNL A   1      43.932  26.369  25.333  1.00  0.00     0.029 A 
ATOM     10  C   UNL A   1      44.830  26.716  26.343  1.00  0.00     0.063 A 
BRANCH  10  11
ATOM     11  N   UNL A   1      45.173  28.041  26.649  1.00  0.00    -0.256 NA
ATOM     12  C   UNL A   1      46.338  28.538  26.332  1.00  0.00     0.123 C 
BRANCH  12  13
ATOM     13  C   UNL A   1      47.453  27.884  25.606  1.00  0.00     0.035 A 
ATOM     14  C   UNL A   1      48.529  27.477  26.392  1.00  0.00     0.013 A 
ATOM     15  C   UNL A   1      47.423  27.534  24.253  1.00  0.00     0.124 A 
ATOM     16  C   UNL A   1      49.498  26.620  25.869  1.00  0.00     0.001 A 
ATOM     17  C   UNL A   1      48.357  26.635  23.745  1.00  0.00     0.047 A 
ATOM     18  C   UNL A   1      49.381  26.156  24.561  1.00  0.00     0.004 A 
BRANCH  15  19
ATOM     19  O   UNL A   1      46.498  28.017  23.370  1.00  0.00    -0.507 OA
ATOM     20  H   UNL A   1      45.833  27.450  23.031  1.00  0.00     0.293 HD
ENDBRANCH  15  19
ENDBRANCH  12  13
ENDBRANCH  10  11
ENDBRANCH   3   5
ENDBRANCH   2   3
ENDBRANCH   1   2
BRANCH   1  21
ATOM     21  C   UNL A   1      40.519  21.263  27.011  1.00  0.00     0.275 C 
BRANCH  21  22
ATOM     22  O   UNL A   1      40.102  22.210  26.015  1.00  0.00    -0.458 OA
BRANCH  22  23
ATOM     23  C   UNL A   1      38.983  22.928  26.320  1.00  0.00     0.338 C 
ATOM     24  O   UNL A   1      37.837  22.550  26.184  1.00  0.00    -0.246 OA
BRANCH  23  25
ATOM     25  C   UNL A   1      39.343  24.230  26.954  1.00  0.00     0.060 A 
ATOM     26  C   UNL A   1      40.078  25.156  26.197  1.00  0.00     0.016 A 
ATOM     27  C   UNL A   1      38.947  24.569  28.249  1.00  0.00     0.016 A 
ATOM     28  C   UNL A   1      40.410  26.416  26.724  1.00  0.00     0.010 A 
ATOM     29  C   UNL A   1      39.273  25.832  28.771  1.00  0.00     0.010 A 
ATOM     30  C   UNL A   1      40.019  26.766  28.022  1.00  0.00    -0.014 A 
BRANCH  30  31
ATOM     31  C   UNL A   1      40.489  28.019  28.686  1.00  0.00     0.031 A 
ATOM     32  C   UNL A   1      41.821  28.006  29.383  1.00  0.00     0.074 A 
ATOM     33  C   UNL A   1      39.793  29.173  28.708  1.00  0.00     0.049 A 
ATOM     34  N   UNL A   1      42.389  28.952  30.087  1.00  0.00    -0.248 NA
ATOM     35  C   UNL A   1      42.633  26.791  29.225  1.00  0.00     0.031 C 
ATOM     36  C   UNL A   1      38.584  29.467  27.953  1.00  0.00     0.029 A 
ATOM     37  N   UNL A   1      40.007  30.324  29.444  1.00  0.00    -0.354 N 
ATOM     38  C   UNL A   1      43.650  28.472  30.403  1.00  0.00     0.074 A 
ATOM     39  C   UNL A   1      43.725  27.115  29.901  1.00  0.00     0.031 C 
ATOM     40  C   UNL A   1      38.109  30.662  28.343  1.00  0.00     0.029 A 
ATOM     41  C   UNL A   1      38.951  31.203  29.399  1.00  0.00     0.049 A 
ATOM     42  H   UNL A   1      40.835  30.497  29.948  1.00  0.00     0.167 HD
ATOM     43  C   UNL A   1      44.678  29.116  31.004  1.00  0.00     0.031 A 
ATOM     44  C   UNL A   1      38.662  32.296  30.137  1.00  0.00     0.031 A 
ATOM     45  C   UNL A   1      44.618  30.446  31.545  1.00  0.00     0.049 A 
ATOM     46  C   UNL A   1      39.690  32.869  31.063  1.00  0.00     0.074 A 
ATOM     47  C   UNL A   1      45.634  31.178  32.137  1.00  0.00     0.029 A 
ATOM     48  N   UNL A   1      43.479  31.232  31.598  1.00  0.00    -0.354 N 
ATOM     49  N   UNL A   1      40.896  32.428  31.312  1.00  0.00    -0.248 NA
ATOM     50  C   UNL A   1      39.353  34.129  31.743  1.00  0.00     0.031 C 
ATOM     51  C   UNL A   1      45.091  32.377  32.611  1.00  0.00     0.029 A 
ATOM     52  C   UNL A   1      43.753  32.420  32.258  1.00  0.00     0.049 A 
ATOM     53  H   UNL A   1      42.604  30.983  31.220  1.00  0.00     0.167 HD
ATOM     54  C   UNL A   1      41.499  33.405  32.094  1.00  0.00     0.074 A 
ATOM     55  C   UNL A   1      40.504  34.431  32.331  1.00  0.00     0.031 C 
ATOM     56  C   UNL A   1      42.786  33.458  32.512  1.00  0.00     0.031 A 
BRANCH  43  57
ATOM     57  C   UNL A   1      45.962  28.349  31.111  1.00  0.00    -0.014 A 
ATOM     58  C   UNL A   1      46.894  28.355  30.057  1.00  0.00     0.010 A 
ATOM     59  C   UNL A   1      46.220  27.584  32.260  1.00  0.00     0.010 A 
ATOM     60  C   UNL A   1      48.030  27.549  30.120  1.00  0.00     0.020 A 
ATOM     61  C   UNL A   1      47.369  26.797  32.337  1.00  0.00     0.020 A 
ATOM     62  C   UNL A   1      48.251  26.763  31.255  1.00  0.00     0.054 A 
BRANCH  62  63
ATOM     63  S   UNL A   1      49.706  25.684  31.294  1.00  0.00     0.124 S 
ATOM     64  O   UNL A   1      50.776  26.636  31.582  1.00  0.00    -0.237 OA
ATOM     65  O   UNL A   1      49.387  24.753  32.373  1.00  0.00    -0.237 OA
ATOM     66  O   UNL A   1      49.737  25.097  29.957  1.00  0.00    -0.744 OA
ENDBRANCH  62  63
ENDBRANCH  43  57
BRANCH  44  67
ATOM     67  C   UNL A   1      37.312  32.917  30.055  1.00  0.00    -0.014 A 
ATOM     68  C   UNL A   1      36.303  32.608  30.980  1.00  0.00     0.010 A 
ATOM     69  C   UNL A   1      37.037  33.827  29.017  1.00  0.00     0.010 A 
ATOM     70  C   UNL A   1      35.049  33.222  30.882  1.00  0.00     0.020 A 
ATOM     71  C   UNL A   1      35.794  34.458  28.929  1.00  0.00     0.020 A 
ATOM     72  C   UNL A   1      34.807  34.153  29.867  1.00  0.00     0.054 A 
BRANCH  72  73
ATOM     73  S   UNL A   1      33.207  35.010  29.825  1.00  0.00     0.124 S 
ATOM     74  O   UNL A   1      33.588  36.347  29.387  1.00  0.00    -0.237 OA
ATOM     75  O   UNL A   1      32.456  34.213  28.858  1.00  0.00    -0.237 OA
ATOM     76  O   UNL A   1      32.734  34.911  31.204  1.00  0.00    -0.744 OA
ENDBRANCH  72  73
ENDBRANCH  44  67
BRANCH  56  77
ATOM     77  C   UNL A   1      43.252  34.708  33.207  1.00  0.00    -0.014 A 
ATOM     78  C   UNL A   1      43.859  35.765  32.511  1.00  0.00     0.010 A 
ATOM     79  C   UNL A   1      43.003  34.849  34.586  1.00  0.00     0.010 A 
ATOM     80  C   UNL A   1      44.217  36.939  33.183  1.00  0.00     0.020 A 
ATOM     81  C   UNL A   1      43.335  36.030  35.256  1.00  0.00     0.020 A 
ATOM     82  C   UNL A   1      43.946  37.067  34.550  1.00  0.00     0.054 A 
BRANCH  82  83
ATOM     83  S   UNL A   1      44.341  38.630  35.381  1.00  0.00     0.124 S 
ATOM     84  O   UNL A   1      45.786  38.721  35.188  1.00  0.00    -0.237 OA
ATOM     85  O   UNL A   1      43.544  39.600  34.634  1.00  0.00    -0.237 OA
ATOM     86  O   UNL A   1      43.910  38.409  36.760  1.00  0.00    -0.744 OA
ENDBRANCH  82  83
ENDBRANCH  56  77
ENDBRANCH  30  31
ENDBRANCH  23  25
ENDBRANCH  22  23
ENDBRANCH  21  22
ENDBRANCH   1  21
TORSDOF 17
ENDMDL
MODEL 3
REMARK VINA RESULT:      -8.3      4.224      6.448
REMARK SMILES O=C(OCCOC(=O)c1ccc(-c2c3nc(c(-c4ccc(S(=O)(=O)[O-])cc4)c4ccc([nH]4)c(-c4ccc(S(=O)(=O)[O-])cc4)c4nc(c(-c5ccc(S(=O)(=O)[O-])cc5)c5ccc2[nH]5)C=C4)C=C3)cc1)c1ccc(/N=C\c2ccccc2O)cc1
REMARK SMILES IDX 4 1 3 2 2 3 1 4 69 5 70 6 83 7 71 8 82 9 72 10 73 11 74 12
REMARK SMILES IDX 75 13 76 14 80 15 77 16 79 17 78 18 81 19 5 21 6 22 7 23
REMARK SMILES IDX 8 24 9 25 10 26 68 27 11 28 67 29 12 30 13 31 14 32 61 33
REMARK SMILES IDX 15 34 66 35 60 36 62 37 16 38 65 39 59 40 58 41 17 43 47 44
REMARK SMILES IDX 28 45 46 46 29 47 32 48 45 49 63 50 30 51 31 52 44 54 64 55
REMARK SMILES IDX 33 56 18 57 19 58 27 59 20 60 26 61 21 62 22 63 23 64 24 65
REMARK SMILES IDX 25 66 48 67 49 68 57 69 50 70 56 71 51 72 52 73 53 74 54 75
REMARK SMILES IDX 55 76 34 77 35 78 43 79 36 80 42 81 37 82 38 83 39 84 40 85
REMARK SMILES IDX 41 86
REMARK H PARENT 81 20 62 42 32 53
REMARK Flexibility Score: inf
ROOT
ATOM      1  C   UNL A   1      40.257  22.246  27.017  1.00  0.00     0.275 C 
ENDROOT
BRANCH   1   2
ATOM      2  O   UNL A   1      39.067  22.161  26.214  1.00  0.00    -0.458 OA
BRANCH   2   3
ATOM      3  C   UNL A   1      38.103  23.080  25.984  1.00  0.00     0.338 C 
ATOM      4  O   UNL A   1      38.269  24.228  26.395  1.00  0.00    -0.246 OA
BRANCH   3   5
ATOM      5  C   UNL A   1      36.795  22.755  25.343  1.00  0.00     0.060 A 
ATOM      6  C   UNL A   1      36.001  21.637  25.614  1.00  0.00     0.018 A 
ATOM      7  C   UNL A   1      36.362  23.644  24.350  1.00  0.00     0.018 A 
ATOM      8  C   UNL A   1      34.794  21.429  24.935  1.00  0.00     0.029 A 
ATOM      9  C   UNL A   1      35.160  23.425  23.673  1.00  0.00     0.029 A 
ATOM     10  C   UNL A   1      34.396  22.284  23.915  1.00  0.00     0.063 A 
BRANCH  10  11
ATOM     11  N   UNL A   1      33.301  21.906  23.122  1.00  0.00    -0.256 NA
ATOM     12  C   UNL A   1      32.090  22.316  23.386  1.00  0.00     0.123 C 
BRANCH  12  13
ATOM     13  C   UNL A   1      31.639  23.226  24.466  1.00  0.00     0.035 A 
ATOM     14  C   UNL A   1      31.678  24.586  24.167  1.00  0.00     0.013 A 
ATOM     15  C   UNL A   1      31.062  22.806  25.668  1.00  0.00     0.124 A 
ATOM     16  C   UNL A   1      31.032  25.506  24.993  1.00  0.00     0.001 A 
ATOM     17  C   UNL A   1      30.369  23.715  26.464  1.00  0.00     0.047 A 
ATOM     18  C   UNL A   1      30.332  25.063  26.112  1.00  0.00     0.004 A 
BRANCH  15  19
ATOM     19  O   UNL A   1      31.117  21.517  26.122  1.00  0.00    -0.507 OA
ATOM     20  H   UNL A   1      31.089  20.805  25.514  1.00  0.00     0.293 HD
ENDBRANCH  15  19
ENDBRANCH  12  13
ENDBRANCH  10  11
ENDBRANCH   3   5
ENDBRANCH   2   3
ENDBRANCH   1   2
BRANCH   1  21
ATOM     21  C   UNL A   1      41.532  22.585  26.246  1.00  0.00     0.275 C 
BRANCH  21  22
ATOM     22  O   UNL A   1      42.296  23.646  26.840  1.00  0.00    -0.458 OA
BRANCH  22  23
ATOM     23  C   UNL A   1      42.031  24.897  26.366  1.00  0.00     0.338 C 
ATOM     24  O   UNL A   1      41.864  25.195  25.201  1.00  0.00    -0.246 OA
BRANCH  23  25
ATOM     25  C   UNL A   1      41.862  25.865  27.489  1.00  0.00     0.060 A 
ATOM     26  C   UNL A   1      40.690  25.790  28.260  1.00  0.00     0.016 A 
ATOM     27  C   UNL A   1      42.836  26.809  27.821  1.00  0.00     0.016 A 
ATOM     28  C   UNL A   1      40.493  26.646  29.357  1.00  0.00     0.010 A 
ATOM     29  C   UNL A   1      42.642  27.657  28.923  1.00  0.00     0.010 A 
ATOM     30  C   UNL A   1      41.463  27.597  29.697  1.00  0.00    -0.014 A 
BRANCH  30  31
ATOM     31  C   UNL A   1      41.228  28.636  30.744  1.00  0.00     0.031 A 
ATOM     32  C   UNL A   1      41.918  28.487  32.071  1.00  0.00     0.074 A 
ATOM     33  C   UNL A   1      40.427  29.708  30.582  1.00  0.00     0.049 A 
ATOM     34  N   UNL A   1      41.800  29.225  33.146  1.00  0.00    -0.248 NA
ATOM     35  C   UNL A   1      42.900  27.399  32.183  1.00  0.00     0.031 C 
ATOM     36  C   UNL A   1      39.813  30.147  29.338  1.00  0.00     0.029 A 
ATOM     37  N   UNL A   1      39.966  30.619  31.514  1.00  0.00    -0.354 N 
ATOM     38  C   UNL A   1      42.737  28.731  34.040  1.00  0.00     0.074 A 
ATOM     39  C   UNL A   1      43.343  27.570  33.419  1.00  0.00     0.031 C 
ATOM     40  C   UNL A   1      38.979  31.167  29.603  1.00  0.00     0.029 A 
ATOM     41  C   UNL A   1      38.965  31.430  31.034  1.00  0.00     0.049 A 
ATOM     42  H   UNL A   1      40.320  30.682  32.431  1.00  0.00     0.167 HD
ATOM     43  C   UNL A   1      43.106  29.228  35.243  1.00  0.00     0.031 A 
ATOM     44  C   UNL A   1      38.107  32.264  31.659  1.00  0.00     0.031 A 
ATOM     45  C   UNL A   1      42.497  30.353  35.897  1.00  0.00     0.049 A 
ATOM     46  C   UNL A   1      38.310  32.601  33.104  1.00  0.00     0.074 A 
ATOM     47  C   UNL A   1      42.845  30.935  37.104  1.00  0.00     0.029 A 
ATOM     48  N   UNL A   1      41.394  31.044  35.425  1.00  0.00    -0.354 N 
ATOM     49  N   UNL A   1      39.232  32.160  33.921  1.00  0.00    -0.248 NA
ATOM     50  C   UNL A   1      37.413  33.609  33.690  1.00  0.00     0.031 C 
ATOM     51  C   UNL A   1      41.908  31.932  37.396  1.00  0.00     0.029 A 
ATOM     52  C   UNL A   1      41.015  32.014  36.341  1.00  0.00     0.049 A 
ATOM     53  H   UNL A   1      40.946  30.872  34.565  1.00  0.00     0.167 HD
ATOM     54  C   UNL A   1      39.093  32.909  35.083  1.00  0.00     0.074 A 
ATOM     55  C   UNL A   1      37.957  33.786  34.888  1.00  0.00     0.031 C 
ATOM     56  C   UNL A   1      39.889  32.899  36.178  1.00  0.00     0.031 A 
BRANCH  43  57
ATOM     57  C   UNL A   1      44.234  28.517  35.930  1.00  0.00    -0.014 A 
ATOM     58  C   UNL A   1      45.572  28.874  35.675  1.00  0.00     0.010 A 
ATOM     59  C   UNL A   1      43.956  27.455  36.805  1.00  0.00     0.010 A 
ATOM     60  C   UNL A   1      46.614  28.132  36.231  1.00  0.00     0.020 A 
ATOM     61  C   UNL A   1      44.996  26.729  37.384  1.00  0.00     0.020 A 
ATOM     62  C   UNL A   1      46.318  27.054  37.069  1.00  0.00     0.054 A 
BRANCH  62  63
ATOM     63  S   UNL A   1      47.686  26.073  37.738  1.00  0.00     0.124 S 
ATOM     64  O   UNL A   1      48.844  26.717  37.122  1.00  0.00    -0.237 OA
ATOM     65  O   UNL A   1      47.550  26.271  39.178  1.00  0.00    -0.237 OA
ATOM     66  O   UNL A   1      47.403  24.719  37.268  1.00  0.00    -0.744 OA
ENDBRANCH  62  63
ENDBRANCH  43  57
BRANCH  44  67
ATOM     67  C   UNL A   1      36.941  32.824  30.925  1.00  0.00    -0.014 A 
ATOM     68  C   UNL A   1      35.645  32.316  31.104  1.00  0.00     0.010 A 
ATOM     69  C   UNL A   1      37.144  33.883  30.021  1.00  0.00     0.010 A 
ATOM     70  C   UNL A   1      34.568  32.877  30.408  1.00  0.00     0.020 A 
ATOM     71  C   UNL A   1      36.069  34.460  29.341  1.00  0.00     0.020 A 
ATOM     72  C   UNL A   1      34.785  33.954  29.542  1.00  0.00     0.054 A 
BRANCH  72  73
ATOM     73  S   UNL A   1      33.357  34.729  28.732  1.00  0.00     0.124 S 
ATOM     74  O   UNL A   1      32.938  33.693  27.795  1.00  0.00    -0.237 OA
ATOM     75  O   UNL A   1      32.457  34.970  29.858  1.00  0.00    -0.237 OA
ATOM     76  O   UNL A   1      33.922  35.933  28.127  1.00  0.00    -0.744 OA
ENDBRANCH  72  73
ENDBRANCH  44  67
BRANCH  56  77
ATOM     77  C   UNL A   1      39.634  33.927  37.246  1.00  0.00    -0.014 A 
ATOM     78  C   UNL A   1      39.002  33.603  38.457  1.00  0.00     0.010 A 
ATOM     79  C   UNL A   1      40.111  35.238  37.052  1.00  0.00     0.010 A 
ATOM     80  C   UNL A   1      38.843  34.573  39.452  1.00  0.00     0.020 A 
ATOM     81  C   UNL A   1      39.979  36.203  38.054  1.00  0.00     0.020 A 
ATOM     82  C   UNL A   1      39.340  35.865  39.248  1.00  0.00     0.054 A 
BRANCH  82  83
ATOM     83  S   UNL A   1      39.199  37.082  40.586  1.00  0.00     0.124 S 
ATOM     84  O   UNL A   1      38.708  38.260  39.876  1.00  0.00    -0.237 OA
ATOM     85  O   UNL A   1      38.245  36.451  41.494  1.00  0.00    -0.237 OA
ATOM     86  O   UNL A   1      40.562  37.189  41.102  1.00  0.00    -0.744 OA
ENDBRANCH  82  83
ENDBRANCH  56  77
ENDBRANCH  30  31
ENDBRANCH  23  25
ENDBRANCH  22  23
ENDBRANCH  21  22
ENDBRANCH   1  21
TORSDOF 17
ENDMDL
