MODEL 1
REMARK VINA RESULT:      -9.2      0.000      0.000
REMARK SMILES C[C@@H]1CCC[C@H](NC(=O)N(C)CC(=O)OCCOC(=O)c2ccc(-c3c4nc(c(-c5ccc(S(=O)(=O)[O-])cc5)c5ccc([nH]5)c(-c5ccc(S(=O)(=O)[O-])cc5)c5nc(c(-c6ccc(S(=O)(=O)[O-])cc6)c6ccc3[nH]6)C=C5)C=C4)cc2)C1
REMARK SMILES IDX 16 1 15 2 13 3 14 4 12 5 10 6 11 7 8 8 7 9 9 11 6 12 1 13
REMARK SMILES IDX 2 14 3 15 81 16 4 17 5 18 17 19 18 20 19 21 20 22 21 23
REMARK SMILES IDX 22 24 80 25 23 26 79 27 24 28 25 29 26 30 73 31 27 32 78 33
REMARK SMILES IDX 72 34 74 35 28 36 77 37 71 38 70 39 29 41 59 42 40 43 58 44
REMARK SMILES IDX 41 45 44 46 57 47 75 48 42 49 43 50 56 52 76 53 45 54 30 55
REMARK SMILES IDX 31 56 39 57 32 58 38 59 33 60 34 61 35 62 36 63 37 64 60 65
REMARK SMILES IDX 61 66 69 67 62 68 68 69 63 70 64 71 65 72 66 73 67 74 46 75
REMARK SMILES IDX 47 76 55 77 48 78 54 79 49 80 50 81 51 82 52 83 53 84
REMARK H PARENT 7 10 74 40 44 51
REMARK Flexibility Score: inf
ROOT
ATOM      1  C   UNL A   1      34.319  30.939  27.264  1.00  0.00     0.274 C 
ENDROOT
BRANCH   1   2
ATOM      2  O   UNL A   1      34.081  31.694  28.469  1.00  0.00    -0.461 OA
BRANCH   2   3
ATOM      3  C   UNL A   1      34.694  32.910  28.538  1.00  0.00     0.325 C 
ATOM      4  O   UNL A   1      35.419  33.373  27.663  1.00  0.00    -0.250 OA
BRANCH   3   5
ATOM      5  C   UNL A   1      34.442  33.637  29.858  1.00  0.00     0.243 C 
BRANCH   5   6
ATOM      6  N   UNL A   1      35.321  33.270  30.977  1.00  0.00    -0.317 N 
ATOM      7  C   UNL A   1      35.132  31.933  31.498  1.00  0.00     0.149 C 
BRANCH   6   8
ATOM      8  C   UNL A   1      36.159  34.245  31.431  1.00  0.00     0.317 C 
ATOM      9  N   UNL A   1      37.330  34.552  30.854  1.00  0.00    -0.335 N 
ATOM     10  H   UNL A   1      37.819  35.243  31.356  1.00  0.00     0.165 HD
ATOM     11  O   UNL A   1      35.861  34.933  32.410  1.00  0.00    -0.249 OA
BRANCH   9  12
ATOM     12  C   UNL A   1      38.062  34.119  29.672  1.00  0.00     0.084 C 
ATOM     13  C   UNL A   1      39.023  31.993  32.038  1.00  0.00     0.008 C 
ATOM     14  C   UNL A   1      39.389  32.057  30.553  1.00  0.00    -0.012 C 
ATOM     15  C   UNL A   1      40.683  32.847  30.326  1.00  0.00     0.003 C 
ATOM     16  C   UNL A   1      38.248  32.594  29.668  1.00  0.00     0.028 C 
ATOM     17  C   UNL A   1      40.488  34.352  30.477  1.00  0.00     0.002 C 
ATOM     18  C   UNL A   1      39.397  34.869  29.545  1.00  0.00     0.025 C 
ENDBRANCH   9  12
ENDBRANCH   6   8
ENDBRANCH   5   6
ENDBRANCH   3   5
ENDBRANCH   2   3
ENDBRANCH   1   2
BRANCH   1  19
ATOM     19  C   UNL A   1      34.983  29.609  27.608  1.00  0.00     0.275 C 
BRANCH  19  20
ATOM     20  O   UNL A   1      36.400  29.811  27.722  1.00  0.00    -0.458 OA
BRANCH  20  21
ATOM     21  C   UNL A   1      36.962  29.355  28.864  1.00  0.00     0.338 C 
ATOM     22  O   UNL A   1      36.429  29.275  29.964  1.00  0.00    -0.246 OA
BRANCH  21  23
ATOM     23  C   UNL A   1      38.385  29.055  28.619  1.00  0.00     0.060 A 
ATOM     24  C   UNL A   1      39.201  28.550  29.635  1.00  0.00     0.016 A 
ATOM     25  C   UNL A   1      38.925  29.336  27.364  1.00  0.00     0.016 A 
ATOM     26  C   UNL A   1      40.569  28.389  29.420  1.00  0.00     0.010 A 
ATOM     27  C   UNL A   1      40.279  29.097  27.125  1.00  0.00     0.010 A 
ATOM     28  C   UNL A   1      41.122  28.650  28.159  1.00  0.00    -0.014 A 
BRANCH  28  29
ATOM     29  C   UNL A   1      42.579  28.489  27.919  1.00  0.00     0.031 A 
ATOM     30  C   UNL A   1      43.521  29.630  28.207  1.00  0.00     0.074 A 
ATOM     31  C   UNL A   1      43.061  27.331  27.429  1.00  0.00     0.049 A 
ATOM     32  N   UNL A   1      44.794  29.742  27.926  1.00  0.00    -0.248 NA
ATOM     33  C   UNL A   1      42.950  30.803  28.890  1.00  0.00     0.031 C 
ATOM     34  C   UNL A   1      42.266  26.134  27.140  1.00  0.00     0.029 A 
ATOM     35  N   UNL A   1      44.339  26.970  27.081  1.00  0.00    -0.354 N 
ATOM     36  C   UNL A   1      45.167  31.010  28.359  1.00  0.00     0.074 A 
ATOM     37  C   UNL A   1      43.983  31.634  28.908  1.00  0.00     0.031 C 
ATOM     38  C   UNL A   1      43.078  25.167  26.684  1.00  0.00     0.029 A 
ATOM     39  C   UNL A   1      44.434  25.693  26.580  1.00  0.00     0.049 A 
ATOM     40  H   UNL A   1      45.114  27.568  27.181  1.00  0.00     0.167 HD
ATOM     41  C   UNL A   1      46.386  31.599  28.305  1.00  0.00     0.031 A 
ATOM     42  C   UNL A   1      45.485  25.029  26.063  1.00  0.00     0.031 A 
ATOM     43  C   UNL A   1      47.568  30.966  27.779  1.00  0.00     0.049 A 
ATOM     44  C   UNL A   1      46.818  25.719  25.974  1.00  0.00     0.074 A 
ATOM     45  C   UNL A   1      48.852  31.476  27.692  1.00  0.00     0.029 A 
ATOM     46  N   UNL A   1      47.613  29.681  27.258  1.00  0.00    -0.354 N 
ATOM     47  N   UNL A   1      47.147  26.928  26.361  1.00  0.00    -0.248 NA
ATOM     48  C   UNL A   1      47.919  24.955  25.371  1.00  0.00     0.031 C 
ATOM     49  C   UNL A   1      49.665  30.514  27.082  1.00  0.00     0.029 A 
ATOM     50  C   UNL A   1      48.899  29.387  26.835  1.00  0.00     0.049 A 
ATOM     51  H   UNL A   1      46.844  29.070  27.198  1.00  0.00     0.167 HD
ATOM     52  C   UNL A   1      48.498  27.065  26.062  1.00  0.00     0.074 A 
ATOM     53  C   UNL A   1      48.927  25.809  25.480  1.00  0.00     0.031 C 
ATOM     54  C   UNL A   1      49.308  28.135  26.251  1.00  0.00     0.031 A 
BRANCH  41  55
ATOM     55  C   UNL A   1      46.496  33.017  28.800  1.00  0.00    -0.014 A 
ATOM     56  C   UNL A   1      46.135  34.106  27.987  1.00  0.00     0.010 A 
ATOM     57  C   UNL A   1      46.938  33.261  30.113  1.00  0.00     0.010 A 
ATOM     58  C   UNL A   1      46.251  35.415  28.465  1.00  0.00     0.020 A 
ATOM     59  C   UNL A   1      47.032  34.567  30.603  1.00  0.00     0.020 A 
ATOM     60  C   UNL A   1      46.704  35.637  29.769  1.00  0.00     0.054 A 
BRANCH  60  61
ATOM     61  S   UNL A   1      46.829  37.343  30.372  1.00  0.00     0.124 S 
ATOM     62  O   UNL A   1      45.872  38.037  29.513  1.00  0.00    -0.237 OA
ATOM     63  O   UNL A   1      46.438  37.221  31.774  1.00  0.00    -0.237 OA
ATOM     64  O   UNL A   1      48.230  37.690  30.149  1.00  0.00    -0.744 OA
ENDBRANCH  60  61
ENDBRANCH  41  55
BRANCH  42  65
ATOM     65  C   UNL A   1      45.309  23.640  25.561  1.00  0.00    -0.014 A 
ATOM     66  C   UNL A   1      45.543  22.541  26.406  1.00  0.00     0.010 A 
ATOM     67  C   UNL A   1      44.884  23.409  24.239  1.00  0.00     0.010 A 
ATOM     68  C   UNL A   1      45.365  21.237  25.936  1.00  0.00     0.020 A 
ATOM     69  C   UNL A   1      44.679  22.108  23.774  1.00  0.00     0.020 A 
ATOM     70  C   UNL A   1      44.931  21.029  24.623  1.00  0.00     0.054 A 
BRANCH  70  71
ATOM     71  S   UNL A   1      44.648  19.330  24.051  1.00  0.00     0.124 S 
ATOM     72  O   UNL A   1      45.820  18.635  24.572  1.00  0.00    -0.237 OA
ATOM     73  O   UNL A   1      43.376  18.988  24.684  1.00  0.00    -0.237 OA
ATOM     74  O   UNL A   1      44.593  19.465  22.597  1.00  0.00    -0.744 OA
ENDBRANCH  70  71
ENDBRANCH  42  65
BRANCH  54  75
ATOM     75  C   UNL A   1      50.750  27.982  25.849  1.00  0.00    -0.014 A 
ATOM     76  C   UNL A   1      51.186  28.333  24.558  1.00  0.00     0.010 A 
ATOM     77  C   UNL A   1      51.687  27.512  26.787  1.00  0.00     0.010 A 
ATOM     78  C   UNL A   1      52.529  28.181  24.203  1.00  0.00     0.020 A 
ATOM     79  C   UNL A   1      53.034  27.382  26.442  1.00  0.00     0.020 A 
ATOM     80  C   UNL A   1      53.443  27.703  25.147  1.00  0.00     0.054 A 
BRANCH  80  81
ATOM     81  S   UNL A   1      55.188  27.542  24.673  1.00  0.00     0.124 S 
ATOM     82  O   UNL A   1      55.828  27.279  25.958  1.00  0.00    -0.237 OA
ATOM     83  O   UNL A   1      55.167  26.418  23.739  1.00  0.00    -0.237 OA
ATOM     84  O   UNL A   1      55.504  28.835  24.072  1.00  0.00    -0.744 OA
ENDBRANCH  80  81
ENDBRANCH  54  75
ENDBRANCH  28  29
ENDBRANCH  21  23
ENDBRANCH  20  21
ENDBRANCH  19  20
ENDBRANCH   1  19
TORSDOF 17
ENDMDL
MODEL 2
REMARK VINA RESULT:      -9.2      4.333      6.390
REMARK SMILES C[C@@H]1CCC[C@H](NC(=O)N(C)CC(=O)OCCOC(=O)c2ccc(-c3c4nc(c(-c5ccc(S(=O)(=O)[O-])cc5)c5ccc([nH]5)c(-c5ccc(S(=O)(=O)[O-])cc5)c5nc(c(-c6ccc(S(=O)(=O)[O-])cc6)c6ccc3[nH]6)C=C5)C=C4)cc2)C1
REMARK SMILES IDX 16 1 15 2 13 3 14 4 12 5 10 6 11 7 8 8 7 9 9 11 6 12 1 13
REMARK SMILES IDX 2 14 3 15 81 16 4 17 5 18 17 19 18 20 19 21 20 22 21 23
REMARK SMILES IDX 22 24 80 25 23 26 79 27 24 28 25 29 26 30 73 31 27 32 78 33
REMARK SMILES IDX 72 34 74 35 28 36 77 37 71 38 70 39 29 41 59 42 40 43 58 44
REMARK SMILES IDX 41 45 44 46 57 47 75 48 42 49 43 50 56 52 76 53 45 54 30 55
REMARK SMILES IDX 31 56 39 57 32 58 38 59 33 60 34 61 35 62 36 63 37 64 60 65
REMARK SMILES IDX 61 66 69 67 62 68 68 69 63 70 64 71 65 72 66 73 67 74 46 75
REMARK SMILES IDX 47 76 55 77 48 78 54 79 49 80 50 81 51 82 52 83 53 84
REMARK H PARENT 7 10 74 40 44 51
REMARK Flexibility Score: inf
ROOT
ATOM      1  C   UNL A   1      31.771  28.752  26.789  1.00  0.00     0.274 C 
ENDROOT
BRANCH   1   2
ATOM      2  O   UNL A   1      31.102  28.462  25.545  1.00  0.00    -0.461 OA
BRANCH   2   3
ATOM      3  C   UNL A   1      31.313  27.214  25.036  1.00  0.00     0.325 C 
ATOM      4  O   UNL A   1      31.234  26.176  25.686  1.00  0.00    -0.250 OA
BRANCH   3   5
ATOM      5  C   UNL A   1      31.724  27.226  23.564  1.00  0.00     0.243 C 
BRANCH   5   6
ATOM      6  N   UNL A   1      33.161  27.084  23.294  1.00  0.00    -0.317 N 
ATOM      7  C   UNL A   1      33.983  28.194  23.725  1.00  0.00     0.149 C 
BRANCH   6   8
ATOM      8  C   UNL A   1      33.540  25.963  22.616  1.00  0.00     0.317 C 
ATOM      9  N   UNL A   1      33.887  24.812  23.211  1.00  0.00    -0.335 N 
ATOM     10  H   UNL A   1      34.183  24.135  22.560  1.00  0.00     0.165 HD
ATOM     11  O   UNL A   1      33.558  25.942  21.383  1.00  0.00    -0.249 OA
BRANCH   9  12
ATOM     12  C   UNL A   1      33.939  24.312  24.577  1.00  0.00     0.084 C 
ATOM     13  C   UNL A   1      36.588  22.938  23.114  1.00  0.00     0.008 C 
ATOM     14  C   UNL A   1      36.097  22.851  24.562  1.00  0.00    -0.012 C 
ATOM     15  C   UNL A   1      35.212  21.618  24.783  1.00  0.00     0.003 C 
ATOM     16  C   UNL A   1      35.393  24.134  25.043  1.00  0.00     0.028 C 
ATOM     17  C   UNL A   1      33.820  21.778  24.182  1.00  0.00     0.002 C 
ATOM     18  C   UNL A   1      33.119  23.021  24.722  1.00  0.00     0.025 C 
ENDBRANCH   9  12
ENDBRANCH   6   8
ENDBRANCH   5   6
ENDBRANCH   3   5
ENDBRANCH   2   3
ENDBRANCH   1   2
BRANCH   1  19
ATOM     19  C   UNL A   1      32.581  30.038  26.655  1.00  0.00     0.275 C 
BRANCH  19  20
ATOM     20  O   UNL A   1      33.950  29.764  26.989  1.00  0.00    -0.458 OA
BRANCH  20  21
ATOM     21  C   UNL A   1      34.492  30.568  27.930  1.00  0.00     0.338 C 
ATOM     22  O   UNL A   1      33.999  31.589  28.395  1.00  0.00    -0.246 OA
BRANCH  21  23
ATOM     23  C   UNL A   1      35.849  30.091  28.255  1.00  0.00     0.060 A 
ATOM     24  C   UNL A   1      36.176  29.673  29.547  1.00  0.00     0.016 A 
ATOM     25  C   UNL A   1      36.826  30.115  27.260  1.00  0.00     0.016 A 
ATOM     26  C   UNL A   1      37.492  29.342  29.864  1.00  0.00     0.010 A 
ATOM     27  C   UNL A   1      38.126  29.706  27.559  1.00  0.00     0.010 A 
ATOM     28  C   UNL A   1      38.480  29.345  28.871  1.00  0.00    -0.014 A 
BRANCH  28  29
ATOM     29  C   UNL A   1      39.889  29.002  29.197  1.00  0.00     0.031 A 
ATOM     30  C   UNL A   1      40.778  30.021  29.862  1.00  0.00     0.074 A 
ATOM     31  C   UNL A   1      40.379  27.786  28.887  1.00  0.00     0.049 A 
ATOM     32  N   UNL A   1      42.066  29.970  30.089  1.00  0.00    -0.248 NA
ATOM     33  C   UNL A   1      40.134  31.264  30.317  1.00  0.00     0.031 C 
ATOM     34  C   UNL A   1      39.618  26.693  28.277  1.00  0.00     0.029 A 
ATOM     35  N   UNL A   1      41.640  27.265  29.040  1.00  0.00    -0.354 N 
ATOM     36  C   UNL A   1      42.394  31.188  30.676  1.00  0.00     0.074 A 
ATOM     37  C   UNL A   1      41.174  31.962  30.755  1.00  0.00     0.031 C 
ATOM     38  C   UNL A   1      40.420  25.627  28.130  1.00  0.00     0.029 A 
ATOM     39  C   UNL A   1      41.766  25.979  28.568  1.00  0.00     0.049 A 
ATOM     40  H   UNL A   1      42.384  27.764  29.448  1.00  0.00     0.167 HD
ATOM     41  C   UNL A   1      43.602  31.621  31.110  1.00  0.00     0.031 A 
ATOM     42  C   UNL A   1      42.847  25.183  28.467  1.00  0.00     0.031 A 
ATOM     43  C   UNL A   1      44.811  30.840  31.051  1.00  0.00     0.049 A 
ATOM     44  C   UNL A   1      44.185  25.702  28.915  1.00  0.00     0.074 A 
ATOM     45  C   UNL A   1      46.082  31.186  31.477  1.00  0.00     0.029 A 
ATOM     46  N   UNL A   1      44.897  29.553  30.542  1.00  0.00    -0.354 N 
ATOM     47  N   UNL A   1      44.484  26.866  29.440  1.00  0.00    -0.248 NA
ATOM     48  C   UNL A   1      45.333  24.800  28.751  1.00  0.00     0.031 C 
ATOM     49  C   UNL A   1      46.945  30.122  31.189  1.00  0.00     0.029 A 
ATOM     50  C   UNL A   1      46.202  29.096  30.630  1.00  0.00     0.049 A 
ATOM     51  H   UNL A   1      44.142  29.040  30.173  1.00  0.00     0.167 HD
ATOM     52  C   UNL A   1      45.852  26.831  29.682  1.00  0.00     0.074 A 
ATOM     53  C   UNL A   1      46.317  25.524  29.264  1.00  0.00     0.031 C 
ATOM     54  C   UNL A   1      46.651  27.795  30.202  1.00  0.00     0.031 A 
BRANCH  41  55
ATOM     55  C   UNL A   1      43.684  33.021  31.659  1.00  0.00    -0.014 A 
ATOM     56  C   UNL A   1      44.005  34.113  30.833  1.00  0.00     0.010 A 
ATOM     57  C   UNL A   1      43.401  33.251  33.017  1.00  0.00     0.010 A 
ATOM     58  C   UNL A   1      44.082  35.404  31.366  1.00  0.00     0.020 A 
ATOM     59  C   UNL A   1      43.452  34.544  33.548  1.00  0.00     0.020 A 
ATOM     60  C   UNL A   1      43.810  35.611  32.721  1.00  0.00     0.054 A 
BRANCH  60  61
ATOM     61  S   UNL A   1      43.897  37.297  33.384  1.00  0.00     0.124 S 
ATOM     62  O   UNL A   1      43.901  38.100  32.163  1.00  0.00    -0.237 OA
ATOM     63  O   UNL A   1      42.684  37.391  34.191  1.00  0.00    -0.237 OA
ATOM     64  O   UNL A   1      45.146  37.309  34.140  1.00  0.00    -0.744 OA
ENDBRANCH  60  61
ENDBRANCH  41  55
BRANCH  42  65
ATOM     65  C   UNL A   1      42.711  23.820  27.888  1.00  0.00    -0.014 A 
ATOM     66  C   UNL A   1      42.333  22.736  28.698  1.00  0.00     0.010 A 
ATOM     67  C   UNL A   1      42.940  23.604  26.516  1.00  0.00     0.010 A 
ATOM     68  C   UNL A   1      42.194  21.458  28.149  1.00  0.00     0.020 A 
ATOM     69  C   UNL A   1      42.775  22.333  25.959  1.00  0.00     0.020 A 
ATOM     70  C   UNL A   1      42.413  21.265  26.782  1.00  0.00     0.054 A 
BRANCH  70  71
ATOM     71  S   UNL A   1      42.168  19.611  26.078  1.00  0.00     0.124 S 
ATOM     72  O   UNL A   1      43.076  19.630  24.935  1.00  0.00    -0.237 OA
ATOM     73  O   UNL A   1      42.558  18.734  27.179  1.00  0.00    -0.237 OA
ATOM     74  O   UNL A   1      40.745  19.587  25.748  1.00  0.00    -0.744 OA
ENDBRANCH  70  71
ENDBRANCH  42  65
BRANCH  54  75
ATOM     75  C   UNL A   1      48.107  27.460  30.373  1.00  0.00    -0.014 A 
ATOM     76  C   UNL A   1      48.572  26.806  31.529  1.00  0.00     0.010 A 
ATOM     77  C   UNL A   1      49.018  27.774  29.348  1.00  0.00     0.010 A 
ATOM     78  C   UNL A   1      49.929  26.505  31.671  1.00  0.00     0.020 A 
ATOM     79  C   UNL A   1      50.371  27.453  29.476  1.00  0.00     0.020 A 
ATOM     80  C   UNL A   1      50.820  26.834  30.644  1.00  0.00     0.054 A 
BRANCH  80  81
ATOM     81  S   UNL A   1      52.574  26.407  30.836  1.00  0.00     0.124 S 
ATOM     82  O   UNL A   1      52.999  26.241  29.450  1.00  0.00    -0.237 OA
ATOM     83  O   UNL A   1      53.117  27.576  31.525  1.00  0.00    -0.237 OA
ATOM     84  O   UNL A   1      52.546  25.182  31.631  1.00  0.00    -0.744 OA
ENDBRANCH  80  81
ENDBRANCH  54  75
ENDBRANCH  28  29
ENDBRANCH  21  23
ENDBRANCH  20  21
ENDBRANCH  19  20
ENDBRANCH   1  19
TORSDOF 17
ENDMDL
MODEL 3
REMARK VINA RESULT:      -9.1      3.313      5.192
REMARK SMILES C[C@@H]1CCC[C@H](NC(=O)N(C)CC(=O)OCCOC(=O)c2ccc(-c3c4nc(c(-c5ccc(S(=O)(=O)[O-])cc5)c5ccc([nH]5)c(-c5ccc(S(=O)(=O)[O-])cc5)c5nc(c(-c6ccc(S(=O)(=O)[O-])cc6)c6ccc3[nH]6)C=C5)C=C4)cc2)C1
REMARK SMILES IDX 16 1 15 2 13 3 14 4 12 5 10 6 11 7 8 8 7 9 9 11 6 12 1 13
REMARK SMILES IDX 2 14 3 15 81 16 4 17 5 18 17 19 18 20 19 21 20 22 21 23
REMARK SMILES IDX 22 24 80 25 23 26 79 27 24 28 25 29 26 30 73 31 27 32 78 33
REMARK SMILES IDX 72 34 74 35 28 36 77 37 71 38 70 39 29 41 59 42 40 43 58 44
REMARK SMILES IDX 41 45 44 46 57 47 75 48 42 49 43 50 56 52 76 53 45 54 30 55
REMARK SMILES IDX 31 56 39 57 32 58 38 59 33 60 34 61 35 62 36 63 37 64 60 65
REMARK SMILES IDX 61 66 69 67 62 68 68 69 63 70 64 71 65 72 66 73 67 74 46 75
REMARK SMILES IDX 47 76 55 77 48 78 54 79 49 80 50 81 51 82 52 83 53 84
REMARK H PARENT 7 10 74 40 44 51
REMARK Flexibility Score: inf
ROOT
ATOM      1  C   UNL A   1      33.251  30.459  27.246  1.00  0.00     0.274 C 
ENDROOT
BRANCH   1   2
ATOM      2  O   UNL A   1      33.520  29.424  26.280  1.00  0.00    -0.461 OA
BRANCH   2   3
ATOM      3  C   UNL A   1      32.449  28.664  25.913  1.00  0.00     0.325 C 
ATOM      4  O   UNL A   1      31.440  29.101  25.368  1.00  0.00    -0.250 OA
BRANCH   3   5
ATOM      5  C   UNL A   1      32.594  27.193  26.302  1.00  0.00     0.243 C 
BRANCH   5   6
ATOM      6  N   UNL A   1      32.453  26.219  25.210  1.00  0.00    -0.317 N 
ATOM      7  C   UNL A   1      31.166  25.562  25.130  1.00  0.00     0.149 C 
BRANCH   6   8
ATOM      8  C   UNL A   1      33.563  26.002  24.448  1.00  0.00     0.317 C 
ATOM      9  N   UNL A   1      34.513  25.105  24.751  1.00  0.00    -0.335 N 
ATOM     10  H   UNL A   1      35.262  25.131  24.113  1.00  0.00     0.165 HD
ATOM     11  O   UNL A   1      33.742  26.619  23.395  1.00  0.00    -0.249 OA
BRANCH   9  12
ATOM     12  C   UNL A   1      34.717  24.103  25.788  1.00  0.00     0.084 C 
ATOM     13  C   UNL A   1      36.634  23.069  23.278  1.00  0.00     0.008 C 
ATOM     14  C   UNL A   1      36.433  22.485  24.679  1.00  0.00    -0.012 C 
ATOM     15  C   UNL A   1      35.349  21.401  24.687  1.00  0.00     0.003 C 
ATOM     16  C   UNL A   1      36.153  23.557  25.749  1.00  0.00     0.028 C 
ATOM     17  C   UNL A   1      33.940  21.975  24.581  1.00  0.00     0.002 C 
ATOM     18  C   UNL A   1      33.667  22.987  25.689  1.00  0.00     0.025 C 
ENDBRANCH   9  12
ENDBRANCH   6   8
ENDBRANCH   5   6
ENDBRANCH   3   5
ENDBRANCH   2   3
ENDBRANCH   1   2
BRANCH   1  19
ATOM     19  C   UNL A   1      34.560  31.099  27.698  1.00  0.00     0.275 C 
BRANCH  19  20
ATOM     20  O   UNL A   1      35.445  30.071  28.168  1.00  0.00    -0.458 OA
BRANCH  20  21
ATOM     21  C   UNL A   1      36.225  30.410  29.219  1.00  0.00     0.338 C 
ATOM     22  O   UNL A   1      35.913  31.122  30.166  1.00  0.00    -0.246 OA
BRANCH  21  23
ATOM     23  C   UNL A   1      37.582  29.872  29.010  1.00  0.00     0.060 A 
ATOM     24  C   UNL A   1      38.399  29.534  30.092  1.00  0.00     0.016 A 
ATOM     25  C   UNL A   1      38.067  29.756  27.707  1.00  0.00     0.016 A 
ATOM     26  C   UNL A   1      39.720  29.145  29.878  1.00  0.00     0.010 A 
ATOM     27  C   UNL A   1      39.363  29.287  27.491  1.00  0.00     0.010 A 
ATOM     28  C   UNL A   1      40.214  29.006  28.575  1.00  0.00    -0.014 A 
BRANCH  28  29
ATOM     29  C   UNL A   1      41.622  28.598  28.333  1.00  0.00     0.031 A 
ATOM     30  C   UNL A   1      42.724  29.625  28.387  1.00  0.00     0.074 A 
ATOM     31  C   UNL A   1      41.917  27.314  28.052  1.00  0.00     0.049 A 
ATOM     32  N   UNL A   1      43.984  29.502  28.060  1.00  0.00    -0.248 NA
ATOM     33  C   UNL A   1      42.352  30.970  28.858  1.00  0.00     0.031 C 
ATOM     34  C   UNL A   1      40.953  26.212  28.005  1.00  0.00     0.029 A 
ATOM     35  N   UNL A   1      43.115  26.719  27.746  1.00  0.00    -0.354 N 
ATOM     36  C   UNL A   1      44.548  30.761  28.245  1.00  0.00     0.074 A 
ATOM     37  C   UNL A   1      43.489  31.635  28.699  1.00  0.00     0.031 C 
ATOM     38  C   UNL A   1      41.602  25.073  27.713  1.00  0.00     0.029 A 
ATOM     39  C   UNL A   1      43.011  25.373  27.484  1.00  0.00     0.049 A 
ATOM     40  H   UNL A   1      43.969  27.208  27.716  1.00  0.00     0.167 HD
ATOM     41  C   UNL A   1      45.832  31.150  28.056  1.00  0.00     0.031 A 
ATOM     42  C   UNL A   1      43.935  24.484  27.071  1.00  0.00     0.031 A 
ATOM     43  C   UNL A   1      46.889  30.272  27.626  1.00  0.00     0.049 A 
ATOM     44  C   UNL A   1      45.343  24.950  26.827  1.00  0.00     0.074 A 
ATOM     45  C   UNL A   1      48.225  30.570  27.418  1.00  0.00     0.029 A 
ATOM     46  N   UNL A   1      46.733  28.922  27.347  1.00  0.00    -0.354 N 
ATOM     47  N   UNL A   1      45.853  26.148  26.979  1.00  0.00    -0.248 NA
ATOM     48  C   UNL A   1      46.298  23.942  26.348  1.00  0.00     0.031 C 
ATOM     49  C   UNL A   1      48.868  29.408  26.974  1.00  0.00     0.029 A 
ATOM     50  C   UNL A   1      47.944  28.377  26.955  1.00  0.00     0.049 A 
ATOM     51  H   UNL A   1      45.886  28.426  27.418  1.00  0.00     0.167 HD
ATOM     52  C   UNL A   1      47.193  26.036  26.628  1.00  0.00     0.074 A 
ATOM     53  C   UNL A   1      47.417  24.649  26.275  1.00  0.00     0.031 C 
ATOM     54  C   UNL A   1      48.150  26.996  26.600  1.00  0.00     0.031 A 
BRANCH  41  55
ATOM     55  C   UNL A   1      46.158  32.603  28.281  1.00  0.00    -0.014 A 
ATOM     56  C   UNL A   1      46.595  33.069  29.534  1.00  0.00     0.010 A 
ATOM     57  C   UNL A   1      46.056  33.511  27.212  1.00  0.00     0.010 A 
ATOM     58  C   UNL A   1      46.886  34.425  29.722  1.00  0.00     0.020 A 
ATOM     59  C   UNL A   1      46.370  34.862  27.389  1.00  0.00     0.020 A 
ATOM     60  C   UNL A   1      46.767  35.313  28.650  1.00  0.00     0.054 A 
BRANCH  60  61
ATOM     61  S   UNL A   1      47.167  37.062  28.915  1.00  0.00     0.124 S 
ATOM     62  O   UNL A   1      45.898  37.713  28.599  1.00  0.00    -0.237 OA
ATOM     63  O   UNL A   1      47.555  37.096  30.322  1.00  0.00    -0.237 OA
ATOM     64  O   UNL A   1      48.250  37.318  27.968  1.00  0.00    -0.744 OA
ENDBRANCH  60  61
ENDBRANCH  41  55
BRANCH  42  65
ATOM     65  C   UNL A   1      43.546  23.068  26.836  1.00  0.00    -0.014 A 
ATOM     66  C   UNL A   1      43.822  22.447  25.606  1.00  0.00     0.010 A 
ATOM     67  C   UNL A   1      42.914  22.326  27.852  1.00  0.00     0.010 A 
ATOM     68  C   UNL A   1      43.466  21.112  25.392  1.00  0.00     0.020 A 
ATOM     69  C   UNL A   1      42.582  20.984  27.651  1.00  0.00     0.020 A 
ATOM     70  C   UNL A   1      42.850  20.388  26.418  1.00  0.00     0.054 A 
BRANCH  70  71
ATOM     71  S   UNL A   1      42.452  18.640  26.141  1.00  0.00     0.124 S 
ATOM     72  O   UNL A   1      41.043  18.705  25.765  1.00  0.00    -0.237 OA
ATOM     73  O   UNL A   1      43.375  18.267  25.071  1.00  0.00    -0.237 OA
ATOM     74  O   UNL A   1      42.727  18.018  27.434  1.00  0.00    -0.744 OA
ENDBRANCH  70  71
ENDBRANCH  42  65
BRANCH  54  75
ATOM     75  C   UNL A   1      49.536  26.569  26.198  1.00  0.00    -0.014 A 
ATOM     76  C   UNL A   1      50.015  26.788  24.894  1.00  0.00     0.010 A 
ATOM     77  C   UNL A   1      50.382  25.972  27.150  1.00  0.00     0.010 A 
ATOM     78  C   UNL A   1      51.304  26.382  24.539  1.00  0.00     0.020 A 
ATOM     79  C   UNL A   1      51.679  25.587  26.806  1.00  0.00     0.020 A 
ATOM     80  C   UNL A   1      52.127  25.781  25.497  1.00  0.00     0.054 A 
BRANCH  80  81
ATOM     81  S   UNL A   1      53.808  25.289  25.023  1.00  0.00     0.124 S 
ATOM     82  O   UNL A   1      53.981  25.986  23.752  1.00  0.00    -0.237 OA
ATOM     83  O   UNL A   1      54.616  25.792  26.131  1.00  0.00    -0.237 OA
ATOM     84  O   UNL A   1      53.729  23.833  24.930  1.00  0.00    -0.744 OA
ENDBRANCH  80  81
ENDBRANCH  54  75
ENDBRANCH  28  29
ENDBRANCH  21  23
ENDBRANCH  20  21
ENDBRANCH  19  20
ENDBRANCH   1  19
TORSDOF 17
ENDMDL
