MODEL 1
REMARK VINA RESULT:     -10.2      0.000      0.000
REMARK SMILES CCCCCCNC(=O)Nc1cccc(-c2ccc([C@@H](C)C(=O)OCCOC(=O)c3ccc(-c4c5nc(c(-c6ccc(S(=O)(=O)[O-])cc6)c6ccc([nH]6)c(-c6ccc(S(=O)(=O)[O-])cc6)c6nc(c(-c7ccc(S(=O)(=O)[O-])cc7)c7ccc4[nH]7)C=C6)C=C5)cc3)cc2F)c1
REMARK SMILES IDX 22 1 23 2 20 3 21 4 19 5 16 6 17 7 91 8 18 9 90 10 92 11
REMARK SMILES IDX 15 12 11 13 12 14 93 15 13 16 14 17 10 18 7 19 8 20 9 22
REMARK SMILES IDX 6 24 5 25 4 26 3 27 2 28 1 29 24 30 25 31 26 32 27 33 28 34
REMARK SMILES IDX 29 35 30 36 31 37 89 38 32 39 88 40 33 41 34 42 35 43 82 44
REMARK SMILES IDX 36 45 87 46 81 47 83 48 37 49 86 50 80 51 79 52 38 54 68 55
REMARK SMILES IDX 49 56 67 57 50 58 53 59 66 60 84 61 51 62 52 63 65 65 85 66
REMARK SMILES IDX 54 67 39 68 40 69 48 70 41 71 47 72 42 73 43 74 44 75 45 76
REMARK SMILES IDX 46 77 69 78 70 79 78 80 71 81 77 82 72 83 73 84 74 85 75 86
REMARK SMILES IDX 76 87 55 88 56 89 64 90 57 91 63 92 58 93 59 94 60 95 61 96
REMARK SMILES IDX 62 97
REMARK H PARENT 7 21 10 23 83 53 53 64
REMARK Flexibility Score: inf
ROOT
ATOM      1  C   UNL A   1      34.023  34.050  28.191  1.00  0.00     0.313 C 
ATOM      2  O   UNL A   1      34.694  34.596  27.320  1.00  0.00    -0.252 OA
ENDROOT
BRANCH   1   3
ATOM      3  C   UNL A   1      34.442  32.721  28.806  1.00  0.00     0.126 C 
ATOM      4  C   UNL A   1      35.855  32.847  29.379  1.00  0.00     0.025 C 
BRANCH   3   5
ATOM      5  C   UNL A   1      34.285  31.477  27.944  1.00  0.00    -0.031 A 
ATOM      6  C   UNL A   1      33.867  29.093  26.445  1.00  0.00     0.018 A 
ATOM      7  C   UNL A   1      35.069  29.317  27.137  1.00  0.00     0.012 A 
ATOM      8  C   UNL A   1      32.898  30.099  26.493  1.00  0.00     0.131 A 
ATOM      9  C   UNL A   1      35.277  30.491  27.873  1.00  0.00     0.005 A 
ATOM     10  C   UNL A   1      33.093  31.266  27.232  1.00  0.00     0.044 A 
ATOM     11  F   UNL A   1      31.732  29.945  25.847  1.00  0.00    -0.206 F 
BRANCH   6  12
ATOM     12  C   UNL A   1      33.664  27.850  25.691  1.00  0.00    -0.013 A 
ATOM     13  C   UNL A   1      32.747  25.595  25.559  1.00  0.00     0.043 A 
ATOM     14  C   UNL A   1      33.109  25.513  24.215  1.00  0.00     0.026 A 
ATOM     15  C   UNL A   1      33.103  26.721  26.307  1.00  0.00     0.035 A 
ATOM     16  C   UNL A   1      33.697  26.612  23.591  1.00  0.00     0.003 A 
ATOM     17  C   UNL A   1      33.949  27.779  24.318  1.00  0.00     0.009 A 
BRANCH  13  18
ATOM     18  N   UNL A   1      31.971  24.559  26.097  1.00  0.00    -0.308 N 
ATOM     19  N   UNL A   1      29.743  25.189  25.581  1.00  0.00    -0.338 N 
ATOM     20  C   UNL A   1      30.634  24.479  26.316  1.00  0.00     0.319 C 
ATOM     21  H   UNL A   1      28.826  25.200  25.937  1.00  0.00     0.165 HD
ATOM     22  O   UNL A   1      30.200  23.655  27.123  1.00  0.00    -0.249 OA
ATOM     23  H   UNL A   1      32.478  23.757  26.357  1.00  0.00     0.171 HD
BRANCH  19  24
ATOM     24  C   UNL A   1      29.931  25.939  24.351  1.00  0.00     0.117 C 
BRANCH  24  25
ATOM     25  C   UNL A   1      30.113  27.438  24.557  1.00  0.00     0.021 C 
BRANCH  25  26
ATOM     26  C   UNL A   1      29.984  28.300  23.301  1.00  0.00     0.002 C 
BRANCH  26  27
ATOM     27  C   UNL A   1      29.597  29.768  23.520  1.00  0.00    -0.000 C 
BRANCH  27  28
ATOM     28  C   UNL A   1      28.429  30.297  22.682  1.00  0.00    -0.003 C 
ATOM     29  C   UNL A   1      27.592  31.350  23.386  1.00  0.00     0.004 C 
ENDBRANCH  27  28
ENDBRANCH  26  27
ENDBRANCH  25  26
ENDBRANCH  24  25
ENDBRANCH  19  24
ENDBRANCH  13  18
ENDBRANCH   6  12
ENDBRANCH   3   5
ENDBRANCH   1   3
BRANCH   1  30
ATOM     30  O   UNL A   1      32.830  34.523  28.641  1.00  0.00    -0.462 OA
BRANCH  30  31
ATOM     31  C   UNL A   1      32.753  35.949  28.847  1.00  0.00     0.274 C 
BRANCH  31  32
ATOM     32  C   UNL A   1      32.696  36.318  30.332  1.00  0.00     0.275 C 
BRANCH  32  33
ATOM     33  O   UNL A   1      33.822  35.800  31.058  1.00  0.00    -0.458 OA
BRANCH  33  34
ATOM     34  C   UNL A   1      33.499  35.019  32.116  1.00  0.00     0.338 C 
ATOM     35  O   UNL A   1      32.382  34.759  32.529  1.00  0.00    -0.246 OA
BRANCH  34  36
ATOM     36  C   UNL A   1      34.718  34.403  32.659  1.00  0.00     0.060 A 
ATOM     37  C   UNL A   1      35.862  35.196  32.760  1.00  0.00     0.016 A 
ATOM     38  C   UNL A   1      34.764  33.046  32.976  1.00  0.00     0.016 A 
ATOM     39  C   UNL A   1      37.071  34.632  33.151  1.00  0.00     0.010 A 
ATOM     40  C   UNL A   1      35.977  32.481  33.385  1.00  0.00     0.010 A 
ATOM     41  C   UNL A   1      37.141  33.267  33.454  1.00  0.00    -0.014 A 
BRANCH  41  42
ATOM     42  C   UNL A   1      38.453  32.661  33.790  1.00  0.00     0.031 A 
ATOM     43  C   UNL A   1      39.033  32.846  35.164  1.00  0.00     0.074 A 
ATOM     44  C   UNL A   1      39.099  31.915  32.875  1.00  0.00     0.049 A 
ATOM     45  N   UNL A   1      40.178  32.428  35.639  1.00  0.00    -0.248 NA
ATOM     46  C   UNL A   1      38.218  33.601  36.129  1.00  0.00     0.031 C 
ATOM     47  C   UNL A   1      38.614  31.624  31.524  1.00  0.00     0.029 A 
ATOM     48  N   UNL A   1      40.300  31.257  32.947  1.00  0.00    -0.354 N 
ATOM     49  C   UNL A   1      40.232  32.886  36.950  1.00  0.00     0.074 A 
ATOM     50  C   UNL A   1      39.012  33.626  37.191  1.00  0.00     0.031 C 
ATOM     51  C   UNL A   1      39.504  30.834  30.901  1.00  0.00     0.029 A 
ATOM     52  C   UNL A   1      40.639  30.600  31.789  1.00  0.00     0.049 A 
ATOM     53  H   UNL A   1      40.866  31.256  33.753  1.00  0.00     0.167 HD
ATOM     54  C   UNL A   1      41.210  32.704  37.870  1.00  0.00     0.031 A 
ATOM     55  C   UNL A   1      41.747  29.902  31.473  1.00  0.00     0.031 A 
ATOM     56  C   UNL A   1      42.421  31.965  37.628  1.00  0.00     0.049 A 
ATOM     57  C   UNL A   1      42.839  29.755  32.495  1.00  0.00     0.074 A 
ATOM     58  C   UNL A   1      43.472  31.725  38.497  1.00  0.00     0.029 A 
ATOM     59  N   UNL A   1      42.743  31.345  36.430  1.00  0.00    -0.354 N 
ATOM     60  N   UNL A   1      42.880  30.205  33.727  1.00  0.00    -0.248 NA
ATOM     61  C   UNL A   1      44.035  29.006  32.084  1.00  0.00     0.031 C 
ATOM     62  C   UNL A   1      44.447  30.991  37.810  1.00  0.00     0.029 A 
ATOM     63  C   UNL A   1      43.983  30.736  36.529  1.00  0.00     0.049 A 
ATOM     64  H   UNL A   1      42.174  31.338  35.627  1.00  0.00     0.167 HD
ATOM     65  C   UNL A   1      44.098  29.778  34.244  1.00  0.00     0.074 A 
ATOM     66  C   UNL A   1      44.756  29.022  33.198  1.00  0.00     0.031 C 
ATOM     67  C   UNL A   1      44.624  29.993  35.475  1.00  0.00     0.031 A 
BRANCH  54  68
ATOM     68  C   UNL A   1      41.023  33.356  39.213  1.00  0.00    -0.014 A 
ATOM     69  C   UNL A   1      40.432  32.664  40.285  1.00  0.00     0.010 A 
ATOM     70  C   UNL A   1      41.464  34.677  39.410  1.00  0.00     0.010 A 
ATOM     71  C   UNL A   1      40.251  33.296  41.520  1.00  0.00     0.020 A 
ATOM     72  C   UNL A   1      41.304  35.304  40.648  1.00  0.00     0.020 A 
ATOM     73  C   UNL A   1      40.681  34.616  41.691  1.00  0.00     0.054 A 
BRANCH  73  74
ATOM     74  S   UNL A   1      40.448  35.412  43.304  1.00  0.00     0.124 S 
ATOM     75  O   UNL A   1      39.383  36.369  43.014  1.00  0.00    -0.237 OA
ATOM     76  O   UNL A   1      40.071  34.296  44.166  1.00  0.00    -0.237 OA
ATOM     77  O   UNL A   1      41.754  36.001  43.590  1.00  0.00    -0.744 OA
ENDBRANCH  73  74
ENDBRANCH  54  68
BRANCH  55  78
ATOM     78  C   UNL A   1      41.883  29.305  30.118  1.00  0.00    -0.014 A 
ATOM     79  C   UNL A   1      41.452  27.991  29.868  1.00  0.00     0.010 A 
ATOM     80  C   UNL A   1      42.432  30.059  29.064  1.00  0.00     0.010 A 
ATOM     81  C   UNL A   1      41.578  27.436  28.591  1.00  0.00     0.020 A 
ATOM     82  C   UNL A   1      42.538  29.516  27.781  1.00  0.00     0.020 A 
ATOM     83  C   UNL A   1      42.119  28.203  27.555  1.00  0.00     0.054 A 
BRANCH  83  84
ATOM     84  S   UNL A   1      42.218  27.489  25.890  1.00  0.00     0.124 S 
ATOM     85  O   UNL A   1      41.030  26.643  25.852  1.00  0.00    -0.237 OA
ATOM     86  O   UNL A   1      42.182  28.671  25.032  1.00  0.00    -0.237 OA
ATOM     87  O   UNL A   1      43.495  26.778  25.900  1.00  0.00    -0.744 OA
ENDBRANCH  83  84
ENDBRANCH  55  78
BRANCH  67  88
ATOM     88  C   UNL A   1      45.966  29.379  35.763  1.00  0.00    -0.014 A 
ATOM     89  C   UNL A   1      46.073  28.075  36.280  1.00  0.00     0.010 A 
ATOM     90  C   UNL A   1      47.137  30.104  35.479  1.00  0.00     0.010 A 
ATOM     91  C   UNL A   1      47.329  27.521  36.541  1.00  0.00     0.020 A 
ATOM     92  C   UNL A   1      48.395  29.545  35.718  1.00  0.00     0.020 A 
ATOM     93  C   UNL A   1      48.482  28.261  36.263  1.00  0.00     0.054 A 
BRANCH  93  94
ATOM     94  S   UNL A   1      50.105  27.513  36.580  1.00  0.00     0.124 S 
ATOM     95  O   UNL A   1      50.987  28.676  36.541  1.00  0.00    -0.237 OA
ATOM     96  O   UNL A   1      49.928  26.902  37.896  1.00  0.00    -0.237 OA
ATOM     97  O   UNL A   1      50.269  26.567  35.479  1.00  0.00    -0.744 OA
ENDBRANCH  93  94
ENDBRANCH  67  88
ENDBRANCH  41  42
ENDBRANCH  34  36
ENDBRANCH  33  34
ENDBRANCH  32  33
ENDBRANCH  31  32
ENDBRANCH  30  31
ENDBRANCH   1  30
TORSDOF 22
ENDMDL
MODEL 2
REMARK VINA RESULT:     -10.1      3.284     10.311
REMARK SMILES CCCCCCNC(=O)Nc1cccc(-c2ccc([C@@H](C)C(=O)OCCOC(=O)c3ccc(-c4c5nc(c(-c6ccc(S(=O)(=O)[O-])cc6)c6ccc([nH]6)c(-c6ccc(S(=O)(=O)[O-])cc6)c6nc(c(-c7ccc(S(=O)(=O)[O-])cc7)c7ccc4[nH]7)C=C6)C=C5)cc3)cc2F)c1
REMARK SMILES IDX 22 1 23 2 20 3 21 4 19 5 16 6 17 7 91 8 18 9 90 10 92 11
REMARK SMILES IDX 15 12 11 13 12 14 93 15 13 16 14 17 10 18 7 19 8 20 9 22
REMARK SMILES IDX 6 24 5 25 4 26 3 27 2 28 1 29 24 30 25 31 26 32 27 33 28 34
REMARK SMILES IDX 29 35 30 36 31 37 89 38 32 39 88 40 33 41 34 42 35 43 82 44
REMARK SMILES IDX 36 45 87 46 81 47 83 48 37 49 86 50 80 51 79 52 38 54 68 55
REMARK SMILES IDX 49 56 67 57 50 58 53 59 66 60 84 61 51 62 52 63 65 65 85 66
REMARK SMILES IDX 54 67 39 68 40 69 48 70 41 71 47 72 42 73 43 74 44 75 45 76
REMARK SMILES IDX 46 77 69 78 70 79 78 80 71 81 77 82 72 83 73 84 74 85 75 86
REMARK SMILES IDX 76 87 55 88 56 89 64 90 57 91 63 92 58 93 59 94 60 95 61 96
REMARK SMILES IDX 62 97
REMARK H PARENT 7 21 10 23 83 53 53 64
REMARK Flexibility Score: inf
ROOT
ATOM      1  C   UNL A   1      43.172  22.190  26.133  1.00  0.00     0.313 C 
ATOM      2  O   UNL A   1      42.823  21.546  25.148  1.00  0.00    -0.252 OA
ENDROOT
BRANCH   1   3
ATOM      3  C   UNL A   1      42.164  22.678  27.166  1.00  0.00     0.126 C 
ATOM      4  C   UNL A   1      42.286  21.833  28.435  1.00  0.00     0.025 C 
BRANCH   3   5
ATOM      5  C   UNL A   1      40.719  22.821  26.712  1.00  0.00    -0.031 A 
ATOM      6  C   UNL A   1      38.070  23.054  25.698  1.00  0.00     0.018 A 
ATOM      7  C   UNL A   1      38.762  24.173  26.189  1.00  0.00     0.012 A 
ATOM      8  C   UNL A   1      38.718  21.818  25.757  1.00  0.00     0.131 A 
ATOM      9  C   UNL A   1      40.065  24.060  26.691  1.00  0.00     0.005 A 
ATOM     10  C   UNL A   1      40.019  21.698  26.245  1.00  0.00     0.044 A 
ATOM     11  F   UNL A   1      38.105  20.712  25.308  1.00  0.00    -0.206 F 
BRANCH   6  12
ATOM     12  C   UNL A   1      36.709  23.197  25.163  1.00  0.00    -0.013 A 
ATOM     13  C   UNL A   1      34.363  23.764  25.504  1.00  0.00     0.043 A 
ATOM     14  C   UNL A   1      34.123  23.644  24.136  1.00  0.00     0.026 A 
ATOM     15  C   UNL A   1      35.627  23.456  26.016  1.00  0.00     0.035 A 
ATOM     16  C   UNL A   1      35.179  23.356  23.272  1.00  0.00     0.003 A 
ATOM     17  C   UNL A   1      36.466  23.160  23.781  1.00  0.00     0.009 A 
BRANCH  13  18
ATOM     18  N   UNL A   1      33.332  24.260  26.313  1.00  0.00    -0.308 N 
ATOM     19  N   UNL A   1      32.318  22.308  27.203  1.00  0.00    -0.338 N 
ATOM     20  C   UNL A   1      32.277  23.627  26.887  1.00  0.00     0.319 C 
ATOM     21  H   UNL A   1      31.450  21.912  27.441  1.00  0.00     0.165 HD
ATOM     22  O   UNL A   1      31.296  24.282  27.242  1.00  0.00    -0.249 OA
ATOM     23  H   UNL A   1      33.380  25.225  26.496  1.00  0.00     0.171 HD
BRANCH  19  24
ATOM     24  C   UNL A   1      33.442  21.390  27.243  1.00  0.00     0.117 C 
BRANCH  24  25
ATOM     25  C   UNL A   1      33.300  20.191  26.312  1.00  0.00     0.021 C 
BRANCH  25  26
ATOM     26  C   UNL A   1      32.448  20.419  25.063  1.00  0.00     0.002 C 
BRANCH  26  27
ATOM     27  C   UNL A   1      32.575  19.370  23.951  1.00  0.00    -0.000 C 
BRANCH  27  28
ATOM     28  C   UNL A   1      32.271  19.846  22.528  1.00  0.00    -0.003 C 
ATOM     29  C   UNL A   1      31.940  21.325  22.430  1.00  0.00     0.004 C 
ENDBRANCH  27  28
ENDBRANCH  26  27
ENDBRANCH  25  26
ENDBRANCH  24  25
ENDBRANCH  19  24
ENDBRANCH  13  18
ENDBRANCH   6  12
ENDBRANCH   3   5
ENDBRANCH   1   3
BRANCH   1  30
ATOM     30  O   UNL A   1      44.451  22.587  26.368  1.00  0.00    -0.462 OA
BRANCH  30  31
ATOM     31  C   UNL A   1      44.646  24.002  26.570  1.00  0.00     0.274 C 
BRANCH  31  32
ATOM     32  C   UNL A   1      44.684  24.777  25.250  1.00  0.00     0.275 C 
BRANCH  32  33
ATOM     33  O   UNL A   1      44.431  26.178  25.442  1.00  0.00    -0.458 OA
BRANCH  33  34
ATOM     34  C   UNL A   1      43.127  26.496  25.620  1.00  0.00     0.338 C 
ATOM     35  O   UNL A   1      42.189  26.200  24.901  1.00  0.00    -0.246 OA
BRANCH  34  36
ATOM     36  C   UNL A   1      42.962  27.178  26.912  1.00  0.00     0.060 A 
ATOM     37  C   UNL A   1      42.246  26.520  27.912  1.00  0.00     0.016 A 
ATOM     38  C   UNL A   1      43.423  28.479  27.107  1.00  0.00     0.016 A 
ATOM     39  C   UNL A   1      41.958  27.168  29.108  1.00  0.00     0.010 A 
ATOM     40  C   UNL A   1      43.147  29.127  28.316  1.00  0.00     0.010 A 
ATOM     41  C   UNL A   1      42.395  28.482  29.315  1.00  0.00    -0.014 A 
BRANCH  41  42
ATOM     42  C   UNL A   1      42.010  29.190  30.559  1.00  0.00     0.031 A 
ATOM     43  C   UNL A   1      40.761  30.027  30.588  1.00  0.00     0.074 A 
ATOM     44  C   UNL A   1      42.758  29.049  31.669  1.00  0.00     0.049 A 
ATOM     45  N   UNL A   1      40.275  30.749  31.565  1.00  0.00    -0.248 NA
ATOM     46  C   UNL A   1      39.955  30.054  29.357  1.00  0.00     0.031 C 
ATOM     47  C   UNL A   1      43.965  28.226  31.777  1.00  0.00     0.029 A 
ATOM     48  N   UNL A   1      42.608  29.588  32.921  1.00  0.00    -0.354 N 
ATOM     49  C   UNL A   1      39.119  31.333  31.062  1.00  0.00     0.074 A 
ATOM     50  C   UNL A   1      38.985  30.893  29.690  1.00  0.00     0.031 C 
ATOM     51  C   UNL A   1      44.436  28.305  33.033  1.00  0.00     0.029 A 
ATOM     52  C   UNL A   1      43.593  29.215  33.803  1.00  0.00     0.049 A 
ATOM     53  H   UNL A   1      41.864  30.185  33.165  1.00  0.00     0.167 HD
ATOM     54  C   UNL A   1      38.248  32.161  31.688  1.00  0.00     0.031 A 
ATOM     55  C   UNL A   1      43.804  29.579  35.083  1.00  0.00     0.031 A 
ATOM     56  C   UNL A   1      38.383  32.595  33.054  1.00  0.00     0.049 A 
ATOM     57  C   UNL A   1      42.849  30.536  35.741  1.00  0.00     0.074 A 
ATOM     58  C   UNL A   1      37.552  33.432  33.778  1.00  0.00     0.029 A 
ATOM     59  N   UNL A   1      39.415  32.223  33.903  1.00  0.00    -0.354 N 
ATOM     60  N   UNL A   1      41.768  31.089  35.247  1.00  0.00    -0.248 NA
ATOM     61  C   UNL A   1      43.145  30.917  37.129  1.00  0.00     0.031 C 
ATOM     62  C   UNL A   1      38.104  33.598  35.055  1.00  0.00     0.029 A 
ATOM     63  C   UNL A   1      39.253  32.827  35.139  1.00  0.00     0.049 A 
ATOM     64  H   UNL A   1      40.154  31.619  33.662  1.00  0.00     0.167 HD
ATOM     65  C   UNL A   1      41.243  31.872  36.270  1.00  0.00     0.074 A 
ATOM     66  C   UNL A   1      42.117  31.707  37.414  1.00  0.00     0.031 C 
ATOM     67  C   UNL A   1      40.137  32.655  36.263  1.00  0.00     0.031 A 
BRANCH  54  68
ATOM     68  C   UNL A   1      37.092  32.685  30.880  1.00  0.00    -0.014 A 
ATOM     69  C   UNL A   1      37.219  33.840  30.088  1.00  0.00     0.010 A 
ATOM     70  C   UNL A   1      35.865  31.998  30.898  1.00  0.00     0.010 A 
ATOM     71  C   UNL A   1      36.126  34.321  29.358  1.00  0.00     0.020 A 
ATOM     72  C   UNL A   1      34.778  32.463  30.153  1.00  0.00     0.020 A 
ATOM     73  C   UNL A   1      34.909  33.632  29.403  1.00  0.00     0.054 A 
BRANCH  73  74
ATOM     74  S   UNL A   1      33.508  34.265  28.440  1.00  0.00     0.124 S 
ATOM     75  O   UNL A   1      32.613  34.741  29.490  1.00  0.00    -0.237 OA
ATOM     76  O   UNL A   1      34.122  35.304  27.618  1.00  0.00    -0.237 OA
ATOM     77  O   UNL A   1      33.038  33.093  27.704  1.00  0.00    -0.744 OA
ENDBRANCH  73  74
ENDBRANCH  54  68
BRANCH  55  78
ATOM     78  C   UNL A   1      44.981  29.047  35.819  1.00  0.00    -0.014 A 
ATOM     79  C   UNL A   1      44.860  27.912  36.640  1.00  0.00     0.010 A 
ATOM     80  C   UNL A   1      46.237  29.668  35.688  1.00  0.00     0.010 A 
ATOM     81  C   UNL A   1      45.971  27.413  37.325  1.00  0.00     0.020 A 
ATOM     82  C   UNL A   1      47.355  29.158  36.353  1.00  0.00     0.020 A 
ATOM     83  C   UNL A   1      47.213  28.039  37.176  1.00  0.00     0.054 A 
BRANCH  83  84
ATOM     84  S   UNL A   1      48.657  27.342  38.025  1.00  0.00     0.124 S 
ATOM     85  O   UNL A   1      49.665  27.357  36.971  1.00  0.00    -0.237 OA
ATOM     86  O   UNL A   1      48.871  28.285  39.120  1.00  0.00    -0.237 OA
ATOM     87  O   UNL A   1      48.201  26.016  38.438  1.00  0.00    -0.744 OA
ENDBRANCH  83  84
ENDBRANCH  55  78
BRANCH  67  88
ATOM     88  C   UNL A   1      39.797  33.373  37.540  1.00  0.00    -0.014 A 
ATOM     89  C   UNL A   1      40.390  34.607  37.860  1.00  0.00     0.010 A 
ATOM     90  C   UNL A   1      38.844  32.821  38.415  1.00  0.00     0.010 A 
ATOM     91  C   UNL A   1      40.063  35.260  39.051  1.00  0.00     0.020 A 
ATOM     92  C   UNL A   1      38.497  33.482  39.596  1.00  0.00     0.020 A 
ATOM     93  C   UNL A   1      39.122  34.690  39.915  1.00  0.00     0.054 A 
BRANCH  93  94
ATOM     94  S   UNL A   1      38.686  35.568  41.442  1.00  0.00     0.124 S 
ATOM     95  O   UNL A   1      37.383  34.992  41.760  1.00  0.00    -0.237 OA
ATOM     96  O   UNL A   1      39.773  35.201  42.348  1.00  0.00    -0.237 OA
ATOM     97  O   UNL A   1      38.667  36.972  41.039  1.00  0.00    -0.744 OA
ENDBRANCH  93  94
ENDBRANCH  67  88
ENDBRANCH  41  42
ENDBRANCH  34  36
ENDBRANCH  33  34
ENDBRANCH  32  33
ENDBRANCH  31  32
ENDBRANCH  30  31
ENDBRANCH   1  30
TORSDOF 22
ENDMDL
MODEL 3
REMARK VINA RESULT:      -9.8      3.495     10.442
REMARK SMILES CCCCCCNC(=O)Nc1cccc(-c2ccc([C@@H](C)C(=O)OCCOC(=O)c3ccc(-c4c5nc(c(-c6ccc(S(=O)(=O)[O-])cc6)c6ccc([nH]6)c(-c6ccc(S(=O)(=O)[O-])cc6)c6nc(c(-c7ccc(S(=O)(=O)[O-])cc7)c7ccc4[nH]7)C=C6)C=C5)cc3)cc2F)c1
REMARK SMILES IDX 22 1 23 2 20 3 21 4 19 5 16 6 17 7 91 8 18 9 90 10 92 11
REMARK SMILES IDX 15 12 11 13 12 14 93 15 13 16 14 17 10 18 7 19 8 20 9 22
REMARK SMILES IDX 6 24 5 25 4 26 3 27 2 28 1 29 24 30 25 31 26 32 27 33 28 34
REMARK SMILES IDX 29 35 30 36 31 37 89 38 32 39 88 40 33 41 34 42 35 43 82 44
REMARK SMILES IDX 36 45 87 46 81 47 83 48 37 49 86 50 80 51 79 52 38 54 68 55
REMARK SMILES IDX 49 56 67 57 50 58 53 59 66 60 84 61 51 62 52 63 65 65 85 66
REMARK SMILES IDX 54 67 39 68 40 69 48 70 41 71 47 72 42 73 43 74 44 75 45 76
REMARK SMILES IDX 46 77 69 78 70 79 78 80 71 81 77 82 72 83 73 84 74 85 75 86
REMARK SMILES IDX 76 87 55 88 56 89 64 90 57 91 63 92 58 93 59 94 60 95 61 96
REMARK SMILES IDX 62 97
REMARK H PARENT 7 21 10 23 83 53 53 64
REMARK Flexibility Score: inf
ROOT
ATOM      1  C   UNL A   1      42.161  22.170  25.894  1.00  0.00     0.313 C 
ATOM      2  O   UNL A   1      42.842  21.515  25.111  1.00  0.00    -0.252 OA
ENDROOT
BRANCH   1   3
ATOM      3  C   UNL A   1      41.000  21.545  26.658  1.00  0.00     0.126 C 
ATOM      4  C   UNL A   1      41.021  20.028  26.465  1.00  0.00     0.025 C 
BRANCH   3   5
ATOM      5  C   UNL A   1      39.617  22.132  26.419  1.00  0.00    -0.031 A 
ATOM      6  C   UNL A   1      37.066  23.234  25.798  1.00  0.00     0.018 A 
ATOM      7  C   UNL A   1      38.032  23.980  26.494  1.00  0.00     0.012 A 
ATOM      8  C   UNL A   1      37.393  21.920  25.453  1.00  0.00     0.131 A 
ATOM      9  C   UNL A   1      39.286  23.438  26.802  1.00  0.00     0.005 A 
ATOM     10  C   UNL A   1      38.643  21.376  25.747  1.00  0.00     0.044 A 
ATOM     11  F   UNL A   1      36.508  21.155  24.793  1.00  0.00    -0.206 F 
BRANCH   6  12
ATOM     12  C   UNL A   1      35.762  23.825  25.473  1.00  0.00    -0.013 A 
ATOM     13  C   UNL A   1      34.125  24.521  23.806  1.00  0.00     0.043 A 
ATOM     14  C   UNL A   1      33.201  24.799  24.812  1.00  0.00     0.026 A 
ATOM     15  C   UNL A   1      35.421  24.122  24.145  1.00  0.00     0.035 A 
ATOM     16  C   UNL A   1      33.530  24.542  26.143  1.00  0.00     0.003 A 
ATOM     17  C   UNL A   1      34.792  24.035  26.466  1.00  0.00     0.009 A 
BRANCH  13  18
ATOM     18  N   UNL A   1      33.690  24.590  22.475  1.00  0.00    -0.308 N 
ATOM     19  N   UNL A   1      32.792  22.434  22.058  1.00  0.00    -0.338 N 
ATOM     20  C   UNL A   1      33.310  23.608  21.619  1.00  0.00     0.319 C 
ATOM     21  H   UNL A   1      32.721  21.730  21.374  1.00  0.00     0.165 HD
ATOM     22  O   UNL A   1      33.321  23.824  20.406  1.00  0.00    -0.249 OA
ATOM     23  H   UNL A   1      33.654  25.499  22.100  1.00  0.00     0.171 HD
BRANCH  19  24
ATOM     24  C   UNL A   1      32.327  22.053  23.380  1.00  0.00     0.117 C 
BRANCH  24  25
ATOM     25  C   UNL A   1      33.242  21.072  24.103  1.00  0.00     0.021 C 
BRANCH  25  26
ATOM     26  C   UNL A   1      32.540  20.027  24.970  1.00  0.00     0.002 C 
BRANCH  26  27
ATOM     27  C   UNL A   1      32.630  18.572  24.491  1.00  0.00    -0.000 C 
BRANCH  27  28
ATOM     28  C   UNL A   1      34.023  18.069  24.102  1.00  0.00    -0.003 C 
ATOM     29  C   UNL A   1      34.015  16.749  23.352  1.00  0.00     0.004 C 
ENDBRANCH  27  28
ENDBRANCH  26  27
ENDBRANCH  25  26
ENDBRANCH  24  25
ENDBRANCH  19  24
ENDBRANCH  13  18
ENDBRANCH   6  12
ENDBRANCH   3   5
ENDBRANCH   1   3
BRANCH   1  30
ATOM     30  O   UNL A   1      42.319  23.503  26.109  1.00  0.00    -0.462 OA
BRANCH  30  31
ATOM     31  C   UNL A   1      43.028  24.229  25.084  1.00  0.00     0.274 C 
BRANCH  31  32
ATOM     32  C   UNL A   1      42.678  25.720  25.081  1.00  0.00     0.275 C 
BRANCH  32  33
ATOM     33  O   UNL A   1      43.833  26.543  25.307  1.00  0.00    -0.458 OA
BRANCH  33  34
ATOM     34  C   UNL A   1      44.491  26.287  26.463  1.00  0.00     0.338 C 
ATOM     35  O   UNL A   1      45.514  25.641  26.602  1.00  0.00    -0.246 OA
BRANCH  34  36
ATOM     36  C   UNL A   1      43.847  27.018  27.563  1.00  0.00     0.060 A 
ATOM     37  C   UNL A   1      44.145  28.373  27.711  1.00  0.00     0.016 A 
ATOM     38  C   UNL A   1      43.037  26.363  28.491  1.00  0.00     0.016 A 
ATOM     39  C   UNL A   1      43.660  29.081  28.805  1.00  0.00     0.010 A 
ATOM     40  C   UNL A   1      42.536  27.079  29.584  1.00  0.00     0.010 A 
ATOM     41  C   UNL A   1      42.862  28.436  29.757  1.00  0.00    -0.014 A 
BRANCH  41  42
ATOM     42  C   UNL A   1      42.420  29.180  30.962  1.00  0.00     0.031 A 
ATOM     43  C   UNL A   1      41.137  29.962  30.929  1.00  0.00     0.074 A 
ATOM     44  C   UNL A   1      43.148  29.119  32.092  1.00  0.00     0.049 A 
ATOM     45  N   UNL A   1      40.599  30.704  31.862  1.00  0.00    -0.248 NA
ATOM     46  C   UNL A   1      40.358  29.902  29.681  1.00  0.00     0.031 C 
ATOM     47  C   UNL A   1      44.386  28.353  32.260  1.00  0.00     0.029 A 
ATOM     48  N   UNL A   1      42.948  29.704  33.316  1.00  0.00    -0.354 N 
ATOM     49  C   UNL A   1      39.431  31.217  31.311  1.00  0.00     0.074 A 
ATOM     50  C   UNL A   1      39.346  30.713  29.956  1.00  0.00     0.031 C 
ATOM     51  C   UNL A   1      44.825  28.506  33.520  1.00  0.00     0.029 A 
ATOM     52  C   UNL A   1      43.928  29.412  34.233  1.00  0.00     0.049 A 
ATOM     53  H   UNL A   1      42.174  30.278  33.518  1.00  0.00     0.167 HD
ATOM     54  C   UNL A   1      38.512  32.033  31.882  1.00  0.00     0.031 A 
ATOM     55  C   UNL A   1      44.094  29.838  35.500  1.00  0.00     0.031 A 
ATOM     56  C   UNL A   1      38.599  32.530  33.230  1.00  0.00     0.049 A 
ATOM     57  C   UNL A   1      43.086  30.781  36.095  1.00  0.00     0.074 A 
ATOM     58  C   UNL A   1      37.718  33.362  33.900  1.00  0.00     0.029 A 
ATOM     59  N   UNL A   1      39.626  32.240  34.115  1.00  0.00    -0.354 N 
ATOM     60  N   UNL A   1      41.994  31.266  35.555  1.00  0.00    -0.248 NA
ATOM     61  C   UNL A   1      43.335  31.234  37.471  1.00  0.00     0.031 C 
ATOM     62  C   UNL A   1      38.234  33.605  35.179  1.00  0.00     0.029 A 
ATOM     63  C   UNL A   1      39.411  32.889  35.320  1.00  0.00     0.049 A 
ATOM     64  H   UNL A   1      40.395  31.658  33.916  1.00  0.00     0.167 HD
ATOM     65  C   UNL A   1      41.414  32.069  36.532  1.00  0.00     0.074 A 
ATOM     66  C   UNL A   1      42.269  31.991  37.700  1.00  0.00     0.031 C 
ATOM     67  C   UNL A   1      40.277  32.803  36.469  1.00  0.00     0.031 A 
BRANCH  54  68
ATOM     68  C   UNL A   1      37.354  32.472  31.028  1.00  0.00    -0.014 A 
ATOM     69  C   UNL A   1      36.102  31.837  31.113  1.00  0.00     0.010 A 
ATOM     70  C   UNL A   1      37.516  33.550  30.140  1.00  0.00     0.010 A 
ATOM     71  C   UNL A   1      35.044  32.248  30.296  1.00  0.00     0.020 A 
ATOM     72  C   UNL A   1      36.455  33.978  29.338  1.00  0.00     0.020 A 
ATOM     73  C   UNL A   1      35.230  33.312  29.408  1.00  0.00     0.054 A 
BRANCH  73  74
ATOM     74  S   UNL A   1      33.841  33.838  28.366  1.00  0.00     0.124 S 
ATOM     75  O   UNL A   1      33.358  32.563  27.844  1.00  0.00    -0.237 OA
ATOM     76  O   UNL A   1      32.956  34.504  29.318  1.00  0.00    -0.237 OA
ATOM     77  O   UNL A   1      34.463  34.720  27.381  1.00  0.00    -0.744 OA
ENDBRANCH  73  74
ENDBRANCH  54  68
BRANCH  55  78
ATOM     78  C   UNL A   1      45.277  29.389  36.282  1.00  0.00    -0.014 A 
ATOM     79  C   UNL A   1      45.278  28.139  36.923  1.00  0.00     0.010 A 
ATOM     80  C   UNL A   1      46.417  30.209  36.376  1.00  0.00     0.010 A 
ATOM     81  C   UNL A   1      46.394  27.719  37.653  1.00  0.00     0.020 A 
ATOM     82  C   UNL A   1      47.543  29.784  37.085  1.00  0.00     0.020 A 
ATOM     83  C   UNL A   1      47.520  28.544  37.728  1.00  0.00     0.054 A 
BRANCH  83  84
ATOM     84  S   UNL A   1      48.982  27.958  38.629  1.00  0.00     0.124 S 
ATOM     85  O   UNL A   1      48.846  26.510  38.518  1.00  0.00    -0.237 OA
ATOM     86  O   UNL A   1      50.083  28.550  37.872  1.00  0.00    -0.237 OA
ATOM     87  O   UNL A   1      48.797  28.505  39.971  1.00  0.00    -0.744 OA
ENDBRANCH  83  84
ENDBRANCH  55  78
BRANCH  67  88
ATOM     88  C   UNL A   1      39.879  33.560  37.706  1.00  0.00    -0.014 A 
ATOM     89  C   UNL A   1      39.238  32.914  38.778  1.00  0.00     0.010 A 
ATOM     90  C   UNL A   1      40.184  34.928  37.811  1.00  0.00     0.010 A 
ATOM     91  C   UNL A   1      38.876  33.632  39.921  1.00  0.00     0.020 A 
ATOM     92  C   UNL A   1      39.844  35.645  38.961  1.00  0.00     0.020 A 
ATOM     93  C   UNL A   1      39.177  34.995  40.003  1.00  0.00     0.054 A 
BRANCH  93  94
ATOM     94  S   UNL A   1      38.727  35.905  41.507  1.00  0.00     0.124 S 
ATOM     95  O   UNL A   1      37.409  35.354  41.811  1.00  0.00    -0.237 OA
ATOM     96  O   UNL A   1      39.792  35.538  42.438  1.00  0.00    -0.237 OA
ATOM     97  O   UNL A   1      38.736  37.303  41.080  1.00  0.00    -0.744 OA
ENDBRANCH  93  94
ENDBRANCH  67  88
ENDBRANCH  41  42
ENDBRANCH  34  36
ENDBRANCH  33  34
ENDBRANCH  32  33
ENDBRANCH  31  32
ENDBRANCH  30  31
ENDBRANCH   1  30
TORSDOF 22
ENDMDL
