MODEL 1
REMARK VINA RESULT:     -10.4      0.000      0.000
REMARK SMILES Cc1ccc(Br)cc1C(=O)N1CCO[C@H](CC(=O)OCCOC(=O)c2ccc(-c3c4nc(c(-c5ccc(S(=O)(=O)[O-])cc5)c5ccc([nH]5)c(-c5ccc(S(=O)(=O)[O-])cc5)c5nc(c(-c6ccc(S(=O)(=O)[O-])cc6)c6ccc3[nH]6)C=C5)C=C4)cc2)C1
REMARK SMILES IDX 20 1 19 2 17 3 18 4 16 5 15 6 11 7 12 8 85 9 13 10 14 11
REMARK SMILES IDX 9 12 10 13 8 14 1 15 2 16 3 17 4 18 7 19 5 20 6 21 21 22
REMARK SMILES IDX 22 23 23 24 24 25 25 26 26 27 84 28 27 29 83 30 28 31 29 32
REMARK SMILES IDX 30 33 77 34 31 35 82 36 76 37 78 38 32 39 81 40 75 41 74 42
REMARK SMILES IDX 33 44 63 45 44 46 62 47 45 48 48 49 61 50 79 51 46 52 47 53
REMARK SMILES IDX 60 55 80 56 49 57 34 58 35 59 43 60 36 61 42 62 37 63 38 64
REMARK SMILES IDX 39 65 40 66 41 67 64 68 65 69 73 70 66 71 72 72 67 73 68 74
REMARK SMILES IDX 69 75 70 76 71 77 50 78 51 79 59 80 52 81 58 82 53 83 54 84
REMARK SMILES IDX 55 85 56 86 57 87
REMARK H PARENT 78 43 48 54
REMARK Flexibility Score: inf
ROOT
ATOM      1  C   UNL A   1      33.745  29.600  27.105  1.00  0.00     0.274 C 
ENDROOT
BRANCH   1   2
ATOM      2  O   UNL A   1      33.420  28.264  27.535  1.00  0.00    -0.462 OA
BRANCH   2   3
ATOM      3  C   UNL A   1      32.209  27.809  27.130  1.00  0.00     0.308 C 
ATOM      4  O   UNL A   1      31.155  28.001  27.725  1.00  0.00    -0.252 OA
BRANCH   3   5
ATOM      5  C   UNL A   1      32.303  26.900  25.938  1.00  0.00     0.156 C 
BRANCH   5   6
ATOM      6  C   UNL A   1      31.272  27.118  24.822  1.00  0.00     0.148 C 
ATOM      7  N   UNL A   1      32.751  26.234  23.085  1.00  0.00    -0.334 N 
ATOM      8  C   UNL A   1      32.960  27.555  22.505  1.00  0.00     0.148 C 
ATOM      9  C   UNL A   1      31.420  26.102  23.678  1.00  0.00     0.152 C 
ATOM     10  C   UNL A   1      32.604  28.671  23.508  1.00  0.00     0.182 C 
ATOM     11  O   UNL A   1      31.387  28.449  24.249  1.00  0.00    -0.374 OA
BRANCH   7  12
ATOM     12  C   UNL A   1      33.312  25.094  22.529  1.00  0.00     0.254 C 
ATOM     13  O   UNL A   1      33.317  24.963  21.305  1.00  0.00    -0.269 OA
BRANCH  12  14
ATOM     14  C   UNL A   1      33.761  23.933  23.395  1.00  0.00     0.044 A 
ATOM     15  C   UNL A   1      32.014  22.076  22.802  1.00  0.00     0.045 C 
ATOM     16  C   UNL A   1      33.243  22.618  23.462  1.00  0.00    -0.038 A 
ATOM     17  C   UNL A   1      33.941  21.638  24.214  1.00  0.00     0.005 A 
ATOM     18  C   UNL A   1      35.115  21.932  24.896  1.00  0.00     0.016 A 
ATOM     19  C   UNL A   1      34.945  24.208  24.123  1.00  0.00     0.029 A 
ATOM     20  C   UNL A   1      35.608  23.223  24.856  1.00  0.00     0.018 A 
ATOM     21  Br  UNL A   1      37.204  23.641  25.777  1.00  0.00    -0.051 Br
ENDBRANCH  12  14
ENDBRANCH   7  12
ENDBRANCH   5   6
ENDBRANCH   3   5
ENDBRANCH   2   3
ENDBRANCH   1   2
BRANCH   1  22
ATOM     22  C   UNL A   1      35.208  29.977  27.363  1.00  0.00     0.275 C 
BRANCH  22  23
ATOM     23  O   UNL A   1      35.945  28.938  28.033  1.00  0.00    -0.458 OA
BRANCH  23  24
ATOM     24  C   UNL A   1      36.836  29.381  28.949  1.00  0.00     0.338 C 
ATOM     25  O   UNL A   1      36.585  29.906  30.022  1.00  0.00    -0.246 OA
BRANCH  24  26
ATOM     26  C   UNL A   1      38.210  29.041  28.549  1.00  0.00     0.060 A 
ATOM     27  C   UNL A   1      39.053  28.518  29.530  1.00  0.00     0.016 A 
ATOM     28  C   UNL A   1      38.707  29.354  27.286  1.00  0.00     0.016 A 
ATOM     29  C   UNL A   1      40.414  28.377  29.289  1.00  0.00     0.010 A 
ATOM     30  C   UNL A   1      40.070  29.165  27.025  1.00  0.00     0.010 A 
ATOM     31  C   UNL A   1      40.937  28.702  28.034  1.00  0.00    -0.014 A 
BRANCH  31  32
ATOM     32  C   UNL A   1      42.393  28.565  27.789  1.00  0.00     0.031 A 
ATOM     33  C   UNL A   1      43.320  29.719  28.051  1.00  0.00     0.074 A 
ATOM     34  C   UNL A   1      42.882  27.391  27.344  1.00  0.00     0.049 A 
ATOM     35  N   UNL A   1      44.606  29.809  27.831  1.00  0.00    -0.248 NA
ATOM     36  C   UNL A   1      42.721  30.932  28.631  1.00  0.00     0.031 C 
ATOM     37  C   UNL A   1      42.088  26.188  27.087  1.00  0.00     0.029 A 
ATOM     38  N   UNL A   1      44.163  27.020  27.029  1.00  0.00    -0.354 N 
ATOM     39  C   UNL A   1      44.969  31.093  28.220  1.00  0.00     0.074 A 
ATOM     40  C   UNL A   1      43.764  31.751  28.678  1.00  0.00     0.031 C 
ATOM     41  C   UNL A   1      42.902  25.210  26.656  1.00  0.00     0.029 A 
ATOM     42  C   UNL A   1      44.263  25.731  26.564  1.00  0.00     0.049 A 
ATOM     43  H   UNL A   1      44.938  27.619  27.127  1.00  0.00     0.167 HD
ATOM     44  C   UNL A   1      46.195  31.668  28.196  1.00  0.00     0.031 A 
ATOM     45  C   UNL A   1      45.323  25.050  26.091  1.00  0.00     0.031 A 
ATOM     46  C   UNL A   1      47.394  31.005  27.753  1.00  0.00     0.049 A 
ATOM     47  C   UNL A   1      46.665  25.723  26.042  1.00  0.00     0.074 A 
ATOM     48  C   UNL A   1      48.687  31.498  27.717  1.00  0.00     0.029 A 
ATOM     49  N   UNL A   1      47.448  29.706  27.272  1.00  0.00    -0.354 N 
ATOM     50  N   UNL A   1      46.991  26.938  26.416  1.00  0.00    -0.248 NA
ATOM     51  C   UNL A   1      47.783  24.934  25.509  1.00  0.00     0.031 C 
ATOM     52  C   UNL A   1      49.517  30.512  27.172  1.00  0.00     0.029 A 
ATOM     53  C   UNL A   1      48.747  29.389  26.912  1.00  0.00     0.049 A 
ATOM     54  H   UNL A   1      46.677  29.099  27.197  1.00  0.00     0.167 HD
ATOM     55  C   UNL A   1      48.353  27.055  26.171  1.00  0.00     0.074 A 
ATOM     56  C   UNL A   1      48.794  25.782  25.638  1.00  0.00     0.031 C 
ATOM     57  C   UNL A   1      49.167  28.122  26.370  1.00  0.00     0.031 A 
BRANCH  44  58
ATOM     58  C   UNL A   1      46.297  33.107  28.628  1.00  0.00    -0.014 A 
ATOM     59  C   UNL A   1      46.592  33.453  29.958  1.00  0.00     0.010 A 
ATOM     60  C   UNL A   1      46.134  34.129  27.674  1.00  0.00     0.010 A 
ATOM     61  C   UNL A   1      46.692  34.796  30.333  1.00  0.00     0.020 A 
ATOM     62  C   UNL A   1      46.253  35.472  28.041  1.00  0.00     0.020 A 
ATOM     63  C   UNL A   1      46.516  35.798  29.373  1.00  0.00     0.054 A 
BRANCH  63  64
ATOM     64  S   UNL A   1      46.670  37.534  29.878  1.00  0.00     0.124 S 
ATOM     65  O   UNL A   1      45.400  38.094  29.424  1.00  0.00    -0.237 OA
ATOM     66  O   UNL A   1      46.831  37.436  31.327  1.00  0.00    -0.237 OA
ATOM     67  O   UNL A   1      47.850  38.002  29.155  1.00  0.00    -0.744 OA
ENDBRANCH  63  64
ENDBRANCH  44  58
BRANCH  45  68
ATOM     68  C   UNL A   1      45.143  23.662  25.591  1.00  0.00    -0.014 A 
ATOM     69  C   UNL A   1      44.884  23.415  24.232  1.00  0.00     0.010 A 
ATOM     70  C   UNL A   1      45.254  22.575  26.477  1.00  0.00     0.010 A 
ATOM     71  C   UNL A   1      44.726  22.104  23.770  1.00  0.00     0.020 A 
ATOM     72  C   UNL A   1      45.121  21.263  26.015  1.00  0.00     0.020 A 
ATOM     73  C   UNL A   1      44.848  21.037  24.665  1.00  0.00     0.054 A 
BRANCH  73  74
ATOM     74  S   UNL A   1      44.703  19.341  24.038  1.00  0.00     0.124 S 
ATOM     75  O   UNL A   1      43.551  18.839  24.782  1.00  0.00    -0.237 OA
ATOM     76  O   UNL A   1      44.492  19.545  22.606  1.00  0.00    -0.237 OA
ATOM     77  O   UNL A   1      45.987  18.737  24.388  1.00  0.00    -0.744 OA
ENDBRANCH  73  74
ENDBRANCH  45  68
BRANCH  57  78
ATOM     78  C   UNL A   1      50.619  27.950  26.018  1.00  0.00    -0.014 A 
ATOM     79  C   UNL A   1      51.099  28.292  24.742  1.00  0.00     0.010 A 
ATOM     80  C   UNL A   1      51.519  27.469  26.986  1.00  0.00     0.010 A 
ATOM     81  C   UNL A   1      52.451  28.125  24.428  1.00  0.00     0.020 A 
ATOM     82  C   UNL A   1      52.875  27.323  26.683  1.00  0.00     0.020 A 
ATOM     83  C   UNL A   1      53.329  27.636  25.400  1.00  0.00     0.054 A 
BRANCH  83  84
ATOM     84  S   UNL A   1      55.085  27.454  24.982  1.00  0.00     0.124 S 
ATOM     85  O   UNL A   1      55.303  28.587  24.088  1.00  0.00    -0.237 OA
ATOM     86  O   UNL A   1      55.740  27.548  26.286  1.00  0.00    -0.237 OA
ATOM     87  O   UNL A   1      55.156  26.138  24.351  1.00  0.00    -0.744 OA
ENDBRANCH  83  84
ENDBRANCH  57  78
ENDBRANCH  31  32
ENDBRANCH  24  26
ENDBRANCH  23  24
ENDBRANCH  22  23
ENDBRANCH   1  22
TORSDOF 17
ENDMDL
MODEL 2
REMARK VINA RESULT:     -10.3      3.421      4.681
REMARK SMILES Cc1ccc(Br)cc1C(=O)N1CCO[C@H](CC(=O)OCCOC(=O)c2ccc(-c3c4nc(c(-c5ccc(S(=O)(=O)[O-])cc5)c5ccc([nH]5)c(-c5ccc(S(=O)(=O)[O-])cc5)c5nc(c(-c6ccc(S(=O)(=O)[O-])cc6)c6ccc3[nH]6)C=C5)C=C4)cc2)C1
REMARK SMILES IDX 20 1 19 2 17 3 18 4 16 5 15 6 11 7 12 8 85 9 13 10 14 11
REMARK SMILES IDX 9 12 10 13 8 14 1 15 2 16 3 17 4 18 7 19 5 20 6 21 21 22
REMARK SMILES IDX 22 23 23 24 24 25 25 26 26 27 84 28 27 29 83 30 28 31 29 32
REMARK SMILES IDX 30 33 77 34 31 35 82 36 76 37 78 38 32 39 81 40 75 41 74 42
REMARK SMILES IDX 33 44 63 45 44 46 62 47 45 48 48 49 61 50 79 51 46 52 47 53
REMARK SMILES IDX 60 55 80 56 49 57 34 58 35 59 43 60 36 61 42 62 37 63 38 64
REMARK SMILES IDX 39 65 40 66 41 67 64 68 65 69 73 70 66 71 72 72 67 73 68 74
REMARK SMILES IDX 69 75 70 76 71 77 50 78 51 79 59 80 52 81 58 82 53 83 54 84
REMARK SMILES IDX 55 85 56 86 57 87
REMARK H PARENT 78 43 48 54
REMARK Flexibility Score: inf
ROOT
ATOM      1  C   UNL A   1      32.157  27.771  26.693  1.00  0.00     0.274 C 
ENDROOT
BRANCH   1   2
ATOM      2  O   UNL A   1      32.718  26.451  26.828  1.00  0.00    -0.462 OA
BRANCH   2   3
ATOM      3  C   UNL A   1      31.883  25.436  26.495  1.00  0.00     0.308 C 
ATOM      4  O   UNL A   1      30.659  25.497  26.531  1.00  0.00    -0.252 OA
BRANCH   3   5
ATOM      5  C   UNL A   1      32.614  24.155  26.216  1.00  0.00     0.156 C 
BRANCH   5   6
ATOM      6  C   UNL A   1      34.101  24.274  25.853  1.00  0.00     0.148 C 
ATOM      7  N   UNL A   1      33.643  24.625  23.476  1.00  0.00    -0.334 N 
ATOM      8  C   UNL A   1      34.146  23.303  23.121  1.00  0.00     0.148 C 
ATOM      9  C   UNL A   1      34.339  25.182  24.636  1.00  0.00     0.152 C 
ATOM     10  C   UNL A   1      34.176  22.368  24.347  1.00  0.00     0.182 C 
ATOM     11  O   UNL A   1      34.678  22.974  25.555  1.00  0.00    -0.374 OA
BRANCH   7  12
ATOM     12  C   UNL A   1      33.198  25.520  22.515  1.00  0.00     0.254 C 
ATOM     13  O   UNL A   1      33.606  25.411  21.358  1.00  0.00    -0.269 OA
BRANCH  12  14
ATOM     14  C   UNL A   1      32.363  26.729  22.889  1.00  0.00     0.044 A 
ATOM     15  C   UNL A   1      34.045  28.706  22.552  1.00  0.00     0.045 C 
ATOM     16  C   UNL A   1      32.708  28.101  22.841  1.00  0.00    -0.038 A 
ATOM     17  C   UNL A   1      31.700  29.074  23.064  1.00  0.00     0.005 A 
ATOM     18  C   UNL A   1      30.384  28.723  23.338  1.00  0.00     0.016 A 
ATOM     19  C   UNL A   1      31.020  26.403  23.197  1.00  0.00     0.029 A 
ATOM     20  C   UNL A   1      30.050  27.383  23.414  1.00  0.00     0.018 A 
ATOM     21  Br  UNL A   1      28.266  26.886  23.785  1.00  0.00    -0.051 Br
ENDBRANCH  12  14
ENDBRANCH   7  12
ENDBRANCH   5   6
ENDBRANCH   3   5
ENDBRANCH   2   3
ENDBRANCH   1   2
BRANCH   1  22
ATOM     22  C   UNL A   1      33.220  28.870  26.591  1.00  0.00     0.275 C 
BRANCH  22  23
ATOM     23  O   UNL A   1      33.422  29.573  27.831  1.00  0.00    -0.458 OA
BRANCH  23  24
ATOM     24  C   UNL A   1      34.357  30.549  27.780  1.00  0.00     0.338 C 
ATOM     25  O   UNL A   1      34.159  31.748  27.663  1.00  0.00    -0.246 OA
BRANCH  24  26
ATOM     26  C   UNL A   1      35.701  29.997  28.007  1.00  0.00     0.060 A 
ATOM     27  C   UNL A   1      36.009  29.572  29.300  1.00  0.00     0.016 A 
ATOM     28  C   UNL A   1      36.684  30.022  27.020  1.00  0.00     0.016 A 
ATOM     29  C   UNL A   1      37.315  29.245  29.642  1.00  0.00     0.010 A 
ATOM     30  C   UNL A   1      37.990  29.645  27.351  1.00  0.00     0.010 A 
ATOM     31  C   UNL A   1      38.321  29.281  28.671  1.00  0.00    -0.014 A 
BRANCH  31  32
ATOM     32  C   UNL A   1      39.715  28.946  29.048  1.00  0.00     0.031 A 
ATOM     33  C   UNL A   1      40.576  29.959  29.750  1.00  0.00     0.074 A 
ATOM     34  C   UNL A   1      40.201  27.722  28.769  1.00  0.00     0.049 A 
ATOM     35  N   UNL A   1      41.836  29.873  30.094  1.00  0.00    -0.248 NA
ATOM     36  C   UNL A   1      39.939  31.237  30.108  1.00  0.00     0.031 C 
ATOM     37  C   UNL A   1      39.452  26.642  28.123  1.00  0.00     0.029 A 
ATOM     38  N   UNL A   1      41.440  27.180  28.994  1.00  0.00    -0.354 N 
ATOM     39  C   UNL A   1      42.151  31.091  30.685  1.00  0.00     0.074 A 
ATOM     40  C   UNL A   1      40.955  31.904  30.641  1.00  0.00     0.031 C 
ATOM     41  C   UNL A   1      40.247  25.566  28.006  1.00  0.00     0.029 A 
ATOM     42  C   UNL A   1      41.571  25.895  28.527  1.00  0.00     0.049 A 
ATOM     43  H   UNL A   1      42.167  27.666  29.446  1.00  0.00     0.167 HD
ATOM     44  C   UNL A   1      43.332  31.492  31.214  1.00  0.00     0.031 A 
ATOM     45  C   UNL A   1      42.641  25.079  28.494  1.00  0.00     0.031 A 
ATOM     46  C   UNL A   1      44.517  30.675  31.268  1.00  0.00     0.049 A 
ATOM     47  C   UNL A   1      43.948  25.562  29.056  1.00  0.00     0.074 A 
ATOM     48  C   UNL A   1      45.753  30.985  31.809  1.00  0.00     0.029 A 
ATOM     49  N   UNL A   1      44.612  29.385  30.767  1.00  0.00    -0.354 N 
ATOM     50  N   UNL A   1      44.230  26.716  29.612  1.00  0.00    -0.248 NA
ATOM     51  C   UNL A   1      45.082  24.631  28.986  1.00  0.00     0.031 C 
ATOM     52  C   UNL A   1      46.609  29.899  31.594  1.00  0.00     0.029 A 
ATOM     53  C   UNL A   1      45.893  28.896  30.961  1.00  0.00     0.049 A 
ATOM     54  H   UNL A   1      43.877  28.891  30.336  1.00  0.00     0.167 HD
ATOM     55  C   UNL A   1      45.570  26.646  29.968  1.00  0.00     0.074 A 
ATOM     56  C   UNL A   1      46.039  25.331  29.582  1.00  0.00     0.031 C 
ATOM     57  C   UNL A   1      46.346  27.589  30.560  1.00  0.00     0.031 A 
BRANCH  44  58
ATOM     58  C   UNL A   1      43.414  32.899  31.745  1.00  0.00    -0.014 A 
ATOM     59  C   UNL A   1      43.871  33.959  30.943  1.00  0.00     0.010 A 
ATOM     60  C   UNL A   1      42.987  33.168  33.058  1.00  0.00     0.010 A 
ATOM     61  C   UNL A   1      43.928  35.258  31.455  1.00  0.00     0.020 A 
ATOM     62  C   UNL A   1      43.024  34.468  33.568  1.00  0.00     0.020 A 
ATOM     63  C   UNL A   1      43.510  35.505  32.767  1.00  0.00     0.054 A 
BRANCH  63  64
ATOM     64  S   UNL A   1      43.574  37.202  33.404  1.00  0.00     0.124 S 
ATOM     65  O   UNL A   1      42.343  37.277  34.186  1.00  0.00    -0.237 OA
ATOM     66  O   UNL A   1      44.812  37.209  34.181  1.00  0.00    -0.237 OA
ATOM     67  O   UNL A   1      43.597  38.025  32.198  1.00  0.00    -0.744 OA
ENDBRANCH  63  64
ENDBRANCH  44  58
BRANCH  45  68
ATOM     68  C   UNL A   1      42.524  23.734  27.872  1.00  0.00    -0.014 A 
ATOM     69  C   UNL A   1      42.828  23.541  26.514  1.00  0.00     0.010 A 
ATOM     70  C   UNL A   1      42.125  22.632  28.650  1.00  0.00     0.010 A 
ATOM     71  C   UNL A   1      42.723  22.270  25.941  1.00  0.00     0.020 A 
ATOM     72  C   UNL A   1      42.043  21.356  28.087  1.00  0.00     0.020 A 
ATOM     73  C   UNL A   1      42.334  21.185  26.732  1.00  0.00     0.054 A 
BRANCH  73  74
ATOM     74  S   UNL A   1      42.264  19.532  25.988  1.00  0.00     0.124 S 
ATOM     75  O   UNL A   1      42.747  18.688  27.077  1.00  0.00    -0.237 OA
ATOM     76  O   UNL A   1      40.848  19.389  25.657  1.00  0.00    -0.237 OA
ATOM     77  O   UNL A   1      43.155  19.639  24.835  1.00  0.00    -0.744 OA
ENDBRANCH  73  74
ENDBRANCH  45  68
BRANCH  57  78
ATOM     78  C   UNL A   1      47.778  27.222  30.836  1.00  0.00    -0.014 A 
ATOM     79  C   UNL A   1      48.119  26.417  31.938  1.00  0.00     0.010 A 
ATOM     80  C   UNL A   1      48.791  27.659  29.964  1.00  0.00     0.010 A 
ATOM     81  C   UNL A   1      49.454  26.086  32.183  1.00  0.00     0.020 A 
ATOM     82  C   UNL A   1      50.124  27.311  30.193  1.00  0.00     0.020 A 
ATOM     83  C   UNL A   1      50.449  26.539  31.311  1.00  0.00     0.054 A 
BRANCH  83  84
ATOM     84  S   UNL A   1      52.173  26.073  31.630  1.00  0.00     0.124 S 
ATOM     85  O   UNL A   1      52.617  27.143  32.519  1.00  0.00    -0.237 OA
ATOM     86  O   UNL A   1      52.044  24.755  32.249  1.00  0.00    -0.237 OA
ATOM     87  O   UNL A   1      52.782  26.072  30.302  1.00  0.00    -0.744 OA
ENDBRANCH  83  84
ENDBRANCH  57  78
ENDBRANCH  31  32
ENDBRANCH  24  26
ENDBRANCH  23  24
ENDBRANCH  22  23
ENDBRANCH   1  22
TORSDOF 17
ENDMDL
MODEL 3
REMARK VINA RESULT:     -10.2      4.474      7.177
REMARK SMILES Cc1ccc(Br)cc1C(=O)N1CCO[C@H](CC(=O)OCCOC(=O)c2ccc(-c3c4nc(c(-c5ccc(S(=O)(=O)[O-])cc5)c5ccc([nH]5)c(-c5ccc(S(=O)(=O)[O-])cc5)c5nc(c(-c6ccc(S(=O)(=O)[O-])cc6)c6ccc3[nH]6)C=C5)C=C4)cc2)C1
REMARK SMILES IDX 20 1 19 2 17 3 18 4 16 5 15 6 11 7 12 8 85 9 13 10 14 11
REMARK SMILES IDX 9 12 10 13 8 14 1 15 2 16 3 17 4 18 7 19 5 20 6 21 21 22
REMARK SMILES IDX 22 23 23 24 24 25 25 26 26 27 84 28 27 29 83 30 28 31 29 32
REMARK SMILES IDX 30 33 77 34 31 35 82 36 76 37 78 38 32 39 81 40 75 41 74 42
REMARK SMILES IDX 33 44 63 45 44 46 62 47 45 48 48 49 61 50 79 51 46 52 47 53
REMARK SMILES IDX 60 55 80 56 49 57 34 58 35 59 43 60 36 61 42 62 37 63 38 64
REMARK SMILES IDX 39 65 40 66 41 67 64 68 65 69 73 70 66 71 72 72 67 73 68 74
REMARK SMILES IDX 69 75 70 76 71 77 50 78 51 79 59 80 52 81 58 82 53 83 54 84
REMARK SMILES IDX 55 85 56 86 57 87
REMARK H PARENT 78 43 48 54
REMARK Flexibility Score: inf
ROOT
ATOM      1  C   UNL A   1      34.071  32.902  29.058  1.00  0.00     0.274 C 
ENDROOT
BRANCH   1   2
ATOM      2  O   UNL A   1      34.400  32.494  30.400  1.00  0.00    -0.462 OA
BRANCH   2   3
ATOM      3  C   UNL A   1      34.540  33.507  31.290  1.00  0.00     0.308 C 
ATOM      4  O   UNL A   1      33.789  34.473  31.374  1.00  0.00    -0.252 OA
BRANCH   3   5
ATOM      5  C   UNL A   1      35.812  33.410  32.081  1.00  0.00     0.156 C 
BRANCH   5   6
ATOM      6  C   UNL A   1      36.306  34.698  32.754  1.00  0.00     0.148 C 
ATOM      7  N   UNL A   1      38.103  33.552  33.956  1.00  0.00    -0.334 N 
ATOM      8  C   UNL A   1      37.425  33.702  35.238  1.00  0.00     0.148 C 
ATOM      9  C   UNL A   1      37.814  34.665  33.051  1.00  0.00     0.152 C 
ATOM     10  C   UNL A   1      35.921  33.983  35.046  1.00  0.00     0.182 C 
ATOM     11  O   UNL A   1      35.614  34.937  34.010  1.00  0.00    -0.374 OA
BRANCH   7  12
ATOM     12  C   UNL A   1      39.355  32.964  33.855  1.00  0.00     0.254 C 
ATOM     13  O   UNL A   1      40.349  33.683  33.737  1.00  0.00    -0.269 OA
BRANCH  12  14
ATOM     14  C   UNL A   1      39.512  31.463  33.713  1.00  0.00     0.044 A 
ATOM     15  C   UNL A   1      37.118  30.710  32.968  1.00  0.00     0.045 C 
ATOM     16  C   UNL A   1      38.570  30.506  33.268  1.00  0.00    -0.038 A 
ATOM     17  C   UNL A   1      38.996  29.172  33.038  1.00  0.00     0.005 A 
ATOM     18  C   UNL A   1      40.311  28.773  33.244  1.00  0.00     0.016 A 
ATOM     19  C   UNL A   1      40.838  31.019  33.939  1.00  0.00     0.029 A 
ATOM     20  C   UNL A   1      41.228  29.700  33.706  1.00  0.00     0.018 A 
ATOM     21  Br  UNL A   1      43.020  29.176  33.991  1.00  0.00    -0.051 Br
ENDBRANCH  12  14
ENDBRANCH   7  12
ENDBRANCH   5   6
ENDBRANCH   3   5
ENDBRANCH   2   3
ENDBRANCH   1   2
BRANCH   1  22
ATOM     22  C   UNL A   1      34.939  32.225  27.993  1.00  0.00     0.275 C 
BRANCH  22  23
ATOM     23  O   UNL A   1      34.236  31.202  27.263  1.00  0.00    -0.458 OA
BRANCH  23  24
ATOM     24  C   UNL A   1      34.519  29.938  27.651  1.00  0.00     0.338 C 
ATOM     25  O   UNL A   1      33.793  28.962  27.554  1.00  0.00    -0.246 OA
BRANCH  24  26
ATOM     26  C   UNL A   1      35.909  29.834  28.119  1.00  0.00     0.060 A 
ATOM     27  C   UNL A   1      36.919  30.006  27.172  1.00  0.00     0.016 A 
ATOM     28  C   UNL A   1      36.221  29.441  29.419  1.00  0.00     0.016 A 
ATOM     29  C   UNL A   1      38.240  29.711  27.487  1.00  0.00     0.010 A 
ATOM     30  C   UNL A   1      37.558  29.191  29.752  1.00  0.00     0.010 A 
ATOM     31  C   UNL A   1      38.572  29.297  28.781  1.00  0.00    -0.014 A 
BRANCH  31  32
ATOM     32  C   UNL A   1      39.981  28.968  29.105  1.00  0.00     0.031 A 
ATOM     33  C   UNL A   1      40.873  29.994  29.746  1.00  0.00     0.074 A 
ATOM     34  C   UNL A   1      40.453  27.736  28.834  1.00  0.00     0.049 A 
ATOM     35  N   UNL A   1      42.146  29.914  30.036  1.00  0.00    -0.248 NA
ATOM     36  C   UNL A   1      40.253  31.281  30.101  1.00  0.00     0.031 C 
ATOM     37  C   UNL A   1      39.676  26.643  28.246  1.00  0.00     0.029 A 
ATOM     38  N   UNL A   1      41.700  27.197  29.017  1.00  0.00    -0.354 N 
ATOM     39  C   UNL A   1      42.488  31.144  30.585  1.00  0.00     0.074 A 
ATOM     40  C   UNL A   1      41.292  31.959  30.574  1.00  0.00     0.031 C 
ATOM     41  C   UNL A   1      40.463  25.563  28.120  1.00  0.00     0.029 A 
ATOM     42  C   UNL A   1      41.809  25.901  28.575  1.00  0.00     0.049 A 
ATOM     43  H   UNL A   1      42.447  27.692  29.426  1.00  0.00     0.167 HD
ATOM     44  C   UNL A   1      43.691  31.555  31.053  1.00  0.00     0.031 A 
ATOM     45  C   UNL A   1      42.876  25.083  28.515  1.00  0.00     0.031 A 
ATOM     46  C   UNL A   1      44.876  30.736  31.075  1.00  0.00     0.049 A 
ATOM     47  C   UNL A   1      44.207  25.575  29.009  1.00  0.00     0.074 A 
ATOM     48  C   UNL A   1      46.135  31.056  31.555  1.00  0.00     0.029 A 
ATOM     49  N   UNL A   1      44.948  29.436  30.600  1.00  0.00    -0.354 N 
ATOM     50  N   UNL A   1      44.513  26.741  29.526  1.00  0.00    -0.248 NA
ATOM     51  C   UNL A   1      45.336  24.641  28.912  1.00  0.00     0.031 C 
ATOM     52  C   UNL A   1      46.980  29.964  31.329  1.00  0.00     0.029 A 
ATOM     53  C   UNL A   1      46.236  28.948  30.751  1.00  0.00     0.049 A 
ATOM     54  H   UNL A   1      44.195  28.933  30.213  1.00  0.00     0.167 HD
ATOM     55  C   UNL A   1      45.868  26.677  29.824  1.00  0.00     0.074 A 
ATOM     56  C   UNL A   1      46.318  25.352  29.450  1.00  0.00     0.031 C 
ATOM     57  C   UNL A   1      46.669  27.631  30.360  1.00  0.00     0.031 A 
BRANCH  44  58
ATOM     58  C   UNL A   1      43.798  32.973  31.548  1.00  0.00    -0.014 A 
ATOM     59  C   UNL A   1      43.951  34.050  30.657  1.00  0.00     0.010 A 
ATOM     60  C   UNL A   1      43.700  33.234  32.927  1.00  0.00     0.010 A 
ATOM     61  C   UNL A   1      44.038  35.359  31.139  1.00  0.00     0.020 A 
ATOM     62  C   UNL A   1      43.766  34.543  33.412  1.00  0.00     0.020 A 
ATOM     63  C   UNL A   1      43.951  35.597  32.515  1.00  0.00     0.054 A 
BRANCH  63  64
ATOM     64  S   UNL A   1      44.045  37.306  33.116  1.00  0.00     0.124 S 
ATOM     65  O   UNL A   1      42.847  37.399  33.948  1.00  0.00    -0.237 OA
ATOM     66  O   UNL A   1      45.314  37.325  33.840  1.00  0.00    -0.237 OA
ATOM     67  O   UNL A   1      44.017  38.106  31.895  1.00  0.00    -0.744 OA
ENDBRANCH  63  64
ENDBRANCH  44  58
BRANCH  45  68
ATOM     68  C   UNL A   1      42.730  23.724  27.930  1.00  0.00    -0.014 A 
ATOM     69  C   UNL A   1      42.344  22.635  28.730  1.00  0.00     0.010 A 
ATOM     70  C   UNL A   1      42.958  23.520  26.557  1.00  0.00     0.010 A 
ATOM     71  C   UNL A   1      42.199  21.363  28.168  1.00  0.00     0.020 A 
ATOM     72  C   UNL A   1      42.791  22.256  25.988  1.00  0.00     0.020 A 
ATOM     73  C   UNL A   1      42.422  21.182  26.800  1.00  0.00     0.054 A 
BRANCH  73  74
ATOM     74  S   UNL A   1      42.170  19.538  26.075  1.00  0.00     0.124 S 
ATOM     75  O   UNL A   1      40.742  19.555  25.773  1.00  0.00    -0.237 OA
ATOM     76  O   UNL A   1      43.062  19.557  24.918  1.00  0.00    -0.237 OA
ATOM     77  O   UNL A   1      42.574  18.628  27.145  1.00  0.00    -0.744 OA
ENDBRANCH  73  74
ENDBRANCH  45  68
BRANCH  57  78
ATOM     78  C   UNL A   1      48.112  27.267  30.583  1.00  0.00    -0.014 A 
ATOM     79  C   UNL A   1      49.037  27.299  29.524  1.00  0.00     0.010 A 
ATOM     80  C   UNL A   1      48.553  26.921  31.872  1.00  0.00     0.010 A 
ATOM     81  C   UNL A   1      50.373  26.957  29.745  1.00  0.00     0.020 A 
ATOM     82  C   UNL A   1      49.894  26.600  32.101  1.00  0.00     0.020 A 
ATOM     83  C   UNL A   1      50.792  26.604  31.031  1.00  0.00     0.054 A 
BRANCH  83  84
ATOM     84  S   UNL A   1      52.538  26.192  31.303  1.00  0.00     0.124 S 
ATOM     85  O   UNL A   1      52.911  27.129  32.358  1.00  0.00    -0.237 OA
ATOM     86  O   UNL A   1      52.481  24.787  31.701  1.00  0.00    -0.237 OA
ATOM     87  O   UNL A   1      53.157  26.438  30.002  1.00  0.00    -0.744 OA
ENDBRANCH  83  84
ENDBRANCH  57  78
ENDBRANCH  31  32
ENDBRANCH  24  26
ENDBRANCH  23  24
ENDBRANCH  22  23
ENDBRANCH   1  22
TORSDOF 17
ENDMDL
