MODEL 1
REMARK VINA RESULT:     -13.5      0.000      0.000
REMARK SMILES Cc1ccccc1-c1nc(CC(=O)OCCOC(=O)c2ccc(-c3c4nc(c(-c5ccc(S(=O)(=O)[O-])cc5)c5ccc([nH]5)c(-c5ccc(S(=O)(=O)[O-])cc5)c5nc(c(-c6ccc(S(=O)(=O)[O-])cc6)c6ccc3[nH]6)C=C5)C=C4)cc2)cs1
REMARK SMILES IDX 16 1 15 2 14 3 12 4 13 5 11 6 10 7 8 8 9 9 81 10 80 11 7 12
REMARK SMILES IDX 1 13 2 14 3 15 4 16 6 17 5 18 17 19 18 20 19 21 20 22 21 23
REMARK SMILES IDX 79 24 22 25 78 26 23 27 24 28 25 29 72 30 26 31 77 32 71 33
REMARK SMILES IDX 73 34 27 35 76 36 70 37 69 38 28 40 58 41 39 42 57 43 40 44
REMARK SMILES IDX 43 45 56 46 74 47 41 48 42 49 55 51 75 52 44 53 29 54 30 55
REMARK SMILES IDX 38 56 31 57 37 58 32 59 33 60 34 61 35 62 36 63 59 64 60 65
REMARK SMILES IDX 68 66 61 67 67 68 62 69 63 70 64 71 65 72 66 73 45 74 46 75
REMARK SMILES IDX 54 76 47 77 53 78 48 79 49 80 50 81 51 82 52 83
REMARK H PARENT 73 39 43 50
REMARK Flexibility Score: inf
ROOT
ATOM      1  C   UNL A   1      46.314  27.979  25.559  1.00  0.00     0.275 C 
ENDROOT
BRANCH   1   2
ATOM      2  C   UNL A   1      46.835  26.346  24.786  1.00  0.00     0.274 C 
BRANCH   2   3
ATOM      3  O   UNL A   1      46.513  24.728  25.015  1.00  0.00    -0.462 OA
BRANCH   3   4
ATOM      4  C   UNL A   1      45.947  23.470  25.020  1.00  0.00     0.312 C 
ATOM      5  O   UNL A   1      46.173  22.774  24.011  1.00  0.00    -0.252 OA
BRANCH   4   6
ATOM      6  C   UNL A   1      45.235  22.708  26.171  1.00  0.00     0.179 C 
BRANCH   6   7
ATOM      7  C   UNL A   1      43.983  23.120  26.939  1.00  0.00     0.063 A 
ATOM      8  C   UNL A   1      41.760  22.910  27.189  1.00  0.00     0.123 A 
ATOM      9  N   UNL A   1      42.746  22.934  26.312  1.00  0.00    -0.240 NA
ATOM     10  S   UNL A   1      42.199  23.233  28.807  1.00  0.00    -0.122 S 
ATOM     11  C   UNL A   1      43.846  23.272  28.315  1.00  0.00     0.091 A 
BRANCH   8  12
ATOM     12  C   UNL A   1      40.361  22.701  26.814  1.00  0.00     0.013 A 
ATOM     13  C   UNL A   1      40.624  20.189  26.297  1.00  0.00     0.045 C 
ATOM     14  C   UNL A   1      39.849  21.480  26.325  1.00  0.00    -0.041 A 
ATOM     15  C   UNL A   1      38.559  21.470  25.760  1.00  0.00     0.004 A 
ATOM     16  C   UNL A   1      37.789  22.634  25.698  1.00  0.00     0.000 A 
ATOM     17  C   UNL A   1      39.549  23.847  26.799  1.00  0.00     0.011 A 
ATOM     18  C   UNL A   1      38.276  23.819  26.237  1.00  0.00     0.001 A 
ENDBRANCH   8  12
ENDBRANCH   6   7
ENDBRANCH   4   6
ENDBRANCH   3   4
ENDBRANCH   2   3
ENDBRANCH   1   2
BRANCH   1  19
ATOM     19  O   UNL A   1      44.537  28.679  25.690  1.00  0.00    -0.458 OA
BRANCH  19  20
ATOM     20  C   UNL A   1      42.853  28.191  25.854  1.00  0.00     0.338 C 
ATOM     21  O   UNL A   1      42.143  28.720  24.992  1.00  0.00    -0.246 OA
BRANCH  20  22
ATOM     22  C   UNL A   1      41.905  27.198  27.192  1.00  0.00     0.060 A 
ATOM     23  C   UNL A   1      40.519  26.956  27.148  1.00  0.00     0.016 A 
ATOM     24  C   UNL A   1      42.201  27.150  28.642  1.00  0.00     0.016 A 
ATOM     25  C   UNL A   1      39.619  27.238  28.373  1.00  0.00     0.010 A 
ATOM     26  C   UNL A   1      41.394  27.319  29.828  1.00  0.00     0.010 A 
ATOM     27  C   UNL A   1      40.089  27.654  29.675  1.00  0.00    -0.014 A 
BRANCH  27  28
ATOM     28  C   UNL A   1      39.665  28.842  30.609  1.00  0.00     0.031 A 
ATOM     29  C   UNL A   1      38.615  29.828  30.246  1.00  0.00     0.074 A 
ATOM     30  C   UNL A   1      39.830  28.957  31.978  1.00  0.00     0.049 A 
ATOM     31  N   UNL A   1      38.833  31.104  30.194  1.00  0.00    -0.248 NA
ATOM     32  C   UNL A   1      37.189  29.475  30.248  1.00  0.00     0.031 C 
ATOM     33  C   UNL A   1      39.575  30.062  32.923  1.00  0.00     0.029 A 
ATOM     34  N   UNL A   1      40.436  28.103  32.860  1.00  0.00    -0.354 N 
ATOM     35  C   UNL A   1      37.621  31.713  30.491  1.00  0.00     0.074 A 
ATOM     36  C   UNL A   1      36.612  30.681  30.337  1.00  0.00     0.031 C 
ATOM     37  C   UNL A   1      40.451  29.985  33.954  1.00  0.00     0.029 A 
ATOM     38  C   UNL A   1      41.245  28.796  33.769  1.00  0.00     0.049 A 
ATOM     39  H   UNL A   1      40.320  27.126  32.855  1.00  0.00     0.167 HD
ATOM     40  C   UNL A   1      37.544  32.898  31.179  1.00  0.00     0.031 A 
ATOM     41  C   UNL A   1      42.599  28.618  33.639  1.00  0.00     0.031 A 
ATOM     42  C   UNL A   1      38.802  33.241  31.873  1.00  0.00     0.049 A 
ATOM     43  C   UNL A   1      43.154  29.839  32.840  1.00  0.00     0.074 A 
ATOM     44  C   UNL A   1      39.147  33.490  33.198  1.00  0.00     0.029 A 
ATOM     45  N   UNL A   1      40.009  33.063  31.221  1.00  0.00    -0.354 N 
ATOM     46  N   UNL A   1      42.558  31.008  32.852  1.00  0.00    -0.248 NA
ATOM     47  C   UNL A   1      44.311  29.874  31.928  1.00  0.00     0.031 C 
ATOM     48  C   UNL A   1      40.570  33.441  33.320  1.00  0.00     0.029 A 
ATOM     49  C   UNL A   1      41.091  33.176  32.072  1.00  0.00     0.049 A 
ATOM     50  H   UNL A   1      40.088  32.877  30.258  1.00  0.00     0.167 HD
ATOM     51  C   UNL A   1      43.056  31.829  31.864  1.00  0.00     0.074 A 
ATOM     52  C   UNL A   1      44.217  31.107  31.375  1.00  0.00     0.031 C 
ATOM     53  C   UNL A   1      42.423  32.995  31.503  1.00  0.00     0.031 A 
BRANCH  40  54
ATOM     54  C   UNL A   1      36.243  33.651  31.423  1.00  0.00    -0.014 A 
ATOM     55  C   UNL A   1      36.049  34.385  32.612  1.00  0.00     0.010 A 
ATOM     56  C   UNL A   1      35.227  33.782  30.452  1.00  0.00     0.010 A 
ATOM     57  C   UNL A   1      34.895  35.147  32.851  1.00  0.00     0.020 A 
ATOM     58  C   UNL A   1      34.052  34.521  30.686  1.00  0.00     0.020 A 
ATOM     59  C   UNL A   1      33.895  35.204  31.887  1.00  0.00     0.054 A 
BRANCH  59  60
ATOM     60  S   UNL A   1      32.428  36.222  32.205  1.00  0.00     0.124 S 
ATOM     61  O   UNL A   1      32.189  36.845  30.906  1.00  0.00    -0.237 OA
ATOM     62  O   UNL A   1      31.441  35.229  32.617  1.00  0.00    -0.237 OA
ATOM     63  O   UNL A   1      32.861  37.137  33.259  1.00  0.00    -0.744 OA
ENDBRANCH  59  60
ENDBRANCH  40  54
BRANCH  41  64
ATOM     64  C   UNL A   1      42.833  27.095  33.424  1.00  0.00    -0.014 A 
ATOM     65  C   UNL A   1      43.875  26.655  32.601  1.00  0.00     0.010 A 
ATOM     66  C   UNL A   1      42.854  26.352  34.559  1.00  0.00     0.010 A 
ATOM     67  C   UNL A   1      45.041  25.839  33.113  1.00  0.00     0.020 A 
ATOM     68  C   UNL A   1      44.200  25.888  35.038  1.00  0.00     0.020 A 
ATOM     69  C   UNL A   1      45.431  25.487  34.535  1.00  0.00     0.054 A 
BRANCH  69  70
ATOM     70  S   UNL A   1      46.837  23.777  35.492  1.00  0.00     0.124 S 
ATOM     71  O   UNL A   1      46.040  22.754  36.208  1.00  0.00    -0.237 OA
ATOM     72  O   UNL A   1      47.601  22.955  34.513  1.00  0.00    -0.237 OA
ATOM     73  O   UNL A   1      47.701  24.458  36.308  1.00  0.00    -0.744 OA
ENDBRANCH  69  70
ENDBRANCH  41  64
BRANCH  53  74
ATOM     74  C   UNL A   1      42.895  34.093  30.552  1.00  0.00    -0.014 A 
ATOM     75  C   UNL A   1      44.022  34.895  30.769  1.00  0.00     0.010 A 
ATOM     76  C   UNL A   1      42.062  34.480  29.462  1.00  0.00     0.010 A 
ATOM     77  C   UNL A   1      44.312  35.988  29.922  1.00  0.00     0.020 A 
ATOM     78  C   UNL A   1      42.334  35.557  28.618  1.00  0.00     0.020 A 
ATOM     79  C   UNL A   1      43.471  36.307  28.849  1.00  0.00     0.054 A 
BRANCH  79  80
ATOM     80  S   UNL A   1      43.838  37.733  27.797  1.00  0.00     0.124 S 
ATOM     81  O   UNL A   1      43.441  38.857  28.640  1.00  0.00    -0.237 OA
ATOM     82  O   UNL A   1      45.274  37.587  27.579  1.00  0.00    -0.237 OA
ATOM     83  O   UNL A   1      43.007  37.524  26.613  1.00  0.00    -0.744 OA
ENDBRANCH  79  80
ENDBRANCH  53  74
ENDBRANCH  27  28
ENDBRANCH  20  22
ENDBRANCH  19  20
ENDBRANCH   1  19
TORSDOF 16
ENDMDL
MODEL 2
REMARK VINA RESULT:     -13.1      4.215      9.166
REMARK SMILES Cc1ccccc1-c1nc(CC(=O)OCCOC(=O)c2ccc(-c3c4nc(c(-c5ccc(S(=O)(=O)[O-])cc5)c5ccc([nH]5)c(-c5ccc(S(=O)(=O)[O-])cc5)c5nc(c(-c6ccc(S(=O)(=O)[O-])cc6)c6ccc3[nH]6)C=C5)C=C4)cc2)cs1
REMARK SMILES IDX 16 1 15 2 14 3 12 4 13 5 11 6 10 7 8 8 9 9 81 10 80 11 7 12
REMARK SMILES IDX 1 13 2 14 3 15 4 16 6 17 5 18 17 19 18 20 19 21 20 22 21 23
REMARK SMILES IDX 79 24 22 25 78 26 23 27 24 28 25 29 72 30 26 31 77 32 71 33
REMARK SMILES IDX 73 34 27 35 76 36 70 37 69 38 28 40 58 41 39 42 57 43 40 44
REMARK SMILES IDX 43 45 56 46 74 47 41 48 42 49 55 51 75 52 44 53 29 54 30 55
REMARK SMILES IDX 38 56 31 57 37 58 32 59 33 60 34 61 35 62 36 63 59 64 60 65
REMARK SMILES IDX 68 66 61 67 67 68 62 69 63 70 64 71 65 72 66 73 45 74 46 75
REMARK SMILES IDX 54 76 47 77 53 78 48 79 49 80 50 81 51 82 52 83
REMARK H PARENT 73 39 43 50
REMARK Flexibility Score: inf
ROOT
ATOM      1  C   UNL A   1      51.490  25.078  32.145  1.00  0.00     0.275 C 
ENDROOT
BRANCH   1   2
ATOM      2  C   UNL A   1      51.813  23.258  32.488  1.00  0.00     0.274 C 
BRANCH   2   3
ATOM      3  O   UNL A   1      50.926  21.926  32.952  1.00  0.00    -0.462 OA
BRANCH   3   4
ATOM      4  C   UNL A   1      50.376  20.867  33.644  1.00  0.00     0.312 C 
ATOM      5  O   UNL A   1      51.182  20.166  34.285  1.00  0.00    -0.252 OA
BRANCH   4   6
ATOM      6  C   UNL A   1      48.884  20.525  33.909  1.00  0.00     0.179 C 
BRANCH   6   7
ATOM      7  C   UNL A   1      47.987  21.034  35.033  1.00  0.00     0.063 A 
ATOM      8  C   UNL A   1      46.115  22.134  35.611  1.00  0.00     0.123 A 
ATOM      9  N   UNL A   1      47.101  22.075  34.735  1.00  0.00    -0.240 NA
ATOM     10  S   UNL A   1      46.225  21.049  36.925  1.00  0.00    -0.122 S 
ATOM     11  C   UNL A   1      47.621  20.360  36.194  1.00  0.00     0.091 A 
BRANCH   8  12
ATOM     12  C   UNL A   1      45.028  23.109  35.527  1.00  0.00     0.013 A 
ATOM     13  C   UNL A   1      46.030  24.734  37.260  1.00  0.00     0.045 C 
ATOM     14  C   UNL A   1      44.936  24.261  36.338  1.00  0.00    -0.041 A 
ATOM     15  C   UNL A   1      43.728  24.983  36.348  1.00  0.00     0.004 A 
ATOM     16  C   UNL A   1      42.643  24.585  35.562  1.00  0.00     0.000 A 
ATOM     17  C   UNL A   1      43.948  22.760  34.698  1.00  0.00     0.011 A 
ATOM     18  C   UNL A   1      42.761  23.486  34.720  1.00  0.00     0.001 A 
ENDBRANCH   8  12
ENDBRANCH   6   7
ENDBRANCH   4   6
ENDBRANCH   3   4
ENDBRANCH   2   3
ENDBRANCH   1   2
BRANCH   1  19
ATOM     19  O   UNL A   1      50.328  26.248  33.117  1.00  0.00    -0.458 OA
BRANCH  19  20
ATOM     20  C   UNL A   1      48.700  26.920  33.110  1.00  0.00     0.338 C 
ATOM     21  O   UNL A   1      48.721  28.153  33.041  1.00  0.00    -0.246 OA
BRANCH  20  22
ATOM     22  C   UNL A   1      46.968  26.150  33.391  1.00  0.00     0.060 A 
ATOM     23  C   UNL A   1      46.453  25.086  32.626  1.00  0.00     0.016 A 
ATOM     24  C   UNL A   1      45.744  26.849  33.845  1.00  0.00     0.016 A 
ATOM     25  C   UNL A   1      45.041  25.161  32.001  1.00  0.00     0.010 A 
ATOM     26  C   UNL A   1      44.385  26.893  33.360  1.00  0.00     0.010 A 
ATOM     27  C   UNL A   1      44.090  26.228  32.215  1.00  0.00    -0.014 A 
BRANCH  27  28
ATOM     28  C   UNL A   1      43.263  27.108  31.211  1.00  0.00     0.031 A 
ATOM     29  C   UNL A   1      41.885  27.587  31.494  1.00  0.00     0.074 A 
ATOM     30  C   UNL A   1      43.731  27.902  30.180  1.00  0.00     0.049 A 
ATOM     31  N   UNL A   1      40.876  27.325  30.726  1.00  0.00    -0.248 NA
ATOM     32  C   UNL A   1      41.623  28.658  32.465  1.00  0.00     0.031 C 
ATOM     33  C   UNL A   1      43.044  28.669  29.123  1.00  0.00     0.029 A 
ATOM     34  N   UNL A   1      45.012  28.093  29.737  1.00  0.00    -0.354 N 
ATOM     35  C   UNL A   1      39.994  28.387  30.875  1.00  0.00     0.074 A 
ATOM     36  C   UNL A   1      40.411  29.081  32.080  1.00  0.00     0.031 C 
ATOM     37  C   UNL A   1      43.831  28.722  28.020  1.00  0.00     0.029 A 
ATOM     38  C   UNL A   1      45.078  28.073  28.339  1.00  0.00     0.049 A 
ATOM     39  H   UNL A   1      45.789  28.227  30.326  1.00  0.00     0.167 HD
ATOM     40  C   UNL A   1      39.216  28.845  29.841  1.00  0.00     0.031 A 
ATOM     41  C   UNL A   1      45.714  26.996  27.774  1.00  0.00     0.031 A 
ATOM     42  C   UNL A   1      39.675  28.366  28.522  1.00  0.00     0.049 A 
ATOM     43  C   UNL A   1      44.610  25.985  27.330  1.00  0.00     0.074 A 
ATOM     44  C   UNL A   1      40.085  28.991  27.348  1.00  0.00     0.029 A 
ATOM     45  N   UNL A   1      40.061  27.047  28.373  1.00  0.00    -0.354 N 
ATOM     46  N   UNL A   1      43.394  26.372  27.024  1.00  0.00    -0.248 NA
ATOM     47  C   UNL A   1      44.702  24.516  27.262  1.00  0.00     0.031 C 
ATOM     48  C   UNL A   1      40.730  28.027  26.515  1.00  0.00     0.029 A 
ATOM     49  C   UNL A   1      40.703  26.816  27.172  1.00  0.00     0.049 A 
ATOM     50  H   UNL A   1      39.897  26.350  29.048  1.00  0.00     0.167 HD
ATOM     51  C   UNL A   1      42.536  25.296  26.947  1.00  0.00     0.074 A 
ATOM     52  C   UNL A   1      43.423  24.149  27.010  1.00  0.00     0.031 C 
ATOM     53  C   UNL A   1      41.172  25.460  26.904  1.00  0.00     0.031 A 
BRANCH  40  54
ATOM     54  C   UNL A   1      38.157  29.929  29.996  1.00  0.00    -0.014 A 
ATOM     55  C   UNL A   1      37.030  29.722  30.818  1.00  0.00     0.010 A 
ATOM     56  C   UNL A   1      38.291  31.228  29.459  1.00  0.00     0.010 A 
ATOM     57  C   UNL A   1      36.064  30.715  31.042  1.00  0.00     0.020 A 
ATOM     58  C   UNL A   1      37.318  32.227  29.652  1.00  0.00     0.020 A 
ATOM     59  C   UNL A   1      36.209  31.964  30.449  1.00  0.00     0.054 A 
BRANCH  59  60
ATOM     60  S   UNL A   1      34.966  33.241  30.781  1.00  0.00     0.124 S 
ATOM     61  O   UNL A   1      35.758  34.301  31.398  1.00  0.00    -0.237 OA
ATOM     62  O   UNL A   1      34.455  33.536  29.444  1.00  0.00    -0.237 OA
ATOM     63  O   UNL A   1      34.016  32.580  31.673  1.00  0.00    -0.744 OA
ENDBRANCH  59  60
ENDBRANCH  40  54
BRANCH  41  64
ATOM     64  C   UNL A   1      47.012  26.759  28.598  1.00  0.00    -0.014 A 
ATOM     65  C   UNL A   1      47.560  25.474  28.688  1.00  0.00     0.010 A 
ATOM     66  C   UNL A   1      48.022  27.626  28.340  1.00  0.00     0.010 A 
ATOM     67  C   UNL A   1      48.925  25.119  28.141  1.00  0.00     0.020 A 
ATOM     68  C   UNL A   1      49.162  27.110  27.510  1.00  0.00     0.020 A 
ATOM     69  C   UNL A   1      49.868  25.935  27.281  1.00  0.00     0.054 A 
BRANCH  69  70
ATOM     70  S   UNL A   1      52.233  25.798  26.825  1.00  0.00     0.124 S 
ATOM     71  O   UNL A   1      52.568  24.584  26.045  1.00  0.00    -0.237 OA
ATOM     72  O   UNL A   1      52.783  26.886  25.969  1.00  0.00    -0.237 OA
ATOM     73  O   UNL A   1      52.824  25.828  28.059  1.00  0.00    -0.744 OA
ENDBRANCH  69  70
ENDBRANCH  41  64
BRANCH  53  74
ATOM     74  C   UNL A   1      40.084  24.414  26.668  1.00  0.00    -0.014 A 
ATOM     75  C   UNL A   1      40.326  23.047  26.492  1.00  0.00     0.010 A 
ATOM     76  C   UNL A   1      38.746  24.841  26.420  1.00  0.00     0.010 A 
ATOM     77  C   UNL A   1      39.286  22.163  26.130  1.00  0.00     0.020 A 
ATOM     78  C   UNL A   1      37.707  23.980  26.062  1.00  0.00     0.020 A 
ATOM     79  C   UNL A   1      37.983  22.634  25.925  1.00  0.00     0.054 A 
BRANCH  79  80
ATOM     80  S   UNL A   1      36.670  21.493  25.427  1.00  0.00     0.124 S 
ATOM     81  O   UNL A   1      35.713  21.616  26.523  1.00  0.00    -0.237 OA
ATOM     82  O   UNL A   1      36.242  22.062  24.152  1.00  0.00    -0.237 OA
ATOM     83  O   UNL A   1      37.340  20.197  25.334  1.00  0.00    -0.744 OA
ENDBRANCH  79  80
ENDBRANCH  53  74
ENDBRANCH  27  28
ENDBRANCH  20  22
ENDBRANCH  19  20
ENDBRANCH   1  19
TORSDOF 16
ENDMDL
MODEL 3
REMARK VINA RESULT:     -12.9      3.341     12.140
REMARK SMILES Cc1ccccc1-c1nc(CC(=O)OCCOC(=O)c2ccc(-c3c4nc(c(-c5ccc(S(=O)(=O)[O-])cc5)c5ccc([nH]5)c(-c5ccc(S(=O)(=O)[O-])cc5)c5nc(c(-c6ccc(S(=O)(=O)[O-])cc6)c6ccc3[nH]6)C=C5)C=C4)cc2)cs1
REMARK SMILES IDX 16 1 15 2 14 3 12 4 13 5 11 6 10 7 8 8 9 9 81 10 80 11 7 12
REMARK SMILES IDX 1 13 2 14 3 15 4 16 6 17 5 18 17 19 18 20 19 21 20 22 21 23
REMARK SMILES IDX 79 24 22 25 78 26 23 27 24 28 25 29 72 30 26 31 77 32 71 33
REMARK SMILES IDX 73 34 27 35 76 36 70 37 69 38 28 40 58 41 39 42 57 43 40 44
REMARK SMILES IDX 43 45 56 46 74 47 41 48 42 49 55 51 75 52 44 53 29 54 30 55
REMARK SMILES IDX 38 56 31 57 37 58 32 59 33 60 34 61 35 62 36 63 59 64 60 65
REMARK SMILES IDX 68 66 61 67 67 68 62 69 63 70 64 71 65 72 66 73 45 74 46 75
REMARK SMILES IDX 54 76 47 77 53 78 48 79 49 80 50 81 51 82 52 83
REMARK H PARENT 73 39 43 50
REMARK Flexibility Score: inf
ROOT
ATOM      1  C   UNL A   1      41.858  27.639  34.118  1.00  0.00     0.275 C 
ENDROOT
BRANCH   1   2
ATOM      2  C   UNL A   1      43.014  29.043  34.600  1.00  0.00     0.274 C 
BRANCH   2   3
ATOM      3  O   UNL A   1      43.105  30.689  34.355  1.00  0.00    -0.462 OA
BRANCH   3   4
ATOM      4  C   UNL A   1      42.978  31.972  33.866  1.00  0.00     0.312 C 
ATOM      5  O   UNL A   1      44.014  32.471  33.388  1.00  0.00    -0.252 OA
BRANCH   4   6
ATOM      6  C   UNL A   1      41.698  32.822  33.638  1.00  0.00     0.179 C 
BRANCH   6   7
ATOM      7  C   UNL A   1      41.006  33.146  32.317  1.00  0.00     0.063 A 
ATOM      8  C   UNL A   1      39.068  33.420  31.213  1.00  0.00     0.123 A 
ATOM      9  N   UNL A   1      39.676  32.737  32.165  1.00  0.00    -0.240 NA
ATOM     10  S   UNL A   1      40.052  34.508  30.338  1.00  0.00    -0.122 S 
ATOM     11  C   UNL A   1      41.350  34.135  31.402  1.00  0.00     0.091 A 
BRANCH   8  12
ATOM     12  C   UNL A   1      37.663  33.221  30.858  1.00  0.00     0.013 A 
ATOM     13  C   UNL A   1      36.724  34.662  32.778  1.00  0.00     0.045 C 
ATOM     14  C   UNL A   1      36.579  33.716  31.616  1.00  0.00    -0.041 A 
ATOM     15  C   UNL A   1      35.284  33.248  31.321  1.00  0.00     0.004 A 
ATOM     16  C   UNL A   1      35.065  32.329  30.292  1.00  0.00     0.000 A 
ATOM     17  C   UNL A   1      37.415  32.345  29.788  1.00  0.00     0.011 A 
ATOM     18  C   UNL A   1      36.129  31.894  29.511  1.00  0.00     0.001 A 
ENDBRANCH   8  12
ENDBRANCH   6   7
ENDBRANCH   4   6
ENDBRANCH   3   4
ENDBRANCH   2   3
ENDBRANCH   1   2
BRANCH   1  19
ATOM     19  O   UNL A   1      39.990  27.767  33.721  1.00  0.00    -0.458 OA
BRANCH  19  20
ATOM     20  C   UNL A   1      38.852  28.458  32.567  1.00  0.00     0.338 C 
ATOM     21  O   UNL A   1      37.683  28.246  32.904  1.00  0.00    -0.246 OA
BRANCH  20  22
ATOM     22  C   UNL A   1      39.069  29.261  30.841  1.00  0.00     0.060 A 
ATOM     23  C   UNL A   1      38.496  28.746  29.663  1.00  0.00     0.016 A 
ATOM     24  C   UNL A   1      40.260  29.983  30.337  1.00  0.00     0.016 A 
ATOM     25  C   UNL A   1      39.343  28.532  28.388  1.00  0.00     0.010 A 
ATOM     26  C   UNL A   1      41.043  29.889  29.127  1.00  0.00     0.010 A 
ATOM     27  C   UNL A   1      40.726  28.921  28.231  1.00  0.00    -0.014 A 
BRANCH  27  28
ATOM     28  C   UNL A   1      41.988  28.124  27.745  1.00  0.00     0.031 A 
ATOM     29  C   UNL A   1      42.004  26.648  27.578  1.00  0.00     0.074 A 
ATOM     30  C   UNL A   1      43.076  28.593  27.031  1.00  0.00     0.049 A 
ATOM     31  N   UNL A   1      42.843  25.877  28.192  1.00  0.00    -0.248 NA
ATOM     32  C   UNL A   1      41.307  25.989  26.465  1.00  0.00     0.031 C 
ATOM     33  C   UNL A   1      44.349  27.966  26.627  1.00  0.00     0.029 A 
ATOM     34  N   UNL A   1      43.360  29.864  26.606  1.00  0.00    -0.354 N 
ATOM     35  C   UNL A   1      43.030  24.777  27.366  1.00  0.00     0.074 A 
ATOM     36  C   UNL A   1      41.936  24.807  26.414  1.00  0.00     0.031 C 
ATOM     37  C   UNL A   1      45.317  28.912  26.557  1.00  0.00     0.029 A 
ATOM     38  C   UNL A   1      44.704  30.189  26.826  1.00  0.00     0.049 A 
ATOM     39  H   UNL A   1      42.703  30.472  26.198  1.00  0.00     0.167 HD
ATOM     40  C   UNL A   1      44.233  24.123  27.277  1.00  0.00     0.031 A 
ATOM     41  C   UNL A   1      44.952  31.132  27.791  1.00  0.00     0.031 A 
ATOM     42  C   UNL A   1      45.356  24.908  27.828  1.00  0.00     0.049 A 
ATOM     43  C   UNL A   1      45.346  30.370  29.095  1.00  0.00     0.074 A 
ATOM     44  C   UNL A   1      46.557  25.384  27.312  1.00  0.00     0.029 A 
ATOM     45  N   UNL A   1      45.190  25.588  29.021  1.00  0.00    -0.354 N 
ATOM     46  N   UNL A   1      45.891  29.178  29.067  1.00  0.00    -0.248 NA
ATOM     47  C   UNL A   1      45.114  30.785  30.490  1.00  0.00     0.031 C 
ATOM     48  C   UNL A   1      47.087  26.363  28.208  1.00  0.00     0.029 A 
ATOM     49  C   UNL A   1      46.219  26.474  29.273  1.00  0.00     0.049 A 
ATOM     50  H   UNL A   1      44.423  25.455  29.624  1.00  0.00     0.167 HD
ATOM     51  C   UNL A   1      45.881  28.598  30.318  1.00  0.00     0.074 A 
ATOM     52  C   UNL A   1      45.471  29.683  31.192  1.00  0.00     0.031 C 
ATOM     53  C   UNL A   1      46.150  27.262  30.499  1.00  0.00     0.031 A 
BRANCH  40  54
ATOM     54  C   UNL A   1      44.445  22.847  26.471  1.00  0.00    -0.014 A 
ATOM     55  C   UNL A   1      43.437  21.861  26.409  1.00  0.00     0.010 A 
ATOM     56  C   UNL A   1      45.567  22.627  25.644  1.00  0.00     0.010 A 
ATOM     57  C   UNL A   1      43.562  20.702  25.627  1.00  0.00     0.020 A 
ATOM     58  C   UNL A   1      45.719  21.458  24.875  1.00  0.00     0.020 A 
ATOM     59  C   UNL A   1      44.709  20.502  24.868  1.00  0.00     0.054 A 
BRANCH  59  60
ATOM     60  S   UNL A   1      44.831  19.012  23.841  1.00  0.00     0.124 S 
ATOM     61  O   UNL A   1      43.841  18.128  24.449  1.00  0.00    -0.237 OA
ATOM     62  O   UNL A   1      44.491  19.518  22.514  1.00  0.00    -0.237 OA
ATOM     63  O   UNL A   1      46.220  18.589  24.004  1.00  0.00    -0.744 OA
ENDBRANCH  59  60
ENDBRANCH  40  54
BRANCH  41  64
ATOM     64  C   UNL A   1      43.921  32.277  27.575  1.00  0.00    -0.014 A 
ATOM     65  C   UNL A   1      43.544  33.092  28.648  1.00  0.00     0.010 A 
ATOM     66  C   UNL A   1      44.167  33.078  26.508  1.00  0.00     0.010 A 
ATOM     67  C   UNL A   1      43.822  34.579  28.692  1.00  0.00     0.020 A 
ATOM     68  C   UNL A   1      44.727  34.440  26.800  1.00  0.00     0.020 A 
ATOM     69  C   UNL A   1      44.657  35.438  27.764  1.00  0.00     0.054 A 
BRANCH  69  70
ATOM     70  S   UNL A   1      44.736  37.808  27.324  1.00  0.00     0.124 S 
ATOM     71  O   UNL A   1      44.996  38.584  28.559  1.00  0.00    -0.237 OA
ATOM     72  O   UNL A   1      45.841  38.256  26.431  1.00  0.00    -0.237 OA
ATOM     73  O   UNL A   1      43.525  38.093  26.751  1.00  0.00    -0.744 OA
ENDBRANCH  69  70
ENDBRANCH  41  64
BRANCH  53  74
ATOM     74  C   UNL A   1      46.332  26.485  31.801  1.00  0.00    -0.014 A 
ATOM     75  C   UNL A   1      47.554  25.972  32.252  1.00  0.00     0.010 A 
ATOM     76  C   UNL A   1      45.182  26.075  32.538  1.00  0.00     0.010 A 
ATOM     77  C   UNL A   1      47.619  25.137  33.388  1.00  0.00     0.020 A 
ATOM     78  C   UNL A   1      45.230  25.251  33.663  1.00  0.00     0.020 A 
ATOM     79  C   UNL A   1      46.459  24.788  34.090  1.00  0.00     0.054 A 
BRANCH  79  80
ATOM     80  S   UNL A   1      46.557  23.687  35.523  1.00  0.00     0.124 S 
ATOM     81  O   UNL A   1      45.187  23.706  36.029  1.00  0.00    -0.237 OA
ATOM     82  O   UNL A   1      46.984  22.432  34.912  1.00  0.00    -0.237 OA
ATOM     83  O   UNL A   1      47.546  24.322  36.393  1.00  0.00    -0.744 OA
ENDBRANCH  79  80
ENDBRANCH  53  74
ENDBRANCH  27  28
ENDBRANCH  20  22
ENDBRANCH  19  20
ENDBRANCH   1  19
TORSDOF 16
ENDMDL
