MODEL 1
REMARK VINA RESULT:     -12.6      0.000      0.000
REMARK SMILES O=C(OCCOC(=O)c1ccc(-c2c3nc(c(-c4ccc(S(=O)(=O)[O-])cc4)c4ccc([nH]4)c(-c4ccc(S(=O)(=O)[O-])cc4)c4nc(c(-c5ccc(S(=O)(=O)[O-])cc5)c5ccc2[nH]5)C=C4)C=C3)cc1)C1=Cc2ccc(Cl)c(Cl)c2O[C@@H]1C(F)(F)F
REMARK SMILES IDX 5 1 4 2 3 3 2 4 1 5 69 6 70 7 80 8 71 9 79 10 72 11 78 12
REMARK SMILES IDX 73 13 76 14 74 15 77 16 75 17 81 18 82 19 83 20 84 21 6 22
REMARK SMILES IDX 7 23 8 24 9 25 10 26 68 27 11 28 67 29 12 30 13 31 14 32
REMARK SMILES IDX 61 33 15 34 66 35 60 36 62 37 16 38 65 39 59 40 58 41 17 43
REMARK SMILES IDX 47 44 28 45 46 46 29 47 32 48 45 49 63 50 30 51 31 52 44 54
REMARK SMILES IDX 64 55 33 56 18 57 19 58 27 59 20 60 26 61 21 62 22 63 23 64
REMARK SMILES IDX 24 65 25 66 48 67 49 68 57 69 50 70 56 71 51 72 52 73 53 74
REMARK SMILES IDX 54 75 55 76 34 77 35 78 43 79 36 80 42 81 37 82 38 83 39 84
REMARK SMILES IDX 40 85 41 86
REMARK H PARENT 62 42 32 53
REMARK Flexibility Score: inf
ROOT
ATOM      1  C   UNL A   1      33.369  29.070  26.393  1.00  0.00     0.275 C 
ENDROOT
BRANCH   1   2
ATOM      2  C   UNL A   1      31.624  28.013  27.156  1.00  0.00     0.275 C 
BRANCH   2   3
ATOM      3  O   UNL A   1      31.447  26.475  27.235  1.00  0.00    -0.459 OA
BRANCH   3   4
ATOM      4  C   UNL A   1      31.005  25.929  26.096  1.00  0.00     0.338 C 
ATOM      5  O   UNL A   1      29.896  25.600  25.767  1.00  0.00    -0.246 OA
BRANCH   4   6
ATOM      6  C   UNL A   1      32.315  25.593  25.596  1.00  0.00     0.087 C 
ATOM      7  C   UNL A   1      32.875  24.424  26.306  1.00  0.00     0.027 C 
ATOM      8  C   UNL A   1      31.841  25.636  23.723  1.00  0.00     0.316 C 
ATOM      9  C   UNL A   1      33.032  22.785  25.548  1.00  0.00     0.019 A 
ATOM     10  O   UNL A   1      31.967  23.895  22.911  1.00  0.00    -0.474 OA
ATOM     11  C   UNL A   1      33.307  21.730  26.372  1.00  0.00     0.013 A 
ATOM     12  C   UNL A   1      32.523  22.467  23.910  1.00  0.00     0.148 A 
ATOM     13  C   UNL A   1      33.117  20.468  25.787  1.00  0.00     0.023 A 
ATOM     14  C   UNL A   1      32.376  21.193  23.424  1.00  0.00     0.102 A 
ATOM     15  C   UNL A   1      32.675  20.209  24.410  1.00  0.00     0.063 A 
ATOM     16  Cl  UNL A   1      31.810  20.838  21.858  1.00  0.00    -0.079 Cl
ATOM     17  Cl  UNL A   1      32.467  18.512  24.058  1.00  0.00    -0.083 Cl
BRANCH   8  18
ATOM     18  C   UNL A   1      32.457  27.034  23.363  1.00  0.00     0.430 C 
ATOM     19  F   UNL A   1      33.741  27.128  23.730  1.00  0.00    -0.167 F 
ATOM     20  F   UNL A   1      32.487  27.138  21.999  1.00  0.00    -0.167 F 
ATOM     21  F   UNL A   1      31.757  28.120  23.730  1.00  0.00    -0.167 F 
ENDBRANCH   8  18
ENDBRANCH   4   6
ENDBRANCH   3   4
ENDBRANCH   2   3
ENDBRANCH   1   2
BRANCH   1  22
ATOM     22  O   UNL A   1      34.027  30.490  27.037  1.00  0.00    -0.458 OA
BRANCH  22  23
ATOM     23  C   UNL A   1      34.678  31.007  28.123  1.00  0.00     0.338 C 
ATOM     24  O   UNL A   1      34.293  31.793  28.965  1.00  0.00    -0.246 OA
BRANCH  23  25
ATOM     25  C   UNL A   1      35.872  30.125  28.286  1.00  0.00     0.060 A 
ATOM     26  C   UNL A   1      36.826  30.076  27.255  1.00  0.00     0.016 A 
ATOM     27  C   UNL A   1      36.203  29.679  29.568  1.00  0.00     0.016 A 
ATOM     28  C   UNL A   1      38.161  29.756  27.560  1.00  0.00     0.010 A 
ATOM     29  C   UNL A   1      37.531  29.363  29.867  1.00  0.00     0.010 A 
ATOM     30  C   UNL A   1      38.528  29.439  28.878  1.00  0.00    -0.014 A 
BRANCH  30  31
ATOM     31  C   UNL A   1      39.861  28.847  29.160  1.00  0.00     0.031 A 
ATOM     32  C   UNL A   1      40.801  29.757  29.899  1.00  0.00     0.074 A 
ATOM     33  C   UNL A   1      40.253  27.618  28.765  1.00  0.00     0.049 A 
ATOM     34  N   UNL A   1      42.021  29.547  30.306  1.00  0.00    -0.248 NA
ATOM     35  C   UNL A   1      40.286  31.108  30.195  1.00  0.00     0.031 C 
ATOM     36  C   UNL A   1      39.447  26.646  28.024  1.00  0.00     0.029 A 
ATOM     37  N   UNL A   1      41.459  26.973  28.939  1.00  0.00    -0.354 N 
ATOM     38  C   UNL A   1      42.407  30.736  30.913  1.00  0.00     0.074 A 
ATOM     39  C   UNL A   1      41.334  31.683  30.749  1.00  0.00     0.031 C 
ATOM     40  C   UNL A   1      40.179  25.531  27.813  1.00  0.00     0.029 A 
ATOM     41  C   UNL A   1      41.509  25.705  28.398  1.00  0.00     0.049 A 
ATOM     42  H   UNL A   1      42.222  27.384  29.407  1.00  0.00     0.167 HD
ATOM     43  C   UNL A   1      43.544  31.013  31.585  1.00  0.00     0.031 A 
ATOM     44  C   UNL A   1      42.510  24.796  28.399  1.00  0.00     0.031 A 
ATOM     45  C   UNL A   1      44.626  30.086  31.712  1.00  0.00     0.049 A 
ATOM     46  C   UNL A   1      43.804  25.147  29.110  1.00  0.00     0.074 A 
ATOM     47  C   UNL A   1      45.830  30.252  32.364  1.00  0.00     0.029 A 
ATOM     48  N   UNL A   1      44.630  28.816  31.155  1.00  0.00    -0.354 N 
ATOM     49  N   UNL A   1      44.125  26.248  29.753  1.00  0.00    -0.248 NA
ATOM     50  C   UNL A   1      44.860  24.122  29.121  1.00  0.00     0.031 C 
ATOM     51  C   UNL A   1      46.588  29.095  32.159  1.00  0.00     0.029 A 
ATOM     52  C   UNL A   1      45.825  28.186  31.440  1.00  0.00     0.049 A 
ATOM     53  H   UNL A   1      43.892  28.423  30.637  1.00  0.00     0.167 HD
ATOM     54  C   UNL A   1      45.391  26.023  30.291  1.00  0.00     0.074 A 
ATOM     55  C   UNL A   1      45.777  24.684  29.898  1.00  0.00     0.031 C 
ATOM     56  C   UNL A   1      46.163  26.841  31.051  1.00  0.00     0.031 A 
BRANCH  43  57
ATOM     57  C   UNL A   1      43.642  32.384  32.188  1.00  0.00    -0.014 A 
ATOM     58  C   UNL A   1      44.175  33.459  31.449  1.00  0.00     0.010 A 
ATOM     59  C   UNL A   1      43.277  32.584  33.528  1.00  0.00     0.010 A 
ATOM     60  C   UNL A   1      44.401  34.692  32.060  1.00  0.00     0.020 A 
ATOM     61  C   UNL A   1      43.468  33.828  34.133  1.00  0.00     0.020 A 
ATOM     62  C   UNL A   1      44.050  34.867  33.402  1.00  0.00     0.054 A 
BRANCH  62  63
ATOM     63  S   UNL A   1      44.355  36.478  34.174  1.00  0.00     0.124 S 
ATOM     64  O   UNL A   1      43.098  37.177  33.918  1.00  0.00    -0.237 OA
ATOM     65  O   UNL A   1      44.603  36.121  35.568  1.00  0.00    -0.237 OA
ATOM     66  O   UNL A   1      45.514  36.994  33.450  1.00  0.00    -0.744 OA
ENDBRANCH  62  63
ENDBRANCH  43  57
BRANCH  44  67
ATOM     67  C   UNL A   1      42.354  23.450  27.759  1.00  0.00    -0.014 A 
ATOM     68  C   UNL A   1      41.831  22.363  28.490  1.00  0.00     0.010 A 
ATOM     69  C   UNL A   1      42.785  23.220  26.440  1.00  0.00     0.010 A 
ATOM     70  C   UNL A   1      41.775  21.078  27.932  1.00  0.00     0.020 A 
ATOM     71  C   UNL A   1      42.706  21.941  25.868  1.00  0.00     0.020 A 
ATOM     72  C   UNL A   1      42.213  20.874  26.623  1.00  0.00     0.054 A 
BRANCH  72  73
ATOM     73  S   UNL A   1      42.109  19.204  25.912  1.00  0.00     0.124 S 
ATOM     74  O   UNL A   1      42.637  18.376  26.992  1.00  0.00    -0.237 OA
ATOM     75  O   UNL A   1      40.679  19.063  25.649  1.00  0.00    -0.237 OA
ATOM     76  O   UNL A   1      42.950  19.285  24.720  1.00  0.00    -0.744 OA
ENDBRANCH  72  73
ENDBRANCH  44  67
BRANCH  56  77
ATOM     77  C   UNL A   1      47.462  26.291  31.580  1.00  0.00    -0.014 A 
ATOM     78  C   UNL A   1      47.541  25.648  32.827  1.00  0.00     0.010 A 
ATOM     79  C   UNL A   1      48.606  26.348  30.762  1.00  0.00     0.010 A 
ATOM     80  C   UNL A   1      48.753  25.106  33.262  1.00  0.00     0.020 A 
ATOM     81  C   UNL A   1      49.809  25.777  31.177  1.00  0.00     0.020 A 
ATOM     82  C   UNL A   1      49.879  25.174  32.434  1.00  0.00     0.054 A 
BRANCH  82  83
ATOM     83  S   UNL A   1      51.430  24.427  33.002  1.00  0.00     0.124 S 
ATOM     84  O   UNL A   1      52.417  25.415  32.575  1.00  0.00    -0.237 OA
ATOM     85  O   UNL A   1      51.227  24.325  34.445  1.00  0.00    -0.237 OA
ATOM     86  O   UNL A   1      51.480  23.149  32.295  1.00  0.00    -0.744 OA
ENDBRANCH  82  83
ENDBRANCH  56  77
ENDBRANCH  30  31
ENDBRANCH  23  25
ENDBRANCH  22  23
ENDBRANCH   1  22
TORSDOF 15
ENDMDL
MODEL 2
REMARK VINA RESULT:     -12.5      3.792      4.623
REMARK SMILES O=C(OCCOC(=O)c1ccc(-c2c3nc(c(-c4ccc(S(=O)(=O)[O-])cc4)c4ccc([nH]4)c(-c4ccc(S(=O)(=O)[O-])cc4)c4nc(c(-c5ccc(S(=O)(=O)[O-])cc5)c5ccc2[nH]5)C=C4)C=C3)cc1)C1=Cc2ccc(Cl)c(Cl)c2O[C@@H]1C(F)(F)F
REMARK SMILES IDX 5 1 4 2 3 3 2 4 1 5 69 6 70 7 80 8 71 9 79 10 72 11 78 12
REMARK SMILES IDX 73 13 76 14 74 15 77 16 75 17 81 18 82 19 83 20 84 21 6 22
REMARK SMILES IDX 7 23 8 24 9 25 10 26 68 27 11 28 67 29 12 30 13 31 14 32
REMARK SMILES IDX 61 33 15 34 66 35 60 36 62 37 16 38 65 39 59 40 58 41 17 43
REMARK SMILES IDX 47 44 28 45 46 46 29 47 32 48 45 49 63 50 30 51 31 52 44 54
REMARK SMILES IDX 64 55 33 56 18 57 19 58 27 59 20 60 26 61 21 62 22 63 23 64
REMARK SMILES IDX 24 65 25 66 48 67 49 68 57 69 50 70 56 71 51 72 52 73 53 74
REMARK SMILES IDX 54 75 55 76 34 77 35 78 43 79 36 80 42 81 37 82 38 83 39 84
REMARK SMILES IDX 40 85 41 86
REMARK H PARENT 62 42 32 53
REMARK Flexibility Score: inf
ROOT
ATOM      1  C   UNL A   1      35.679  30.786  27.864  1.00  0.00     0.275 C 
ENDROOT
BRANCH   1   2
ATOM      2  C   UNL A   1      33.605  30.875  27.201  1.00  0.00     0.275 C 
BRANCH   2   3
ATOM      3  O   UNL A   1      32.962  30.013  26.085  1.00  0.00    -0.459 OA
BRANCH   3   4
ATOM      4  C   UNL A   1      32.523  28.824  26.513  1.00  0.00     0.338 C 
ATOM      5  O   UNL A   1      32.276  28.437  27.624  1.00  0.00    -0.246 OA
BRANCH   4   6
ATOM      6  C   UNL A   1      32.774  28.138  25.270  1.00  0.00     0.087 C 
ATOM      7  C   UNL A   1      33.962  27.264  25.371  1.00  0.00     0.027 C 
ATOM      8  C   UNL A   1      30.961  27.526  24.998  1.00  0.00     0.316 C 
ATOM      9  C   UNL A   1      33.859  25.456  25.436  1.00  0.00     0.019 A 
ATOM     10  O   UNL A   1      30.829  25.608  25.101  1.00  0.00    -0.474 OA
ATOM     11  C   UNL A   1      34.984  24.770  25.798  1.00  0.00     0.013 A 
ATOM     12  C   UNL A   1      32.334  24.610  25.387  1.00  0.00     0.148 A 
ATOM     13  C   UNL A   1      34.767  23.421  26.123  1.00  0.00     0.023 A 
ATOM     14  C   UNL A   1      32.223  23.281  25.713  1.00  0.00     0.102 A 
ATOM     15  C   UNL A   1      33.476  22.719  26.091  1.00  0.00     0.063 A 
ATOM     16  Cl  UNL A   1      30.744  22.438  25.751  1.00  0.00    -0.079 Cl
ATOM     17  Cl  UNL A   1      33.574  21.067  26.643  1.00  0.00    -0.083 Cl
BRANCH   8  18
ATOM     18  C   UNL A   1      30.526  28.575  23.915  1.00  0.00     0.430 C 
ATOM     19  F   UNL A   1      31.215  28.439  22.777  1.00  0.00    -0.167 F 
ATOM     20  F   UNL A   1      29.233  28.297  23.563  1.00  0.00    -0.167 F 
ATOM     21  F   UNL A   1      30.460  29.859  24.304  1.00  0.00    -0.167 F 
ENDBRANCH   8  18
ENDBRANCH   4   6
ENDBRANCH   3   4
ENDBRANCH   2   3
ENDBRANCH   1   2
BRANCH   1  22
ATOM     22  O   UNL A   1      36.390  29.515  28.724  1.00  0.00    -0.458 OA
BRANCH  22  23
ATOM     23  C   UNL A   1      37.143  29.217  29.826  1.00  0.00     0.338 C 
ATOM     24  O   UNL A   1      36.817  29.111  30.992  1.00  0.00    -0.246 OA
BRANCH  23  25
ATOM     25  C   UNL A   1      38.417  28.681  29.262  1.00  0.00     0.060 A 
ATOM     26  C   UNL A   1      38.767  29.013  27.941  1.00  0.00     0.016 A 
ATOM     27  C   UNL A   1      39.388  28.199  30.143  1.00  0.00     0.016 A 
ATOM     28  C   UNL A   1      40.123  29.036  27.568  1.00  0.00     0.010 A 
ATOM     29  C   UNL A   1      40.734  28.225  29.769  1.00  0.00     0.010 A 
ATOM     30  C   UNL A   1      41.117  28.684  28.495  1.00  0.00    -0.014 A 
BRANCH  30  31
ATOM     31  C   UNL A   1      42.512  28.449  28.041  1.00  0.00     0.031 A 
ATOM     32  C   UNL A   1      43.425  29.631  28.204  1.00  0.00     0.074 A 
ATOM     33  C   UNL A   1      42.954  27.304  27.481  1.00  0.00     0.049 A 
ATOM     34  N   UNL A   1      44.692  29.756  27.921  1.00  0.00    -0.248 NA
ATOM     35  C   UNL A   1      42.801  30.854  28.744  1.00  0.00     0.031 C 
ATOM     36  C   UNL A   1      42.167  26.092  27.246  1.00  0.00     0.029 A 
ATOM     37  N   UNL A   1      44.203  26.977  26.998  1.00  0.00    -0.354 N 
ATOM     38  C   UNL A   1      45.009  31.065  28.262  1.00  0.00     0.074 A 
ATOM     39  C   UNL A   1      43.796  31.716  28.688  1.00  0.00     0.031 C 
ATOM     40  C   UNL A   1      42.953  25.157  26.671  1.00  0.00     0.029 A 
ATOM     41  C   UNL A   1      44.300  25.698  26.490  1.00  0.00     0.049 A 
ATOM     42  H   UNL A   1      44.963  27.604  27.014  1.00  0.00     0.167 HD
ATOM     43  C   UNL A   1      46.213  31.672  28.256  1.00  0.00     0.031 A 
ATOM     44  C   UNL A   1      45.360  25.049  25.960  1.00  0.00     0.031 A 
ATOM     45  C   UNL A   1      47.409  31.039  27.793  1.00  0.00     0.049 A 
ATOM     46  C   UNL A   1      46.696  25.767  25.909  1.00  0.00     0.074 A 
ATOM     47  C   UNL A   1      48.689  31.552  27.734  1.00  0.00     0.029 A 
ATOM     48  N   UNL A   1      47.461  29.746  27.294  1.00  0.00    -0.354 N 
ATOM     49  N   UNL A   1      47.000  26.982  26.312  1.00  0.00    -0.248 NA
ATOM     50  C   UNL A   1      47.837  25.020  25.358  1.00  0.00     0.031 C 
ATOM     51  C   UNL A   1      49.509  30.583  27.149  1.00  0.00     0.029 A 
ATOM     52  C   UNL A   1      48.752  29.444  26.912  1.00  0.00     0.049 A 
ATOM     53  H   UNL A   1      46.692  29.135  27.223  1.00  0.00     0.167 HD
ATOM     54  C   UNL A   1      48.373  27.118  26.117  1.00  0.00     0.074 A 
ATOM     55  C   UNL A   1      48.840  25.864  25.561  1.00  0.00     0.031 C 
ATOM     56  C   UNL A   1      49.182  28.175  26.383  1.00  0.00     0.031 A 
BRANCH  43  57
ATOM     57  C   UNL A   1      46.244  33.092  28.743  1.00  0.00    -0.014 A 
ATOM     58  C   UNL A   1      46.403  33.380  30.114  1.00  0.00     0.010 A 
ATOM     59  C   UNL A   1      46.029  34.143  27.839  1.00  0.00     0.010 A 
ATOM     60  C   UNL A   1      46.282  34.689  30.578  1.00  0.00     0.020 A 
ATOM     61  C   UNL A   1      45.943  35.460  28.297  1.00  0.00     0.020 A 
ATOM     62  C   UNL A   1      46.048  35.721  29.666  1.00  0.00     0.054 A 
BRANCH  62  63
ATOM     63  S   UNL A   1      45.893  37.414  30.295  1.00  0.00     0.124 S 
ATOM     64  O   UNL A   1      45.058  37.219  31.479  1.00  0.00    -0.237 OA
ATOM     65  O   UNL A   1      47.280  37.784  30.559  1.00  0.00    -0.237 OA
ATOM     66  O   UNL A   1      45.257  38.134  29.196  1.00  0.00    -0.744 OA
ENDBRANCH  62  63
ENDBRANCH  43  57
BRANCH  44  67
ATOM     67  C   UNL A   1      45.257  23.635  25.471  1.00  0.00    -0.014 A 
ATOM     68  C   UNL A   1      44.724  23.353  24.197  1.00  0.00     0.010 A 
ATOM     69  C   UNL A   1      45.625  22.556  26.294  1.00  0.00     0.010 A 
ATOM     70  C   UNL A   1      44.530  22.031  23.772  1.00  0.00     0.020 A 
ATOM     71  C   UNL A   1      45.458  21.231  25.862  1.00  0.00     0.020 A 
ATOM     72  C   UNL A   1      44.898  20.976  24.608  1.00  0.00     0.054 A 
BRANCH  72  73
ATOM     73  S   UNL A   1      44.661  19.270  24.026  1.00  0.00     0.124 S 
ATOM     74  O   UNL A   1      43.421  18.887  24.696  1.00  0.00    -0.237 OA
ATOM     75  O   UNL A   1      44.570  19.441  22.579  1.00  0.00    -0.237 OA
ATOM     76  O   UNL A   1      45.860  18.578  24.493  1.00  0.00    -0.744 OA
ENDBRANCH  72  73
ENDBRANCH  44  67
BRANCH  56  77
ATOM     77  C   UNL A   1      50.662  28.003  26.160  1.00  0.00    -0.014 A 
ATOM     78  C   UNL A   1      51.513  27.523  27.169  1.00  0.00     0.010 A 
ATOM     79  C   UNL A   1      51.187  28.250  24.877  1.00  0.00     0.010 A 
ATOM     80  C   UNL A   1      52.872  27.328  26.908  1.00  0.00     0.020 A 
ATOM     81  C   UNL A   1      52.536  28.024  24.602  1.00  0.00     0.020 A 
ATOM     82  C   UNL A   1      53.374  27.580  25.626  1.00  0.00     0.054 A 
BRANCH  82  83
ATOM     83  S   UNL A   1      55.132  27.281  25.300  1.00  0.00     0.124 S 
ATOM     84  O   UNL A   1      55.674  27.160  26.651  1.00  0.00    -0.237 OA
ATOM     85  O   UNL A   1      55.109  26.047  24.519  1.00  0.00    -0.237 OA
ATOM     86  O   UNL A   1      55.556  28.469  24.563  1.00  0.00    -0.744 OA
ENDBRANCH  82  83
ENDBRANCH  56  77
ENDBRANCH  30  31
ENDBRANCH  23  25
ENDBRANCH  22  23
ENDBRANCH   1  22
TORSDOF 15
ENDMDL
MODEL 3
REMARK VINA RESULT:     -12.5      1.488      2.050
REMARK SMILES O=C(OCCOC(=O)c1ccc(-c2c3nc(c(-c4ccc(S(=O)(=O)[O-])cc4)c4ccc([nH]4)c(-c4ccc(S(=O)(=O)[O-])cc4)c4nc(c(-c5ccc(S(=O)(=O)[O-])cc5)c5ccc2[nH]5)C=C4)C=C3)cc1)C1=Cc2ccc(Cl)c(Cl)c2O[C@@H]1C(F)(F)F
REMARK SMILES IDX 5 1 4 2 3 3 2 4 1 5 69 6 70 7 80 8 71 9 79 10 72 11 78 12
REMARK SMILES IDX 73 13 76 14 74 15 77 16 75 17 81 18 82 19 83 20 84 21 6 22
REMARK SMILES IDX 7 23 8 24 9 25 10 26 68 27 11 28 67 29 12 30 13 31 14 32
REMARK SMILES IDX 61 33 15 34 66 35 60 36 62 37 16 38 65 39 59 40 58 41 17 43
REMARK SMILES IDX 47 44 28 45 46 46 29 47 32 48 45 49 63 50 30 51 31 52 44 54
REMARK SMILES IDX 64 55 33 56 18 57 19 58 27 59 20 60 26 61 21 62 22 63 23 64
REMARK SMILES IDX 24 65 25 66 48 67 49 68 57 69 50 70 56 71 51 72 52 73 53 74
REMARK SMILES IDX 54 75 55 76 34 77 35 78 43 79 36 80 42 81 37 82 38 83 39 84
REMARK SMILES IDX 40 85 41 86
REMARK H PARENT 62 42 32 53
REMARK Flexibility Score: inf
ROOT
ATOM      1  C   UNL A   1      32.327  30.365  26.737  1.00  0.00     0.275 C 
ENDROOT
BRANCH   1   2
ATOM      2  C   UNL A   1      31.739  29.390  24.879  1.00  0.00     0.275 C 
BRANCH   2   3
ATOM      3  O   UNL A   1      32.543  28.303  24.120  1.00  0.00    -0.459 OA
BRANCH   3   4
ATOM      4  C   UNL A   1      33.150  27.426  24.928  1.00  0.00     0.338 C 
ATOM      5  O   UNL A   1      34.065  27.572  25.692  1.00  0.00    -0.246 OA
BRANCH   4   6
ATOM      6  C   UNL A   1      32.560  26.259  24.319  1.00  0.00     0.087 C 
ATOM      7  C   UNL A   1      33.514  25.590  23.410  1.00  0.00     0.027 C 
ATOM      8  C   UNL A   1      31.858  25.502  25.952  1.00  0.00     0.316 C 
ATOM      9  C   UNL A   1      34.312  24.010  23.800  1.00  0.00     0.019 A 
ATOM     10  O   UNL A   1      32.721  23.840  26.400  1.00  0.00    -0.474 OA
ATOM     11  C   UNL A   1      35.366  23.623  23.021  1.00  0.00     0.013 A 
ATOM     12  C   UNL A   1      34.009  23.160  25.294  1.00  0.00     0.148 A 
ATOM     13  C   UNL A   1      36.123  22.565  23.548  1.00  0.00     0.023 A 
ATOM     14  C   UNL A   1      34.802  22.126  25.721  1.00  0.00     0.102 A 
ATOM     15  C   UNL A   1      35.869  21.863  24.813  1.00  0.00     0.063 A 
ATOM     16  Cl  UNL A   1      34.588  21.320  27.205  1.00  0.00    -0.079 Cl
ATOM     17  Cl  UNL A   1      37.071  20.654  25.188  1.00  0.00    -0.083 Cl
BRANCH   8  18
ATOM     18  C   UNL A   1      30.355  25.914  25.769  1.00  0.00     0.430 C 
ATOM     19  F   UNL A   1      29.526  25.106  26.438  1.00  0.00    -0.167 F 
ATOM     20  F   UNL A   1      30.184  27.137  26.357  1.00  0.00    -0.167 F 
ATOM     21  F   UNL A   1      29.932  26.125  24.512  1.00  0.00    -0.167 F 
ENDBRANCH   8  18
ENDBRANCH   4   6
ENDBRANCH   3   4
ENDBRANCH   2   3
ENDBRANCH   1   2
BRANCH   1  22
ATOM     22  O   UNL A   1      33.896  30.436  27.364  1.00  0.00    -0.458 OA
BRANCH  22  23
ATOM     23  C   UNL A   1      34.681  31.054  28.298  1.00  0.00     0.338 C 
ATOM     24  O   UNL A   1      34.405  31.923  29.101  1.00  0.00    -0.246 OA
BRANCH  23  25
ATOM     25  C   UNL A   1      35.891  30.183  28.390  1.00  0.00     0.060 A 
ATOM     26  C   UNL A   1      36.845  30.236  27.359  1.00  0.00     0.016 A 
ATOM     27  C   UNL A   1      36.231  29.640  29.631  1.00  0.00     0.016 A 
ATOM     28  C   UNL A   1      38.186  29.917  27.639  1.00  0.00     0.010 A 
ATOM     29  C   UNL A   1      37.564  29.325  29.905  1.00  0.00     0.010 A 
ATOM     30  C   UNL A   1      38.560  29.501  28.926  1.00  0.00    -0.014 A 
BRANCH  30  31
ATOM     31  C   UNL A   1      39.903  28.912  29.161  1.00  0.00     0.031 A 
ATOM     32  C   UNL A   1      40.872  29.829  29.851  1.00  0.00     0.074 A 
ATOM     33  C   UNL A   1      40.280  27.678  28.764  1.00  0.00     0.049 A 
ATOM     34  N   UNL A   1      42.108  29.624  30.211  1.00  0.00    -0.248 NA
ATOM     35  C   UNL A   1      40.368  31.183  30.153  1.00  0.00     0.031 C 
ATOM     36  C   UNL A   1      39.445  26.699  28.066  1.00  0.00     0.029 A 
ATOM     37  N   UNL A   1      41.493  27.036  28.895  1.00  0.00    -0.354 N 
ATOM     38  C   UNL A   1      42.517  30.819  30.789  1.00  0.00     0.074 A 
ATOM     39  C   UNL A   1      41.437  31.765  30.658  1.00  0.00     0.031 C 
ATOM     40  C   UNL A   1      40.169  25.581  27.838  1.00  0.00     0.029 A 
ATOM     41  C   UNL A   1      41.521  25.762  28.366  1.00  0.00     0.049 A 
ATOM     42  H   UNL A   1      42.273  27.452  29.328  1.00  0.00     0.167 HD
ATOM     43  C   UNL A   1      43.680  31.104  31.411  1.00  0.00     0.031 A 
ATOM     44  C   UNL A   1      42.522  24.854  28.336  1.00  0.00     0.031 A 
ATOM     45  C   UNL A   1      44.767  30.179  31.505  1.00  0.00     0.049 A 
ATOM     46  C   UNL A   1      43.843  25.212  28.990  1.00  0.00     0.074 A 
ATOM     47  C   UNL A   1      45.997  30.352  32.105  1.00  0.00     0.029 A 
ATOM     48  N   UNL A   1      44.750  28.903  30.961  1.00  0.00    -0.354 N 
ATOM     49  N   UNL A   1      44.189  26.320  29.608  1.00  0.00    -0.248 NA
ATOM     50  C   UNL A   1      44.900  24.188  28.969  1.00  0.00     0.031 C 
ATOM     51  C   UNL A   1      46.746  29.194  31.881  1.00  0.00     0.029 A 
ATOM     52  C   UNL A   1      45.955  28.277  31.204  1.00  0.00     0.049 A 
ATOM     53  H   UNL A   1      43.991  28.504  30.477  1.00  0.00     0.167 HD
ATOM     54  C   UNL A   1      45.476  26.101  30.097  1.00  0.00     0.074 A 
ATOM     55  C   UNL A   1      45.847  24.758  29.702  1.00  0.00     0.031 C 
ATOM     56  C   UNL A   1      46.278  26.927  30.815  1.00  0.00     0.031 A 
BRANCH  43  57
ATOM     57  C   UNL A   1      43.801  32.482  31.995  1.00  0.00    -0.014 A 
ATOM     58  C   UNL A   1      44.409  33.523  31.264  1.00  0.00     0.010 A 
ATOM     59  C   UNL A   1      43.381  32.720  33.313  1.00  0.00     0.010 A 
ATOM     60  C   UNL A   1      44.653  34.757  31.865  1.00  0.00     0.020 A 
ATOM     61  C   UNL A   1      43.591  33.967  33.905  1.00  0.00     0.020 A 
ATOM     62  C   UNL A   1      44.246  34.970  33.185  1.00  0.00     0.054 A 
BRANCH  62  63
ATOM     63  S   UNL A   1      44.575  36.582  33.944  1.00  0.00     0.124 S 
ATOM     64  O   UNL A   1      45.482  37.192  32.973  1.00  0.00    -0.237 OA
ATOM     65  O   UNL A   1      43.244  37.177  34.018  1.00  0.00    -0.237 OA
ATOM     66  O   UNL A   1      45.177  36.243  35.230  1.00  0.00    -0.744 OA
ENDBRANCH  62  63
ENDBRANCH  43  57
BRANCH  44  67
ATOM     67  C   UNL A   1      42.341  23.500  27.717  1.00  0.00    -0.014 A 
ATOM     68  C   UNL A   1      41.782  22.440  28.460  1.00  0.00     0.010 A 
ATOM     69  C   UNL A   1      42.783  23.237  26.408  1.00  0.00     0.010 A 
ATOM     70  C   UNL A   1      41.702  21.146  27.924  1.00  0.00     0.020 A 
ATOM     71  C   UNL A   1      42.680  21.950  25.857  1.00  0.00     0.020 A 
ATOM     72  C   UNL A   1      42.152  20.909  26.624  1.00  0.00     0.054 A 
BRANCH  72  73
ATOM     73  S   UNL A   1      42.015  19.230  25.940  1.00  0.00     0.124 S 
ATOM     74  O   UNL A   1      40.581  19.116  25.690  1.00  0.00    -0.237 OA
ATOM     75  O   UNL A   1      42.860  19.304  24.751  1.00  0.00    -0.237 OA
ATOM     76  O   UNL A   1      42.530  18.380  27.012  1.00  0.00    -0.744 OA
ENDBRANCH  72  73
ENDBRANCH  44  67
BRANCH  56  77
ATOM     77  C   UNL A   1      47.597  26.384  31.298  1.00  0.00    -0.014 A 
ATOM     78  C   UNL A   1      47.726  25.750  32.545  1.00  0.00     0.010 A 
ATOM     79  C   UNL A   1      48.709  26.436  30.435  1.00  0.00     0.010 A 
ATOM     80  C   UNL A   1      48.956  25.213  32.936  1.00  0.00     0.020 A 
ATOM     81  C   UNL A   1      49.928  25.870  30.807  1.00  0.00     0.020 A 
ATOM     82  C   UNL A   1      50.048  25.276  32.064  1.00  0.00     0.054 A 
BRANCH  82  83
ATOM     83  S   UNL A   1      51.622  24.536  32.577  1.00  0.00     0.124 S 
ATOM     84  O   UNL A   1      51.402  23.123  32.280  1.00  0.00    -0.237 OA
ATOM     85  O   UNL A   1      52.591  25.215  31.720  1.00  0.00    -0.237 OA
ATOM     86  O   UNL A   1      51.716  24.868  33.996  1.00  0.00    -0.744 OA
ENDBRANCH  82  83
ENDBRANCH  56  77
ENDBRANCH  30  31
ENDBRANCH  23  25
ENDBRANCH  22  23
ENDBRANCH   1  22
TORSDOF 15
ENDMDL
