MODEL 1
REMARK VINA RESULT:     -10.5      0.000      0.000
REMARK SMILES CC[C@@](C)(NC(=O)c1c(C)cc(C)[nH]c1=O)C(=O)OCCOC(=O)c1ccc(-c2c3nc(c(-c4ccc(S(=O)(=O)[O-])cc4)c4ccc([nH]4)c(-c4ccc(S(=O)(=O)[O-])cc4)c4nc(c(-c5ccc(S(=O)(=O)[O-])cc5)c5ccc2[nH]5)C=C4)C=C3)cc1
REMARK SMILES IDX 21 1 20 2 19 3 17 4 18 5 3 6 4 7 2 8 1 9 5 10 6 11 7 13 8 14
REMARK SMILES IDX 9 15 15 16 10 17 11 18 14 19 16 20 12 21 13 23 22 24 23 25
REMARK SMILES IDX 24 26 25 27 26 28 84 29 27 30 83 31 28 32 29 33 30 34 77 35
REMARK SMILES IDX 31 36 82 37 76 38 78 39 32 40 81 41 75 42 74 43 33 45 63 46
REMARK SMILES IDX 44 47 62 48 45 49 48 50 61 51 79 52 46 53 47 54 60 56 80 57
REMARK SMILES IDX 49 58 34 59 35 60 43 61 36 62 42 63 37 64 38 65 39 66 40 67
REMARK SMILES IDX 41 68 64 69 65 70 73 71 66 72 72 73 67 74 68 75 69 76 70 77
REMARK SMILES IDX 71 78 50 79 51 80 59 81 52 82 58 83 53 84 54 85 55 86 56 87
REMARK SMILES IDX 57 88
REMARK H PARENT 5 12 14 22 78 44 48 55
REMARK Flexibility Score: inf
ROOT
ATOM      1  C   UNL A   1      32.657  29.987  26.185  1.00  0.00     0.275 C 
ENDROOT
BRANCH   1   2
ATOM      2  C   UNL A   1      32.231  28.766  25.386  1.00  0.00     0.274 C 
BRANCH   2   3
ATOM      3  O   UNL A   1      32.902  27.587  25.886  1.00  0.00    -0.460 OA
BRANCH   3   4
ATOM      4  C   UNL A   1      32.104  26.602  26.360  1.00  0.00     0.331 C 
ATOM      5  O   UNL A   1      31.288  26.788  27.258  1.00  0.00    -0.249 OA
BRANCH   4   6
ATOM      6  C   UNL A   1      32.400  25.188  25.774  1.00  0.00     0.135 C 
ATOM      7  C   UNL A   1      31.451  24.241  26.532  1.00  0.00     0.047 C 
BRANCH   6   8
ATOM      8  C   UNL A   1      32.026  25.189  24.244  1.00  0.00     0.037 C 
ATOM      9  C   UNL A   1      30.562  25.252  23.823  1.00  0.00     0.007 C 
ENDBRANCH   6   8
BRANCH   6  10
ATOM     10  N   UNL A   1      33.779  24.577  25.780  1.00  0.00    -0.336 N 
ATOM     11  C   UNL A   1      34.375  23.545  25.116  1.00  0.00     0.258 C 
ATOM     12  H   UNL A   1      34.390  25.026  26.408  1.00  0.00     0.165 HD
ATOM     13  O   UNL A   1      35.498  23.733  24.644  1.00  0.00    -0.269 OA
BRANCH  11  14
ATOM     14  C   UNL A   1      33.852  22.176  25.239  1.00  0.00     0.107 A 
ATOM     15  C   UNL A   1      33.253  21.591  24.175  1.00  0.00    -0.031 A 
ATOM     16  C   UNL A   1      33.845  21.472  26.549  1.00  0.00     0.261 A 
ATOM     17  C   UNL A   1      33.041  22.212  22.818  1.00  0.00     0.045 C 
ATOM     18  C   UNL A   1      32.787  20.213  24.279  1.00  0.00     0.025 A 
ATOM     19  N   UNL A   1      33.356  20.183  26.549  1.00  0.00    -0.326 N 
ATOM     20  O   UNL A   1      34.282  21.981  27.578  1.00  0.00    -0.269 OA
ATOM     21  C   UNL A   1      32.873  19.538  25.435  1.00  0.00     0.015 A 
ATOM     22  H   UNL A   1      33.353  19.691  27.402  1.00  0.00     0.169 HD
ATOM     23  C   UNL A   1      32.566  18.077  25.550  1.00  0.00     0.064 C 
ENDBRANCH  11  14
ENDBRANCH   6  10
ENDBRANCH   4   6
ENDBRANCH   3   4
ENDBRANCH   2   3
ENDBRANCH   1   2
BRANCH   1  24
ATOM     24  O   UNL A   1      33.705  29.597  27.076  1.00  0.00    -0.458 OA
BRANCH  24  25
ATOM     25  C   UNL A   1      34.361  30.615  27.676  1.00  0.00     0.338 C 
ATOM     26  O   UNL A   1      33.984  31.753  27.872  1.00  0.00    -0.246 OA
BRANCH  25  27
ATOM     27  C   UNL A   1      35.682  30.122  28.053  1.00  0.00     0.060 A 
ATOM     28  C   UNL A   1      36.719  30.154  27.122  1.00  0.00     0.016 A 
ATOM     29  C   UNL A   1      35.872  29.632  29.341  1.00  0.00     0.016 A 
ATOM     30  C   UNL A   1      37.971  29.681  27.479  1.00  0.00     0.010 A 
ATOM     31  C   UNL A   1      37.147  29.233  29.725  1.00  0.00     0.010 A 
ATOM     32  C   UNL A   1      38.200  29.264  28.797  1.00  0.00    -0.014 A 
BRANCH  32  33
ATOM     33  C   UNL A   1      39.575  28.936  29.221  1.00  0.00     0.031 A 
ATOM     34  C   UNL A   1      40.367  29.925  30.018  1.00  0.00     0.074 A 
ATOM     35  C   UNL A   1      40.075  27.734  28.875  1.00  0.00     0.049 A 
ATOM     36  N   UNL A   1      41.606  29.842  30.421  1.00  0.00    -0.248 NA
ATOM     37  C   UNL A   1      39.685  31.171  30.410  1.00  0.00     0.031 C 
ATOM     38  C   UNL A   1      39.350  26.707  28.117  1.00  0.00     0.029 A 
ATOM     39  N   UNL A   1      41.293  27.161  29.125  1.00  0.00    -0.354 N 
ATOM     40  C   UNL A   1      41.861  31.031  31.092  1.00  0.00     0.074 A 
ATOM     41  C   UNL A   1      40.655  31.824  31.034  1.00  0.00     0.031 C 
ATOM     42  C   UNL A   1      40.120  25.614  28.008  1.00  0.00     0.029 A 
ATOM     43  C   UNL A   1      41.413  25.888  28.618  1.00  0.00     0.049 A 
ATOM     44  H   UNL A   1      42.012  27.616  29.619  1.00  0.00     0.167 HD
ATOM     45  C   UNL A   1      43.010  31.414  31.695  1.00  0.00     0.031 A 
ATOM     46  C   UNL A   1      42.464  25.047  28.625  1.00  0.00     0.031 A 
ATOM     47  C   UNL A   1      44.193  30.599  31.733  1.00  0.00     0.049 A 
ATOM     48  C   UNL A   1      43.738  25.519  29.262  1.00  0.00     0.074 A 
ATOM     49  C   UNL A   1      45.418  30.884  32.304  1.00  0.00     0.029 A 
ATOM     50  N   UNL A   1      44.293  29.332  31.172  1.00  0.00    -0.354 N 
ATOM     51  N   UNL A   1      43.968  26.651  29.887  1.00  0.00    -0.248 NA
ATOM     52  C   UNL A   1      44.896  24.623  29.182  1.00  0.00     0.031 C 
ATOM     53  C   UNL A   1      46.274  29.807  32.051  1.00  0.00     0.029 A 
ATOM     54  C   UNL A   1      45.568  28.831  31.362  1.00  0.00     0.049 A 
ATOM     55  H   UNL A   1      43.564  28.859  30.708  1.00  0.00     0.167 HD
ATOM     56  C   UNL A   1      45.302  26.608  30.268  1.00  0.00     0.074 A 
ATOM     57  C   UNL A   1      45.817  25.323  29.832  1.00  0.00     0.031 C 
ATOM     58  C   UNL A   1      46.039  27.548  30.905  1.00  0.00     0.031 A 
BRANCH  45  59
ATOM     59  C   UNL A   1      43.050  32.781  32.322  1.00  0.00    -0.014 A 
ATOM     60  C   UNL A   1      42.729  32.968  33.678  1.00  0.00     0.010 A 
ATOM     61  C   UNL A   1      43.456  33.887  31.554  1.00  0.00     0.010 A 
ATOM     62  C   UNL A   1      42.791  34.244  34.248  1.00  0.00     0.020 A 
ATOM     63  C   UNL A   1      43.537  35.161  32.125  1.00  0.00     0.020 A 
ATOM     64  C   UNL A   1      43.193  35.332  33.467  1.00  0.00     0.054 A 
BRANCH  64  65
ATOM     65  S   UNL A   1      43.293  36.970  34.242  1.00  0.00     0.124 S 
ATOM     66  O   UNL A   1      43.423  37.846  33.079  1.00  0.00    -0.237 OA
ATOM     67  O   UNL A   1      42.025  37.063  34.959  1.00  0.00    -0.237 OA
ATOM     68  O   UNL A   1      44.480  36.882  35.089  1.00  0.00    -0.744 OA
ENDBRANCH  64  65
ENDBRANCH  45  59
BRANCH  46  69
ATOM     69  C   UNL A   1      42.357  23.714  27.971  1.00  0.00    -0.014 A 
ATOM     70  C   UNL A   1      42.739  23.537  26.630  1.00  0.00     0.010 A 
ATOM     71  C   UNL A   1      41.908  22.599  28.704  1.00  0.00     0.010 A 
ATOM     72  C   UNL A   1      42.666  22.273  26.034  1.00  0.00     0.020 A 
ATOM     73  C   UNL A   1      41.861  21.329  28.120  1.00  0.00     0.020 A 
ATOM     74  C   UNL A   1      42.231  21.176  26.784  1.00  0.00     0.054 A 
BRANCH  74  75
ATOM     75  S   UNL A   1      42.196  19.537  26.007  1.00  0.00     0.124 S 
ATOM     76  O   UNL A   1      43.106  19.716  24.880  1.00  0.00    -0.237 OA
ATOM     77  O   UNL A   1      42.678  18.668  27.078  1.00  0.00    -0.237 OA
ATOM     78  O   UNL A   1      40.790  19.355  25.653  1.00  0.00    -0.744 OA
ENDBRANCH  74  75
ENDBRANCH  46  69
BRANCH  58  79
ATOM     79  C   UNL A   1      47.483  27.227  31.158  1.00  0.00    -0.014 A 
ATOM     80  C   UNL A   1      47.866  26.553  32.331  1.00  0.00     0.010 A 
ATOM     81  C   UNL A   1      48.443  27.505  30.169  1.00  0.00     0.010 A 
ATOM     82  C   UNL A   1      49.192  26.161  32.510  1.00  0.00     0.020 A 
ATOM     83  C   UNL A   1      49.765  27.094  30.338  1.00  0.00     0.020 A 
ATOM     84  C   UNL A   1      50.132  26.427  31.509  1.00  0.00     0.054 A 
BRANCH  84  85
ATOM     85  S   UNL A   1      51.827  25.821  31.728  1.00  0.00     0.124 S 
ATOM     86  O   UNL A   1      52.227  26.482  32.966  1.00  0.00    -0.237 OA
ATOM     87  O   UNL A   1      51.640  24.375  31.818  1.00  0.00    -0.237 OA
ATOM     88  O   UNL A   1      52.517  26.281  30.524  1.00  0.00    -0.744 OA
ENDBRANCH  84  85
ENDBRANCH  58  79
ENDBRANCH  32  33
ENDBRANCH  25  27
ENDBRANCH  24  25
ENDBRANCH   1  24
TORSDOF 17
ENDMDL
MODEL 2
REMARK VINA RESULT:     -10.3      1.533      2.119
REMARK SMILES CC[C@@](C)(NC(=O)c1c(C)cc(C)[nH]c1=O)C(=O)OCCOC(=O)c1ccc(-c2c3nc(c(-c4ccc(S(=O)(=O)[O-])cc4)c4ccc([nH]4)c(-c4ccc(S(=O)(=O)[O-])cc4)c4nc(c(-c5ccc(S(=O)(=O)[O-])cc5)c5ccc2[nH]5)C=C4)C=C3)cc1
REMARK SMILES IDX 21 1 20 2 19 3 17 4 18 5 3 6 4 7 2 8 1 9 5 10 6 11 7 13 8 14
REMARK SMILES IDX 9 15 15 16 10 17 11 18 14 19 16 20 12 21 13 23 22 24 23 25
REMARK SMILES IDX 24 26 25 27 26 28 84 29 27 30 83 31 28 32 29 33 30 34 77 35
REMARK SMILES IDX 31 36 82 37 76 38 78 39 32 40 81 41 75 42 74 43 33 45 63 46
REMARK SMILES IDX 44 47 62 48 45 49 48 50 61 51 79 52 46 53 47 54 60 56 80 57
REMARK SMILES IDX 49 58 34 59 35 60 43 61 36 62 42 63 37 64 38 65 39 66 40 67
REMARK SMILES IDX 41 68 64 69 65 70 73 71 66 72 72 73 67 74 68 75 69 76 70 77
REMARK SMILES IDX 71 78 50 79 51 80 59 81 52 82 58 83 53 84 54 85 55 86 56 87
REMARK SMILES IDX 57 88
REMARK H PARENT 5 12 14 22 78 44 48 55
REMARK Flexibility Score: inf
ROOT
ATOM      1  C   UNL A   1      32.511  29.855  26.856  1.00  0.00     0.275 C 
ENDROOT
BRANCH   1   2
ATOM      2  C   UNL A   1      32.836  29.844  25.371  1.00  0.00     0.274 C 
BRANCH   2   3
ATOM      3  O   UNL A   1      31.961  28.922  24.679  1.00  0.00    -0.460 OA
BRANCH   3   4
ATOM      4  C   UNL A   1      32.368  27.632  24.638  1.00  0.00     0.331 C 
ATOM      5  O   UNL A   1      33.550  27.314  24.539  1.00  0.00    -0.249 OA
BRANCH   4   6
ATOM      6  C   UNL A   1      31.211  26.588  24.585  1.00  0.00     0.135 C 
ATOM      7  C   UNL A   1      30.842  26.334  26.059  1.00  0.00     0.047 C 
BRANCH   6   8
ATOM      8  C   UNL A   1      29.983  27.235  23.843  1.00  0.00     0.037 C 
ATOM      9  C   UNL A   1      28.635  26.523  23.846  1.00  0.00     0.007 C 
ENDBRANCH   6   8
BRANCH   6  10
ATOM     10  N   UNL A   1      31.351  25.252  23.898  1.00  0.00    -0.336 N 
ATOM     11  C   UNL A   1      31.842  24.033  24.262  1.00  0.00     0.258 C 
ATOM     12  H   UNL A   1      31.008  25.263  22.975  1.00  0.00     0.165 HD
ATOM     13  O   UNL A   1      31.175  23.034  23.984  1.00  0.00    -0.269 OA
BRANCH  11  14
ATOM     14  C   UNL A   1      33.248  23.885  24.668  1.00  0.00     0.107 A 
ATOM     15  C   UNL A   1      33.544  23.555  25.947  1.00  0.00    -0.031 A 
ATOM     16  C   UNL A   1      34.356  24.225  23.735  1.00  0.00     0.261 A 
ATOM     17  C   UNL A   1      32.553  23.320  27.059  1.00  0.00     0.045 C 
ATOM     18  C   UNL A   1      34.935  23.350  26.334  1.00  0.00     0.025 A 
ATOM     19  N   UNL A   1      35.636  24.026  24.206  1.00  0.00    -0.326 N 
ATOM     20  O   UNL A   1      34.160  24.626  22.590  1.00  0.00    -0.269 OA
ATOM     21  C   UNL A   1      35.934  23.557  25.464  1.00  0.00     0.015 A 
ATOM     22  H   UNL A   1      36.386  24.231  23.602  1.00  0.00     0.169 HD
ATOM     23  C   UNL A   1      37.358  23.203  25.759  1.00  0.00     0.064 C 
ENDBRANCH  11  14
ENDBRANCH   6  10
ENDBRANCH   4   6
ENDBRANCH   3   4
ENDBRANCH   2   3
ENDBRANCH   1   2
BRANCH   1  24
ATOM     24  O   UNL A   1      33.703  29.532  27.578  1.00  0.00    -0.458 OA
BRANCH  24  25
ATOM     25  C   UNL A   1      34.390  30.591  28.060  1.00  0.00     0.338 C 
ATOM     26  O   UNL A   1      34.006  31.729  28.240  1.00  0.00    -0.246 OA
BRANCH  25  27
ATOM     27  C   UNL A   1      35.753  30.142  28.325  1.00  0.00     0.060 A 
ATOM     28  C   UNL A   1      36.713  30.229  27.317  1.00  0.00     0.016 A 
ATOM     29  C   UNL A   1      36.061  29.641  29.586  1.00  0.00     0.016 A 
ATOM     30  C   UNL A   1      38.005  29.798  27.568  1.00  0.00     0.010 A 
ATOM     31  C   UNL A   1      37.376  29.285  29.862  1.00  0.00     0.010 A 
ATOM     32  C   UNL A   1      38.352  29.370  28.856  1.00  0.00    -0.014 A 
BRANCH  32  33
ATOM     33  C   UNL A   1      39.767  29.089  29.167  1.00  0.00     0.031 A 
ATOM     34  C   UNL A   1      40.597  30.119  29.864  1.00  0.00     0.074 A 
ATOM     35  C   UNL A   1      40.267  27.889  28.811  1.00  0.00     0.049 A 
ATOM     36  N   UNL A   1      41.869  30.079  30.159  1.00  0.00    -0.248 NA
ATOM     37  C   UNL A   1      39.919  31.359  30.280  1.00  0.00     0.031 C 
ATOM     38  C   UNL A   1      39.506  26.823  28.148  1.00  0.00     0.029 A 
ATOM     39  N   UNL A   1      41.516  27.354  28.969  1.00  0.00    -0.354 N 
ATOM     40  C   UNL A   1      42.150  31.292  30.773  1.00  0.00     0.074 A 
ATOM     41  C   UNL A   1      40.922  32.054  30.799  1.00  0.00     0.031 C 
ATOM     42  C   UNL A   1      40.293  25.746  28.001  1.00  0.00     0.029 A 
ATOM     43  C   UNL A   1      41.627  26.070  28.489  1.00  0.00     0.049 A 
ATOM     44  H   UNL A   1      42.263  27.841  29.385  1.00  0.00     0.167 HD
ATOM     45  C   UNL A   1      43.336  31.721  31.262  1.00  0.00     0.031 A 
ATOM     46  C   UNL A   1      42.696  25.255  28.426  1.00  0.00     0.031 A 
ATOM     47  C   UNL A   1      44.539  30.937  31.218  1.00  0.00     0.049 A 
ATOM     48  C   UNL A   1      44.008  25.777  28.936  1.00  0.00     0.074 A 
ATOM     49  C   UNL A   1      45.801  31.268  31.672  1.00  0.00     0.029 A 
ATOM     50  N   UNL A   1      44.624  29.657  30.686  1.00  0.00    -0.354 N 
ATOM     51  N   UNL A   1      44.260  26.932  29.507  1.00  0.00    -0.248 NA
ATOM     52  C   UNL A   1      45.178  24.907  28.779  1.00  0.00     0.031 C 
ATOM     53  C   UNL A   1      46.661  30.206  31.373  1.00  0.00     0.029 A 
ATOM     54  C   UNL A   1      45.924  29.193  30.776  1.00  0.00     0.049 A 
ATOM     55  H   UNL A   1      43.870  29.153  30.300  1.00  0.00     0.167 HD
ATOM     56  C   UNL A   1      45.623  26.932  29.770  1.00  0.00     0.074 A 
ATOM     57  C   UNL A   1      46.132  25.648  29.326  1.00  0.00     0.031 C 
ATOM     58  C   UNL A   1      46.387  27.908  30.315  1.00  0.00     0.031 A 
BRANCH  45  59
ATOM     59  C   UNL A   1      43.394  33.106  31.846  1.00  0.00    -0.014 A 
ATOM     60  C   UNL A   1      43.551  34.236  31.024  1.00  0.00     0.010 A 
ATOM     61  C   UNL A   1      43.246  33.283  33.233  1.00  0.00     0.010 A 
ATOM     62  C   UNL A   1      43.584  35.518  31.584  1.00  0.00     0.020 A 
ATOM     63  C   UNL A   1      43.259  34.563  33.795  1.00  0.00     0.020 A 
ATOM     64  C   UNL A   1      43.439  35.672  32.966  1.00  0.00     0.054 A 
BRANCH  64  65
ATOM     65  S   UNL A   1      43.455  37.349  33.661  1.00  0.00     0.124 S 
ATOM     66  O   UNL A   1      44.621  37.299  34.540  1.00  0.00    -0.237 OA
ATOM     67  O   UNL A   1      43.599  38.186  32.473  1.00  0.00    -0.237 OA
ATOM     68  O   UNL A   1      42.168  37.454  34.342  1.00  0.00    -0.744 OA
ENDBRANCH  64  65
ENDBRANCH  45  59
BRANCH  46  69
ATOM     69  C   UNL A   1      42.568  23.901  27.820  1.00  0.00    -0.014 A 
ATOM     70  C   UNL A   1      42.775  23.705  26.444  1.00  0.00     0.010 A 
ATOM     71  C   UNL A   1      42.278  22.787  28.630  1.00  0.00     0.010 A 
ATOM     72  C   UNL A   1      42.685  22.423  25.890  1.00  0.00     0.020 A 
ATOM     73  C   UNL A   1      42.216  21.501  28.085  1.00  0.00     0.020 A 
ATOM     74  C   UNL A   1      42.410  21.329  26.714  1.00  0.00     0.054 A 
BRANCH  74  75
ATOM     75  S   UNL A   1      42.352  19.669  25.983  1.00  0.00     0.124 S 
ATOM     76  O   UNL A   1      40.983  19.605  25.483  1.00  0.00    -0.237 OA
ATOM     77  O   UNL A   1      43.396  19.736  24.963  1.00  0.00    -0.237 OA
ATOM     78  O   UNL A   1      42.649  18.788  27.110  1.00  0.00    -0.744 OA
ENDBRANCH  74  75
ENDBRANCH  46  69
BRANCH  58  79
ATOM     79  C   UNL A   1      47.856  27.630  30.449  1.00  0.00    -0.014 A 
ATOM     80  C   UNL A   1      48.344  26.901  31.547  1.00  0.00     0.010 A 
ATOM     81  C   UNL A   1      48.734  28.007  29.417  1.00  0.00     0.010 A 
ATOM     82  C   UNL A   1      49.692  26.552  31.611  1.00  0.00     0.020 A 
ATOM     83  C   UNL A   1      50.079  27.640  29.470  1.00  0.00     0.020 A 
ATOM     84  C   UNL A   1      50.550  26.916  30.568  1.00  0.00     0.054 A 
BRANCH  84  85
ATOM     85  S   UNL A   1      52.276  26.366  30.633  1.00  0.00     0.124 S 
ATOM     86  O   UNL A   1      52.186  25.184  31.484  1.00  0.00    -0.237 OA
ATOM     87  O   UNL A   1      52.583  26.110  29.228  1.00  0.00    -0.237 OA
ATOM     88  O   UNL A   1      52.980  27.505  31.220  1.00  0.00    -0.744 OA
ENDBRANCH  84  85
ENDBRANCH  58  79
ENDBRANCH  32  33
ENDBRANCH  25  27
ENDBRANCH  24  25
ENDBRANCH   1  24
TORSDOF 17
ENDMDL
MODEL 3
REMARK VINA RESULT:     -10.3      3.778      4.944
REMARK SMILES CC[C@@](C)(NC(=O)c1c(C)cc(C)[nH]c1=O)C(=O)OCCOC(=O)c1ccc(-c2c3nc(c(-c4ccc(S(=O)(=O)[O-])cc4)c4ccc([nH]4)c(-c4ccc(S(=O)(=O)[O-])cc4)c4nc(c(-c5ccc(S(=O)(=O)[O-])cc5)c5ccc2[nH]5)C=C4)C=C3)cc1
REMARK SMILES IDX 21 1 20 2 19 3 17 4 18 5 3 6 4 7 2 8 1 9 5 10 6 11 7 13 8 14
REMARK SMILES IDX 9 15 15 16 10 17 11 18 14 19 16 20 12 21 13 23 22 24 23 25
REMARK SMILES IDX 24 26 25 27 26 28 84 29 27 30 83 31 28 32 29 33 30 34 77 35
REMARK SMILES IDX 31 36 82 37 76 38 78 39 32 40 81 41 75 42 74 43 33 45 63 46
REMARK SMILES IDX 44 47 62 48 45 49 48 50 61 51 79 52 46 53 47 54 60 56 80 57
REMARK SMILES IDX 49 58 34 59 35 60 43 61 36 62 42 63 37 64 38 65 39 66 40 67
REMARK SMILES IDX 41 68 64 69 65 70 73 71 66 72 72 73 67 74 68 75 69 76 70 77
REMARK SMILES IDX 71 78 50 79 51 80 59 81 52 82 58 83 53 84 54 85 55 86 56 87
REMARK SMILES IDX 57 88
REMARK H PARENT 5 12 14 22 78 44 48 55
REMARK Flexibility Score: inf
ROOT
ATOM      1  C   UNL A   1      35.060  31.543  29.174  1.00  0.00     0.275 C 
ENDROOT
BRANCH   1   2
ATOM      2  C   UNL A   1      34.177  31.859  27.977  1.00  0.00     0.274 C 
BRANCH   2   3
ATOM      3  O   UNL A   1      33.905  30.651  27.229  1.00  0.00    -0.460 OA
BRANCH   3   4
ATOM      4  C   UNL A   1      32.749  30.632  26.527  1.00  0.00     0.331 C 
ATOM      5  O   UNL A   1      31.856  31.457  26.703  1.00  0.00    -0.249 OA
BRANCH   4   6
ATOM      6  C   UNL A   1      32.583  29.404  25.581  1.00  0.00     0.135 C 
ATOM      7  C   UNL A   1      33.963  28.719  25.580  1.00  0.00     0.047 C 
BRANCH   6   8
ATOM      8  C   UNL A   1      31.516  28.429  26.206  1.00  0.00     0.037 C 
ATOM      9  C   UNL A   1      31.967  27.114  26.832  1.00  0.00     0.007 C 
ENDBRANCH   6   8
BRANCH   6  10
ATOM     10  N   UNL A   1      32.120  29.534  24.152  1.00  0.00    -0.336 N 
ATOM     11  C   UNL A   1      31.378  28.761  23.309  1.00  0.00     0.258 C 
ATOM     12  H   UNL A   1      32.424  30.371  23.730  1.00  0.00     0.165 HD
ATOM     13  O   UNL A   1      30.499  29.310  22.643  1.00  0.00    -0.269 OA
BRANCH  11  14
ATOM     14  C   UNL A   1      31.818  27.401  22.961  1.00  0.00     0.107 A 
ATOM     15  C   UNL A   1      31.024  26.345  23.259  1.00  0.00    -0.031 A 
ATOM     16  C   UNL A   1      33.178  27.151  22.414  1.00  0.00     0.261 A 
ATOM     17  C   UNL A   1      29.683  26.403  23.946  1.00  0.00     0.045 C 
ATOM     18  C   UNL A   1      31.433  25.003  22.861  1.00  0.00     0.025 A 
ATOM     19  N   UNL A   1      33.479  25.843  22.097  1.00  0.00    -0.326 N 
ATOM     20  O   UNL A   1      33.987  28.051  22.211  1.00  0.00    -0.269 OA
ATOM     21  C   UNL A   1      32.618  24.785  22.273  1.00  0.00     0.015 A 
ATOM     22  H   UNL A   1      34.369  25.653  21.721  1.00  0.00     0.169 HD
ATOM     23  C   UNL A   1      33.011  23.460  21.697  1.00  0.00     0.064 C 
ENDBRANCH  11  14
ENDBRANCH   6  10
ENDBRANCH   4   6
ENDBRANCH   3   4
ENDBRANCH   2   3
ENDBRANCH   1   2
BRANCH   1  24
ATOM     24  O   UNL A   1      35.982  30.519  28.794  1.00  0.00    -0.458 OA
BRANCH  24  25
ATOM     25  C   UNL A   1      36.555  29.850  29.819  1.00  0.00     0.338 C 
ATOM     26  O   UNL A   1      36.056  29.486  30.866  1.00  0.00    -0.246 OA
BRANCH  25  27
ATOM     27  C   UNL A   1      37.957  29.638  29.473  1.00  0.00     0.060 A 
ATOM     28  C   UNL A   1      38.883  29.381  30.483  1.00  0.00     0.016 A 
ATOM     29  C   UNL A   1      38.333  29.695  28.134  1.00  0.00     0.016 A 
ATOM     30  C   UNL A   1      40.214  29.185  30.153  1.00  0.00     0.010 A 
ATOM     31  C   UNL A   1      39.653  29.418  27.797  1.00  0.00     0.010 A 
ATOM     32  C   UNL A   1      40.594  29.155  28.805  1.00  0.00    -0.014 A 
BRANCH  32  33
ATOM     33  C   UNL A   1      41.972  28.764  28.451  1.00  0.00     0.031 A 
ATOM     34  C   UNL A   1      43.072  29.776  28.502  1.00  0.00     0.074 A 
ATOM     35  C   UNL A   1      42.195  27.484  28.095  1.00  0.00     0.049 A 
ATOM     36  N   UNL A   1      44.326  29.637  28.164  1.00  0.00    -0.248 NA
ATOM     37  C   UNL A   1      42.723  31.123  28.988  1.00  0.00     0.031 C 
ATOM     38  C   UNL A   1      41.172  26.433  28.047  1.00  0.00     0.029 A 
ATOM     39  N   UNL A   1      43.346  26.841  27.726  1.00  0.00    -0.354 N 
ATOM     40  C   UNL A   1      44.911  30.879  28.372  1.00  0.00     0.074 A 
ATOM     41  C   UNL A   1      43.876  31.764  28.855  1.00  0.00     0.031 C 
ATOM     42  C   UNL A   1      41.751  25.269  27.718  1.00  0.00     0.029 A 
ATOM     43  C   UNL A   1      43.165  25.504  27.460  1.00  0.00     0.049 A 
ATOM     44  H   UNL A   1      44.218  27.292  27.659  1.00  0.00     0.167 HD
ATOM     45  C   UNL A   1      46.200  31.234  28.170  1.00  0.00     0.031 A 
ATOM     46  C   UNL A   1      44.041  24.578  27.029  1.00  0.00     0.031 A 
ATOM     47  C   UNL A   1      47.204  30.326  27.687  1.00  0.00     0.049 A 
ATOM     48  C   UNL A   1      45.454  25.014  26.771  1.00  0.00     0.074 A 
ATOM     49  C   UNL A   1      48.539  30.573  27.433  1.00  0.00     0.029 A 
ATOM     50  N   UNL A   1      46.976  28.989  27.387  1.00  0.00    -0.354 N 
ATOM     51  N   UNL A   1      45.991  26.197  26.965  1.00  0.00    -0.248 NA
ATOM     52  C   UNL A   1      46.372  24.012  26.219  1.00  0.00     0.031 C 
ATOM     53  C   UNL A   1      49.110  29.396  26.936  1.00  0.00     0.029 A 
ATOM     54  C   UNL A   1      48.140  28.404  26.925  1.00  0.00     0.049 A 
ATOM     55  H   UNL A   1      46.112  28.526  27.487  1.00  0.00     0.167 HD
ATOM     56  C   UNL A   1      47.311  26.083  26.550  1.00  0.00     0.074 A 
ATOM     57  C   UNL A   1      47.497  24.708  26.127  1.00  0.00     0.031 C 
ATOM     58  C   UNL A   1      48.278  27.031  26.509  1.00  0.00     0.031 A 
BRANCH  45  59
ATOM     59  C   UNL A   1      46.582  32.665  28.431  1.00  0.00    -0.014 A 
ATOM     60  C   UNL A   1      47.336  33.022  29.563  1.00  0.00     0.010 A 
ATOM     61  C   UNL A   1      46.217  33.662  27.508  1.00  0.00     0.010 A 
ATOM     62  C   UNL A   1      47.698  34.356  29.778  1.00  0.00     0.020 A 
ATOM     63  C   UNL A   1      46.593  34.994  27.711  1.00  0.00     0.020 A 
ATOM     64  C   UNL A   1      47.322  35.333  28.851  1.00  0.00     0.054 A 
BRANCH  64  65
ATOM     65  S   UNL A   1      47.832  37.050  29.142  1.00  0.00     0.124 S 
ATOM     66  O   UNL A   1      46.892  37.472  30.179  1.00  0.00    -0.237 OA
ATOM     67  O   UNL A   1      49.219  36.904  29.575  1.00  0.00    -0.237 OA
ATOM     68  O   UNL A   1      47.651  37.691  27.842  1.00  0.00    -0.744 OA
ENDBRANCH  64  65
ENDBRANCH  45  59
BRANCH  46  69
ATOM     69  C   UNL A   1      43.589  23.182  26.777  1.00  0.00    -0.014 A 
ATOM     70  C   UNL A   1      43.803  22.570  25.531  1.00  0.00     0.010 A 
ATOM     71  C   UNL A   1      42.974  22.440  27.804  1.00  0.00     0.010 A 
ATOM     72  C   UNL A   1      43.404  21.246  25.314  1.00  0.00     0.020 A 
ATOM     73  C   UNL A   1      42.600  21.108  27.600  1.00  0.00     0.020 A 
ATOM     74  C   UNL A   1      42.809  20.522  26.351  1.00  0.00     0.054 A 
BRANCH  74  75
ATOM     75  S   UNL A   1      42.349  18.791  26.065  1.00  0.00     0.124 S 
ATOM     76  O   UNL A   1      43.314  18.385  25.049  1.00  0.00    -0.237 OA
ATOM     77  O   UNL A   1      42.532  18.192  27.386  1.00  0.00    -0.237 OA
ATOM     78  O   UNL A   1      40.962  18.874  25.615  1.00  0.00    -0.744 OA
ENDBRANCH  74  75
ENDBRANCH  46  69
BRANCH  58  79
ATOM     79  C   UNL A   1      49.617  26.616  25.975  1.00  0.00    -0.014 A 
ATOM     80  C   UNL A   1      50.002  26.966  24.669  1.00  0.00     0.010 A 
ATOM     81  C   UNL A   1      50.535  25.966  26.820  1.00  0.00     0.010 A 
ATOM     82  C   UNL A   1      51.288  26.674  24.216  1.00  0.00     0.020 A 
ATOM     83  C   UNL A   1      51.828  25.692  26.376  1.00  0.00     0.020 A 
ATOM     84  C   UNL A   1      52.196  26.046  25.075  1.00  0.00     0.054 A 
BRANCH  84  85
ATOM     85  S   UNL A   1      53.889  25.763  24.491  1.00  0.00     0.124 S 
ATOM     86  O   UNL A   1      53.740  25.911  23.047  1.00  0.00    -0.237 OA
ATOM     87  O   UNL A   1      54.638  26.825  25.158  1.00  0.00    -0.237 OA
ATOM     88  O   UNL A   1      54.193  24.410  24.952  1.00  0.00    -0.744 OA
ENDBRANCH  84  85
ENDBRANCH  58  79
ENDBRANCH  32  33
ENDBRANCH  25  27
ENDBRANCH  24  25
ENDBRANCH   1  24
TORSDOF 17
ENDMDL
