MODEL 1
REMARK VINA RESULT:     -10.8      0.000      0.000
REMARK SMILES CN1C(=O)/C(=C\c2cccc(Cl)c2)Sc2ccc(C(=O)OCCOC(=O)c3ccc(-c4c5nc(c(-c6ccc(S(=O)(=O)[O-])cc6)c6ccc([nH]6)c(-c6ccc(S(=O)(=O)[O-])cc6)c6nc(c(-c7ccc(S(=O)(=O)[O-])cc7)c7ccc4[nH]7)C=C6)C=C5)cc3)cc21
REMARK SMILES IDX 23 1 22 2 21 3 19 4 20 5 18 6 1 7 2 8 3 9 88 10 4 11 5 12
REMARK SMILES IDX 15 13 87 14 6 15 14 16 16 17 17 18 7 19 8 20 13 21 9 22
REMARK SMILES IDX 11 23 10 24 12 25 24 26 25 27 26 28 27 29 28 30 86 31 29 32
REMARK SMILES IDX 85 33 30 34 31 35 32 36 79 37 33 38 84 39 78 40 80 41 34 42
REMARK SMILES IDX 83 43 77 44 76 45 35 47 65 48 46 49 64 50 47 51 50 52 63 53
REMARK SMILES IDX 81 54 48 55 49 56 62 58 82 59 51 60 36 61 37 62 45 63 38 64
REMARK SMILES IDX 44 65 39 66 40 67 41 68 42 69 43 70 66 71 67 72 75 73 68 74
REMARK SMILES IDX 74 75 69 76 70 77 71 78 72 79 73 80 52 81 53 82 61 83 54 84
REMARK SMILES IDX 60 85 55 86 56 87 57 88 58 89 59 90
REMARK H PARENT 80 46 50 57
REMARK Flexibility Score: inf
ROOT
ATOM      1  C   UNL A   1      39.747  20.563  26.162  1.00  0.00     0.275 C 
ENDROOT
BRANCH   1   2
ATOM      2  C   UNL A   1      40.972  19.688  26.440  1.00  0.00     0.275 C 
BRANCH   2   3
ATOM      3  O   UNL A   1      41.861  19.626  25.302  1.00  0.00    -0.458 OA
BRANCH   3   4
ATOM      4  C   UNL A   1      43.142  19.270  25.573  1.00  0.00     0.338 C 
ATOM      5  O   UNL A   1      43.538  18.159  25.872  1.00  0.00    -0.246 OA
BRANCH   4   6
ATOM      6  C   UNL A   1      44.070  20.414  25.365  1.00  0.00     0.062 A 
ATOM      7  C   UNL A   1      43.505  23.793  27.942  1.00  0.00     0.153 C 
ATOM      8  N   UNL A   1      44.470  23.833  26.858  1.00  0.00    -0.310 N 
ATOM      9  C   UNL A   1      45.373  24.889  26.903  1.00  0.00     0.264 C 
ATOM     10  C   UNL A   1      44.641  22.726  25.964  1.00  0.00     0.058 A 
ATOM     11  O   UNL A   1      45.620  25.530  27.922  1.00  0.00    -0.268 OA
ATOM     12  C   UNL A   1      45.949  25.275  25.588  1.00  0.00     0.078 C 
ATOM     13  C   UNL A   1      45.728  22.661  25.072  1.00  0.00     0.036 A 
ATOM     14  C   UNL A   1      43.782  21.619  26.025  1.00  0.00     0.043 A 
ATOM     15  C   UNL A   1      45.762  26.515  25.098  1.00  0.00     0.029 C 
ATOM     16  S   UNL A   1      46.804  24.050  24.733  1.00  0.00    -0.082 SA
ATOM     17  C   UNL A   1      45.998  21.464  24.380  1.00  0.00     0.018 A 
ATOM     18  C   UNL A   1      45.194  20.332  24.549  1.00  0.00     0.017 A 
BRANCH  15  19
ATOM     19  C   UNL A   1      45.010  27.575  25.787  1.00  0.00    -0.023 A 
ATOM     20  C   UNL A   1      43.616  27.646  25.660  1.00  0.00     0.008 A 
ATOM     21  C   UNL A   1      45.678  28.554  26.530  1.00  0.00     0.028 A 
ATOM     22  C   UNL A   1      42.898  28.693  26.243  1.00  0.00     0.002 A 
ATOM     23  C   UNL A   1      44.953  29.592  27.123  1.00  0.00     0.041 A 
ATOM     24  C   UNL A   1      43.568  29.669  26.978  1.00  0.00     0.020 A 
ATOM     25  Cl  UNL A   1      45.778  30.793  28.038  1.00  0.00    -0.084 Cl
ENDBRANCH  15  19
ENDBRANCH   4   6
ENDBRANCH   3   4
ENDBRANCH   2   3
ENDBRANCH   1   2
BRANCH   1  26
ATOM     26  O   UNL A   1      40.016  21.943  26.469  1.00  0.00    -0.458 OA
BRANCH  26  27
ATOM     27  C   UNL A   1      39.054  22.818  26.099  1.00  0.00     0.338 C 
ATOM     28  O   UNL A   1      38.099  22.607  25.371  1.00  0.00    -0.246 OA
BRANCH  27  29
ATOM     29  C   UNL A   1      39.245  24.078  26.832  1.00  0.00     0.060 A 
ATOM     30  C   UNL A   1      38.815  24.251  28.143  1.00  0.00     0.016 A 
ATOM     31  C   UNL A   1      39.981  25.074  26.201  1.00  0.00     0.016 A 
ATOM     32  C   UNL A   1      39.129  25.445  28.810  1.00  0.00     0.010 A 
ATOM     33  C   UNL A   1      40.351  26.227  26.885  1.00  0.00     0.010 A 
ATOM     34  C   UNL A   1      39.925  26.437  28.197  1.00  0.00    -0.014 A 
BRANCH  34  35
ATOM     35  C   UNL A   1      40.366  27.657  28.933  1.00  0.00     0.031 A 
ATOM     36  C   UNL A   1      41.758  27.773  29.507  1.00  0.00     0.074 A 
ATOM     37  C   UNL A   1      39.478  28.650  29.148  1.00  0.00     0.049 A 
ATOM     38  N   UNL A   1      42.306  28.785  30.131  1.00  0.00    -0.248 NA
ATOM     39  C   UNL A   1      42.637  26.595  29.406  1.00  0.00     0.031 C 
ATOM     40  C   UNL A   1      38.067  28.616  28.758  1.00  0.00     0.029 A 
ATOM     41  N   UNL A   1      39.631  29.887  29.728  1.00  0.00    -0.354 N 
ATOM     42  C   UNL A   1      43.577  28.364  30.504  1.00  0.00     0.074 A 
ATOM     43  C   UNL A   1      43.697  26.981  30.101  1.00  0.00     0.031 C 
ATOM     44  C   UNL A   1      37.508  29.805  29.028  1.00  0.00     0.029 A 
ATOM     45  C   UNL A   1      38.506  30.675  29.644  1.00  0.00     0.049 A 
ATOM     46  H   UNL A   1      40.465  30.181  30.160  1.00  0.00     0.167 HD
ATOM     47  C   UNL A   1      44.572  29.075  31.089  1.00  0.00     0.031 A 
ATOM     48  C   UNL A   1      38.300  31.962  29.990  1.00  0.00     0.031 A 
ATOM     49  C   UNL A   1      44.464  30.466  31.442  1.00  0.00     0.049 A 
ATOM     50  C   UNL A   1      39.436  32.760  30.562  1.00  0.00     0.074 A 
ATOM     51  C   UNL A   1      45.447  31.300  31.948  1.00  0.00     0.029 A 
ATOM     52  N   UNL A   1      43.316  31.233  31.315  1.00  0.00    -0.354 N 
ATOM     53  N   UNL A   1      40.664  32.373  30.812  1.00  0.00    -0.248 NA
ATOM     54  C   UNL A   1      39.171  34.169  30.884  1.00  0.00     0.031 C 
ATOM     55  C   UNL A   1      44.881  32.557  32.171  1.00  0.00     0.029 A 
ATOM     56  C   UNL A   1      43.562  32.525  31.747  1.00  0.00     0.049 A 
ATOM     57  H   UNL A   1      42.454  30.907  30.969  1.00  0.00     0.167 HD
ATOM     58  C   UNL A   1      41.321  33.492  31.312  1.00  0.00     0.074 A 
ATOM     59  C   UNL A   1      40.362  34.577  31.307  1.00  0.00     0.031 C 
ATOM     60  C   UNL A   1      42.601  33.601  31.741  1.00  0.00     0.031 A 
BRANCH  47  61
ATOM     61  C   UNL A   1      45.896  28.390  31.333  1.00  0.00    -0.014 A 
ATOM     62  C   UNL A   1      46.881  28.372  30.328  1.00  0.00     0.010 A 
ATOM     63  C   UNL A   1      46.118  27.662  32.517  1.00  0.00     0.010 A 
ATOM     64  C   UNL A   1      48.051  27.622  30.492  1.00  0.00     0.020 A 
ATOM     65  C   UNL A   1      47.299  26.938  32.698  1.00  0.00     0.020 A 
ATOM     66  C   UNL A   1      48.249  26.903  31.675  1.00  0.00     0.054 A 
BRANCH  66  67
ATOM     67  S   UNL A   1      49.762  25.922  31.870  1.00  0.00     0.124 S 
ATOM     68  O   UNL A   1      50.780  26.955  32.036  1.00  0.00    -0.237 OA
ATOM     69  O   UNL A   1      49.476  25.119  33.056  1.00  0.00    -0.237 OA
ATOM     70  O   UNL A   1      49.840  25.164  30.623  1.00  0.00    -0.744 OA
ENDBRANCH  66  67
ENDBRANCH  47  61
BRANCH  48  71
ATOM     71  C   UNL A   1      36.980  32.584  29.691  1.00  0.00    -0.014 A 
ATOM     72  C   UNL A   1      36.772  33.295  28.496  1.00  0.00     0.010 A 
ATOM     73  C   UNL A   1      35.962  32.567  30.663  1.00  0.00     0.010 A 
ATOM     74  C   UNL A   1      35.597  34.028  28.304  1.00  0.00     0.020 A 
ATOM     75  C   UNL A   1      34.776  33.277  30.463  1.00  0.00     0.020 A 
ATOM     76  C   UNL A   1      34.615  34.031  29.298  1.00  0.00     0.054 A 
BRANCH  76  77
ATOM     77  S   UNL A   1      33.135  35.054  29.067  1.00  0.00     0.124 S 
ATOM     78  O   UNL A   1      33.710  36.306  28.579  1.00  0.00    -0.237 OA
ATOM     79  O   UNL A   1      32.367  34.290  28.087  1.00  0.00    -0.237 OA
ATOM     80  O   UNL A   1      32.548  35.115  30.403  1.00  0.00    -0.744 OA
ENDBRANCH  76  77
ENDBRANCH  48  71
BRANCH  60  81
ATOM     81  C   UNL A   1      43.068  34.935  32.262  1.00  0.00    -0.014 A 
ATOM     82  C   UNL A   1      42.803  35.297  33.595  1.00  0.00     0.010 A 
ATOM     83  C   UNL A   1      43.634  35.884  31.392  1.00  0.00     0.010 A 
ATOM     84  C   UNL A   1      43.057  36.596  34.040  1.00  0.00     0.020 A 
ATOM     85  C   UNL A   1      43.914  37.178  31.842  1.00  0.00     0.020 A 
ATOM     86  C   UNL A   1      43.598  37.533  33.156  1.00  0.00     0.054 A 
BRANCH  86  87
ATOM     87  S   UNL A   1      43.877  39.229  33.737  1.00  0.00     0.124 S 
ATOM     88  O   UNL A   1      45.078  39.612  33.001  1.00  0.00    -0.237 OA
ATOM     89  O   UNL A   1      42.648  39.912  33.337  1.00  0.00    -0.237 OA
ATOM     90  O   UNL A   1      44.051  39.073  35.179  1.00  0.00    -0.744 OA
ENDBRANCH  86  87
ENDBRANCH  60  81
ENDBRANCH  34  35
ENDBRANCH  27  29
ENDBRANCH  26  27
ENDBRANCH   1  26
TORSDOF 15
ENDMDL
MODEL 2
REMARK VINA RESULT:     -10.6      2.747     11.754
REMARK SMILES CN1C(=O)/C(=C\c2cccc(Cl)c2)Sc2ccc(C(=O)OCCOC(=O)c3ccc(-c4c5nc(c(-c6ccc(S(=O)(=O)[O-])cc6)c6ccc([nH]6)c(-c6ccc(S(=O)(=O)[O-])cc6)c6nc(c(-c7ccc(S(=O)(=O)[O-])cc7)c7ccc4[nH]7)C=C6)C=C5)cc3)cc21
REMARK SMILES IDX 23 1 22 2 21 3 19 4 20 5 18 6 1 7 2 8 3 9 88 10 4 11 5 12
REMARK SMILES IDX 15 13 87 14 6 15 14 16 16 17 17 18 7 19 8 20 13 21 9 22
REMARK SMILES IDX 11 23 10 24 12 25 24 26 25 27 26 28 27 29 28 30 86 31 29 32
REMARK SMILES IDX 85 33 30 34 31 35 32 36 79 37 33 38 84 39 78 40 80 41 34 42
REMARK SMILES IDX 83 43 77 44 76 45 35 47 65 48 46 49 64 50 47 51 50 52 63 53
REMARK SMILES IDX 81 54 48 55 49 56 62 58 82 59 51 60 36 61 37 62 45 63 38 64
REMARK SMILES IDX 44 65 39 66 40 67 41 68 42 69 43 70 66 71 67 72 75 73 68 74
REMARK SMILES IDX 74 75 69 76 70 77 71 78 72 79 73 80 52 81 53 82 61 83 54 84
REMARK SMILES IDX 60 85 55 86 56 87 57 88 58 89 59 90
REMARK H PARENT 80 46 50 57
REMARK Flexibility Score: inf
ROOT
ATOM      1  C   UNL A   1      32.674  31.851  27.495  1.00  0.00     0.275 C 
ENDROOT
BRANCH   1   2
ATOM      2  C   UNL A   1      32.439  33.362  27.573  1.00  0.00     0.275 C 
BRANCH   2   3
ATOM      3  O   UNL A   1      33.551  34.050  28.187  1.00  0.00    -0.458 OA
BRANCH   3   4
ATOM      4  C   UNL A   1      33.225  35.062  29.031  1.00  0.00     0.338 C 
ATOM      5  O   UNL A   1      32.453  35.975  28.803  1.00  0.00    -0.246 OA
BRANCH   4   6
ATOM      6  C   UNL A   1      33.867  34.878  30.360  1.00  0.00     0.062 A 
ATOM      7  C   UNL A   1      37.815  33.207  30.330  1.00  0.00     0.153 C 
ATOM      8  N   UNL A   1      37.118  33.457  31.579  1.00  0.00    -0.310 N 
ATOM      9  C   UNL A   1      37.908  33.401  32.722  1.00  0.00     0.264 C 
ATOM     10  C   UNL A   1      35.783  33.978  31.603  1.00  0.00     0.058 A 
ATOM     11  O   UNL A   1      39.131  33.510  32.710  1.00  0.00    -0.268 OA
ATOM     12  C   UNL A   1      37.172  33.083  33.975  1.00  0.00     0.078 C 
ATOM     13  C   UNL A   1      35.198  34.446  32.795  1.00  0.00     0.036 A 
ATOM     14  C   UNL A   1      35.056  34.133  30.415  1.00  0.00     0.043 A 
ATOM     15  C   UNL A   1      37.480  31.983  34.687  1.00  0.00     0.029 C 
ATOM     16  S   UNL A   1      35.901  34.158  34.414  1.00  0.00    -0.082 SA
ATOM     17  C   UNL A   1      33.985  35.163  32.746  1.00  0.00     0.018 A 
ATOM     18  C   UNL A   1      33.337  35.408  31.531  1.00  0.00     0.017 A 
BRANCH  15  19
ATOM     19  C   UNL A   1      38.537  31.027  34.323  1.00  0.00    -0.023 A 
ATOM     20  C   UNL A   1      39.859  31.250  34.732  1.00  0.00     0.008 A 
ATOM     21  C   UNL A   1      38.248  29.918  33.522  1.00  0.00     0.028 A 
ATOM     22  C   UNL A   1      40.885  30.394  34.326  1.00  0.00     0.002 A 
ATOM     23  C   UNL A   1      39.278  29.056  33.131  1.00  0.00     0.041 A 
ATOM     24  C   UNL A   1      40.594  29.292  33.525  1.00  0.00     0.020 A 
ATOM     25  Cl  UNL A   1      38.918  27.690  32.147  1.00  0.00    -0.084 Cl
ENDBRANCH  15  19
ENDBRANCH   4   6
ENDBRANCH   3   4
ENDBRANCH   2   3
ENDBRANCH   1   2
BRANCH   1  26
ATOM     26  O   UNL A   1      34.018  31.515  27.883  1.00  0.00    -0.458 OA
BRANCH  26  27
ATOM     27  C   UNL A   1      34.382  30.232  27.667  1.00  0.00     0.338 C 
ATOM     28  O   UNL A   1      33.747  29.368  27.087  1.00  0.00    -0.246 OA
BRANCH  27  29
ATOM     29  C   UNL A   1      35.767  30.042  28.124  1.00  0.00     0.060 A 
ATOM     30  C   UNL A   1      36.078  29.668  29.426  1.00  0.00     0.016 A 
ATOM     31  C   UNL A   1      36.771  30.142  27.166  1.00  0.00     0.016 A 
ATOM     32  C   UNL A   1      37.416  29.402  29.756  1.00  0.00     0.010 A 
ATOM     33  C   UNL A   1      38.085  29.812  27.477  1.00  0.00     0.010 A 
ATOM     34  C   UNL A   1      38.433  29.446  28.778  1.00  0.00    -0.014 A 
BRANCH  34  35
ATOM     35  C   UNL A   1      39.838  29.052  29.086  1.00  0.00     0.031 A 
ATOM     36  C   UNL A   1      40.767  29.969  29.844  1.00  0.00     0.074 A 
ATOM     37  C   UNL A   1      40.307  27.876  28.619  1.00  0.00     0.049 A 
ATOM     38  N   UNL A   1      42.000  29.752  30.230  1.00  0.00    -0.248 NA
ATOM     39  C   UNL A   1      40.271  31.315  30.181  1.00  0.00     0.031 C 
ATOM     40  C   UNL A   1      39.557  26.950  27.768  1.00  0.00     0.029 A 
ATOM     41  N   UNL A   1      41.515  27.249  28.806  1.00  0.00    -0.354 N 
ATOM     42  C   UNL A   1      42.426  30.928  30.837  1.00  0.00     0.074 A 
ATOM     43  C   UNL A   1      41.347  31.882  30.707  1.00  0.00     0.031 C 
ATOM     44  C   UNL A   1      40.284  25.839  27.580  1.00  0.00     0.029 A 
ATOM     45  C   UNL A   1      41.567  25.985  28.262  1.00  0.00     0.049 A 
ATOM     46  H   UNL A   1      42.271  27.662  29.282  1.00  0.00     0.167 HD
ATOM     47  C   UNL A   1      43.590  31.179  31.483  1.00  0.00     0.031 A 
ATOM     48  C   UNL A   1      42.520  25.033  28.329  1.00  0.00     0.031 A 
ATOM     49  C   UNL A   1      44.639  30.209  31.653  1.00  0.00     0.049 A 
ATOM     50  C   UNL A   1      43.770  25.297  29.117  1.00  0.00     0.074 A 
ATOM     51  C   UNL A   1      45.813  30.335  32.376  1.00  0.00     0.029 A 
ATOM     52  N   UNL A   1      44.639  28.933  31.111  1.00  0.00    -0.354 N 
ATOM     53  N   UNL A   1      44.110  26.381  29.773  1.00  0.00    -0.248 NA
ATOM     54  C   UNL A   1      44.758  24.211  29.192  1.00  0.00     0.031 C 
ATOM     55  C   UNL A   1      46.544  29.154  32.232  1.00  0.00     0.029 A 
ATOM     56  C   UNL A   1      45.799  28.268  31.471  1.00  0.00     0.049 A 
ATOM     57  H   UNL A   1      43.921  28.556  30.554  1.00  0.00     0.167 HD
ATOM     58  C   UNL A   1      45.347  26.105  30.346  1.00  0.00     0.074 A 
ATOM     59  C   UNL A   1      45.684  24.745  29.981  1.00  0.00     0.031 C 
ATOM     60  C   UNL A   1      46.130  26.913  31.101  1.00  0.00     0.031 A 
BRANCH  47  61
ATOM     61  C   UNL A   1      43.781  32.537  32.118  1.00  0.00    -0.014 A 
ATOM     62  C   UNL A   1      43.319  32.780  33.425  1.00  0.00     0.010 A 
ATOM     63  C   UNL A   1      44.311  33.607  31.374  1.00  0.00     0.010 A 
ATOM     64  C   UNL A   1      43.364  34.069  33.967  1.00  0.00     0.020 A 
ATOM     65  C   UNL A   1      44.388  34.889  31.923  1.00  0.00     0.020 A 
ATOM     66  C   UNL A   1      43.892  35.118  33.208  1.00  0.00     0.054 A 
BRANCH  66  67
ATOM     67  S   UNL A   1      43.931  36.788  33.915  1.00  0.00     0.124 S 
ATOM     68  O   UNL A   1      42.931  36.699  34.973  1.00  0.00    -0.237 OA
ATOM     69  O   UNL A   1      45.316  36.917  34.362  1.00  0.00    -0.237 OA
ATOM     70  O   UNL A   1      43.572  37.644  32.786  1.00  0.00    -0.744 OA
ENDBRANCH  66  67
ENDBRANCH  47  61
BRANCH  48  71
ATOM     71  C   UNL A   1      42.252  23.705  27.708  1.00  0.00    -0.014 A 
ATOM     72  C   UNL A   1      41.597  22.690  28.429  1.00  0.00     0.010 A 
ATOM     73  C   UNL A   1      42.763  23.415  26.429  1.00  0.00     0.010 A 
ATOM     74  C   UNL A   1      41.514  21.395  27.911  1.00  0.00     0.020 A 
ATOM     75  C   UNL A   1      42.657  22.127  25.897  1.00  0.00     0.020 A 
ATOM     76  C   UNL A   1      42.062  21.117  26.656  1.00  0.00     0.054 A 
BRANCH  76  77
ATOM     77  S   UNL A   1      42.017  19.412  26.036  1.00  0.00     0.124 S 
ATOM     78  O   UNL A   1      40.590  19.224  25.784  1.00  0.00    -0.237 OA
ATOM     79  O   UNL A   1      42.863  19.481  24.848  1.00  0.00    -0.237 OA
ATOM     80  O   UNL A   1      42.564  18.631  27.142  1.00  0.00    -0.744 OA
ENDBRANCH  76  77
ENDBRANCH  48  71
BRANCH  60  81
ATOM     81  C   UNL A   1      47.449  26.376  31.589  1.00  0.00    -0.014 A 
ATOM     82  C   UNL A   1      48.578  26.427  30.752  1.00  0.00     0.010 A 
ATOM     83  C   UNL A   1      47.532  25.689  32.813  1.00  0.00     0.010 A 
ATOM     84  C   UNL A   1      49.756  25.767  31.109  1.00  0.00     0.020 A 
ATOM     85  C   UNL A   1      48.719  25.050  33.187  1.00  0.00     0.020 A 
ATOM     86  C   UNL A   1      49.813  25.070  32.319  1.00  0.00     0.054 A 
BRANCH  86  87
ATOM     87  S   UNL A   1      51.334  24.178  32.746  1.00  0.00     0.124 S 
ATOM     88  O   UNL A   1      51.497  24.506  34.159  1.00  0.00    -0.237 OA
ATOM     89  O   UNL A   1      50.985  22.789  32.457  1.00  0.00    -0.237 OA
ATOM     90  O   UNL A   1      52.334  24.757  31.851  1.00  0.00    -0.744 OA
ENDBRANCH  86  87
ENDBRANCH  60  81
ENDBRANCH  34  35
ENDBRANCH  27  29
ENDBRANCH  26  27
ENDBRANCH   1  26
TORSDOF 15
ENDMDL
MODEL 3
REMARK VINA RESULT:     -10.2      2.759     10.896
REMARK SMILES CN1C(=O)/C(=C\c2cccc(Cl)c2)Sc2ccc(C(=O)OCCOC(=O)c3ccc(-c4c5nc(c(-c6ccc(S(=O)(=O)[O-])cc6)c6ccc([nH]6)c(-c6ccc(S(=O)(=O)[O-])cc6)c6nc(c(-c7ccc(S(=O)(=O)[O-])cc7)c7ccc4[nH]7)C=C6)C=C5)cc3)cc21
REMARK SMILES IDX 23 1 22 2 21 3 19 4 20 5 18 6 1 7 2 8 3 9 88 10 4 11 5 12
REMARK SMILES IDX 15 13 87 14 6 15 14 16 16 17 17 18 7 19 8 20 13 21 9 22
REMARK SMILES IDX 11 23 10 24 12 25 24 26 25 27 26 28 27 29 28 30 86 31 29 32
REMARK SMILES IDX 85 33 30 34 31 35 32 36 79 37 33 38 84 39 78 40 80 41 34 42
REMARK SMILES IDX 83 43 77 44 76 45 35 47 65 48 46 49 64 50 47 51 50 52 63 53
REMARK SMILES IDX 81 54 48 55 49 56 62 58 82 59 51 60 36 61 37 62 45 63 38 64
REMARK SMILES IDX 44 65 39 66 40 67 41 68 42 69 43 70 66 71 67 72 75 73 68 74
REMARK SMILES IDX 74 75 69 76 70 77 71 78 72 79 73 80 52 81 53 82 61 83 54 84
REMARK SMILES IDX 60 85 55 86 56 87 57 88 58 89 59 90
REMARK H PARENT 80 46 50 57
REMARK Flexibility Score: inf
ROOT
ATOM      1  C   UNL A   1      33.999  32.147  28.444  1.00  0.00     0.275 C 
ENDROOT
BRANCH   1   2
ATOM      2  C   UNL A   1      33.241  33.362  27.900  1.00  0.00     0.275 C 
BRANCH   2   3
ATOM      3  O   UNL A   1      33.899  34.603  28.236  1.00  0.00    -0.458 OA
BRANCH   3   4
ATOM      4  C   UNL A   1      33.327  35.323  29.235  1.00  0.00     0.338 C 
ATOM      5  O   UNL A   1      32.362  36.058  29.137  1.00  0.00    -0.246 OA
BRANCH   4   6
ATOM      6  C   UNL A   1      33.975  35.032  30.542  1.00  0.00     0.062 A 
ATOM      7  C   UNL A   1      37.917  33.359  30.361  1.00  0.00     0.153 C 
ATOM      8  N   UNL A   1      37.227  33.510  31.630  1.00  0.00    -0.310 N 
ATOM      9  C   UNL A   1      38.021  33.362  32.761  1.00  0.00     0.264 C 
ATOM     10  C   UNL A   1      35.894  34.031  31.701  1.00  0.00     0.058 A 
ATOM     11  O   UNL A   1      39.245  33.468  32.752  1.00  0.00    -0.268 OA
ATOM     12  C   UNL A   1      37.291  32.947  33.987  1.00  0.00     0.078 C 
ATOM     13  C   UNL A   1      35.315  34.404  32.929  1.00  0.00     0.036 A 
ATOM     14  C   UNL A   1      35.162  34.282  30.532  1.00  0.00     0.043 A 
ATOM     15  C   UNL A   1      37.598  31.793  34.608  1.00  0.00     0.029 C 
ATOM     16  S   UNL A   1      36.025  33.986  34.516  1.00  0.00    -0.082 SA
ATOM     17  C   UNL A   1      34.104  35.125  32.943  1.00  0.00     0.018 A 
ATOM     18  C   UNL A   1      33.451  35.469  31.755  1.00  0.00     0.017 A 
BRANCH  15  19
ATOM     19  C   UNL A   1      38.651  30.866  34.164  1.00  0.00    -0.023 A 
ATOM     20  C   UNL A   1      38.343  29.820  33.284  1.00  0.00     0.008 A 
ATOM     21  C   UNL A   1      39.956  30.984  34.655  1.00  0.00     0.028 A 
ATOM     22  C   UNL A   1      39.315  28.886  32.919  1.00  0.00     0.002 A 
ATOM     23  C   UNL A   1      40.928  30.055  34.273  1.00  0.00     0.041 A 
ATOM     24  C   UNL A   1      40.612  29.004  33.413  1.00  0.00     0.020 A 
ATOM     25  Cl  UNL A   1      42.533  30.205  34.877  1.00  0.00    -0.084 Cl
ENDBRANCH  15  19
ENDBRANCH   4   6
ENDBRANCH   3   4
ENDBRANCH   2   3
ENDBRANCH   1   2
BRANCH   1  26
ATOM     26  O   UNL A   1      34.489  31.322  27.372  1.00  0.00    -0.458 OA
BRANCH  26  27
ATOM     27  C   UNL A   1      34.679  30.020  27.683  1.00  0.00     0.338 C 
ATOM     28  O   UNL A   1      33.901  29.096  27.515  1.00  0.00    -0.246 OA
BRANCH  27  29
ATOM     29  C   UNL A   1      36.062  29.833  28.144  1.00  0.00     0.060 A 
ATOM     30  C   UNL A   1      36.368  29.348  29.410  1.00  0.00     0.016 A 
ATOM     31  C   UNL A   1      37.076  30.056  27.218  1.00  0.00     0.016 A 
ATOM     32  C   UNL A   1      37.709  29.097  29.737  1.00  0.00     0.010 A 
ATOM     33  C   UNL A   1      38.396  29.742  27.519  1.00  0.00     0.010 A 
ATOM     34  C   UNL A   1      38.738  29.265  28.786  1.00  0.00    -0.014 A 
BRANCH  34  35
ATOM     35  C   UNL A   1      40.151  28.890  29.080  1.00  0.00     0.031 A 
ATOM     36  C   UNL A   1      40.704  27.537  28.700  1.00  0.00     0.074 A 
ATOM     37  C   UNL A   1      40.931  29.755  29.760  1.00  0.00     0.049 A 
ATOM     38  N   UNL A   1      41.922  27.079  28.846  1.00  0.00    -0.248 NA
ATOM     39  C   UNL A   1      39.769  26.557  28.120  1.00  0.00     0.031 C 
ATOM     40  C   UNL A   1      40.489  31.044  30.296  1.00  0.00     0.029 A 
ATOM     41  N   UNL A   1      42.261  29.694  30.102  1.00  0.00    -0.354 N 
ATOM     42  C   UNL A   1      41.896  25.765  28.392  1.00  0.00     0.074 A 
ATOM     43  C   UNL A   1      40.527  25.473  28.031  1.00  0.00     0.031 C 
ATOM     44  C   UNL A   1      41.543  31.688  30.819  1.00  0.00     0.029 A 
ATOM     45  C   UNL A   1      42.729  30.847  30.692  1.00  0.00     0.049 A 
ATOM     46  H   UNL A   1      42.824  28.904  29.940  1.00  0.00     0.167 HD
ATOM     47  C   UNL A   1      42.924  24.895  28.245  1.00  0.00     0.031 A 
ATOM     48  C   UNL A   1      43.975  31.207  31.060  1.00  0.00     0.031 A 
ATOM     49  C   UNL A   1      44.293  25.209  28.559  1.00  0.00     0.049 A 
ATOM     50  C   UNL A   1      45.117  30.262  30.816  1.00  0.00     0.074 A 
ATOM     51  C   UNL A   1      45.419  24.430  28.353  1.00  0.00     0.029 A 
ATOM     52  N   UNL A   1      44.727  26.396  29.128  1.00  0.00    -0.354 N 
ATOM     53  N   UNL A   1      45.087  29.062  30.289  1.00  0.00    -0.248 NA
ATOM     54  C   UNL A   1      46.460  30.720  31.199  1.00  0.00     0.031 C 
ATOM     55  C   UNL A   1      46.527  25.126  28.841  1.00  0.00     0.029 A 
ATOM     56  C   UNL A   1      46.101  26.364  29.294  1.00  0.00     0.049 A 
ATOM     57  H   UNL A   1      44.145  27.150  29.376  1.00  0.00     0.167 HD
ATOM     58  C   UNL A   1      46.407  28.624  30.268  1.00  0.00     0.074 A 
ATOM     59  C   UNL A   1      47.213  29.696  30.812  1.00  0.00     0.031 C 
ATOM     60  C   UNL A   1      46.898  27.436  29.840  1.00  0.00     0.031 A 
BRANCH  47  61
ATOM     61  C   UNL A   1      42.633  23.532  27.662  1.00  0.00    -0.014 A 
ATOM     62  C   UNL A   1      42.259  22.466  28.502  1.00  0.00     0.010 A 
ATOM     63  C   UNL A   1      42.846  23.277  26.295  1.00  0.00     0.010 A 
ATOM     64  C   UNL A   1      42.126  21.170  27.991  1.00  0.00     0.020 A 
ATOM     65  C   UNL A   1      42.683  21.991  25.775  1.00  0.00     0.020 A 
ATOM     66  C   UNL A   1      42.347  20.940  26.631  1.00  0.00     0.054 A 
BRANCH  66  67
ATOM     67  S   UNL A   1      42.186  19.254  25.982  1.00  0.00     0.124 S 
ATOM     68  O   UNL A   1      43.024  19.300  24.789  1.00  0.00    -0.237 OA
ATOM     69  O   UNL A   1      42.692  18.435  27.081  1.00  0.00    -0.237 OA
ATOM     70  O   UNL A   1      40.751  19.121  25.732  1.00  0.00    -0.744 OA
ENDBRANCH  66  67
ENDBRANCH  47  61
BRANCH  48  71
ATOM     71  C   UNL A   1      44.196  32.578  31.598  1.00  0.00    -0.014 A 
ATOM     72  C   UNL A   1      44.026  32.853  32.967  1.00  0.00     0.010 A 
ATOM     73  C   UNL A   1      44.460  33.642  30.715  1.00  0.00     0.010 A 
ATOM     74  C   UNL A   1      44.054  34.170  33.434  1.00  0.00     0.020 A 
ATOM     75  C   UNL A   1      44.515  34.958  31.184  1.00  0.00     0.020 A 
ATOM     76  C   UNL A   1      44.278  35.216  32.535  1.00  0.00     0.054 A 
BRANCH  76  77
ATOM     77  S   UNL A   1      44.228  36.924  33.146  1.00  0.00     0.124 S 
ATOM     78  O   UNL A   1      42.940  36.958  33.835  1.00  0.00    -0.237 OA
ATOM     79  O   UNL A   1      45.406  36.990  34.009  1.00  0.00    -0.237 OA
ATOM     80  O   UNL A   1      44.308  37.726  31.928  1.00  0.00    -0.744 OA
ENDBRANCH  76  77
ENDBRANCH  48  71
BRANCH  60  81
ATOM     81  C   UNL A   1      48.381  27.198  29.943  1.00  0.00    -0.014 A 
ATOM     82  C   UNL A   1      48.923  26.664  31.126  1.00  0.00     0.010 A 
ATOM     83  C   UNL A   1      49.249  27.642  28.931  1.00  0.00     0.010 A 
ATOM     84  C   UNL A   1      50.306  26.614  31.314  1.00  0.00     0.020 A 
ATOM     85  C   UNL A   1      50.635  27.568  29.103  1.00  0.00     0.020 A 
ATOM     86  C   UNL A   1      51.153  27.080  30.305  1.00  0.00     0.054 A 
BRANCH  86  87
ATOM     87  S   UNL A   1      52.946  27.052  30.583  1.00  0.00     0.124 S 
ATOM     88  O   UNL A   1      53.074  26.080  31.664  1.00  0.00    -0.237 OA
ATOM     89  O   UNL A   1      53.466  26.625  29.286  1.00  0.00    -0.237 OA
ATOM     90  O   UNL A   1      53.258  28.434  30.944  1.00  0.00    -0.744 OA
ENDBRANCH  86  87
ENDBRANCH  60  81
ENDBRANCH  34  35
ENDBRANCH  27  29
ENDBRANCH  26  27
ENDBRANCH   1  26
TORSDOF 15
ENDMDL
