MODEL 1
REMARK VINA RESULT:     -11.4      0.000      0.000
REMARK SMILES C/C(=N\NC(N)=S)c1nnn(-c2ccc(C(=O)OCCOC(=O)c3ccc(-c4c5nc(c(-c6ccc(S(=O)(=O)[O-])cc6)c6ccc([nH]6)c(-c6ccc(S(=O)(=O)[O-])cc6)c6nc(c(-c7ccc(S(=O)(=O)[O-])cc7)c7ccc4[nH]7)C=C6)C=C5)cc3)cc2)c1C
REMARK SMILES IDX 19 1 18 2 16 3 17 4 15 5 12 6 13 7 85 8 14 9 84 10 11 11
REMARK SMILES IDX 8 12 9 13 86 14 10 15 87 16 2 17 1 18 3 19 4 20 5 22 7 23
REMARK SMILES IDX 6 24 20 27 21 28 22 29 23 30 24 31 25 32 83 33 26 34 82 35
REMARK SMILES IDX 27 36 28 37 29 38 76 39 30 40 81 41 75 42 77 43 31 44 80 45
REMARK SMILES IDX 74 46 73 47 32 49 62 50 43 51 61 52 44 53 47 54 60 55 78 56
REMARK SMILES IDX 45 57 46 58 59 60 79 61 48 62 33 63 34 64 42 65 35 66 41 67
REMARK SMILES IDX 36 68 37 69 38 70 39 71 40 72 63 73 64 74 72 75 65 76 71 77
REMARK SMILES IDX 66 78 67 79 68 80 69 81 70 82 49 83 50 84 58 85 51 86 57 87
REMARK SMILES IDX 52 88 53 89 54 90 55 91 56 92
REMARK H PARENT 4 21 6 25 6 26 77 48 47 59
REMARK Flexibility Score: inf
ROOT
ATOM      1  C   UNL A   1      42.700  18.498  26.342  1.00  0.00     0.275 C 
ENDROOT
BRANCH   1   2
ATOM      2  O   UNL A   1      41.599  19.223  25.778  1.00  0.00    -0.458 OA
BRANCH   2   3
ATOM      3  C   UNL A   1      41.268  20.383  26.399  1.00  0.00     0.338 C 
ATOM      4  O   UNL A   1      41.993  21.055  27.120  1.00  0.00    -0.246 OA
BRANCH   3   5
ATOM      5  C   UNL A   1      39.877  20.765  26.050  1.00  0.00     0.060 A 
ATOM      6  C   UNL A   1      37.401  21.527  25.071  1.00  0.00     0.067 A 
ATOM      7  C   UNL A   1      37.778  20.185  24.972  1.00  0.00     0.029 A 
ATOM      8  C   UNL A   1      38.175  22.447  25.786  1.00  0.00     0.029 A 
ATOM      9  C   UNL A   1      39.038  19.813  25.446  1.00  0.00     0.018 A 
ATOM     10  C   UNL A   1      39.413  22.064  26.281  1.00  0.00     0.018 A 
BRANCH   6  11
ATOM     11  N   UNL A   1      36.366  22.020  24.255  1.00  0.00    -0.217 N 
ATOM     12  C   UNL A   1      34.410  22.590  23.492  1.00  0.00     0.132 A 
ATOM     13  N   UNL A   1      35.373  23.239  22.766  1.00  0.00    -0.128 NA
ATOM     14  C   UNL A   1      35.009  21.843  24.485  1.00  0.00     0.071 A 
ATOM     15  N   UNL A   1      36.556  22.953  23.299  1.00  0.00    -0.061 NA
ATOM     16  C   UNL A   1      34.432  21.163  25.669  1.00  0.00     0.069 C 
BRANCH  12  17
ATOM     17  C   UNL A   1      32.997  22.879  23.358  1.00  0.00     0.087 C 
ATOM     18  C   UNL A   1      32.153  21.788  22.751  1.00  0.00     0.071 C 
ATOM     19  N   UNL A   1      32.615  24.047  23.783  1.00  0.00    -0.176 NA
BRANCH  19  20
ATOM     20  N   UNL A   1      31.303  24.419  23.751  1.00  0.00    -0.254 N 
ATOM     21  H   UNL A   1      30.675  23.759  23.378  1.00  0.00     0.193 HD
BRANCH  20  22
ATOM     22  C   UNL A   1      30.751  25.610  24.179  1.00  0.00     0.184 C 
ATOM     23  S   UNL A   1      31.499  27.005  24.689  1.00  0.00    -0.040 S 
BRANCH  22  24
ATOM     24  N   UNL A   1      29.383  25.579  24.156  1.00  0.00    -0.375 N 
ATOM     25  H   UNL A   1      28.873  25.786  24.972  1.00  0.00     0.159 HD
ATOM     26  H   UNL A   1      28.910  25.349  23.324  1.00  0.00     0.159 HD
ENDBRANCH  22  24
ENDBRANCH  20  22
ENDBRANCH  19  20
ENDBRANCH  12  17
ENDBRANCH   6  11
ENDBRANCH   3   5
ENDBRANCH   2   3
ENDBRANCH   1   2
BRANCH   1  27
ATOM     27  C   UNL A   1      43.870  18.453  25.370  1.00  0.00     0.275 C 
BRANCH  27  28
ATOM     28  O   UNL A   1      44.659  19.640  25.437  1.00  0.00    -0.458 OA
BRANCH  28  29
ATOM     29  C   UNL A   1      44.503  20.484  24.390  1.00  0.00     0.338 C 
ATOM     30  O   UNL A   1      44.539  20.204  23.204  1.00  0.00    -0.246 OA
BRANCH  29  31
ATOM     31  C   UNL A   1      44.530  21.864  24.880  1.00  0.00     0.060 A 
ATOM     32  C   UNL A   1      45.361  22.155  25.965  1.00  0.00     0.016 A 
ATOM     33  C   UNL A   1      43.543  22.760  24.442  1.00  0.00     0.016 A 
ATOM     34  C   UNL A   1      45.111  23.301  26.694  1.00  0.00     0.010 A 
ATOM     35  C   UNL A   1      43.284  23.889  25.181  1.00  0.00     0.010 A 
ATOM     36  C   UNL A   1      44.034  24.120  26.331  1.00  0.00    -0.014 A 
BRANCH  36  37
ATOM     37  C   UNL A   1      43.814  25.340  27.082  1.00  0.00     0.031 A 
ATOM     38  C   UNL A   1      44.856  26.359  26.815  1.00  0.00     0.074 A 
ATOM     39  C   UNL A   1      42.712  25.577  27.819  1.00  0.00     0.049 A 
ATOM     40  N   UNL A   1      45.774  26.771  27.622  1.00  0.00    -0.248 NA
ATOM     41  C   UNL A   1      45.017  26.828  25.426  1.00  0.00     0.031 C 
ATOM     42  C   UNL A   1      41.496  24.765  27.912  1.00  0.00     0.029 A 
ATOM     43  N   UNL A   1      42.402  26.674  28.560  1.00  0.00    -0.354 N 
ATOM     44  C   UNL A   1      46.482  27.735  26.914  1.00  0.00     0.074 A 
ATOM     45  C   UNL A   1      46.118  27.572  25.530  1.00  0.00     0.031 C 
ATOM     46  C   UNL A   1      40.507  25.509  28.461  1.00  0.00     0.029 A 
ATOM     47  C   UNL A   1      41.052  26.792  28.876  1.00  0.00     0.049 A 
ATOM     48  H   UNL A   1      43.077  27.331  28.849  1.00  0.00     0.167 HD
ATOM     49  C   UNL A   1      47.080  28.776  27.553  1.00  0.00     0.031 A 
ATOM     50  C   UNL A   1      40.430  27.893  29.373  1.00  0.00     0.031 A 
ATOM     51  C   UNL A   1      47.208  28.528  28.967  1.00  0.00     0.049 A 
ATOM     52  C   UNL A   1      41.481  28.760  29.964  1.00  0.00     0.074 A 
ATOM     53  C   UNL A   1      47.820  27.555  29.733  1.00  0.00     0.029 A 
ATOM     54  N   UNL A   1      46.297  29.148  29.789  1.00  0.00    -0.354 N 
ATOM     55  N   UNL A   1      42.167  28.437  31.022  1.00  0.00    -0.248 NA
ATOM     56  C   UNL A   1      42.082  29.778  29.116  1.00  0.00     0.031 C 
ATOM     57  C   UNL A   1      46.931  27.334  30.825  1.00  0.00     0.029 A 
ATOM     58  C   UNL A   1      45.867  28.230  30.710  1.00  0.00     0.049 A 
ATOM     59  H   UNL A   1      46.005  30.087  29.727  1.00  0.00     0.167 HD
ATOM     60  C   UNL A   1      43.460  28.863  30.748  1.00  0.00     0.074 A 
ATOM     61  C   UNL A   1      43.325  29.765  29.606  1.00  0.00     0.031 C 
ATOM     62  C   UNL A   1      44.540  28.228  31.290  1.00  0.00     0.031 A 
BRANCH  49  63
ATOM     63  C   UNL A   1      47.114  30.174  26.982  1.00  0.00    -0.014 A 
ATOM     64  C   UNL A   1      48.313  30.907  27.073  1.00  0.00     0.010 A 
ATOM     65  C   UNL A   1      45.950  30.891  26.634  1.00  0.00     0.010 A 
ATOM     66  C   UNL A   1      48.328  32.298  26.906  1.00  0.00     0.020 A 
ATOM     67  C   UNL A   1      45.962  32.270  26.419  1.00  0.00     0.020 A 
ATOM     68  C   UNL A   1      47.145  32.969  26.593  1.00  0.00     0.054 A 
BRANCH  68  69
ATOM     69  S   UNL A   1      47.156  34.773  26.471  1.00  0.00     0.124 S 
ATOM     70  O   UNL A   1      47.768  34.980  25.162  1.00  0.00    -0.237 OA
ATOM     71  O   UNL A   1      45.735  35.094  26.566  1.00  0.00    -0.237 OA
ATOM     72  O   UNL A   1      47.963  35.187  27.616  1.00  0.00    -0.744 OA
ENDBRANCH  68  69
ENDBRANCH  49  63
BRANCH  50  73
ATOM     73  C   UNL A   1      39.061  28.395  29.082  1.00  0.00    -0.014 A 
ATOM     74  C   UNL A   1      38.129  28.603  30.119  1.00  0.00     0.010 A 
ATOM     75  C   UNL A   1      38.763  28.952  27.821  1.00  0.00     0.010 A 
ATOM     76  C   UNL A   1      36.986  29.400  29.923  1.00  0.00     0.020 A 
ATOM     77  C   UNL A   1      37.622  29.739  27.615  1.00  0.00     0.020 A 
ATOM     78  C   UNL A   1      36.752  29.983  28.674  1.00  0.00     0.054 A 
BRANCH  78  79
ATOM     79  S   UNL A   1      35.386  31.169  28.477  1.00  0.00     0.124 S 
ATOM     80  O   UNL A   1      35.985  32.194  27.626  1.00  0.00    -0.237 OA
ATOM     81  O   UNL A   1      34.347  30.357  27.852  1.00  0.00    -0.237 OA
ATOM     82  O   UNL A   1      35.098  31.590  29.847  1.00  0.00    -0.744 OA
ENDBRANCH  78  79
ENDBRANCH  50  73
BRANCH  62  83
ATOM     83  C   UNL A   1      44.323  27.289  32.452  1.00  0.00    -0.014 A 
ATOM     84  C   UNL A   1      44.007  27.700  33.762  1.00  0.00     0.010 A 
ATOM     85  C   UNL A   1      44.301  25.913  32.158  1.00  0.00     0.010 A 
ATOM     86  C   UNL A   1      43.705  26.753  34.754  1.00  0.00     0.020 A 
ATOM     87  C   UNL A   1      43.981  24.969  33.133  1.00  0.00     0.020 A 
ATOM     88  C   UNL A   1      43.697  25.391  34.431  1.00  0.00     0.054 A 
BRANCH  88  89
ATOM     89  S   UNL A   1      43.276  24.167  35.704  1.00  0.00     0.124 S 
ATOM     90  O   UNL A   1      43.987  22.977  35.247  1.00  0.00    -0.237 OA
ATOM     91  O   UNL A   1      43.792  24.778  36.927  1.00  0.00    -0.237 OA
ATOM     92  O   UNL A   1      41.818  24.080  35.634  1.00  0.00    -0.744 OA
ENDBRANCH  88  89
ENDBRANCH  62  83
ENDBRANCH  36  37
ENDBRANCH  29  31
ENDBRANCH  28  29
ENDBRANCH  27  28
ENDBRANCH   1  27
TORSDOF 19
ENDMDL
MODEL 2
REMARK VINA RESULT:     -11.4      2.900      4.653
REMARK SMILES C/C(=N\NC(N)=S)c1nnn(-c2ccc(C(=O)OCCOC(=O)c3ccc(-c4c5nc(c(-c6ccc(S(=O)(=O)[O-])cc6)c6ccc([nH]6)c(-c6ccc(S(=O)(=O)[O-])cc6)c6nc(c(-c7ccc(S(=O)(=O)[O-])cc7)c7ccc4[nH]7)C=C6)C=C5)cc3)cc2)c1C
REMARK SMILES IDX 19 1 18 2 16 3 17 4 15 5 12 6 13 7 85 8 14 9 84 10 11 11
REMARK SMILES IDX 8 12 9 13 86 14 10 15 87 16 2 17 1 18 3 19 4 20 5 22 7 23
REMARK SMILES IDX 6 24 20 27 21 28 22 29 23 30 24 31 25 32 83 33 26 34 82 35
REMARK SMILES IDX 27 36 28 37 29 38 76 39 30 40 81 41 75 42 77 43 31 44 80 45
REMARK SMILES IDX 74 46 73 47 32 49 62 50 43 51 61 52 44 53 47 54 60 55 78 56
REMARK SMILES IDX 45 57 46 58 59 60 79 61 48 62 33 63 34 64 42 65 35 66 41 67
REMARK SMILES IDX 36 68 37 69 38 70 39 71 40 72 63 73 64 74 72 75 65 76 71 77
REMARK SMILES IDX 66 78 67 79 68 80 69 81 70 82 49 83 50 84 58 85 51 86 57 87
REMARK SMILES IDX 52 88 53 89 54 90 55 91 56 92
REMARK H PARENT 4 21 6 25 6 26 77 48 47 59
REMARK Flexibility Score: inf
ROOT
ATOM      1  C   UNL A   1      36.352  21.000  24.629  1.00  0.00     0.275 C 
ENDROOT
BRANCH   1   2
ATOM      2  O   UNL A   1      35.479  20.155  25.391  1.00  0.00    -0.458 OA
BRANCH   2   3
ATOM      3  C   UNL A   1      34.209  20.039  24.929  1.00  0.00     0.338 C 
ATOM      4  O   UNL A   1      33.757  19.113  24.269  1.00  0.00    -0.246 OA
BRANCH   3   5
ATOM      5  C   UNL A   1      33.399  21.201  25.374  1.00  0.00     0.060 A 
ATOM      6  C   UNL A   1      32.158  23.569  26.095  1.00  0.00     0.067 A 
ATOM      7  C   UNL A   1      32.017  23.110  24.783  1.00  0.00     0.029 A 
ATOM      8  C   UNL A   1      32.774  22.784  27.075  1.00  0.00     0.029 A 
ATOM      9  C   UNL A   1      32.666  21.928  24.420  1.00  0.00     0.018 A 
ATOM     10  C   UNL A   1      33.392  21.596  26.715  1.00  0.00     0.018 A 
BRANCH   6  11
ATOM     11  N   UNL A   1      31.895  24.919  26.392  1.00  0.00    -0.217 N 
ATOM     12  C   UNL A   1      32.039  27.085  26.532  1.00  0.00     0.132 A 
ATOM     13  N   UNL A   1      30.752  26.710  26.813  1.00  0.00    -0.128 NA
ATOM     14  C   UNL A   1      32.783  25.969  26.209  1.00  0.00     0.071 A 
ATOM     15  N   UNL A   1      30.657  25.396  26.636  1.00  0.00    -0.061 NA
ATOM     16  C   UNL A   1      34.131  25.843  25.604  1.00  0.00     0.069 C 
BRANCH  12  17
ATOM     17  C   UNL A   1      32.437  28.469  26.369  1.00  0.00     0.087 C 
ATOM     18  C   UNL A   1      31.716  29.242  25.296  1.00  0.00     0.071 C 
ATOM     19  N   UNL A   1      33.369  28.888  27.174  1.00  0.00    -0.176 NA
BRANCH  19  20
ATOM     20  N   UNL A   1      33.798  30.182  27.148  1.00  0.00    -0.254 N 
ATOM     21  H   UNL A   1      33.186  30.833  26.733  1.00  0.00     0.193 HD
BRANCH  20  22
ATOM     22  C   UNL A   1      34.986  30.690  27.634  1.00  0.00     0.184 C 
ATOM     23  S   UNL A   1      36.431  29.918  27.924  1.00  0.00    -0.040 S 
BRANCH  22  24
ATOM     24  N   UNL A   1      34.904  32.030  27.895  1.00  0.00    -0.375 N 
ATOM     25  H   UNL A   1      34.070  32.412  28.252  1.00  0.00     0.159 HD
ATOM     26  H   UNL A   1      35.678  32.613  27.722  1.00  0.00     0.159 HD
ENDBRANCH  22  24
ENDBRANCH  20  22
ENDBRANCH  19  20
ENDBRANCH  12  17
ENDBRANCH   6  11
ENDBRANCH   3   5
ENDBRANCH   2   3
ENDBRANCH   1   2
BRANCH   1  27
ATOM     27  C   UNL A   1      37.786  20.875  25.121  1.00  0.00     0.275 C 
BRANCH  27  28
ATOM     28  O   UNL A   1      38.202  22.038  25.836  1.00  0.00    -0.458 OA
BRANCH  28  29
ATOM     29  C   UNL A   1      39.422  21.940  26.416  1.00  0.00     0.338 C 
ATOM     30  O   UNL A   1      39.967  20.929  26.823  1.00  0.00    -0.246 OA
BRANCH  29  31
ATOM     31  C   UNL A   1      39.915  23.284  26.722  1.00  0.00     0.060 A 
ATOM     32  C   UNL A   1      41.114  23.394  27.430  1.00  0.00     0.016 A 
ATOM     33  C   UNL A   1      39.056  24.380  26.546  1.00  0.00     0.016 A 
ATOM     34  C   UNL A   1      41.388  24.583  28.077  1.00  0.00     0.010 A 
ATOM     35  C   UNL A   1      39.322  25.555  27.207  1.00  0.00     0.010 A 
ATOM     36  C   UNL A   1      40.457  25.627  28.010  1.00  0.00    -0.014 A 
BRANCH  36  37
ATOM     37  C   UNL A   1      40.782  26.882  28.659  1.00  0.00     0.031 A 
ATOM     38  C   UNL A   1      41.961  27.539  28.050  1.00  0.00     0.074 A 
ATOM     39  C   UNL A   1      40.014  27.456  29.605  1.00  0.00     0.049 A 
ATOM     40  N   UNL A   1      43.131  27.689  28.572  1.00  0.00    -0.248 NA
ATOM     41  C   UNL A   1      41.887  27.895  26.621  1.00  0.00     0.031 C 
ATOM     42  C   UNL A   1      38.686  27.041  30.064  1.00  0.00     0.029 A 
ATOM     43  N   UNL A   1      40.219  28.619  30.278  1.00  0.00    -0.354 N 
ATOM     44  C   UNL A   1      43.874  28.379  27.621  1.00  0.00     0.074 A 
ATOM     45  C   UNL A   1      43.139  28.285  26.386  1.00  0.00     0.031 C 
ATOM     46  C   UNL A   1      38.115  28.060  30.748  1.00  0.00     0.029 A 
ATOM     47  C   UNL A   1      39.081  29.139  30.887  1.00  0.00     0.049 A 
ATOM     48  H   UNL A   1      41.099  29.058  30.331  1.00  0.00     0.167 HD
ATOM     49  C   UNL A   1      44.879  29.218  27.989  1.00  0.00     0.031 A 
ATOM     50  C   UNL A   1      38.935  30.390  31.398  1.00  0.00     0.031 A 
ATOM     51  C   UNL A   1      45.288  28.990  29.351  1.00  0.00     0.049 A 
ATOM     52  C   UNL A   1      40.299  30.928  31.631  1.00  0.00     0.074 A 
ATOM     53  C   UNL A   1      45.781  27.906  30.051  1.00  0.00     0.029 A 
ATOM     54  N   UNL A   1      44.825  29.876  30.294  1.00  0.00    -0.354 N 
ATOM     55  N   UNL A   1      41.116  30.452  32.527  1.00  0.00    -0.248 NA
ATOM     56  C   UNL A   1      40.923  31.696  30.565  1.00  0.00     0.031 C 
ATOM     57  C   UNL A   1      45.175  27.991  31.338  1.00  0.00     0.029 A 
ATOM     58  C   UNL A   1      44.407  29.156  31.381  1.00  0.00     0.049 A 
ATOM     59  H   UNL A   1      44.799  30.857  30.204  1.00  0.00     0.167 HD
ATOM     60  C   UNL A   1      42.361  30.470  31.915  1.00  0.00     0.074 A 
ATOM     61  C   UNL A   1      42.196  31.334  30.748  1.00  0.00     0.031 C 
ATOM     62  C   UNL A   1      43.325  29.563  32.253  1.00  0.00     0.031 A 
BRANCH  49  63
ATOM     63  C   UNL A   1      45.151  30.525  27.283  1.00  0.00    -0.014 A 
ATOM     64  C   UNL A   1      46.481  30.836  26.937  1.00  0.00     0.010 A 
ATOM     65  C   UNL A   1      44.210  31.573  27.212  1.00  0.00     0.010 A 
ATOM     66  C   UNL A   1      46.861  32.147  26.621  1.00  0.00     0.020 A 
ATOM     67  C   UNL A   1      44.568  32.872  26.852  1.00  0.00     0.020 A 
ATOM     68  C   UNL A   1      45.899  33.158  26.595  1.00  0.00     0.054 A 
BRANCH  68  69
ATOM     69  S   UNL A   1      46.413  34.862  26.277  1.00  0.00     0.124 S 
ATOM     70  O   UNL A   1      45.130  35.530  26.087  1.00  0.00    -0.237 OA
ATOM     71  O   UNL A   1      47.131  35.199  27.503  1.00  0.00    -0.237 OA
ATOM     72  O   UNL A   1      47.248  34.749  25.082  1.00  0.00    -0.744 OA
ENDBRANCH  68  69
ENDBRANCH  49  63
BRANCH  50  73
ATOM     73  C   UNL A   1      37.731  31.263  31.384  1.00  0.00    -0.014 A 
ATOM     74  C   UNL A   1      36.705  31.098  32.336  1.00  0.00     0.010 A 
ATOM     75  C   UNL A   1      37.725  32.451  30.622  1.00  0.00     0.010 A 
ATOM     76  C   UNL A   1      35.758  32.112  32.569  1.00  0.00     0.020 A 
ATOM     77  C   UNL A   1      36.779  33.461  30.842  1.00  0.00     0.020 A 
ATOM     78  C   UNL A   1      35.816  33.299  31.835  1.00  0.00     0.054 A 
BRANCH  78  79
ATOM     79  S   UNL A   1      34.718  34.683  32.272  1.00  0.00     0.124 S 
ATOM     80  O   UNL A   1      35.604  35.552  33.043  1.00  0.00    -0.237 OA
ATOM     81  O   UNL A   1      34.311  35.192  30.966  1.00  0.00    -0.237 OA
ATOM     82  O   UNL A   1      33.653  34.044  33.043  1.00  0.00    -0.744 OA
ENDBRANCH  78  79
ENDBRANCH  50  73
BRANCH  62  83
ATOM     83  C   UNL A   1      43.160  28.768  33.526  1.00  0.00    -0.014 A 
ATOM     84  C   UNL A   1      43.497  29.238  34.810  1.00  0.00     0.010 A 
ATOM     85  C   UNL A   1      42.493  27.534  33.418  1.00  0.00     0.010 A 
ATOM     86  C   UNL A   1      43.199  28.475  35.951  1.00  0.00     0.020 A 
ATOM     87  C   UNL A   1      42.175  26.782  34.548  1.00  0.00     0.020 A 
ATOM     88  C   UNL A   1      42.541  27.248  35.810  1.00  0.00     0.054 A 
BRANCH  88  89
ATOM     89  S   UNL A   1      42.125  26.276  37.286  1.00  0.00     0.124 S 
ATOM     90  O   UNL A   1      42.259  24.902  36.807  1.00  0.00    -0.237 OA
ATOM     91  O   UNL A   1      43.132  26.706  38.253  1.00  0.00    -0.237 OA
ATOM     92  O   UNL A   1      40.759  26.689  37.602  1.00  0.00    -0.744 OA
ENDBRANCH  88  89
ENDBRANCH  62  83
ENDBRANCH  36  37
ENDBRANCH  29  31
ENDBRANCH  28  29
ENDBRANCH  27  28
ENDBRANCH   1  27
TORSDOF 19
ENDMDL
MODEL 3
REMARK VINA RESULT:     -11.2      0.991      1.672
REMARK SMILES C/C(=N\NC(N)=S)c1nnn(-c2ccc(C(=O)OCCOC(=O)c3ccc(-c4c5nc(c(-c6ccc(S(=O)(=O)[O-])cc6)c6ccc([nH]6)c(-c6ccc(S(=O)(=O)[O-])cc6)c6nc(c(-c7ccc(S(=O)(=O)[O-])cc7)c7ccc4[nH]7)C=C6)C=C5)cc3)cc2)c1C
REMARK SMILES IDX 19 1 18 2 16 3 17 4 15 5 12 6 13 7 85 8 14 9 84 10 11 11
REMARK SMILES IDX 8 12 9 13 86 14 10 15 87 16 2 17 1 18 3 19 4 20 5 22 7 23
REMARK SMILES IDX 6 24 20 27 21 28 22 29 23 30 24 31 25 32 83 33 26 34 82 35
REMARK SMILES IDX 27 36 28 37 29 38 76 39 30 40 81 41 75 42 77 43 31 44 80 45
REMARK SMILES IDX 74 46 73 47 32 49 62 50 43 51 61 52 44 53 47 54 60 55 78 56
REMARK SMILES IDX 45 57 46 58 59 60 79 61 48 62 33 63 34 64 42 65 35 66 41 67
REMARK SMILES IDX 36 68 37 69 38 70 39 71 40 72 63 73 64 74 72 75 65 76 71 77
REMARK SMILES IDX 66 78 67 79 68 80 69 81 70 82 49 83 50 84 58 85 51 86 57 87
REMARK SMILES IDX 52 88 53 89 54 90 55 91 56 92
REMARK H PARENT 4 21 6 25 6 26 77 48 47 59
REMARK Flexibility Score: inf
ROOT
ATOM      1  C   UNL A   1      42.941  18.407  26.190  1.00  0.00     0.275 C 
ENDROOT
BRANCH   1   2
ATOM      2  O   UNL A   1      41.604  18.854  25.929  1.00  0.00    -0.458 OA
BRANCH   2   3
ATOM      3  C   UNL A   1      41.171  19.905  26.669  1.00  0.00     0.338 C 
ATOM      4  O   UNL A   1      41.705  20.356  27.673  1.00  0.00    -0.246 OA
BRANCH   3   5
ATOM      5  C   UNL A   1      39.945  20.481  26.063  1.00  0.00     0.060 A 
ATOM      6  C   UNL A   1      37.505  21.506  25.245  1.00  0.00     0.067 A 
ATOM      7  C   UNL A   1      38.418  22.362  25.867  1.00  0.00     0.029 A 
ATOM      8  C   UNL A   1      37.860  20.199  24.894  1.00  0.00     0.029 A 
ATOM      9  C   UNL A   1      39.637  21.833  26.298  1.00  0.00     0.018 A 
ATOM     10  C   UNL A   1      39.084  19.688  25.299  1.00  0.00     0.018 A 
BRANCH   6  11
ATOM     11  N   UNL A   1      36.147  21.868  25.180  1.00  0.00    -0.217 N 
ATOM     12  C   UNL A   1      34.210  22.559  24.473  1.00  0.00     0.132 A 
ATOM     13  N   UNL A   1      34.031  21.867  25.642  1.00  0.00    -0.128 NA
ATOM     14  C   UNL A   1      35.544  22.534  24.123  1.00  0.00     0.071 A 
ATOM     15  N   UNL A   1      35.208  21.375  26.014  1.00  0.00    -0.061 NA
ATOM     16  C   UNL A   1      36.223  22.910  22.860  1.00  0.00     0.069 C 
BRANCH  12  17
ATOM     17  C   UNL A   1      33.105  23.006  23.648  1.00  0.00     0.087 C 
ATOM     18  C   UNL A   1      32.333  21.927  22.933  1.00  0.00     0.071 C 
ATOM     19  N   UNL A   1      32.903  24.290  23.623  1.00  0.00    -0.176 NA
BRANCH  19  20
ATOM     20  N   UNL A   1      31.867  24.830  22.918  1.00  0.00    -0.254 N 
ATOM     21  H   UNL A   1      31.094  24.240  22.763  1.00  0.00     0.193 HD
BRANCH  20  22
ATOM     22  C   UNL A   1      31.772  26.105  22.397  1.00  0.00     0.184 C 
ATOM     23  S   UNL A   1      31.405  27.539  23.156  1.00  0.00    -0.040 S 
BRANCH  22  24
ATOM     24  N   UNL A   1      32.031  26.131  21.054  1.00  0.00    -0.375 N 
ATOM     25  H   UNL A   1      32.285  26.977  20.618  1.00  0.00     0.159 HD
ATOM     26  H   UNL A   1      31.961  25.305  20.523  1.00  0.00     0.159 HD
ENDBRANCH  22  24
ENDBRANCH  20  22
ENDBRANCH  19  20
ENDBRANCH  12  17
ENDBRANCH   6  11
ENDBRANCH   3   5
ENDBRANCH   2   3
ENDBRANCH   1   2
BRANCH   1  27
ATOM     27  C   UNL A   1      43.874  18.811  25.058  1.00  0.00     0.275 C 
BRANCH  27  28
ATOM     28  O   UNL A   1      44.654  19.957  25.400  1.00  0.00    -0.458 OA
BRANCH  28  29
ATOM     29  C   UNL A   1      44.386  21.063  24.668  1.00  0.00     0.338 C 
ATOM     30  O   UNL A   1      44.680  21.267  23.503  1.00  0.00    -0.246 OA
BRANCH  29  31
ATOM     31  C   UNL A   1      43.894  22.118  25.557  1.00  0.00     0.060 A 
ATOM     32  C   UNL A   1      42.941  23.006  25.052  1.00  0.00     0.016 A 
ATOM     33  C   UNL A   1      44.577  22.368  26.757  1.00  0.00     0.016 A 
ATOM     34  C   UNL A   1      42.768  24.217  25.693  1.00  0.00     0.010 A 
ATOM     35  C   UNL A   1      44.417  23.582  27.381  1.00  0.00     0.010 A 
ATOM     36  C   UNL A   1      43.556  24.516  26.812  1.00  0.00    -0.014 A 
BRANCH  36  37
ATOM     37  C   UNL A   1      43.330  25.774  27.496  1.00  0.00     0.031 A 
ATOM     38  C   UNL A   1      44.373  26.778  27.184  1.00  0.00     0.074 A 
ATOM     39  C   UNL A   1      42.223  26.048  28.212  1.00  0.00     0.049 A 
ATOM     40  N   UNL A   1      45.285  27.232  27.975  1.00  0.00    -0.248 NA
ATOM     41  C   UNL A   1      44.545  27.174  25.774  1.00  0.00     0.031 C 
ATOM     42  C   UNL A   1      41.007  25.241  28.338  1.00  0.00     0.029 A 
ATOM     43  N   UNL A   1      41.907  27.182  28.893  1.00  0.00    -0.354 N 
ATOM     44  C   UNL A   1      45.998  28.158  27.224  1.00  0.00     0.074 A 
ATOM     45  C   UNL A   1      45.644  27.923  25.848  1.00  0.00     0.031 C 
ATOM     46  C   UNL A   1      40.013  26.011  28.840  1.00  0.00     0.029 A 
ATOM     47  C   UNL A   1      40.555  27.315  29.192  1.00  0.00     0.049 A 
ATOM     48  H   UNL A   1      42.579  27.854  29.152  1.00  0.00     0.167 HD
ATOM     49  C   UNL A   1      46.591  29.232  27.812  1.00  0.00     0.031 A 
ATOM     50  C   UNL A   1      39.928  28.440  29.627  1.00  0.00     0.031 A 
ATOM     51  C   UNL A   1      46.709  29.058  29.237  1.00  0.00     0.049 A 
ATOM     52  C   UNL A   1      40.974  29.337  30.179  1.00  0.00     0.074 A 
ATOM     53  C   UNL A   1      47.315  28.127  30.058  1.00  0.00     0.029 A 
ATOM     54  N   UNL A   1      45.791  29.719  30.019  1.00  0.00    -0.354 N 
ATOM     55  N   UNL A   1      41.653  29.070  31.257  1.00  0.00    -0.248 NA
ATOM     56  C   UNL A   1      41.582  30.310  29.284  1.00  0.00     0.031 C 
ATOM     57  C   UNL A   1      46.419  27.962  31.153  1.00  0.00     0.029 A 
ATOM     58  C   UNL A   1      45.355  28.850  30.984  1.00  0.00     0.049 A 
ATOM     59  H   UNL A   1      45.500  30.653  29.906  1.00  0.00     0.167 HD
ATOM     60  C   UNL A   1      42.947  29.482  30.971  1.00  0.00     0.074 A 
ATOM     61  C   UNL A   1      42.821  30.324  29.783  1.00  0.00     0.031 C 
ATOM     62  C   UNL A   1      44.024  28.877  31.553  1.00  0.00     0.031 A 
BRANCH  49  63
ATOM     63  C   UNL A   1      46.628  30.598  27.169  1.00  0.00    -0.014 A 
ATOM     64  C   UNL A   1      47.851  31.299  27.151  1.00  0.00     0.010 A 
ATOM     65  C   UNL A   1      45.466  31.332  26.853  1.00  0.00     0.010 A 
ATOM     66  C   UNL A   1      47.893  32.678  26.913  1.00  0.00     0.020 A 
ATOM     67  C   UNL A   1      45.502  32.697  26.568  1.00  0.00     0.020 A 
ATOM     68  C   UNL A   1      46.713  33.369  26.636  1.00  0.00     0.054 A 
BRANCH  68  69
ATOM     69  S   UNL A   1      46.765  35.163  26.421  1.00  0.00     0.124 S 
ATOM     70  O   UNL A   1      47.273  35.603  27.717  1.00  0.00    -0.237 OA
ATOM     71  O   UNL A   1      47.683  35.310  25.295  1.00  0.00    -0.237 OA
ATOM     72  O   UNL A   1      45.375  35.513  26.138  1.00  0.00    -0.744 OA
ENDBRANCH  68  69
ENDBRANCH  49  63
BRANCH  50  73
ATOM     73  C   UNL A   1      38.561  28.925  29.299  1.00  0.00    -0.014 A 
ATOM     74  C   UNL A   1      37.665  29.308  30.318  1.00  0.00     0.010 A 
ATOM     75  C   UNL A   1      38.237  29.295  27.977  1.00  0.00     0.010 A 
ATOM     76  C   UNL A   1      36.532  30.093  30.035  1.00  0.00     0.020 A 
ATOM     77  C   UNL A   1      37.106  30.069  27.686  1.00  0.00     0.020 A 
ATOM     78  C   UNL A   1      36.273  30.488  28.720  1.00  0.00     0.054 A 
BRANCH  78  79
ATOM     79  S   UNL A   1      34.925  31.663  28.383  1.00  0.00     0.124 S 
ATOM     80  O   UNL A   1      33.930  30.817  27.729  1.00  0.00    -0.237 OA
ATOM     81  O   UNL A   1      34.573  32.137  29.718  1.00  0.00    -0.237 OA
ATOM     82  O   UNL A   1      35.550  32.665  27.520  1.00  0.00    -0.744 OA
ENDBRANCH  78  79
ENDBRANCH  50  73
BRANCH  62  83
ATOM     83  C   UNL A   1      43.799  28.000  32.761  1.00  0.00    -0.014 A 
ATOM     84  C   UNL A   1      43.694  26.596  32.720  1.00  0.00     0.010 A 
ATOM     85  C   UNL A   1      43.840  28.631  34.017  1.00  0.00     0.010 A 
ATOM     86  C   UNL A   1      43.604  25.850  33.907  1.00  0.00     0.020 A 
ATOM     87  C   UNL A   1      43.772  27.896  35.201  1.00  0.00     0.020 A 
ATOM     88  C   UNL A   1      43.641  26.509  35.141  1.00  0.00     0.054 A 
BRANCH  88  89
ATOM     89  S   UNL A   1      43.557  25.546  36.677  1.00  0.00     0.124 S 
ATOM     90  O   UNL A   1      44.500  26.249  37.544  1.00  0.00    -0.237 OA
ATOM     91  O   UNL A   1      42.150  25.658  37.055  1.00  0.00    -0.237 OA
ATOM     92  O   UNL A   1      43.974  24.205  36.271  1.00  0.00    -0.744 OA
ENDBRANCH  88  89
ENDBRANCH  62  83
ENDBRANCH  36  37
ENDBRANCH  29  31
ENDBRANCH  28  29
ENDBRANCH  27  28
ENDBRANCH   1  27
TORSDOF 19
ENDMDL
