MODEL 1
REMARK VINA RESULT:     -10.4      0.000      0.000
REMARK SMILES C[C@]1(CNC(=O)N[C@H](C(=O)OCCOC(=O)c2ccc(-c3c4nc(c(-c5ccc(S(=O)(=O)[O-])cc5)c5ccc([nH]5)c(-c5ccc(S(=O)(=O)[O-])cc5)c5nc(c(-c6ccc(S(=O)(=O)[O-])cc6)c6ccc3[nH]6)C=C5)C=C4)cc2)C2CCCCC2)CCCO1
REMARK SMILES IDX 12 1 11 2 9 3 10 4 8 5 7 6 4 7 5 8 6 10 3 12 2 13 1 14 83 15
REMARK SMILES IDX 86 16 84 17 85 18 77 19 78 20 82 21 79 22 81 23 80 24 13 25
REMARK SMILES IDX 14 26 15 27 16 28 17 29 18 30 76 31 19 32 75 33 20 34 21 35
REMARK SMILES IDX 22 36 69 37 23 38 74 39 68 40 70 41 24 42 73 43 67 44 66 45
REMARK SMILES IDX 25 47 55 48 36 49 54 50 37 51 40 52 53 53 71 54 38 55 39 56
REMARK SMILES IDX 52 58 72 59 41 60 26 61 27 62 35 63 28 64 34 65 29 66 30 67
REMARK SMILES IDX 31 68 32 69 33 70 56 71 57 72 65 73 58 74 64 75 59 76 60 77
REMARK SMILES IDX 61 78 62 79 63 80 42 81 43 82 51 83 44 84 50 85 45 86 46 87
REMARK SMILES IDX 47 88 48 89 49 90
REMARK H PARENT 4 9 7 11 70 46 40 57
REMARK Flexibility Score: inf
ROOT
ATOM      1  C   UNL A   1      32.777  29.583  26.331  1.00  0.00     0.274 C 
ENDROOT
BRANCH   1   2
ATOM      2  O   UNL A   1      33.059  28.267  26.858  1.00  0.00    -0.461 OA
BRANCH   2   3
ATOM      3  C   UNL A   1      32.023  27.375  26.897  1.00  0.00     0.329 C 
ATOM      4  O   UNL A   1      31.046  27.458  27.633  1.00  0.00    -0.250 OA
BRANCH   3   5
ATOM      5  C   UNL A   1      32.312  26.177  25.969  1.00  0.00     0.197 C 
BRANCH   5   6
ATOM      6  N   UNL A   1      31.386  25.111  26.358  1.00  0.00    -0.324 N 
ATOM      7  N   UNL A   1      32.760  23.347  27.111  1.00  0.00    -0.335 N 
ATOM      8  C   UNL A   1      31.559  23.923  26.951  1.00  0.00     0.315 C 
ATOM      9  H   UNL A   1      32.752  22.602  27.755  1.00  0.00     0.165 HD
ATOM     10  O   UNL A   1      30.568  23.327  27.373  1.00  0.00    -0.249 OA
ATOM     11  H   UNL A   1      30.447  25.308  26.140  1.00  0.00     0.166 HD
BRANCH   7  12
ATOM     12  C   UNL A   1      34.070  23.595  26.532  1.00  0.00     0.152 C 
BRANCH  12  13
ATOM     13  C   UNL A   1      34.490  22.585  25.463  1.00  0.00     0.083 C 
ATOM     14  C   UNL A   1      33.231  21.876  24.946  1.00  0.00     0.044 C 
ATOM     15  C   UNL A   1      35.266  23.239  24.315  1.00  0.00     0.039 C 
ATOM     16  O   UNL A   1      35.355  21.594  26.051  1.00  0.00    -0.373 OA
ATOM     17  C   UNL A   1      36.298  22.191  23.983  1.00  0.00     0.031 C 
ATOM     18  C   UNL A   1      36.600  21.613  25.345  1.00  0.00     0.161 C 
ENDBRANCH  12  13
ENDBRANCH   7  12
ENDBRANCH   5   6
BRANCH   5  19
ATOM     19  C   UNL A   1      32.364  26.453  24.437  1.00  0.00     0.023 C 
ATOM     20  C   UNL A   1      33.780  26.664  23.847  1.00  0.00     0.006 C 
ATOM     21  C   UNL A   1      31.648  25.428  23.569  1.00  0.00     0.006 C 
ATOM     22  C   UNL A   1      33.697  27.178  22.410  1.00  0.00     0.000 C 
ATOM     23  C   UNL A   1      31.558  25.880  22.112  1.00  0.00     0.000 C 
ATOM     24  C   UNL A   1      32.925  26.212  21.522  1.00  0.00     0.000 C 
ENDBRANCH   5  19
ENDBRANCH   3   5
ENDBRANCH   2   3
ENDBRANCH   1   2
BRANCH   1  25
ATOM     25  C   UNL A   1      32.871  30.644  27.426  1.00  0.00     0.275 C 
BRANCH  25  26
ATOM     26  O   UNL A   1      34.207  31.167  27.422  1.00  0.00    -0.458 OA
BRANCH  26  27
ATOM     27  C   UNL A   1      34.812  31.329  28.621  1.00  0.00     0.338 C 
ATOM     28  O   UNL A   1      34.371  31.953  29.576  1.00  0.00    -0.246 OA
BRANCH  27  29
ATOM     29  C   UNL A   1      36.052  30.510  28.667  1.00  0.00     0.060 A 
ATOM     30  C   UNL A   1      36.655  30.228  29.887  1.00  0.00     0.016 A 
ATOM     31  C   UNL A   1      36.734  30.183  27.493  1.00  0.00     0.016 A 
ATOM     32  C   UNL A   1      37.995  29.837  29.926  1.00  0.00     0.010 A 
ATOM     33  C   UNL A   1      38.032  29.637  27.551  1.00  0.00     0.010 A 
ATOM     34  C   UNL A   1      38.731  29.538  28.766  1.00  0.00    -0.014 A 
BRANCH  34  35
ATOM     35  C   UNL A   1      40.210  29.229  28.842  1.00  0.00     0.031 A 
ATOM     36  C   UNL A   1      41.217  30.260  29.344  1.00  0.00     0.074 A 
ATOM     37  C   UNL A   1      40.693  27.997  28.548  1.00  0.00     0.049 A 
ATOM     38  N   UNL A   1      42.530  30.224  29.299  1.00  0.00    -0.248 NA
ATOM     39  C   UNL A   1      40.696  31.487  29.968  1.00  0.00     0.031 C 
ATOM     40  C   UNL A   1      39.904  26.843  28.110  1.00  0.00     0.029 A 
ATOM     41  N   UNL A   1      41.977  27.494  28.608  1.00  0.00    -0.354 N 
ATOM     42  C   UNL A   1      42.974  31.443  29.811  1.00  0.00     0.074 A 
ATOM     43  C   UNL A   1      41.798  32.189  30.188  1.00  0.00     0.031 C 
ATOM     44  C   UNL A   1      40.683  25.756  28.068  1.00  0.00     0.029 A 
ATOM     45  C   UNL A   1      42.066  26.159  28.282  1.00  0.00     0.049 A 
ATOM     46  H   UNL A   1      42.756  28.040  28.860  1.00  0.00     0.167 HD
ATOM     47  C   UNL A   1      44.240  31.915  29.939  1.00  0.00     0.031 A 
ATOM     48  C   UNL A   1      43.122  25.346  28.081  1.00  0.00     0.031 A 
ATOM     49  C   UNL A   1      45.430  31.172  29.615  1.00  0.00     0.049 A 
ATOM     50  C   UNL A   1      44.509  25.907  28.142  1.00  0.00     0.074 A 
ATOM     51  C   UNL A   1      46.750  31.586  29.693  1.00  0.00     0.029 A 
ATOM     52  N   UNL A   1      45.452  29.862  29.171  1.00  0.00    -0.354 N 
ATOM     53  N   UNL A   1      44.895  27.112  28.481  1.00  0.00    -0.248 NA
ATOM     54  C   UNL A   1      45.601  25.010  27.739  1.00  0.00     0.031 C 
ATOM     55  C   UNL A   1      47.569  30.542  29.248  1.00  0.00     0.029 A 
ATOM     56  C   UNL A   1      46.760  29.460  28.947  1.00  0.00     0.049 A 
ATOM     57  H   UNL A   1      44.657  29.298  29.034  1.00  0.00     0.167 HD
ATOM     58  C   UNL A   1      46.274  27.123  28.313  1.00  0.00     0.074 A 
ATOM     59  C   UNL A   1      46.659  25.796  27.882  1.00  0.00     0.031 C 
ATOM     60  C   UNL A   1      47.140  28.151  28.486  1.00  0.00     0.031 A 
BRANCH  47  61
ATOM     61  C   UNL A   1      44.417  33.346  30.380  1.00  0.00    -0.014 A 
ATOM     62  C   UNL A   1      44.640  33.692  31.724  1.00  0.00     0.010 A 
ATOM     63  C   UNL A   1      44.434  34.359  29.401  1.00  0.00     0.010 A 
ATOM     64  C   UNL A   1      44.852  35.028  32.082  1.00  0.00     0.020 A 
ATOM     65  C   UNL A   1      44.669  35.691  29.751  1.00  0.00     0.020 A 
ATOM     66  C   UNL A   1      44.864  36.019  31.093  1.00  0.00     0.054 A 
BRANCH  66  67
ATOM     67  S   UNL A   1      45.182  37.740  31.578  1.00  0.00     0.124 S 
ATOM     68  O   UNL A   1      46.295  37.589  32.510  1.00  0.00    -0.237 OA
ATOM     69  O   UNL A   1      45.510  38.378  30.305  1.00  0.00    -0.237 OA
ATOM     70  O   UNL A   1      43.921  38.169  32.178  1.00  0.00    -0.744 OA
ENDBRANCH  66  67
ENDBRANCH  47  61
BRANCH  48  71
ATOM     71  C   UNL A   1      42.893  23.936  27.653  1.00  0.00    -0.014 A 
ATOM     72  C   UNL A   1      42.642  22.925  28.596  1.00  0.00     0.010 A 
ATOM     73  C   UNL A   1      42.896  23.608  26.283  1.00  0.00     0.010 A 
ATOM     74  C   UNL A   1      42.380  21.617  28.175  1.00  0.00     0.020 A 
ATOM     75  C   UNL A   1      42.596  22.314  25.859  1.00  0.00     0.020 A 
ATOM     76  C   UNL A   1      42.347  21.324  26.809  1.00  0.00     0.054 A 
BRANCH  76  77
ATOM     77  S   UNL A   1      41.900  19.650  26.267  1.00  0.00     0.124 S 
ATOM     78  O   UNL A   1      42.725  19.489  25.074  1.00  0.00    -0.237 OA
ATOM     79  O   UNL A   1      42.278  18.829  27.415  1.00  0.00    -0.237 OA
ATOM     80  O   UNL A   1      40.461  19.746  26.029  1.00  0.00    -0.744 OA
ENDBRANCH  76  77
ENDBRANCH  48  71
BRANCH  60  81
ATOM     81  C   UNL A   1      48.592  27.872  28.214  1.00  0.00    -0.014 A 
ATOM     82  C   UNL A   1      49.126  28.021  26.922  1.00  0.00     0.010 A 
ATOM     83  C   UNL A   1      49.427  27.438  29.258  1.00  0.00     0.010 A 
ATOM     84  C   UNL A   1      50.460  27.691  26.667  1.00  0.00     0.020 A 
ATOM     85  C   UNL A   1      50.768  27.129  29.012  1.00  0.00     0.020 A 
ATOM     86  C   UNL A   1      51.269  27.235  27.712  1.00  0.00     0.054 A 
BRANCH  86  87
ATOM     87  S   UNL A   1      52.992  26.794  27.358  1.00  0.00     0.124 S 
ATOM     88  O   UNL A   1      53.351  26.008  28.535  1.00  0.00    -0.237 OA
ATOM     89  O   UNL A   1      52.884  26.044  26.109  1.00  0.00    -0.237 OA
ATOM     90  O   UNL A   1      53.662  28.088  27.244  1.00  0.00    -0.744 OA
ENDBRANCH  86  87
ENDBRANCH  60  81
ENDBRANCH  34  35
ENDBRANCH  27  29
ENDBRANCH  26  27
ENDBRANCH  25  26
ENDBRANCH   1  25
TORSDOF 18
ENDMDL
MODEL 2
REMARK VINA RESULT:     -10.2      5.563     10.225
REMARK SMILES C[C@]1(CNC(=O)N[C@H](C(=O)OCCOC(=O)c2ccc(-c3c4nc(c(-c5ccc(S(=O)(=O)[O-])cc5)c5ccc([nH]5)c(-c5ccc(S(=O)(=O)[O-])cc5)c5nc(c(-c6ccc(S(=O)(=O)[O-])cc6)c6ccc3[nH]6)C=C5)C=C4)cc2)C2CCCCC2)CCCO1
REMARK SMILES IDX 12 1 11 2 9 3 10 4 8 5 7 6 4 7 5 8 6 10 3 12 2 13 1 14 83 15
REMARK SMILES IDX 86 16 84 17 85 18 77 19 78 20 82 21 79 22 81 23 80 24 13 25
REMARK SMILES IDX 14 26 15 27 16 28 17 29 18 30 76 31 19 32 75 33 20 34 21 35
REMARK SMILES IDX 22 36 69 37 23 38 74 39 68 40 70 41 24 42 73 43 67 44 66 45
REMARK SMILES IDX 25 47 55 48 36 49 54 50 37 51 40 52 53 53 71 54 38 55 39 56
REMARK SMILES IDX 52 58 72 59 41 60 26 61 27 62 35 63 28 64 34 65 29 66 30 67
REMARK SMILES IDX 31 68 32 69 33 70 56 71 57 72 65 73 58 74 64 75 59 76 60 77
REMARK SMILES IDX 61 78 62 79 63 80 42 81 43 82 51 83 44 84 50 85 45 86 46 87
REMARK SMILES IDX 47 88 48 89 49 90
REMARK H PARENT 4 9 7 11 70 46 40 57
REMARK Flexibility Score: inf
ROOT
ATOM      1  C   UNL A   1      32.888  30.496  26.426  1.00  0.00     0.274 C 
ENDROOT
BRANCH   1   2
ATOM      2  O   UNL A   1      33.214  29.088  26.406  1.00  0.00    -0.461 OA
BRANCH   2   3
ATOM      3  C   UNL A   1      32.173  28.204  26.487  1.00  0.00     0.329 C 
ATOM      4  O   UNL A   1      31.422  28.083  27.448  1.00  0.00    -0.250 OA
BRANCH   3   5
ATOM      5  C   UNL A   1      32.147  27.292  25.243  1.00  0.00     0.197 C 
BRANCH   5   6
ATOM      6  N   UNL A   1      33.200  27.773  24.348  1.00  0.00    -0.324 N 
ATOM      7  N   UNL A   1      32.076  28.473  22.395  1.00  0.00    -0.335 N 
ATOM      8  C   UNL A   1      33.178  28.384  23.156  1.00  0.00     0.315 C 
ATOM      9  H   UNL A   1      32.156  29.134  21.671  1.00  0.00     0.165 HD
ATOM     10  O   UNL A   1      34.218  28.891  22.735  1.00  0.00    -0.249 OA
ATOM     11  H   UNL A   1      34.110  27.618  24.692  1.00  0.00     0.166 HD
BRANCH   7  12
ATOM     12  C   UNL A   1      30.790  27.796  22.418  1.00  0.00     0.152 C 
BRANCH  12  13
ATOM     13  C   UNL A   1      29.610  28.693  22.795  1.00  0.00     0.083 C 
ATOM     14  C   UNL A   1      28.500  27.811  23.385  1.00  0.00     0.044 C 
ATOM     15  C   UNL A   1      30.010  29.804  23.772  1.00  0.00     0.039 C 
ATOM     16  O   UNL A   1      29.095  29.332  21.611  1.00  0.00    -0.373 OA
ATOM     17  C   UNL A   1      29.178  30.968  23.296  1.00  0.00     0.031 C 
ATOM     18  C   UNL A   1      29.167  30.749  21.801  1.00  0.00     0.161 C 
ENDBRANCH  12  13
ENDBRANCH   7  12
ENDBRANCH   5   6
BRANCH   5  19
ATOM     19  C   UNL A   1      32.163  25.753  25.483  1.00  0.00     0.023 C 
ATOM     20  C   UNL A   1      31.678  24.890  24.292  1.00  0.00     0.006 C 
ATOM     21  C   UNL A   1      33.494  25.185  25.955  1.00  0.00     0.006 C 
ATOM     22  C   UNL A   1      31.491  23.434  24.719  1.00  0.00     0.000 C 
ATOM     23  C   UNL A   1      33.371  23.720  26.372  1.00  0.00     0.000 C 
ATOM     24  C   UNL A   1      32.785  22.848  25.265  1.00  0.00     0.000 C 
ENDBRANCH   5  19
ENDBRANCH   3   5
ENDBRANCH   2   3
ENDBRANCH   1   2
BRANCH   1  25
ATOM     25  C   UNL A   1      33.503  31.183  27.644  1.00  0.00     0.275 C 
BRANCH  25  26
ATOM     26  O   UNL A   1      33.847  32.524  27.268  1.00  0.00    -0.458 OA
BRANCH  26  27
ATOM     27  C   UNL A   1      33.619  33.500  28.178  1.00  0.00     0.338 C 
ATOM     28  O   UNL A   1      32.635  34.223  28.232  1.00  0.00    -0.246 OA
BRANCH  27  29
ATOM     29  C   UNL A   1      34.691  33.478  29.209  1.00  0.00     0.060 A 
ATOM     30  C   UNL A   1      35.943  34.009  28.923  1.00  0.00     0.016 A 
ATOM     31  C   UNL A   1      34.525  32.756  30.392  1.00  0.00     0.016 A 
ATOM     32  C   UNL A   1      37.047  33.636  29.691  1.00  0.00     0.010 A 
ATOM     33  C   UNL A   1      35.623  32.522  31.244  1.00  0.00     0.010 A 
ATOM     34  C   UNL A   1      36.931  32.876  30.867  1.00  0.00    -0.014 A 
BRANCH  34  35
ATOM     35  C   UNL A   1      38.159  32.396  31.609  1.00  0.00     0.031 A 
ATOM     36  C   UNL A   1      39.105  31.363  31.003  1.00  0.00     0.074 A 
ATOM     37  C   UNL A   1      38.517  32.925  32.804  1.00  0.00     0.049 A 
ATOM     38  N   UNL A   1      40.093  30.710  31.574  1.00  0.00    -0.248 NA
ATOM     39  C   UNL A   1      38.924  31.008  29.586  1.00  0.00     0.031 C 
ATOM     40  C   UNL A   1      37.796  33.969  33.537  1.00  0.00     0.029 A 
ATOM     41  N   UNL A   1      39.613  32.678  33.607  1.00  0.00    -0.354 N 
ATOM     42  C   UNL A   1      40.586  29.826  30.615  1.00  0.00     0.074 A 
ATOM     43  C   UNL A   1      39.812  30.040  29.415  1.00  0.00     0.031 C 
ATOM     44  C   UNL A   1      38.520  34.358  34.593  1.00  0.00     0.029 A 
ATOM     45  C   UNL A   1      39.663  33.466  34.735  1.00  0.00     0.049 A 
ATOM     46  H   UNL A   1      40.295  32.001  33.392  1.00  0.00     0.167 HD
ATOM     47  C   UNL A   1      41.575  28.903  30.720  1.00  0.00     0.031 A 
ATOM     48  C   UNL A   1      40.462  33.441  35.820  1.00  0.00     0.031 A 
ATOM     49  C   UNL A   1      42.392  28.705  31.889  1.00  0.00     0.049 A 
ATOM     50  C   UNL A   1      41.491  32.362  35.956  1.00  0.00     0.074 A 
ATOM     51  C   UNL A   1      43.400  27.774  32.085  1.00  0.00     0.029 A 
ATOM     52  N   UNL A   1      42.313  29.452  33.049  1.00  0.00    -0.354 N 
ATOM     53  N   UNL A   1      41.833  31.437  35.093  1.00  0.00    -0.248 NA
ATOM     54  C   UNL A   1      42.205  32.290  37.239  1.00  0.00     0.031 C 
ATOM     55  C   UNL A   1      43.897  27.927  33.385  1.00  0.00     0.029 A 
ATOM     56  C   UNL A   1      43.235  28.991  33.974  1.00  0.00     0.049 A 
ATOM     57  H   UNL A   1      41.692  30.203  33.197  1.00  0.00     0.167 HD
ATOM     58  C   UNL A   1      42.788  30.661  35.737  1.00  0.00     0.074 A 
ATOM     59  C   UNL A   1      43.000  31.247  37.044  1.00  0.00     0.031 C 
ATOM     60  C   UNL A   1      43.422  29.550  35.287  1.00  0.00     0.031 A 
BRANCH  47  61
ATOM     61  C   UNL A   1      41.788  27.964  29.559  1.00  0.00    -0.014 A 
ATOM     62  C   UNL A   1      40.843  26.986  29.206  1.00  0.00     0.010 A 
ATOM     63  C   UNL A   1      42.937  28.125  28.760  1.00  0.00     0.010 A 
ATOM     64  C   UNL A   1      41.056  26.171  28.088  1.00  0.00     0.020 A 
ATOM     65  C   UNL A   1      43.142  27.329  27.630  1.00  0.00     0.020 A 
ATOM     66  C   UNL A   1      42.205  26.347  27.308  1.00  0.00     0.054 A 
BRANCH  66  67
ATOM     67  S   UNL A   1      42.440  25.304  25.841  1.00  0.00     0.124 S 
ATOM     68  O   UNL A   1      43.768  25.711  25.392  1.00  0.00    -0.237 OA
ATOM     69  O   UNL A   1      42.348  23.953  26.388  1.00  0.00    -0.237 OA
ATOM     70  O   UNL A   1      41.340  25.692  24.960  1.00  0.00    -0.744 OA
ENDBRANCH  66  67
ENDBRANCH  47  61
BRANCH  48  71
ATOM     71  C   UNL A   1      40.214  34.397  36.938  1.00  0.00    -0.014 A 
ATOM     72  C   UNL A   1      40.859  35.644  36.980  1.00  0.00     0.010 A 
ATOM     73  C   UNL A   1      39.297  34.066  37.954  1.00  0.00     0.010 A 
ATOM     74  C   UNL A   1      40.578  36.549  38.010  1.00  0.00     0.020 A 
ATOM     75  C   UNL A   1      38.985  34.981  38.959  1.00  0.00     0.020 A 
ATOM     76  C   UNL A   1      39.633  36.216  38.985  1.00  0.00     0.054 A 
BRANCH  76  77
ATOM     77  S   UNL A   1      39.193  37.436  40.253  1.00  0.00     0.124 S 
ATOM     78  O   UNL A   1      38.341  38.355  39.506  1.00  0.00    -0.237 OA
ATOM     79  O   UNL A   1      38.517  36.623  41.261  1.00  0.00    -0.237 OA
ATOM     80  O   UNL A   1      40.487  37.974  40.667  1.00  0.00    -0.744 OA
ENDBRANCH  76  77
ENDBRANCH  48  71
BRANCH  60  81
ATOM     81  C   UNL A   1      44.408  28.904  36.218  1.00  0.00    -0.014 A 
ATOM     82  C   UNL A   1      44.031  27.818  37.029  1.00  0.00     0.010 A 
ATOM     83  C   UNL A   1      45.722  29.398  36.297  1.00  0.00     0.010 A 
ATOM     84  C   UNL A   1      44.937  27.272  37.941  1.00  0.00     0.020 A 
ATOM     85  C   UNL A   1      46.638  28.838  37.192  1.00  0.00     0.020 A 
ATOM     86  C   UNL A   1      46.231  27.794  38.025  1.00  0.00     0.054 A 
BRANCH  86  87
ATOM     87  S   UNL A   1      47.387  27.082  39.229  1.00  0.00     0.124 S 
ATOM     88  O   UNL A   1      46.715  25.838  39.594  1.00  0.00    -0.237 OA
ATOM     89  O   UNL A   1      48.613  26.929  38.449  1.00  0.00    -0.237 OA
ATOM     90  O   UNL A   1      47.450  28.090  40.284  1.00  0.00    -0.744 OA
ENDBRANCH  86  87
ENDBRANCH  60  81
ENDBRANCH  34  35
ENDBRANCH  27  29
ENDBRANCH  26  27
ENDBRANCH  25  26
ENDBRANCH   1  25
TORSDOF 18
ENDMDL
MODEL 3
REMARK VINA RESULT:     -10.2      5.265      9.635
REMARK SMILES C[C@]1(CNC(=O)N[C@H](C(=O)OCCOC(=O)c2ccc(-c3c4nc(c(-c5ccc(S(=O)(=O)[O-])cc5)c5ccc([nH]5)c(-c5ccc(S(=O)(=O)[O-])cc5)c5nc(c(-c6ccc(S(=O)(=O)[O-])cc6)c6ccc3[nH]6)C=C5)C=C4)cc2)C2CCCCC2)CCCO1
REMARK SMILES IDX 12 1 11 2 9 3 10 4 8 5 7 6 4 7 5 8 6 10 3 12 2 13 1 14 83 15
REMARK SMILES IDX 86 16 84 17 85 18 77 19 78 20 82 21 79 22 81 23 80 24 13 25
REMARK SMILES IDX 14 26 15 27 16 28 17 29 18 30 76 31 19 32 75 33 20 34 21 35
REMARK SMILES IDX 22 36 69 37 23 38 74 39 68 40 70 41 24 42 73 43 67 44 66 45
REMARK SMILES IDX 25 47 55 48 36 49 54 50 37 51 40 52 53 53 71 54 38 55 39 56
REMARK SMILES IDX 52 58 72 59 41 60 26 61 27 62 35 63 28 64 34 65 29 66 30 67
REMARK SMILES IDX 31 68 32 69 33 70 56 71 57 72 65 73 58 74 64 75 59 76 60 77
REMARK SMILES IDX 61 78 62 79 63 80 42 81 43 82 51 83 44 84 50 85 45 86 46 87
REMARK SMILES IDX 47 88 48 89 49 90
REMARK H PARENT 4 9 7 11 70 46 40 57
REMARK Flexibility Score: inf
ROOT
ATOM      1  C   UNL A   1      32.894  29.787  26.333  1.00  0.00     0.274 C 
ENDROOT
BRANCH   1   2
ATOM      2  O   UNL A   1      33.066  28.562  27.081  1.00  0.00    -0.461 OA
BRANCH   2   3
ATOM      3  C   UNL A   1      32.048  27.649  27.028  1.00  0.00     0.329 C 
ATOM      4  O   UNL A   1      31.028  27.689  27.704  1.00  0.00    -0.250 OA
BRANCH   3   5
ATOM      5  C   UNL A   1      32.419  26.490  26.080  1.00  0.00     0.197 C 
BRANCH   5   6
ATOM      6  N   UNL A   1      31.631  25.331  26.506  1.00  0.00    -0.324 N 
ATOM      7  N   UNL A   1      33.197  23.589  26.781  1.00  0.00    -0.335 N 
ATOM      8  C   UNL A   1      31.964  24.100  26.914  1.00  0.00     0.315 C 
ATOM      9  H   UNL A   1      33.344  22.780  27.323  1.00  0.00     0.165 HD
ATOM     10  O   UNL A   1      31.098  23.400  27.439  1.00  0.00    -0.249 OA
ATOM     11  H   UNL A   1      30.660  25.490  26.489  1.00  0.00     0.166 HD
BRANCH   7  12
ATOM     12  C   UNL A   1      34.362  23.980  26.003  1.00  0.00     0.152 C 
BRANCH  12  13
ATOM     13  C   UNL A   1      34.780  22.966  24.937  1.00  0.00     0.083 C 
ATOM     14  C   UNL A   1      33.822  23.094  23.745  1.00  0.00     0.044 C 
ATOM     15  C   UNL A   1      36.236  23.149  24.498  1.00  0.00     0.039 C 
ATOM     16  O   UNL A   1      34.660  21.633  25.470  1.00  0.00    -0.373 OA
ATOM     17  C   UNL A   1      36.695  21.726  24.299  1.00  0.00     0.031 C 
ATOM     18  C   UNL A   1      35.943  21.004  25.392  1.00  0.00     0.161 C 
ENDBRANCH  12  13
ENDBRANCH   7  12
ENDBRANCH   5   6
BRANCH   5  19
ATOM     19  C   UNL A   1      32.369  26.772  24.549  1.00  0.00     0.023 C 
ATOM     20  C   UNL A   1      33.745  26.865  23.845  1.00  0.00     0.006 C 
ATOM     21  C   UNL A   1      31.500  25.817  23.743  1.00  0.00     0.006 C 
ATOM     22  C   UNL A   1      33.589  27.395  22.419  1.00  0.00     0.000 C 
ATOM     23  C   UNL A   1      31.330  26.285  22.298  1.00  0.00     0.000 C 
ATOM     24  C   UNL A   1      32.668  26.504  21.597  1.00  0.00     0.000 C 
ENDBRANCH   5  19
ENDBRANCH   3   5
ENDBRANCH   2   3
ENDBRANCH   1   2
BRANCH   1  25
ATOM     25  C   UNL A   1      32.585  30.959  27.263  1.00  0.00     0.275 C 
BRANCH  25  26
ATOM     26  O   UNL A   1      33.649  31.913  27.141  1.00  0.00    -0.458 OA
BRANCH  26  27
ATOM     27  C   UNL A   1      33.536  33.061  27.848  1.00  0.00     0.338 C 
ATOM     28  O   UNL A   1      32.647  33.894  27.737  1.00  0.00    -0.246 OA
BRANCH  27  29
ATOM     29  C   UNL A   1      34.587  33.103  28.899  1.00  0.00     0.060 A 
ATOM     30  C   UNL A   1      35.824  33.674  28.623  1.00  0.00     0.016 A 
ATOM     31  C   UNL A   1      34.425  32.404  30.097  1.00  0.00     0.016 A 
ATOM     32  C   UNL A   1      36.927  33.361  29.420  1.00  0.00     0.010 A 
ATOM     33  C   UNL A   1      35.515  32.231  30.973  1.00  0.00     0.010 A 
ATOM     34  C   UNL A   1      36.816  32.625  30.612  1.00  0.00    -0.014 A 
BRANCH  34  35
ATOM     35  C   UNL A   1      38.046  32.208  31.387  1.00  0.00     0.031 A 
ATOM     36  C   UNL A   1      39.048  31.206  30.819  1.00  0.00     0.074 A 
ATOM     37  C   UNL A   1      38.356  32.770  32.581  1.00  0.00     0.049 A 
ATOM     38  N   UNL A   1      40.050  30.605  31.421  1.00  0.00    -0.248 NA
ATOM     39  C   UNL A   1      38.912  30.822  29.404  1.00  0.00     0.031 C 
ATOM     40  C   UNL A   1      37.577  33.795  33.281  1.00  0.00     0.029 A 
ATOM     41  N   UNL A   1      39.443  32.583  33.410  1.00  0.00    -0.354 N 
ATOM     42  C   UNL A   1      40.599  29.727  30.488  1.00  0.00     0.074 A 
ATOM     43  C   UNL A   1      39.843  29.889  29.269  1.00  0.00     0.031 C 
ATOM     44  C   UNL A   1      38.261  34.230  34.345  1.00  0.00     0.029 A 
ATOM     45  C   UNL A   1      39.436  33.389  34.526  1.00  0.00     0.049 A 
ATOM     46  H   UNL A   1      40.158  31.932  33.221  1.00  0.00     0.167 HD
ATOM     47  C   UNL A   1      41.624  28.848  30.629  1.00  0.00     0.031 A 
ATOM     48  C   UNL A   1      40.212  33.416  35.628  1.00  0.00     0.031 A 
ATOM     49  C   UNL A   1      42.423  28.703  31.818  1.00  0.00     0.049 A 
ATOM     50  C   UNL A   1      41.281  32.383  35.804  1.00  0.00     0.074 A 
ATOM     51  C   UNL A   1      43.464  27.819  32.052  1.00  0.00     0.029 A 
ATOM     52  N   UNL A   1      42.287  29.465  32.964  1.00  0.00    -0.354 N 
ATOM     53  N   UNL A   1      41.680  31.460  34.964  1.00  0.00    -0.248 NA
ATOM     54  C   UNL A   1      41.969  32.361  37.103  1.00  0.00     0.031 C 
ATOM     55  C   UNL A   1      43.925  28.013  33.358  1.00  0.00     0.029 A 
ATOM     56  C   UNL A   1      43.207  29.057  33.916  1.00  0.00     0.049 A 
ATOM     57  H   UNL A   1      41.633  30.191  33.086  1.00  0.00     0.167 HD
ATOM     58  C   UNL A   1      42.653  30.735  35.641  1.00  0.00     0.074 A 
ATOM     59  C   UNL A   1      42.811  31.350  36.942  1.00  0.00     0.031 C 
ATOM     60  C   UNL A   1      43.341  29.645  35.223  1.00  0.00     0.031 A 
BRANCH  47  61
ATOM     61  C   UNL A   1      41.901  27.901  29.489  1.00  0.00    -0.014 A 
ATOM     62  C   UNL A   1      41.163  26.720  29.303  1.00  0.00     0.010 A 
ATOM     63  C   UNL A   1      42.882  28.251  28.540  1.00  0.00     0.010 A 
ATOM     64  C   UNL A   1      41.418  25.895  28.200  1.00  0.00     0.020 A 
ATOM     65  C   UNL A   1      43.123  27.444  27.426  1.00  0.00     0.020 A 
ATOM     66  C   UNL A   1      42.397  26.263  27.270  1.00  0.00     0.054 A 
BRANCH  66  67
ATOM     67  S   UNL A   1      42.681  25.198  25.827  1.00  0.00     0.124 S 
ATOM     68  O   UNL A   1      42.369  26.100  24.722  1.00  0.00    -0.237 OA
ATOM     69  O   UNL A   1      44.091  24.838  25.965  1.00  0.00    -0.237 OA
ATOM     70  O   UNL A   1      41.740  24.097  26.017  1.00  0.00    -0.744 OA
ENDBRANCH  66  67
ENDBRANCH  47  61
BRANCH  48  71
ATOM     71  C   UNL A   1      39.900  34.378  36.724  1.00  0.00    -0.014 A 
ATOM     72  C   UNL A   1      39.121  33.990  37.828  1.00  0.00     0.010 A 
ATOM     73  C   UNL A   1      40.416  35.688  36.677  1.00  0.00     0.010 A 
ATOM     74  C   UNL A   1      38.879  34.891  38.871  1.00  0.00     0.020 A 
ATOM     75  C   UNL A   1      40.210  36.574  37.734  1.00  0.00     0.020 A 
ATOM     76  C   UNL A   1      39.436  36.172  38.822  1.00  0.00     0.054 A 
BRANCH  76  77
ATOM     77  S   UNL A   1      39.209  37.297  40.228  1.00  0.00     0.124 S 
ATOM     78  O   UNL A   1      38.440  38.381  39.626  1.00  0.00    -0.237 OA
ATOM     79  O   UNL A   1      38.488  36.467  41.190  1.00  0.00    -0.237 OA
ATOM     80  O   UNL A   1      40.577  37.635  40.614  1.00  0.00    -0.744 OA
ENDBRANCH  76  77
ENDBRANCH  48  71
BRANCH  60  81
ATOM     81  C   UNL A   1      44.333  29.055  36.186  1.00  0.00    -0.014 A 
ATOM     82  C   UNL A   1      45.632  29.582  36.299  1.00  0.00     0.010 A 
ATOM     83  C   UNL A   1      43.968  27.950  36.975  1.00  0.00     0.010 A 
ATOM     84  C   UNL A   1      46.566  28.981  37.146  1.00  0.00     0.020 A 
ATOM     85  C   UNL A   1      44.893  27.360  37.841  1.00  0.00     0.020 A 
ATOM     86  C   UNL A   1      46.193  27.866  37.903  1.00  0.00     0.054 A 
BRANCH  86  87
ATOM     87  S   UNL A   1      47.426  27.089  38.984  1.00  0.00     0.124 S 
ATOM     88  O   UNL A   1      48.529  26.846  38.058  1.00  0.00    -0.237 OA
ATOM     89  O   UNL A   1      47.666  28.118  39.992  1.00  0.00    -0.237 OA
ATOM     90  O   UNL A   1      46.748  25.891  39.474  1.00  0.00    -0.744 OA
ENDBRANCH  86  87
ENDBRANCH  60  81
ENDBRANCH  34  35
ENDBRANCH  27  29
ENDBRANCH  26  27
ENDBRANCH  25  26
ENDBRANCH   1  25
TORSDOF 18
ENDMDL
