MODEL 1
REMARK VINA RESULT:     -12.5      0.000      0.000
REMARK SMILES CCOC(=O)c1c(NC(=O)[C@@H]2[C@@H](C(=O)OCCOC(=O)c3ccc(-c4c5nc(c(-c6ccc(S(=O)(=O)[O-])cc6)c6ccc([nH]6)c(-c6ccc(S(=O)(=O)[O-])cc6)c6nc(c(-c7ccc(S(=O)(=O)[O-])cc7)c7ccc4[nH]7)C=C6)C=C5)cc3)[C@@H]3C=C[C@H]2CC3)sc2c1CCC2
REMARK SMILES IDX 16 1 15 2 13 3 14 4 12 5 11 6 84 7 81 8 83 9 85 10 82 11
REMARK SMILES IDX 86 12 9 13 8 14 10 16 7 17 6 18 89 19 87 20 88 21 90 22
REMARK SMILES IDX 92 23 91 24 4 25 5 26 3 27 2 28 1 29 17 30 18 31 19 32 20 33
REMARK SMILES IDX 21 34 22 35 80 36 23 37 79 38 24 39 25 40 26 41 73 42 27 43
REMARK SMILES IDX 78 44 72 45 74 46 28 47 77 48 71 49 70 50 29 52 59 53 40 54
REMARK SMILES IDX 58 55 41 56 44 57 57 58 75 59 42 60 43 61 56 63 76 64 45 65
REMARK SMILES IDX 30 66 31 67 39 68 32 69 38 70 33 71 34 72 35 73 36 74 37 75
REMARK SMILES IDX 60 76 61 77 69 78 62 79 68 80 63 81 64 82 65 83 66 84 67 85
REMARK SMILES IDX 46 86 47 87 55 88 48 89 54 90 49 91 50 92 51 93 52 94 53 95
REMARK H PARENT 8 15 74 51 44 62
REMARK Flexibility Score: inf
ROOT
ATOM      1  C   UNL A   1      31.705  29.633  26.097  1.00  0.00     0.274 C 
ENDROOT
BRANCH   1   2
ATOM      2  O   UNL A   1      32.638  29.011  25.180  1.00  0.00    -0.462 OA
BRANCH   2   3
ATOM      3  C   UNL A   1      33.062  27.754  25.511  1.00  0.00     0.310 C 
ATOM      4  O   UNL A   1      34.198  27.508  25.908  1.00  0.00    -0.252 OA
BRANCH   3   5
ATOM      5  C   UNL A   1      32.012  26.667  25.239  1.00  0.00     0.119 C 
ATOM      6  C   UNL A   1      32.557  25.201  25.152  1.00  0.00     0.100 C 
ATOM      7  C   UNL A   1      31.987  24.496  23.879  1.00  0.00     0.025 C 
ATOM      8  C   UNL A   1      31.296  26.993  23.886  1.00  0.00     0.026 C 
ATOM      9  C   UNL A   1      30.491  24.734  23.781  1.00  0.00    -0.027 C 
ATOM     10  C   UNL A   1      32.595  25.191  22.652  1.00  0.00     0.009 C 
ATOM     11  C   UNL A   1      30.135  26.028  23.769  1.00  0.00    -0.027 C 
ATOM     12  C   UNL A   1      32.235  26.693  22.682  1.00  0.00     0.009 C 
BRANCH   6  13
ATOM     13  C   UNL A   1      32.259  24.307  26.341  1.00  0.00     0.229 C 
ATOM     14  N   UNL A   1      32.885  23.102  26.542  1.00  0.00    -0.317 N 
ATOM     15  H   UNL A   1      32.445  22.556  27.234  1.00  0.00     0.170 HD
ATOM     16  O   UNL A   1      31.392  24.624  27.165  1.00  0.00    -0.274 OA
BRANCH  14  17
ATOM     17  C   UNL A   1      34.001  22.473  25.993  1.00  0.00     0.110 A 
ATOM     18  C   UNL A   1      34.048  21.148  25.533  1.00  0.00     0.098 A 
ATOM     19  C   UNL A   1      35.395  20.783  25.226  1.00  0.00    -0.017 A 
ATOM     20  S   UNL A   1      35.521  23.238  25.835  1.00  0.00    -0.122 S 
ATOM     21  C   UNL A   1      36.254  21.835  25.359  1.00  0.00     0.011 A 
ATOM     22  C   UNL A   1      36.130  19.577  24.755  1.00  0.00     0.038 C 
ATOM     23  C   UNL A   1      37.667  21.537  25.037  1.00  0.00     0.047 C 
ATOM     24  C   UNL A   1      37.624  19.982  24.996  1.00  0.00     0.010 C 
BRANCH  18  25
ATOM     25  C   UNL A   1      32.865  20.306  25.440  1.00  0.00     0.341 C 
ATOM     26  O   UNL A   1      31.770  20.745  25.098  1.00  0.00    -0.246 OA
BRANCH  25  27
ATOM     27  O   UNL A   1      33.089  19.022  25.834  1.00  0.00    -0.462 OA
BRANCH  27  28
ATOM     28  C   UNL A   1      32.745  17.993  24.892  1.00  0.00     0.230 C 
ATOM     29  C   UNL A   1      32.683  16.602  25.505  1.00  0.00     0.049 C 
ENDBRANCH  27  28
ENDBRANCH  25  27
ENDBRANCH  18  25
ENDBRANCH  14  17
ENDBRANCH   6  13
ENDBRANCH   3   5
ENDBRANCH   2   3
ENDBRANCH   1   2
BRANCH   1  30
ATOM     30  C   UNL A   1      32.393  30.481  27.175  1.00  0.00     0.275 C 
BRANCH  30  31
ATOM     31  O   UNL A   1      33.768  30.817  26.926  1.00  0.00    -0.458 OA
BRANCH  31  32
ATOM     32  C   UNL A   1      34.333  31.496  27.941  1.00  0.00     0.338 C 
ATOM     33  O   UNL A   1      34.018  32.607  28.322  1.00  0.00    -0.246 OA
BRANCH  32  34
ATOM     34  C   UNL A   1      35.586  30.913  28.411  1.00  0.00     0.060 A 
ATOM     35  C   UNL A   1      36.579  31.825  28.775  1.00  0.00     0.016 A 
ATOM     36  C   UNL A   1      35.872  29.560  28.235  1.00  0.00     0.016 A 
ATOM     37  C   UNL A   1      37.890  31.423  28.815  1.00  0.00     0.010 A 
ATOM     38  C   UNL A   1      37.184  29.136  28.356  1.00  0.00     0.010 A 
ATOM     39  C   UNL A   1      38.191  30.076  28.596  1.00  0.00    -0.014 A 
BRANCH  39  40
ATOM     40  C   UNL A   1      39.565  29.679  28.881  1.00  0.00     0.031 A 
ATOM     41  C   UNL A   1      39.871  29.724  30.338  1.00  0.00     0.074 A 
ATOM     42  C   UNL A   1      40.422  29.194  27.965  1.00  0.00     0.049 A 
ATOM     43  N   UNL A   1      40.741  30.459  30.946  1.00  0.00    -0.248 NA
ATOM     44  C   UNL A   1      38.947  29.010  31.242  1.00  0.00     0.031 C 
ATOM     45  C   UNL A   1      40.124  28.871  26.567  1.00  0.00     0.029 A 
ATOM     46  N   UNL A   1      41.702  28.753  28.125  1.00  0.00    -0.354 N 
ATOM     47  C   UNL A   1      40.629  30.120  32.292  1.00  0.00     0.074 A 
ATOM     48  C   UNL A   1      39.389  29.403  32.435  1.00  0.00     0.031 C 
ATOM     49  C   UNL A   1      41.086  28.050  26.094  1.00  0.00     0.029 A 
ATOM     50  C   UNL A   1      42.127  27.918  27.099  1.00  0.00     0.049 A 
ATOM     51  H   UNL A   1      42.269  29.002  28.890  1.00  0.00     0.167 HD
ATOM     52  C   UNL A   1      41.709  30.156  33.116  1.00  0.00     0.031 A 
ATOM     53  C   UNL A   1      43.221  27.120  27.096  1.00  0.00     0.031 A 
ATOM     54  C   UNL A   1      42.774  30.947  32.562  1.00  0.00     0.049 A 
ATOM     55  C   UNL A   1      44.164  27.626  28.117  1.00  0.00     0.074 A 
ATOM     56  C   UNL A   1      43.039  32.283  32.375  1.00  0.00     0.029 A 
ATOM     57  N   UNL A   1      43.636  30.237  31.768  1.00  0.00    -0.354 N 
ATOM     58  N   UNL A   1      44.768  28.778  28.021  1.00  0.00    -0.248 NA
ATOM     59  C   UNL A   1      44.206  27.007  29.437  1.00  0.00     0.031 C 
ATOM     60  C   UNL A   1      43.958  32.352  31.287  1.00  0.00     0.029 A 
ATOM     61  C   UNL A   1      44.250  31.057  30.861  1.00  0.00     0.049 A 
ATOM     62  H   UNL A   1      43.792  29.268  31.839  1.00  0.00     0.167 HD
ATOM     63  C   UNL A   1      44.890  29.213  29.326  1.00  0.00     0.074 A 
ATOM     64  C   UNL A   1      44.696  28.027  30.148  1.00  0.00     0.031 C 
ATOM     65  C   UNL A   1      44.816  30.540  29.632  1.00  0.00     0.031 A 
BRANCH  52  66
ATOM     66  C   UNL A   1      42.005  29.044  34.105  1.00  0.00    -0.014 A 
ATOM     67  C   UNL A   1      42.385  27.782  33.607  1.00  0.00     0.010 A 
ATOM     68  C   UNL A   1      41.609  29.099  35.460  1.00  0.00     0.010 A 
ATOM     69  C   UNL A   1      42.301  26.629  34.402  1.00  0.00     0.020 A 
ATOM     70  C   UNL A   1      41.557  27.966  36.270  1.00  0.00     0.020 A 
ATOM     71  C   UNL A   1      41.871  26.731  35.725  1.00  0.00     0.054 A 
BRANCH  71  72
ATOM     72  S   UNL A   1      41.651  25.231  36.712  1.00  0.00     0.124 S 
ATOM     73  O   UNL A   1      42.925  25.150  37.420  1.00  0.00    -0.237 OA
ATOM     74  O   UNL A   1      40.488  25.566  37.527  1.00  0.00    -0.237 OA
ATOM     75  O   UNL A   1      41.424  24.193  35.709  1.00  0.00    -0.744 OA
ENDBRANCH  71  72
ENDBRANCH  52  66
BRANCH  53  76
ATOM     76  C   UNL A   1      43.408  25.820  26.413  1.00  0.00    -0.014 A 
ATOM     77  C   UNL A   1      44.452  25.631  25.490  1.00  0.00     0.010 A 
ATOM     78  C   UNL A   1      42.716  24.679  26.871  1.00  0.00     0.010 A 
ATOM     79  C   UNL A   1      44.828  24.341  25.083  1.00  0.00     0.020 A 
ATOM     80  C   UNL A   1      43.080  23.392  26.462  1.00  0.00     0.020 A 
ATOM     81  C   UNL A   1      44.150  23.227  25.587  1.00  0.00     0.054 A 
BRANCH  81  82
ATOM     82  S   UNL A   1      44.753  21.561  25.185  1.00  0.00     0.124 S 
ATOM     83  O   UNL A   1      46.095  21.569  25.762  1.00  0.00    -0.237 OA
ATOM     84  O   UNL A   1      43.782  20.701  25.855  1.00  0.00    -0.237 OA
ATOM     85  O   UNL A   1      44.708  21.522  23.724  1.00  0.00    -0.744 OA
ENDBRANCH  81  82
ENDBRANCH  53  76
BRANCH  65  86
ATOM     86  C   UNL A   1      45.189  31.529  28.565  1.00  0.00    -0.014 A 
ATOM     87  C   UNL A   1      44.286  32.075  27.634  1.00  0.00     0.010 A 
ATOM     88  C   UNL A   1      46.518  31.988  28.569  1.00  0.00     0.010 A 
ATOM     89  C   UNL A   1      44.715  33.046  26.718  1.00  0.00     0.020 A 
ATOM     90  C   UNL A   1      46.945  32.966  27.674  1.00  0.00     0.020 A 
ATOM     91  C   UNL A   1      46.043  33.486  26.745  1.00  0.00     0.054 A 
BRANCH  91  92
ATOM     92  S   UNL A   1      46.582  34.773  25.588  1.00  0.00     0.124 S 
ATOM     93  O   UNL A   1      45.697  34.564  24.445  1.00  0.00    -0.237 OA
ATOM     94  O   UNL A   1      46.355  36.004  26.343  1.00  0.00    -0.237 OA
ATOM     95  O   UNL A   1      47.990  34.457  25.345  1.00  0.00    -0.744 OA
ENDBRANCH  91  92
ENDBRANCH  65  86
ENDBRANCH  39  40
ENDBRANCH  32  34
ENDBRANCH  31  32
ENDBRANCH  30  31
ENDBRANCH   1  30
TORSDOF 19
ENDMDL
MODEL 2
REMARK VINA RESULT:     -11.8      1.197      1.751
REMARK SMILES CCOC(=O)c1c(NC(=O)[C@@H]2[C@@H](C(=O)OCCOC(=O)c3ccc(-c4c5nc(c(-c6ccc(S(=O)(=O)[O-])cc6)c6ccc([nH]6)c(-c6ccc(S(=O)(=O)[O-])cc6)c6nc(c(-c7ccc(S(=O)(=O)[O-])cc7)c7ccc4[nH]7)C=C6)C=C5)cc3)[C@@H]3C=C[C@H]2CC3)sc2c1CCC2
REMARK SMILES IDX 16 1 15 2 13 3 14 4 12 5 11 6 84 7 81 8 83 9 85 10 82 11
REMARK SMILES IDX 86 12 9 13 8 14 10 16 7 17 6 18 89 19 87 20 88 21 90 22
REMARK SMILES IDX 92 23 91 24 4 25 5 26 3 27 2 28 1 29 17 30 18 31 19 32 20 33
REMARK SMILES IDX 21 34 22 35 80 36 23 37 79 38 24 39 25 40 26 41 73 42 27 43
REMARK SMILES IDX 78 44 72 45 74 46 28 47 77 48 71 49 70 50 29 52 59 53 40 54
REMARK SMILES IDX 58 55 41 56 44 57 57 58 75 59 42 60 43 61 56 63 76 64 45 65
REMARK SMILES IDX 30 66 31 67 39 68 32 69 38 70 33 71 34 72 35 73 36 74 37 75
REMARK SMILES IDX 60 76 61 77 69 78 62 79 68 80 63 81 64 82 65 83 66 84 67 85
REMARK SMILES IDX 46 86 47 87 55 88 48 89 54 90 49 91 50 92 51 93 52 94 53 95
REMARK H PARENT 8 15 74 51 44 62
REMARK Flexibility Score: inf
ROOT
ATOM      1  C   UNL A   1      33.306  28.581  27.374  1.00  0.00     0.274 C 
ENDROOT
BRANCH   1   2
ATOM      2  O   UNL A   1      32.866  27.771  26.256  1.00  0.00    -0.462 OA
BRANCH   2   3
ATOM      3  C   UNL A   1      31.556  27.383  26.271  1.00  0.00     0.310 C 
ATOM      4  O   UNL A   1      30.965  27.043  27.294  1.00  0.00    -0.252 OA
BRANCH   3   5
ATOM      5  C   UNL A   1      30.925  27.311  24.873  1.00  0.00     0.119 C 
ATOM      6  C   UNL A   1      31.563  26.271  23.891  1.00  0.00     0.100 C 
ATOM      7  C   UNL A   1      31.840  26.944  22.508  1.00  0.00     0.025 C 
ATOM      8  C   UNL A   1      31.029  28.724  24.208  1.00  0.00     0.026 C 
ATOM      9  C   UNL A   1      30.620  27.730  22.061  1.00  0.00    -0.027 C 
ATOM     10  C   UNL A   1      32.947  27.988  22.713  1.00  0.00     0.009 C 
ATOM     11  C   UNL A   1      30.209  28.662  22.935  1.00  0.00    -0.027 C 
ATOM     12  C   UNL A   1      32.492  29.019  23.769  1.00  0.00     0.009 C 
BRANCH   6  13
ATOM     13  C   UNL A   1      30.753  25.014  23.633  1.00  0.00     0.229 C 
ATOM     14  N   UNL A   1      31.330  23.799  23.359  1.00  0.00    -0.317 N 
ATOM     15  H   UNL A   1      30.682  23.139  23.020  1.00  0.00     0.170 HD
ATOM     16  O   UNL A   1      29.516  25.054  23.620  1.00  0.00    -0.274 OA
BRANCH  14  17
ATOM     17  C   UNL A   1      32.622  23.285  23.451  1.00  0.00     0.110 A 
ATOM     18  C   UNL A   1      33.043  22.289  24.346  1.00  0.00     0.098 A 
ATOM     19  C   UNL A   1      34.465  22.156  24.298  1.00  0.00    -0.017 A 
ATOM     20  S   UNL A   1      33.919  23.840  22.486  1.00  0.00    -0.122 S 
ATOM     21  C   UNL A   1      35.021  22.947  23.335  1.00  0.00     0.011 A 
ATOM     22  C   UNL A   1      35.521  21.360  24.980  1.00  0.00     0.038 C 
ATOM     23  C   UNL A   1      36.493  22.847  23.212  1.00  0.00     0.047 C 
ATOM     24  C   UNL A   1      36.833  22.085  24.526  1.00  0.00     0.010 C 
BRANCH  18  25
ATOM     25  C   UNL A   1      32.119  21.559  25.200  1.00  0.00     0.341 C 
ATOM     26  O   UNL A   1      31.911  20.355  25.067  1.00  0.00    -0.246 OA
BRANCH  25  27
ATOM     27  O   UNL A   1      31.474  22.355  26.096  1.00  0.00    -0.462 OA
BRANCH  27  28
ATOM     28  C   UNL A   1      32.301  23.183  26.930  1.00  0.00     0.230 C 
ATOM     29  C   UNL A   1      33.112  22.400  27.953  1.00  0.00     0.049 C 
ENDBRANCH  27  28
ENDBRANCH  25  27
ENDBRANCH  18  25
ENDBRANCH  14  17
ENDBRANCH   6  13
ENDBRANCH   3   5
ENDBRANCH   2   3
ENDBRANCH   1   2
BRANCH   1  30
ATOM     30  C   UNL A   1      33.423  30.071  27.030  1.00  0.00     0.275 C 
BRANCH  30  31
ATOM     31  O   UNL A   1      33.590  30.961  28.147  1.00  0.00    -0.458 OA
BRANCH  31  32
ATOM     32  C   UNL A   1      34.682  31.739  28.038  1.00  0.00     0.338 C 
ATOM     33  O   UNL A   1      34.751  32.798  27.443  1.00  0.00    -0.246 OA
BRANCH  32  34
ATOM     34  C   UNL A   1      35.914  31.084  28.466  1.00  0.00     0.060 A 
ATOM     35  C   UNL A   1      36.895  31.925  28.996  1.00  0.00     0.016 A 
ATOM     36  C   UNL A   1      36.204  29.769  28.107  1.00  0.00     0.016 A 
ATOM     37  C   UNL A   1      38.203  31.510  29.027  1.00  0.00     0.010 A 
ATOM     38  C   UNL A   1      37.509  29.320  28.215  1.00  0.00     0.010 A 
ATOM     39  C   UNL A   1      38.508  30.207  28.627  1.00  0.00    -0.014 A 
BRANCH  39  40
ATOM     40  C   UNL A   1      39.868  29.762  28.903  1.00  0.00     0.031 A 
ATOM     41  C   UNL A   1      40.177  29.774  30.360  1.00  0.00     0.074 A 
ATOM     42  C   UNL A   1      40.709  29.265  27.978  1.00  0.00     0.049 A 
ATOM     43  N   UNL A   1      41.071  30.470  30.980  1.00  0.00    -0.248 NA
ATOM     44  C   UNL A   1      39.232  29.074  31.254  1.00  0.00     0.031 C 
ATOM     45  C   UNL A   1      40.400  28.974  26.576  1.00  0.00     0.029 A 
ATOM     46  N   UNL A   1      41.974  28.780  28.129  1.00  0.00    -0.354 N 
ATOM     47  C   UNL A   1      40.949  30.113  32.320  1.00  0.00     0.074 A 
ATOM     48  C   UNL A   1      39.687  29.433  32.452  1.00  0.00     0.031 C 
ATOM     49  C   UNL A   1      41.334  28.131  26.088  1.00  0.00     0.029 A 
ATOM     50  C   UNL A   1      42.371  27.949  27.090  1.00  0.00     0.049 A 
ATOM     51  H   UNL A   1      42.550  28.998  28.898  1.00  0.00     0.167 HD
ATOM     52  C   UNL A   1      42.031  30.101  33.143  1.00  0.00     0.031 A 
ATOM     53  C   UNL A   1      43.439  27.117  27.071  1.00  0.00     0.031 A 
ATOM     54  C   UNL A   1      43.120  30.866  32.600  1.00  0.00     0.049 A 
ATOM     55  C   UNL A   1      44.399  27.576  28.099  1.00  0.00     0.074 A 
ATOM     56  C   UNL A   1      43.428  32.196  32.435  1.00  0.00     0.029 A 
ATOM     57  N   UNL A   1      43.958  30.141  31.793  1.00  0.00    -0.354 N 
ATOM     58  N   UNL A   1      45.040  28.709  28.021  1.00  0.00    -0.248 NA
ATOM     59  C   UNL A   1      44.422  26.934  29.409  1.00  0.00     0.031 C 
ATOM     60  C   UNL A   1      44.347  32.253  31.347  1.00  0.00     0.029 A 
ATOM     61  C   UNL A   1      44.598  30.957  30.899  1.00  0.00     0.049 A 
ATOM     62  H   UNL A   1      44.083  29.167  31.849  1.00  0.00     0.167 HD
ATOM     63  C   UNL A   1      45.176  29.118  29.334  1.00  0.00     0.074 A 
ATOM     64  C   UNL A   1      44.945  27.926  30.136  1.00  0.00     0.031 C 
ATOM     65  C   UNL A   1      45.145  30.441  29.661  1.00  0.00     0.031 A 
BRANCH  52  66
ATOM     66  C   UNL A   1      42.291  28.963  34.113  1.00  0.00    -0.014 A 
ATOM     67  C   UNL A   1      42.626  27.697  33.594  1.00  0.00     0.010 A 
ATOM     68  C   UNL A   1      41.904  29.011  35.470  1.00  0.00     0.010 A 
ATOM     69  C   UNL A   1      42.505  26.535  34.371  1.00  0.00     0.020 A 
ATOM     70  C   UNL A   1      41.815  27.868  36.263  1.00  0.00     0.020 A 
ATOM     71  C   UNL A   1      42.084  26.631  35.698  1.00  0.00     0.054 A 
BRANCH  71  72
ATOM     72  S   UNL A   1      41.816  25.125  36.662  1.00  0.00     0.124 S 
ATOM     73  O   UNL A   1      43.063  25.025  37.414  1.00  0.00    -0.237 OA
ATOM     74  O   UNL A   1      40.628  25.463  37.439  1.00  0.00    -0.237 OA
ATOM     75  O   UNL A   1      41.615  24.098  35.642  1.00  0.00    -0.744 OA
ENDBRANCH  71  72
ENDBRANCH  52  66
BRANCH  53  76
ATOM     76  C   UNL A   1      43.584  25.823  26.367  1.00  0.00    -0.014 A 
ATOM     77  C   UNL A   1      44.684  25.575  25.528  1.00  0.00     0.010 A 
ATOM     78  C   UNL A   1      42.772  24.729  26.732  1.00  0.00     0.010 A 
ATOM     79  C   UNL A   1      44.994  24.270  25.114  1.00  0.00     0.020 A 
ATOM     80  C   UNL A   1      43.070  23.427  26.316  1.00  0.00     0.020 A 
ATOM     81  C   UNL A   1      44.195  23.200  25.527  1.00  0.00     0.054 A 
BRANCH  81  82
ATOM     82  S   UNL A   1      44.701  21.502  25.125  1.00  0.00     0.124 S 
ATOM     83  O   UNL A   1      43.718  20.705  25.854  1.00  0.00    -0.237 OA
ATOM     84  O   UNL A   1      44.588  21.472  23.670  1.00  0.00    -0.237 OA
ATOM     85  O   UNL A   1      46.068  21.421  25.640  1.00  0.00    -0.744 OA
ENDBRANCH  81  82
ENDBRANCH  53  76
BRANCH  65  86
ATOM     86  C   UNL A   1      45.549  31.436  28.610  1.00  0.00    -0.014 A 
ATOM     87  C   UNL A   1      44.666  32.014  27.680  1.00  0.00     0.010 A 
ATOM     88  C   UNL A   1      46.888  31.864  28.630  1.00  0.00     0.010 A 
ATOM     89  C   UNL A   1      45.124  32.987  26.780  1.00  0.00     0.020 A 
ATOM     90  C   UNL A   1      47.344  32.844  27.751  1.00  0.00     0.020 A 
ATOM     91  C   UNL A   1      46.461  33.396  26.822  1.00  0.00     0.054 A 
BRANCH  91  92
ATOM     92  S   UNL A   1      47.039  34.686  25.686  1.00  0.00     0.124 S 
ATOM     93  O   UNL A   1      46.026  34.658  24.634  1.00  0.00    -0.237 OA
ATOM     94  O   UNL A   1      47.040  35.881  26.527  1.00  0.00    -0.237 OA
ATOM     95  O   UNL A   1      48.366  34.224  25.279  1.00  0.00    -0.744 OA
ENDBRANCH  91  92
ENDBRANCH  65  86
ENDBRANCH  39  40
ENDBRANCH  32  34
ENDBRANCH  31  32
ENDBRANCH  30  31
ENDBRANCH   1  30
TORSDOF 19
ENDMDL
MODEL 3
REMARK VINA RESULT:     -11.8      2.816      9.516
REMARK SMILES CCOC(=O)c1c(NC(=O)[C@@H]2[C@@H](C(=O)OCCOC(=O)c3ccc(-c4c5nc(c(-c6ccc(S(=O)(=O)[O-])cc6)c6ccc([nH]6)c(-c6ccc(S(=O)(=O)[O-])cc6)c6nc(c(-c7ccc(S(=O)(=O)[O-])cc7)c7ccc4[nH]7)C=C6)C=C5)cc3)[C@@H]3C=C[C@H]2CC3)sc2c1CCC2
REMARK SMILES IDX 16 1 15 2 13 3 14 4 12 5 11 6 84 7 81 8 83 9 85 10 82 11
REMARK SMILES IDX 86 12 9 13 8 14 10 16 7 17 6 18 89 19 87 20 88 21 90 22
REMARK SMILES IDX 92 23 91 24 4 25 5 26 3 27 2 28 1 29 17 30 18 31 19 32 20 33
REMARK SMILES IDX 21 34 22 35 80 36 23 37 79 38 24 39 25 40 26 41 73 42 27 43
REMARK SMILES IDX 78 44 72 45 74 46 28 47 77 48 71 49 70 50 29 52 59 53 40 54
REMARK SMILES IDX 58 55 41 56 44 57 57 58 75 59 42 60 43 61 56 63 76 64 45 65
REMARK SMILES IDX 30 66 31 67 39 68 32 69 38 70 33 71 34 72 35 73 36 74 37 75
REMARK SMILES IDX 60 76 61 77 69 78 62 79 68 80 63 81 64 82 65 83 66 84 67 85
REMARK SMILES IDX 46 86 47 87 55 88 48 89 54 90 49 91 50 92 51 93 52 94 53 95
REMARK H PARENT 8 15 74 51 44 62
REMARK Flexibility Score: inf
ROOT
ATOM      1  C   UNL A   1      35.811  21.402  25.666  1.00  0.00     0.274 C 
ENDROOT
BRANCH   1   2
ATOM      2  O   UNL A   1      34.864  21.931  24.706  1.00  0.00    -0.462 OA
BRANCH   2   3
ATOM      3  C   UNL A   1      34.576  23.263  24.814  1.00  0.00     0.310 C 
ATOM      4  O   UNL A   1      35.149  24.016  25.598  1.00  0.00    -0.252 OA
BRANCH   3   5
ATOM      5  C   UNL A   1      33.396  23.704  23.937  1.00  0.00     0.119 C 
ATOM      6  C   UNL A   1      32.924  25.186  24.125  1.00  0.00     0.100 C 
ATOM      7  C   UNL A   1      31.370  25.234  24.289  1.00  0.00     0.025 C 
ATOM      8  C   UNL A   1      32.175  22.771  24.239  1.00  0.00     0.026 C 
ATOM      9  C   UNL A   1      30.711  24.379  23.222  1.00  0.00    -0.027 C 
ATOM     10  C   UNL A   1      31.024  24.562  25.626  1.00  0.00     0.009 C 
ATOM     11  C   UNL A   1      31.117  23.099  23.206  1.00  0.00    -0.027 C 
ATOM     12  C   UNL A   1      31.553  23.111  25.624  1.00  0.00     0.009 C 
BRANCH   6  13
ATOM     13  C   UNL A   1      33.296  26.150  23.014  1.00  0.00     0.229 C 
ATOM     14  N   UNL A   1      33.109  27.507  23.111  1.00  0.00    -0.317 N 
ATOM     15  H   UNL A   1      33.208  27.966  22.246  1.00  0.00     0.170 HD
ATOM     16  O   UNL A   1      33.751  25.730  21.943  1.00  0.00    -0.274 OA
BRANCH  14  17
ATOM     17  C   UNL A   1      32.813  28.383  24.154  1.00  0.00     0.110 A 
ATOM     18  C   UNL A   1      31.666  29.188  24.244  1.00  0.00     0.098 A 
ATOM     19  C   UNL A   1      31.792  30.100  25.336  1.00  0.00    -0.017 A 
ATOM     20  S   UNL A   1      33.853  28.635  25.486  1.00  0.00    -0.122 S 
ATOM     21  C   UNL A   1      32.930  29.882  26.057  1.00  0.00     0.011 A 
ATOM     22  C   UNL A   1      31.004  31.207  25.944  1.00  0.00     0.038 C 
ATOM     23  C   UNL A   1      33.118  30.777  27.221  1.00  0.00     0.047 C 
ATOM     24  C   UNL A   1      32.042  31.861  26.917  1.00  0.00     0.010 C 
BRANCH  18  25
ATOM     25  C   UNL A   1      30.560  29.086  23.305  1.00  0.00     0.341 C 
ATOM     26  O   UNL A   1      30.647  28.461  22.250  1.00  0.00    -0.246 OA
BRANCH  25  27
ATOM     27  O   UNL A   1      29.465  29.800  23.686  1.00  0.00    -0.462 OA
BRANCH  27  28
ATOM     28  C   UNL A   1      29.015  30.818  22.778  1.00  0.00     0.230 C 
ATOM     29  C   UNL A   1      27.658  31.403  23.142  1.00  0.00     0.049 C 
ENDBRANCH  27  28
ENDBRANCH  25  27
ENDBRANCH  18  25
ENDBRANCH  14  17
ENDBRANCH   6  13
ENDBRANCH   3   5
ENDBRANCH   2   3
ENDBRANCH   1   2
BRANCH   1  30
ATOM     30  C   UNL A   1      37.191  21.117  25.058  1.00  0.00     0.275 C 
BRANCH  30  31
ATOM     31  O   UNL A   1      38.162  22.169  25.186  1.00  0.00    -0.458 OA
BRANCH  31  32
ATOM     32  C   UNL A   1      39.190  21.837  25.989  1.00  0.00     0.338 C 
ATOM     33  O   UNL A   1      39.640  20.719  26.151  1.00  0.00    -0.246 OA
BRANCH  32  34
ATOM     34  C   UNL A   1      39.585  22.902  26.906  1.00  0.00     0.060 A 
ATOM     35  C   UNL A   1      38.831  24.076  26.831  1.00  0.00     0.016 A 
ATOM     36  C   UNL A   1      40.796  22.861  27.595  1.00  0.00     0.016 A 
ATOM     37  C   UNL A   1      39.353  25.251  27.309  1.00  0.00     0.010 A 
ATOM     38  C   UNL A   1      41.287  24.030  28.150  1.00  0.00     0.010 A 
ATOM     39  C   UNL A   1      40.588  25.226  27.962  1.00  0.00    -0.014 A 
BRANCH  39  40
ATOM     40  C   UNL A   1      40.969  26.457  28.644  1.00  0.00     0.031 A 
ATOM     41  C   UNL A   1      42.158  27.099  28.018  1.00  0.00     0.074 A 
ATOM     42  C   UNL A   1      40.260  27.030  29.633  1.00  0.00     0.049 A 
ATOM     43  N   UNL A   1      43.314  27.323  28.547  1.00  0.00    -0.248 NA
ATOM     44  C   UNL A   1      42.108  27.331  26.560  1.00  0.00     0.031 C 
ATOM     45  C   UNL A   1      38.948  26.609  30.131  1.00  0.00     0.029 A 
ATOM     46  N   UNL A   1      40.494  28.193  30.305  1.00  0.00    -0.354 N 
ATOM     47  C   UNL A   1      44.061  27.940  27.548  1.00  0.00     0.074 A 
ATOM     48  C   UNL A   1      43.356  27.724  26.312  1.00  0.00     0.031 C 
ATOM     49  C   UNL A   1      38.390  27.632  30.813  1.00  0.00     0.029 A 
ATOM     50  C   UNL A   1      39.361  28.708  30.922  1.00  0.00     0.049 A 
ATOM     51  H   UNL A   1      41.378  28.624  30.349  1.00  0.00     0.167 HD
ATOM     52  C   UNL A   1      45.013  28.861  27.853  1.00  0.00     0.031 A 
ATOM     53  C   UNL A   1      39.202  29.953  31.429  1.00  0.00     0.031 A 
ATOM     54  C   UNL A   1      45.409  28.780  29.232  1.00  0.00     0.049 A 
ATOM     55  C   UNL A   1      40.544  30.521  31.686  1.00  0.00     0.074 A 
ATOM     56  C   UNL A   1      46.166  27.937  30.011  1.00  0.00     0.029 A 
ATOM     57  N   UNL A   1      44.654  29.556  30.072  1.00  0.00    -0.354 N 
ATOM     58  N   UNL A   1      41.357  30.050  32.590  1.00  0.00    -0.248 NA
ATOM     59  C   UNL A   1      41.149  31.424  30.713  1.00  0.00     0.031 C 
ATOM     60  C   UNL A   1      45.687  28.098  31.344  1.00  0.00     0.029 A 
ATOM     61  C   UNL A   1      44.673  29.056  31.346  1.00  0.00     0.049 A 
ATOM     62  H   UNL A   1      44.163  30.364  29.797  1.00  0.00     0.167 HD
ATOM     63  C   UNL A   1      42.616  30.251  32.059  1.00  0.00     0.074 A 
ATOM     64  C   UNL A   1      42.439  31.244  31.009  1.00  0.00     0.031 C 
ATOM     65  C   UNL A   1      43.626  29.366  32.298  1.00  0.00     0.031 A 
BRANCH  52  66
ATOM     66  C   UNL A   1      45.151  30.163  27.083  1.00  0.00    -0.014 A 
ATOM     67  C   UNL A   1      46.443  30.656  26.818  1.00  0.00     0.010 A 
ATOM     68  C   UNL A   1      44.078  31.063  26.906  1.00  0.00     0.010 A 
ATOM     69  C   UNL A   1      46.654  31.998  26.468  1.00  0.00     0.020 A 
ATOM     70  C   UNL A   1      44.271  32.390  26.524  1.00  0.00     0.020 A 
ATOM     71  C   UNL A   1      45.563  32.859  26.340  1.00  0.00     0.054 A 
BRANCH  71  72
ATOM     72  S   UNL A   1      45.843  34.614  26.005  1.00  0.00     0.124 S 
ATOM     73  O   UNL A   1      44.696  35.231  26.664  1.00  0.00    -0.237 OA
ATOM     74  O   UNL A   1      47.140  34.844  26.632  1.00  0.00    -0.237 OA
ATOM     75  O   UNL A   1      45.841  34.686  24.546  1.00  0.00    -0.744 OA
ENDBRANCH  71  72
ENDBRANCH  52  66
BRANCH  53  76
ATOM     76  C   UNL A   1      37.967  30.764  31.505  1.00  0.00    -0.014 A 
ATOM     77  C   UNL A   1      37.474  31.218  32.741  1.00  0.00     0.010 A 
ATOM     78  C   UNL A   1      37.414  31.316  30.331  1.00  0.00     0.010 A 
ATOM     79  C   UNL A   1      36.503  32.231  32.801  1.00  0.00     0.020 A 
ATOM     80  C   UNL A   1      36.441  32.319  30.383  1.00  0.00     0.020 A 
ATOM     81  C   UNL A   1      36.006  32.789  31.620  1.00  0.00     0.054 A 
BRANCH  81  82
ATOM     82  S   UNL A   1      34.879  34.211  31.712  1.00  0.00     0.124 S 
ATOM     83  O   UNL A   1      33.698  33.630  32.346  1.00  0.00    -0.237 OA
ATOM     84  O   UNL A   1      35.631  35.161  32.525  1.00  0.00    -0.237 OA
ATOM     85  O   UNL A   1      34.702  34.599  30.313  1.00  0.00    -0.744 OA
ENDBRANCH  81  82
ENDBRANCH  53  76
BRANCH  65  86
ATOM     86  C   UNL A   1      43.559  28.543  33.553  1.00  0.00    -0.014 A 
ATOM     87  C   UNL A   1      42.723  27.425  33.727  1.00  0.00     0.010 A 
ATOM     88  C   UNL A   1      44.459  28.883  34.578  1.00  0.00     0.010 A 
ATOM     89  C   UNL A   1      42.780  26.677  34.912  1.00  0.00     0.020 A 
ATOM     90  C   UNL A   1      44.534  28.132  35.749  1.00  0.00     0.020 A 
ATOM     91  C   UNL A   1      43.687  27.036  35.915  1.00  0.00     0.054 A 
BRANCH  91  92
ATOM     92  S   UNL A   1      43.789  26.040  37.427  1.00  0.00     0.124 S 
ATOM     93  O   UNL A   1      42.539  25.284  37.393  1.00  0.00    -0.237 OA
ATOM     94  O   UNL A   1      45.005  25.256  37.218  1.00  0.00    -0.237 OA
ATOM     95  O   UNL A   1      43.881  27.035  38.495  1.00  0.00    -0.744 OA
ENDBRANCH  91  92
ENDBRANCH  65  86
ENDBRANCH  39  40
ENDBRANCH  32  34
ENDBRANCH  31  32
ENDBRANCH  30  31
ENDBRANCH   1  30
TORSDOF 19
ENDMDL
