MODEL 1
REMARK VINA RESULT:      -9.9      0.000      0.000
REMARK SMILES CC(=O)N[C@@H](C[NH2+]CCc1ccc(F)cc1C)C(=O)OCCOC(=O)c1ccc(-c2c3nc(c(-c4ccc(S(=O)(=O)[O-])cc4)c4ccc([nH]4)c(-c4ccc(S(=O)(=O)[O-])cc4)c4nc(c(-c5ccc(S(=O)(=O)[O-])cc5)c5ccc2[nH]5)C=C4)C=C3)cc1
REMARK SMILES IDX 21 1 20 2 18 3 19 4 5 5 4 6 1 7 2 8 3 9 6 11 7 12 8 15 9 16
REMARK SMILES IDX 10 17 11 18 16 19 12 20 15 21 17 22 13 23 14 24 22 25 23 26
REMARK SMILES IDX 24 27 25 28 26 29 27 30 85 31 28 32 84 33 29 34 30 35 31 36
REMARK SMILES IDX 78 37 32 38 83 39 77 40 79 41 33 42 82 43 76 44 75 45 34 47
REMARK SMILES IDX 64 48 45 49 63 50 46 51 49 52 62 53 80 54 47 55 48 56 61 58
REMARK SMILES IDX 81 59 50 60 35 61 36 62 44 63 37 64 43 65 38 66 39 67 40 68
REMARK SMILES IDX 41 69 42 70 65 71 66 72 74 73 67 74 73 75 68 76 69 77 70 78
REMARK SMILES IDX 71 79 72 80 51 81 52 82 60 83 53 84 59 85 54 86 55 87 56 88
REMARK SMILES IDX 57 89 58 90
REMARK H PARENT 4 10 7 13 7 14 79 46 49 57
REMARK Flexibility Score: inf
ROOT
ATOM      1  C   UNL A   1      36.061  22.360  24.128  1.00  0.00     0.274 C 
ENDROOT
BRANCH   1   2
ATOM      2  O   UNL A   1      34.700  22.524  24.564  1.00  0.00    -0.460 OA
BRANCH   2   3
ATOM      3  C   UNL A   1      34.211  21.557  25.393  1.00  0.00     0.334 C 
ATOM      4  O   UNL A   1      34.754  21.185  26.427  1.00  0.00    -0.250 OA
BRANCH   3   5
ATOM      5  C   UNL A   1      32.896  20.949  24.875  1.00  0.00     0.247 C 
BRANCH   5   6
ATOM      6  N   UNL A   1      32.491  19.728  25.585  1.00  0.00    -0.338 N 
ATOM      7  C   UNL A   1      33.198  18.127  23.845  1.00  0.00     0.114 C 
ATOM      8  C   UNL A   1      32.587  18.430  25.186  1.00  0.00     0.217 C 
ATOM      9  O   UNL A   1      32.177  17.540  25.928  1.00  0.00    -0.275 OA
ATOM     10  H   UNL A   1      32.094  19.868  26.475  1.00  0.00     0.164 HD
ENDBRANCH   5   6
BRANCH   5  11
ATOM     11  C   UNL A   1      31.795  22.024  24.946  1.00  0.00     0.297 C 
BRANCH  11  12
ATOM     12  N   UNL A   1      31.873  22.773  26.207  1.00  0.00    -0.344 N 
ATOM     13  H   UNL A   1      32.782  22.597  26.635  1.00  0.00     0.346 HD
ATOM     14  H   UNL A   1      31.107  22.455  26.801  1.00  0.00     0.346 HD
BRANCH  12  15
ATOM     15  C   UNL A   1      31.716  24.214  26.018  1.00  0.00     0.265 C 
BRANCH  15  16
ATOM     16  C   UNL A   1      33.006  25.053  26.100  1.00  0.00     0.097 C 
BRANCH  16  17
ATOM     17  C   UNL A   1      33.311  25.998  24.949  1.00  0.00    -0.039 A 
ATOM     18  C   UNL A   1      33.242  25.465  23.643  1.00  0.00     0.007 A 
ATOM     19  C   UNL A   1      33.679  27.353  25.109  1.00  0.00    -0.045 A 
ATOM     20  C   UNL A   1      33.499  26.252  22.522  1.00  0.00     0.039 A 
ATOM     21  C   UNL A   1      33.909  28.139  23.964  1.00  0.00     0.043 A 
ATOM     22  C   UNL A   1      33.782  28.038  26.443  1.00  0.00     0.045 C 
ATOM     23  C   UNL A   1      33.826  27.585  22.693  1.00  0.00     0.123 A 
ATOM     24  F   UNL A   1      34.080  28.349  21.623  1.00  0.00    -0.207 F 
ENDBRANCH  16  17
ENDBRANCH  15  16
ENDBRANCH  12  15
ENDBRANCH  11  12
ENDBRANCH   5  11
ENDBRANCH   3   5
ENDBRANCH   2   3
ENDBRANCH   1   2
BRANCH   1  25
ATOM     25  C   UNL A   1      36.900  23.600  24.437  1.00  0.00     0.275 C 
BRANCH  25  26
ATOM     26  O   UNL A   1      37.203  23.694  25.840  1.00  0.00    -0.458 OA
BRANCH  26  27
ATOM     27  C   UNL A   1      38.439  23.258  26.177  1.00  0.00     0.338 C 
ATOM     28  O   UNL A   1      38.950  22.190  25.891  1.00  0.00    -0.246 OA
BRANCH  27  29
ATOM     29  C   UNL A   1      39.193  24.334  26.834  1.00  0.00     0.060 A 
ATOM     30  C   UNL A   1      38.944  24.549  28.188  1.00  0.00     0.016 A 
ATOM     31  C   UNL A   1      39.993  25.218  26.113  1.00  0.00     0.016 A 
ATOM     32  C   UNL A   1      39.437  25.680  28.822  1.00  0.00     0.010 A 
ATOM     33  C   UNL A   1      40.523  26.340  26.763  1.00  0.00     0.010 A 
ATOM     34  C   UNL A   1      40.219  26.598  28.112  1.00  0.00    -0.014 A 
BRANCH  34  35
ATOM     35  C   UNL A   1      40.627  27.855  28.787  1.00  0.00     0.031 A 
ATOM     36  C   UNL A   1      42.052  28.037  29.237  1.00  0.00     0.074 A 
ATOM     37  C   UNL A   1      39.748  28.867  28.912  1.00  0.00     0.049 A 
ATOM     38  N   UNL A   1      42.595  29.049  29.865  1.00  0.00    -0.248 NA
ATOM     39  C   UNL A   1      42.988  26.940  28.943  1.00  0.00     0.031 C 
ATOM     40  C   UNL A   1      38.354  28.837  28.461  1.00  0.00     0.029 A 
ATOM     41  N   UNL A   1      39.904  30.128  29.427  1.00  0.00    -0.354 N 
ATOM     42  C   UNL A   1      43.921  28.693  30.083  1.00  0.00     0.074 A 
ATOM     43  C   UNL A   1      44.102  27.373  29.516  1.00  0.00     0.031 C 
ATOM     44  C   UNL A   1      37.796  30.039  28.681  1.00  0.00     0.029 A 
ATOM     45  C   UNL A   1      38.773  30.904  29.336  1.00  0.00     0.049 A 
ATOM     46  H   UNL A   1      40.747  30.448  29.823  1.00  0.00     0.167 HD
ATOM     47  C   UNL A   1      44.897  29.398  30.703  1.00  0.00     0.031 A 
ATOM     48  C   UNL A   1      38.543  32.165  29.745  1.00  0.00     0.031 A 
ATOM     49  C   UNL A   1      44.726  30.721  31.239  1.00  0.00     0.049 A 
ATOM     50  C   UNL A   1      39.643  32.928  30.424  1.00  0.00     0.074 A 
ATOM     51  C   UNL A   1      45.648  31.509  31.907  1.00  0.00     0.029 A 
ATOM     52  N   UNL A   1      43.557  31.461  31.154  1.00  0.00    -0.354 N 
ATOM     53  N   UNL A   1      40.872  32.548  30.679  1.00  0.00    -0.248 NA
ATOM     54  C   UNL A   1      39.322  34.290  30.874  1.00  0.00     0.031 C 
ATOM     55  C   UNL A   1      45.028  32.719  32.244  1.00  0.00     0.029 A 
ATOM     56  C   UNL A   1      43.732  32.696  31.754  1.00  0.00     0.049 A 
ATOM     57  H   UNL A   1      42.724  31.154  30.727  1.00  0.00     0.167 HD
ATOM     58  C   UNL A   1      41.472  33.624  31.322  1.00  0.00     0.074 A 
ATOM     59  C   UNL A   1      40.481  34.679  31.390  1.00  0.00     0.031 C 
ATOM     60  C   UNL A   1      42.729  33.727  31.821  1.00  0.00     0.031 A 
BRANCH  47  61
ATOM     61  C   UNL A   1      46.229  28.720  30.874  1.00  0.00    -0.014 A 
ATOM     62  C   UNL A   1      46.505  27.918  31.994  1.00  0.00     0.010 A 
ATOM     63  C   UNL A   1      47.218  28.887  29.887  1.00  0.00     0.010 A 
ATOM     64  C   UNL A   1      47.763  27.324  32.144  1.00  0.00     0.020 A 
ATOM     65  C   UNL A   1      48.468  28.279  30.023  1.00  0.00     0.020 A 
ATOM     66  C   UNL A   1      48.739  27.517  31.162  1.00  0.00     0.054 A 
BRANCH  66  67
ATOM     67  S   UNL A   1      50.364  26.734  31.368  1.00  0.00     0.124 S 
ATOM     68  O   UNL A   1      51.146  27.387  30.322  1.00  0.00    -0.237 OA
ATOM     69  O   UNL A   1      50.725  27.090  32.738  1.00  0.00    -0.237 OA
ATOM     70  O   UNL A   1      50.091  25.315  31.150  1.00  0.00    -0.744 OA
ENDBRANCH  66  67
ENDBRANCH  47  61
BRANCH  48  71
ATOM     71  C   UNL A   1      37.203  32.775  29.538  1.00  0.00    -0.014 A 
ATOM     72  C   UNL A   1      36.322  32.952  30.617  1.00  0.00     0.010 A 
ATOM     73  C   UNL A   1      36.816  33.209  28.256  1.00  0.00     0.010 A 
ATOM     74  C   UNL A   1      35.073  33.547  30.419  1.00  0.00     0.020 A 
ATOM     75  C   UNL A   1      35.579  33.826  28.059  1.00  0.00     0.020 A 
ATOM     76  C   UNL A   1      34.710  33.984  29.141  1.00  0.00     0.054 A 
BRANCH  76  77
ATOM     77  S   UNL A   1      33.121  34.828  28.912  1.00  0.00     0.124 S 
ATOM     78  O   UNL A   1      32.457  33.964  27.942  1.00  0.00    -0.237 OA
ATOM     79  O   UNL A   1      32.554  34.821  30.259  1.00  0.00    -0.237 OA
ATOM     80  O   UNL A   1      33.510  36.147  28.417  1.00  0.00    -0.744 OA
ENDBRANCH  76  77
ENDBRANCH  48  71
BRANCH  60  81
ATOM     81  C   UNL A   1      43.094  35.033  32.467  1.00  0.00    -0.014 A 
ATOM     82  C   UNL A   1      42.788  35.278  33.818  1.00  0.00     0.010 A 
ATOM     83  C   UNL A   1      43.750  36.025  31.717  1.00  0.00     0.010 A 
ATOM     84  C   UNL A   1      43.091  36.513  34.396  1.00  0.00     0.020 A 
ATOM     85  C   UNL A   1      44.071  37.253  32.297  1.00  0.00     0.020 A 
ATOM     86  C   UNL A   1      43.720  37.498  33.628  1.00  0.00     0.054 A 
BRANCH  86  87
ATOM     87  S   UNL A   1      44.108  39.098  34.389  1.00  0.00     0.124 S 
ATOM     88  O   UNL A   1      44.071  38.772  35.812  1.00  0.00    -0.237 OA
ATOM     89  O   UNL A   1      45.430  39.405  33.849  1.00  0.00    -0.237 OA
ATOM     90  O   UNL A   1      43.034  39.970  33.920  1.00  0.00    -0.744 OA
ENDBRANCH  86  87
ENDBRANCH  60  81
ENDBRANCH  34  35
ENDBRANCH  27  29
ENDBRANCH  26  27
ENDBRANCH  25  26
ENDBRANCH   1  25
TORSDOF 20
ENDMDL
MODEL 2
REMARK VINA RESULT:      -9.8      3.642      9.349
REMARK SMILES CC(=O)N[C@@H](C[NH2+]CCc1ccc(F)cc1C)C(=O)OCCOC(=O)c1ccc(-c2c3nc(c(-c4ccc(S(=O)(=O)[O-])cc4)c4ccc([nH]4)c(-c4ccc(S(=O)(=O)[O-])cc4)c4nc(c(-c5ccc(S(=O)(=O)[O-])cc5)c5ccc2[nH]5)C=C4)C=C3)cc1
REMARK SMILES IDX 21 1 20 2 18 3 19 4 5 5 4 6 1 7 2 8 3 9 6 11 7 12 8 15 9 16
REMARK SMILES IDX 10 17 11 18 16 19 12 20 15 21 17 22 13 23 14 24 22 25 23 26
REMARK SMILES IDX 24 27 25 28 26 29 27 30 85 31 28 32 84 33 29 34 30 35 31 36
REMARK SMILES IDX 78 37 32 38 83 39 77 40 79 41 33 42 82 43 76 44 75 45 34 47
REMARK SMILES IDX 64 48 45 49 63 50 46 51 49 52 62 53 80 54 47 55 48 56 61 58
REMARK SMILES IDX 81 59 50 60 35 61 36 62 44 63 37 64 43 65 38 66 39 67 40 68
REMARK SMILES IDX 41 69 42 70 65 71 66 72 74 73 67 74 73 75 68 76 69 77 70 78
REMARK SMILES IDX 71 79 72 80 51 81 52 82 60 83 53 84 59 85 54 86 55 87 56 88
REMARK SMILES IDX 57 89 58 90
REMARK H PARENT 4 10 7 13 7 14 79 46 49 57
REMARK Flexibility Score: inf
ROOT
ATOM      1  C   UNL A   1      31.760  29.540  25.550  1.00  0.00     0.274 C 
ENDROOT
BRANCH   1   2
ATOM      2  O   UNL A   1      32.397  28.267  25.760  1.00  0.00    -0.460 OA
BRANCH   2   3
ATOM      3  C   UNL A   1      31.689  27.350  26.480  1.00  0.00     0.334 C 
ATOM      4  O   UNL A   1      31.199  27.556  27.584  1.00  0.00    -0.250 OA
BRANCH   3   5
ATOM      5  C   UNL A   1      31.587  25.993  25.763  1.00  0.00     0.247 C 
BRANCH   5   6
ATOM      6  N   UNL A   1      30.689  25.039  26.427  1.00  0.00    -0.338 N 
ATOM      7  C   UNL A   1      32.340  23.228  26.716  1.00  0.00     0.114 C 
ATOM      8  C   UNL A   1      30.949  23.781  26.877  1.00  0.00     0.217 C 
ATOM      9  O   UNL A   1      30.049  23.131  27.403  1.00  0.00    -0.275 OA
ATOM     10  H   UNL A   1      29.767  25.355  26.568  1.00  0.00     0.164 HD
ENDBRANCH   5   6
BRANCH   5  11
ATOM     11  C   UNL A   1      31.158  26.237  24.303  1.00  0.00     0.297 C 
BRANCH  11  12
ATOM     12  N   UNL A   1      32.251  25.921  23.375  1.00  0.00    -0.344 N 
ATOM     13  H   UNL A   1      33.137  26.005  23.874  1.00  0.00     0.346 HD
ATOM     14  H   UNL A   1      32.192  26.578  22.596  1.00  0.00     0.346 HD
BRANCH  12  15
ATOM     15  C   UNL A   1      32.152  24.572  22.822  1.00  0.00     0.265 C 
BRANCH  15  16
ATOM     16  C   UNL A   1      33.476  23.794  22.691  1.00  0.00     0.097 C 
BRANCH  16  17
ATOM     17  C   UNL A   1      33.588  22.459  23.410  1.00  0.00    -0.039 A 
ATOM     18  C   UNL A   1      32.466  21.603  23.357  1.00  0.00     0.007 A 
ATOM     19  C   UNL A   1      34.725  22.041  24.138  1.00  0.00    -0.045 A 
ATOM     20  C   UNL A   1      32.473  20.357  23.980  1.00  0.00     0.039 A 
ATOM     21  C   UNL A   1      34.723  20.768  24.738  1.00  0.00     0.043 A 
ATOM     22  C   UNL A   1      35.982  22.857  24.264  1.00  0.00     0.045 C 
ATOM     23  C   UNL A   1      33.605  19.948  24.662  1.00  0.00     0.123 A 
ATOM     24  F   UNL A   1      33.620  18.754  25.269  1.00  0.00    -0.207 F 
ENDBRANCH  16  17
ENDBRANCH  15  16
ENDBRANCH  12  15
ENDBRANCH  11  12
ENDBRANCH   5  11
ENDBRANCH   3   5
ENDBRANCH   2   3
ENDBRANCH   1   2
BRANCH   1  25
ATOM     25  C   UNL A   1      32.222  30.573  26.579  1.00  0.00     0.275 C 
BRANCH  25  26
ATOM     26  O   UNL A   1      33.525  30.251  27.098  1.00  0.00    -0.458 OA
BRANCH  26  27
ATOM     27  C   UNL A   1      34.161  31.286  27.694  1.00  0.00     0.338 C 
ATOM     28  O   UNL A   1      33.681  32.352  28.037  1.00  0.00    -0.246 OA
BRANCH  27  29
ATOM     29  C   UNL A   1      35.538  30.905  28.034  1.00  0.00     0.060 A 
ATOM     30  C   UNL A   1      35.758  29.579  28.401  1.00  0.00     0.016 A 
ATOM     31  C   UNL A   1      36.554  31.850  28.157  1.00  0.00     0.016 A 
ATOM     32  C   UNL A   1      36.970  29.194  28.953  1.00  0.00     0.010 A 
ATOM     33  C   UNL A   1      37.793  31.453  28.678  1.00  0.00     0.010 A 
ATOM     34  C   UNL A   1      37.997  30.131  29.113  1.00  0.00    -0.014 A 
BRANCH  34  35
ATOM     35  C   UNL A   1      39.236  29.714  29.817  1.00  0.00     0.031 A 
ATOM     36  C   UNL A   1      39.600  30.345  31.134  1.00  0.00     0.074 A 
ATOM     37  C   UNL A   1      39.981  28.706  29.324  1.00  0.00     0.049 A 
ATOM     38  N   UNL A   1      40.649  30.134  31.886  1.00  0.00    -0.248 NA
ATOM     39  C   UNL A   1      38.663  31.343  31.675  1.00  0.00     0.031 C 
ATOM     40  C   UNL A   1      39.701  27.971  28.088  1.00  0.00     0.029 A 
ATOM     41  N   UNL A   1      41.110  28.105  29.820  1.00  0.00    -0.354 N 
ATOM     42  C   UNL A   1      40.524  31.003  32.964  1.00  0.00     0.074 A 
ATOM     43  C   UNL A   1      39.294  31.742  32.770  1.00  0.00     0.031 C 
ATOM     44  C   UNL A   1      40.609  26.991  27.945  1.00  0.00     0.029 A 
ATOM     45  C   UNL A   1      41.564  27.063  29.047  1.00  0.00     0.049 A 
ATOM     46  H   UNL A   1      41.553  28.392  30.651  1.00  0.00     0.167 HD
ATOM     47  C   UNL A   1      41.359  31.175  34.016  1.00  0.00     0.031 A 
ATOM     48  C   UNL A   1      42.635  26.263  29.199  1.00  0.00     0.031 A 
ATOM     49  C   UNL A   1      42.566  30.421  34.225  1.00  0.00     0.049 A 
ATOM     50  C   UNL A   1      43.542  26.469  30.378  1.00  0.00     0.074 A 
ATOM     51  C   UNL A   1      43.492  30.538  35.248  1.00  0.00     0.029 A 
ATOM     52  N   UNL A   1      43.007  29.394  33.403  1.00  0.00    -0.354 N 
ATOM     53  N   UNL A   1      43.442  27.342  31.351  1.00  0.00    -0.248 NA
ATOM     54  C   UNL A   1      44.711  25.583  30.474  1.00  0.00     0.031 C 
ATOM     55  C   UNL A   1      44.504  29.594  35.032  1.00  0.00     0.029 A 
ATOM     56  C   UNL A   1      44.189  28.868  33.895  1.00  0.00     0.049 A 
ATOM     57  H   UNL A   1      42.546  29.085  32.590  1.00  0.00     0.167 HD
ATOM     58  C   UNL A   1      44.536  27.112  32.177  1.00  0.00     0.074 A 
ATOM     59  C   UNL A   1      45.268  26.000  31.604  1.00  0.00     0.031 C 
ATOM     60  C   UNL A   1      44.907  27.770  33.303  1.00  0.00     0.031 A 
BRANCH  47  61
ATOM     61  C   UNL A   1      41.012  32.261  34.997  1.00  0.00    -0.014 A 
ATOM     62  C   UNL A   1      41.524  33.563  34.861  1.00  0.00     0.010 A 
ATOM     63  C   UNL A   1      40.150  31.970  36.070  1.00  0.00     0.010 A 
ATOM     64  C   UNL A   1      41.210  34.546  35.805  1.00  0.00     0.020 A 
ATOM     65  C   UNL A   1      39.818  32.954  37.003  1.00  0.00     0.020 A 
ATOM     66  C   UNL A   1      40.367  34.233  36.875  1.00  0.00     0.054 A 
BRANCH  66  67
ATOM     67  S   UNL A   1      39.964  35.522  38.087  1.00  0.00     0.124 S 
ATOM     68  O   UNL A   1      41.183  35.572  38.887  1.00  0.00    -0.237 OA
ATOM     69  O   UNL A   1      39.714  36.692  37.247  1.00  0.00    -0.237 OA
ATOM     70  O   UNL A   1      38.788  34.993  38.773  1.00  0.00    -0.744 OA
ENDBRANCH  66  67
ENDBRANCH  47  61
BRANCH  48  71
ATOM     71  C   UNL A   1      42.915  25.204  28.194  1.00  0.00    -0.014 A 
ATOM     72  C   UNL A   1      43.703  25.480  27.065  1.00  0.00     0.010 A 
ATOM     73  C   UNL A   1      42.411  23.903  28.381  1.00  0.00     0.010 A 
ATOM     74  C   UNL A   1      43.982  24.473  26.136  1.00  0.00     0.020 A 
ATOM     75  C   UNL A   1      42.707  22.890  27.466  1.00  0.00     0.020 A 
ATOM     76  C   UNL A   1      43.484  23.183  26.344  1.00  0.00     0.054 A 
BRANCH  76  77
ATOM     77  S   UNL A   1      43.919  21.867  25.174  1.00  0.00     0.124 S 
ATOM     78  O   UNL A   1      42.877  20.878  25.430  1.00  0.00    -0.237 OA
ATOM     79  O   UNL A   1      43.843  22.545  23.881  1.00  0.00    -0.237 OA
ATOM     80  O   UNL A   1      45.267  21.482  25.586  1.00  0.00    -0.744 OA
ENDBRANCH  76  77
ENDBRANCH  48  71
BRANCH  60  81
ATOM     81  C   UNL A   1      46.153  27.284  33.988  1.00  0.00    -0.014 A 
ATOM     82  C   UNL A   1      46.089  26.284  34.975  1.00  0.00     0.010 A 
ATOM     83  C   UNL A   1      47.400  27.833  33.641  1.00  0.00     0.010 A 
ATOM     84  C   UNL A   1      47.248  25.872  35.637  1.00  0.00     0.020 A 
ATOM     85  C   UNL A   1      48.563  27.411  34.288  1.00  0.00     0.020 A 
ATOM     86  C   UNL A   1      48.477  26.448  35.298  1.00  0.00     0.054 A 
BRANCH  86  87
ATOM     87  S   UNL A   1      49.975  25.906  36.166  1.00  0.00     0.124 S 
ATOM     88  O   UNL A   1      50.684  27.168  36.360  1.00  0.00    -0.237 OA
ATOM     89  O   UNL A   1      49.445  25.290  37.380  1.00  0.00    -0.237 OA
ATOM     90  O   UNL A   1      50.597  24.976  35.226  1.00  0.00    -0.744 OA
ENDBRANCH  86  87
ENDBRANCH  60  81
ENDBRANCH  34  35
ENDBRANCH  27  29
ENDBRANCH  26  27
ENDBRANCH  25  26
ENDBRANCH   1  25
TORSDOF 20
ENDMDL
MODEL 3
REMARK VINA RESULT:      -9.8      4.124      5.599
REMARK SMILES CC(=O)N[C@@H](C[NH2+]CCc1ccc(F)cc1C)C(=O)OCCOC(=O)c1ccc(-c2c3nc(c(-c4ccc(S(=O)(=O)[O-])cc4)c4ccc([nH]4)c(-c4ccc(S(=O)(=O)[O-])cc4)c4nc(c(-c5ccc(S(=O)(=O)[O-])cc5)c5ccc2[nH]5)C=C4)C=C3)cc1
REMARK SMILES IDX 21 1 20 2 18 3 19 4 5 5 4 6 1 7 2 8 3 9 6 11 7 12 8 15 9 16
REMARK SMILES IDX 10 17 11 18 16 19 12 20 15 21 17 22 13 23 14 24 22 25 23 26
REMARK SMILES IDX 24 27 25 28 26 29 27 30 85 31 28 32 84 33 29 34 30 35 31 36
REMARK SMILES IDX 78 37 32 38 83 39 77 40 79 41 33 42 82 43 76 44 75 45 34 47
REMARK SMILES IDX 64 48 45 49 63 50 46 51 49 52 62 53 80 54 47 55 48 56 61 58
REMARK SMILES IDX 81 59 50 60 35 61 36 62 44 63 37 64 43 65 38 66 39 67 40 68
REMARK SMILES IDX 41 69 42 70 65 71 66 72 74 73 67 74 73 75 68 76 69 77 70 78
REMARK SMILES IDX 71 79 72 80 51 81 52 82 60 83 53 84 59 85 54 86 55 87 56 88
REMARK SMILES IDX 57 89 58 90
REMARK H PARENT 4 10 7 13 7 14 79 46 49 57
REMARK Flexibility Score: inf
ROOT
ATOM      1  C   UNL A   1      42.695  22.511  25.740  1.00  0.00     0.274 C 
ENDROOT
BRANCH   1   2
ATOM      2  O   UNL A   1      41.296  22.325  26.020  1.00  0.00    -0.460 OA
BRANCH   2   3
ATOM      3  C   UNL A   1      40.968  21.221  26.750  1.00  0.00     0.334 C 
ATOM      4  O   UNL A   1      40.805  21.210  27.965  1.00  0.00    -0.250 OA
BRANCH   3   5
ATOM      5  C   UNL A   1      40.848  19.957  25.881  1.00  0.00     0.247 C 
BRANCH   5   6
ATOM      6  N   UNL A   1      41.514  18.780  26.455  1.00  0.00    -0.338 N 
ATOM      7  C   UNL A   1      43.702  19.119  25.366  1.00  0.00     0.114 C 
ATOM      8  C   UNL A   1      42.786  18.335  26.267  1.00  0.00     0.217 C 
ATOM      9  O   UNL A   1      43.157  17.310  26.836  1.00  0.00    -0.275 OA
ATOM     10  H   UNL A   1      40.962  18.236  27.062  1.00  0.00     0.164 HD
ENDBRANCH   5   6
BRANCH   5  11
ATOM     11  C   UNL A   1      39.355  19.678  25.620  1.00  0.00     0.297 C 
BRANCH  11  12
ATOM     12  N   UNL A   1      38.585  20.929  25.591  1.00  0.00    -0.344 N 
ATOM     13  H   UNL A   1      39.170  21.662  25.191  1.00  0.00     0.346 HD
ATOM     14  H   UNL A   1      38.312  21.144  26.550  1.00  0.00     0.346 HD
BRANCH  12  15
ATOM     15  C   UNL A   1      37.362  20.822  24.798  1.00  0.00     0.265 C 
BRANCH  15  16
ATOM     16  C   UNL A   1      36.054  21.204  25.516  1.00  0.00     0.097 C 
BRANCH  16  17
ATOM     17  C   UNL A   1      34.871  21.625  24.657  1.00  0.00    -0.039 A 
ATOM     18  C   UNL A   1      34.927  22.907  24.068  1.00  0.00     0.007 A 
ATOM     19  C   UNL A   1      33.724  20.828  24.438  1.00  0.00    -0.045 A 
ATOM     20  C   UNL A   1      33.895  23.381  23.260  1.00  0.00     0.039 A 
ATOM     21  C   UNL A   1      32.705  21.313  23.598  1.00  0.00     0.043 A 
ATOM     22  C   UNL A   1      33.547  19.446  25.004  1.00  0.00     0.045 C 
ATOM     23  C   UNL A   1      32.794  22.577  23.029  1.00  0.00     0.123 A 
ATOM     24  F   UNL A   1      31.795  23.025  22.257  1.00  0.00    -0.207 F 
ENDBRANCH  16  17
ENDBRANCH  15  16
ENDBRANCH  12  15
ENDBRANCH  11  12
ENDBRANCH   5  11
ENDBRANCH   3   5
ENDBRANCH   2   3
ENDBRANCH   1   2
BRANCH   1  25
ATOM     25  C   UNL A   1      43.017  23.978  25.451  1.00  0.00     0.275 C 
BRANCH  25  26
ATOM     26  O   UNL A   1      41.913  24.836  25.793  1.00  0.00    -0.458 OA
BRANCH  26  27
ATOM     27  C   UNL A   1      42.149  26.155  25.603  1.00  0.00     0.338 C 
ATOM     28  O   UNL A   1      42.650  26.684  24.627  1.00  0.00    -0.246 OA
BRANCH  27  29
ATOM     29  C   UNL A   1      41.567  26.936  26.702  1.00  0.00     0.060 A 
ATOM     30  C   UNL A   1      41.952  28.271  26.807  1.00  0.00     0.016 A 
ATOM     31  C   UNL A   1      40.800  26.341  27.701  1.00  0.00     0.016 A 
ATOM     32  C   UNL A   1      41.632  29.008  27.937  1.00  0.00     0.010 A 
ATOM     33  C   UNL A   1      40.443  27.097  28.826  1.00  0.00     0.010 A 
ATOM     34  C   UNL A   1      40.887  28.425  28.967  1.00  0.00    -0.014 A 
BRANCH  34  35
ATOM     35  C   UNL A   1      40.667  29.202  30.212  1.00  0.00     0.031 A 
ATOM     36  C   UNL A   1      41.608  29.038  31.376  1.00  0.00     0.074 A 
ATOM     37  C   UNL A   1      39.684  30.121  30.265  1.00  0.00     0.049 A 
ATOM     38  N   UNL A   1      41.568  29.608  32.554  1.00  0.00    -0.248 NA
ATOM     39  C   UNL A   1      42.739  28.116  31.192  1.00  0.00     0.031 C 
ATOM     40  C   UNL A   1      38.743  30.418  29.182  1.00  0.00     0.029 A 
ATOM     41  N   UNL A   1      39.332  30.996  31.261  1.00  0.00    -0.354 N 
ATOM     42  C   UNL A   1      42.638  29.079  33.267  1.00  0.00     0.074 A 
ATOM     43  C   UNL A   1      43.311  28.147  32.388  1.00  0.00     0.031 C 
ATOM     44  C   UNL A   1      37.950  31.435  29.557  1.00  0.00     0.029 A 
ATOM     45  C   UNL A   1      38.288  31.825  30.923  1.00  0.00     0.049 A 
ATOM     46  H   UNL A   1      39.785  31.029  32.135  1.00  0.00     0.167 HD
ATOM     47  C   UNL A   1      43.022  29.342  34.539  1.00  0.00     0.031 A 
ATOM     48  C   UNL A   1      37.664  32.781  31.635  1.00  0.00     0.031 A 
ATOM     49  C   UNL A   1      42.371  30.291  35.402  1.00  0.00     0.049 A 
ATOM     50  C   UNL A   1      38.113  33.058  33.041  1.00  0.00     0.074 A 
ATOM     51  C   UNL A   1      42.671  30.610  36.716  1.00  0.00     0.029 A 
ATOM     52  N   UNL A   1      41.299  31.088  35.032  1.00  0.00    -0.354 N 
ATOM     53  N   UNL A   1      39.085  32.499  33.720  1.00  0.00    -0.248 NA
ATOM     54  C   UNL A   1      37.373  34.092  33.778  1.00  0.00     0.031 C 
ATOM     55  C   UNL A   1      41.764  31.587  37.146  1.00  0.00     0.029 A 
ATOM     56  C   UNL A   1      40.925  31.900  36.089  1.00  0.00     0.049 A 
ATOM     57  H   UNL A   1      40.868  31.079  34.147  1.00  0.00     0.167 HD
ATOM     58  C   UNL A   1      39.075  33.114  34.966  1.00  0.00     0.074 A 
ATOM     59  C   UNL A   1      38.020  34.106  34.937  1.00  0.00     0.031 C 
ATOM     60  C   UNL A   1      39.863  32.871  36.043  1.00  0.00     0.031 A 
BRANCH  47  61
ATOM     61  C   UNL A   1      44.177  28.548  35.084  1.00  0.00    -0.014 A 
ATOM     62  C   UNL A   1      45.504  28.984  34.929  1.00  0.00     0.010 A 
ATOM     63  C   UNL A   1      43.923  27.347  35.771  1.00  0.00     0.010 A 
ATOM     64  C   UNL A   1      46.562  28.211  35.419  1.00  0.00     0.020 A 
ATOM     65  C   UNL A   1      44.976  26.582  36.279  1.00  0.00     0.020 A 
ATOM     66  C   UNL A   1      46.291  27.010  36.083  1.00  0.00     0.054 A 
BRANCH  66  67
ATOM     67  S   UNL A   1      47.675  26.023  36.718  1.00  0.00     0.124 S 
ATOM     68  O   UNL A   1      47.576  26.260  38.155  1.00  0.00    -0.237 OA
ATOM     69  O   UNL A   1      47.339  24.670  36.280  1.00  0.00    -0.237 OA
ATOM     70  O   UNL A   1      48.843  26.611  36.068  1.00  0.00    -0.744 OA
ENDBRANCH  66  67
ENDBRANCH  47  61
BRANCH  48  71
ATOM     71  C   UNL A   1      36.533  33.531  31.030  1.00  0.00    -0.014 A 
ATOM     72  C   UNL A   1      36.637  34.062  29.734  1.00  0.00     0.010 A 
ATOM     73  C   UNL A   1      35.332  33.694  31.746  1.00  0.00     0.010 A 
ATOM     74  C   UNL A   1      35.561  34.747  29.163  1.00  0.00     0.020 A 
ATOM     75  C   UNL A   1      34.246  34.358  31.169  1.00  0.00     0.020 A 
ATOM     76  C   UNL A   1      34.371  34.888  29.883  1.00  0.00     0.054 A 
BRANCH  76  77
ATOM     77  S   UNL A   1      32.954  35.709  29.101  1.00  0.00     0.124 S 
ATOM     78  O   UNL A   1      32.388  34.632  28.295  1.00  0.00    -0.237 OA
ATOM     79  O   UNL A   1      32.152  36.130  30.247  1.00  0.00    -0.237 OA
ATOM     80  O   UNL A   1      33.571  36.800  28.349  1.00  0.00    -0.744 OA
ENDBRANCH  76  77
ENDBRANCH  48  71
BRANCH  60  81
ATOM     81  C   UNL A   1      39.613  33.709  37.265  1.00  0.00    -0.014 A 
ATOM     82  C   UNL A   1      40.221  34.969  37.410  1.00  0.00     0.010 A 
ATOM     83  C   UNL A   1      38.762  33.232  38.277  1.00  0.00     0.010 A 
ATOM     84  C   UNL A   1      40.016  35.720  38.571  1.00  0.00     0.020 A 
ATOM     85  C   UNL A   1      38.541  33.988  39.430  1.00  0.00     0.020 A 
ATOM     86  C   UNL A   1      39.188  35.218  39.579  1.00  0.00     0.054 A 
BRANCH  86  87
ATOM     87  S   UNL A   1      38.931  36.201  41.081  1.00  0.00     0.124 S 
ATOM     88  O   UNL A   1      37.775  35.541  41.680  1.00  0.00    -0.237 OA
ATOM     89  O   UNL A   1      40.192  36.035  41.801  1.00  0.00    -0.237 OA
ATOM     90  O   UNL A   1      38.688  37.549  40.572  1.00  0.00    -0.744 OA
ENDBRANCH  86  87
ENDBRANCH  60  81
ENDBRANCH  34  35
ENDBRANCH  27  29
ENDBRANCH  26  27
ENDBRANCH  25  26
ENDBRANCH   1  25
TORSDOF 20
ENDMDL
