MODEL 1
REMARK VINA RESULT:     -11.4      0.000      0.000
REMARK SMILES C[C@@H]1CC[C@H](C)[N@H+]1Cc1cc2c(cc1Cl)C=C(C(=O)OCCOC(=O)c1ccc(-c3c4nc(c(-c5ccc(S(=O)(=O)[O-])cc5)c5ccc([nH]5)c(-c5ccc(S(=O)(=O)[O-])cc5)c5nc(c(-c6ccc(S(=O)(=O)[O-])cc6)c6ccc3[nH]6)C=C5)C=C4)cc1)[C@@H](C(F)(F)F)O2
REMARK SMILES IDX 22 1 21 2 20 3 18 4 19 5 17 6 9 7 10 8 14 9 11 10 13 11
REMARK SMILES IDX 15 12 12 13 91 14 16 15 86 16 8 17 7 18 6 19 5 20 4 21 3 22
REMARK SMILES IDX 2 23 1 25 87 26 88 27 89 28 90 29 23 30 24 31 25 32 26 33
REMARK SMILES IDX 27 34 85 35 28 36 84 37 29 38 30 39 31 40 78 41 32 42 83 43
REMARK SMILES IDX 77 44 79 45 33 46 82 47 76 48 75 49 34 51 64 52 45 53 63 54
REMARK SMILES IDX 46 55 49 56 62 57 80 58 47 59 48 60 61 62 81 63 50 64 35 65
REMARK SMILES IDX 36 66 44 67 37 68 43 69 38 70 39 71 40 72 41 73 42 74 65 75
REMARK SMILES IDX 66 76 74 77 67 78 73 79 68 80 69 81 70 82 71 83 72 84 51 85
REMARK SMILES IDX 52 86 60 87 53 88 59 89 54 90 55 91 56 92 57 93 58 94
REMARK H PARENT 7 24 79 50 49 61
REMARK Flexibility Score: inf
ROOT
ATOM      1  C   UNL A   1      33.608  29.444  25.766  1.00  0.00     0.275 C 
ENDROOT
BRANCH   1   2
ATOM      2  C   UNL A   1      32.337  28.628  25.517  1.00  0.00     0.275 C 
BRANCH   2   3
ATOM      3  O   UNL A   1      32.607  27.208  25.469  1.00  0.00    -0.459 OA
BRANCH   3   4
ATOM      4  C   UNL A   1      31.753  26.456  26.196  1.00  0.00     0.338 C 
ATOM      5  O   UNL A   1      30.864  26.878  26.923  1.00  0.00    -0.246 OA
BRANCH   4   6
ATOM      6  C   UNL A   1      31.971  25.014  25.993  1.00  0.00     0.087 C 
ATOM      7  C   UNL A   1      34.432  20.774  24.869  1.00  0.00     0.029 A 
ATOM      8  C   UNL A   1      33.052  21.110  24.949  1.00  0.00     0.058 A 
ATOM      9  C   UNL A   1      35.371  21.798  25.064  1.00  0.00     0.050 A 
ATOM     10  C   UNL A   1      32.643  22.394  25.314  1.00  0.00     0.128 A 
ATOM     11  C   UNL A   1      34.966  23.027  25.566  1.00  0.00     0.033 A 
ATOM     12  Cl  UNL A   1      37.026  21.690  24.586  1.00  0.00    -0.084 Cl
ATOM     13  C   UNL A   1      33.609  23.306  25.710  1.00  0.00     0.019 A 
ATOM     14  O   UNL A   1      31.307  22.709  25.298  1.00  0.00    -0.475 OA
ATOM     15  C   UNL A   1      33.220  24.597  26.210  1.00  0.00     0.027 C 
ATOM     16  C   UNL A   1      30.952  24.139  25.328  1.00  0.00     0.316 C 
BRANCH   7  17
ATOM     17  C   UNL A   1      34.843  19.333  24.611  1.00  0.00     0.301 C 
BRANCH  17  18
ATOM     18  N   UNL A   1      33.763  18.365  24.339  1.00  0.00    -0.327 N 
ATOM     19  C   UNL A   1      32.568  17.690  26.394  1.00  0.00     0.075 C 
ATOM     20  C   UNL A   1      33.584  17.293  25.332  1.00  0.00     0.181 C 
ATOM     21  C   UNL A   1      33.117  16.077  24.533  1.00  0.00     0.071 C 
ATOM     22  C   UNL A   1      33.809  16.267  23.201  1.00  0.00     0.071 C 
ATOM     23  C   UNL A   1      33.748  17.775  22.992  1.00  0.00     0.181 C 
ATOM     24  H   UNL A   1      32.964  18.994  24.415  1.00  0.00     0.348 HD
ATOM     25  C   UNL A   1      32.476  18.204  22.259  1.00  0.00     0.075 C 
ENDBRANCH  17  18
ENDBRANCH   7  17
BRANCH  16  26
ATOM     26  C   UNL A   1      30.633  24.651  23.913  1.00  0.00     0.430 C 
ATOM     27  F   UNL A   1      30.172  23.657  23.117  1.00  0.00    -0.167 F 
ATOM     28  F   UNL A   1      29.660  25.598  23.944  1.00  0.00    -0.167 F 
ATOM     29  F   UNL A   1      31.707  25.196  23.303  1.00  0.00    -0.167 F 
ENDBRANCH  16  26
ENDBRANCH   4   6
ENDBRANCH   3   4
ENDBRANCH   2   3
ENDBRANCH   1   2
BRANCH   1  30
ATOM     30  O   UNL A   1      34.199  29.127  27.041  1.00  0.00    -0.458 OA
BRANCH  30  31
ATOM     31  C   UNL A   1      34.568  30.195  27.783  1.00  0.00     0.338 C 
ATOM     32  O   UNL A   1      33.872  31.142  28.107  1.00  0.00    -0.246 OA
BRANCH  31  33
ATOM     33  C   UNL A   1      35.954  30.040  28.248  1.00  0.00     0.060 A 
ATOM     34  C   UNL A   1      36.241  29.513  29.503  1.00  0.00     0.016 A 
ATOM     35  C   UNL A   1      36.980  30.241  27.334  1.00  0.00     0.016 A 
ATOM     36  C   UNL A   1      37.569  29.199  29.823  1.00  0.00     0.010 A 
ATOM     37  C   UNL A   1      38.256  29.746  27.585  1.00  0.00     0.010 A 
ATOM     38  C   UNL A   1      38.591  29.261  28.852  1.00  0.00    -0.014 A 
BRANCH  38  39
ATOM     39  C   UNL A   1      40.002  28.869  29.162  1.00  0.00     0.031 A 
ATOM     40  C   UNL A   1      40.529  27.504  28.764  1.00  0.00     0.074 A 
ATOM     41  C   UNL A   1      40.820  29.732  29.807  1.00  0.00     0.049 A 
ATOM     42  N   UNL A   1      41.728  27.001  28.942  1.00  0.00    -0.248 NA
ATOM     43  C   UNL A   1      39.594  26.562  28.120  1.00  0.00     0.031 C 
ATOM     44  C   UNL A   1      40.430  31.049  30.316  1.00  0.00     0.029 A 
ATOM     45  N   UNL A   1      42.158  29.650  30.114  1.00  0.00    -0.354 N 
ATOM     46  C   UNL A   1      41.673  25.698  28.454  1.00  0.00     0.074 A 
ATOM     47  C   UNL A   1      40.310  25.450  28.056  1.00  0.00     0.031 C 
ATOM     48  C   UNL A   1      41.519  31.691  30.768  1.00  0.00     0.029 A 
ATOM     49  C   UNL A   1      42.679  30.813  30.640  1.00  0.00     0.049 A 
ATOM     50  H   UNL A   1      42.695  28.837  29.970  1.00  0.00     0.167 HD
ATOM     51  C   UNL A   1      42.675  24.805  28.290  1.00  0.00     0.031 A 
ATOM     52  C   UNL A   1      43.945  31.152  30.958  1.00  0.00     0.031 A 
ATOM     53  C   UNL A   1      44.050  25.078  28.602  1.00  0.00     0.049 A 
ATOM     54  C   UNL A   1      45.048  30.151  30.740  1.00  0.00     0.074 A 
ATOM     55  C   UNL A   1      45.149  24.260  28.405  1.00  0.00     0.029 A 
ATOM     56  N   UNL A   1      44.521  26.264  29.138  1.00  0.00    -0.354 N 
ATOM     57  N   UNL A   1      44.974  28.947  30.226  1.00  0.00    -0.248 NA
ATOM     58  C   UNL A   1      46.407  30.553  31.136  1.00  0.00     0.031 C 
ATOM     59  C   UNL A   1      46.280  24.933  28.866  1.00  0.00     0.029 A 
ATOM     60  C   UNL A   1      45.895  26.196  29.288  1.00  0.00     0.049 A 
ATOM     61  H   UNL A   1      43.964  27.040  29.376  1.00  0.00     0.167 HD
ATOM     62  C   UNL A   1      46.278  28.461  30.212  1.00  0.00     0.074 A 
ATOM     63  C   UNL A   1      47.122  29.505  30.750  1.00  0.00     0.031 C 
ATOM     64  C   UNL A   1      46.728  27.253  29.796  1.00  0.00     0.031 A 
BRANCH  51  65
ATOM     65  C   UNL A   1      42.360  23.467  27.666  1.00  0.00    -0.014 A 
ATOM     66  C   UNL A   1      41.978  22.381  28.475  1.00  0.00     0.010 A 
ATOM     67  C   UNL A   1      42.607  23.247  26.298  1.00  0.00     0.010 A 
ATOM     68  C   UNL A   1      41.902  21.091  27.940  1.00  0.00     0.020 A 
ATOM     69  C   UNL A   1      42.498  21.966  25.752  1.00  0.00     0.020 A 
ATOM     70  C   UNL A   1      42.180  20.891  26.585  1.00  0.00     0.054 A 
BRANCH  70  71
ATOM     71  S   UNL A   1      42.161  19.201  25.926  1.00  0.00     0.124 S 
ATOM     72  O   UNL A   1      42.671  18.426  27.052  1.00  0.00    -0.237 OA
ATOM     73  O   UNL A   1      40.749  18.999  25.606  1.00  0.00    -0.237 OA
ATOM     74  O   UNL A   1      43.048  19.276  24.766  1.00  0.00    -0.744 OA
ENDBRANCH  70  71
ENDBRANCH  51  65
BRANCH  52  75
ATOM     75  C   UNL A   1      44.251  32.534  31.437  1.00  0.00    -0.014 A 
ATOM     76  C   UNL A   1      44.576  33.561  30.534  1.00  0.00     0.010 A 
ATOM     77  C   UNL A   1      44.254  32.816  32.816  1.00  0.00     0.010 A 
ATOM     78  C   UNL A   1      44.937  34.830  31.000  1.00  0.00     0.020 A 
ATOM     79  C   UNL A   1      44.580  34.092  33.285  1.00  0.00     0.020 A 
ATOM     80  C   UNL A   1      44.944  35.085  32.374  1.00  0.00     0.054 A 
BRANCH  80  81
ATOM     81  S   UNL A   1      45.426  36.734  32.957  1.00  0.00     0.124 S 
ATOM     82  O   UNL A   1      44.966  36.708  34.344  1.00  0.00    -0.237 OA
ATOM     83  O   UNL A   1      46.875  36.728  32.774  1.00  0.00    -0.237 OA
ATOM     84  O   UNL A   1      44.694  37.637  32.073  1.00  0.00    -0.744 OA
ENDBRANCH  80  81
ENDBRANCH  52  75
BRANCH  64  85
ATOM     85  C   UNL A   1      48.205  26.970  29.876  1.00  0.00    -0.014 A 
ATOM     86  C   UNL A   1      48.748  26.451  31.066  1.00  0.00     0.010 A 
ATOM     87  C   UNL A   1      49.068  27.375  28.844  1.00  0.00     0.010 A 
ATOM     88  C   UNL A   1      50.132  26.385  31.242  1.00  0.00     0.020 A 
ATOM     89  C   UNL A   1      50.454  27.280  29.005  1.00  0.00     0.020 A 
ATOM     90  C   UNL A   1      50.976  26.814  30.215  1.00  0.00     0.054 A 
BRANCH  90  91
ATOM     91  S   UNL A   1      52.768  26.774  30.482  1.00  0.00     0.124 S 
ATOM     92  O   UNL A   1      53.272  26.463  29.147  1.00  0.00    -0.237 OA
ATOM     93  O   UNL A   1      53.052  28.123  30.963  1.00  0.00    -0.237 OA
ATOM     94  O   UNL A   1      52.943  25.717  31.476  1.00  0.00    -0.744 OA
ENDBRANCH  90  91
ENDBRANCH  64  85
ENDBRANCH  38  39
ENDBRANCH  31  33
ENDBRANCH  30  31
ENDBRANCH   1  30
TORSDOF 17
ENDMDL
MODEL 2
REMARK VINA RESULT:     -11.3      3.446      8.496
REMARK SMILES C[C@@H]1CC[C@H](C)[N@H+]1Cc1cc2c(cc1Cl)C=C(C(=O)OCCOC(=O)c1ccc(-c3c4nc(c(-c5ccc(S(=O)(=O)[O-])cc5)c5ccc([nH]5)c(-c5ccc(S(=O)(=O)[O-])cc5)c5nc(c(-c6ccc(S(=O)(=O)[O-])cc6)c6ccc3[nH]6)C=C5)C=C4)cc1)[C@@H](C(F)(F)F)O2
REMARK SMILES IDX 22 1 21 2 20 3 18 4 19 5 17 6 9 7 10 8 14 9 11 10 13 11
REMARK SMILES IDX 15 12 12 13 91 14 16 15 86 16 8 17 7 18 6 19 5 20 4 21 3 22
REMARK SMILES IDX 2 23 1 25 87 26 88 27 89 28 90 29 23 30 24 31 25 32 26 33
REMARK SMILES IDX 27 34 85 35 28 36 84 37 29 38 30 39 31 40 78 41 32 42 83 43
REMARK SMILES IDX 77 44 79 45 33 46 82 47 76 48 75 49 34 51 64 52 45 53 63 54
REMARK SMILES IDX 46 55 49 56 62 57 80 58 47 59 48 60 61 62 81 63 50 64 35 65
REMARK SMILES IDX 36 66 44 67 37 68 43 69 38 70 39 71 40 72 41 73 42 74 65 75
REMARK SMILES IDX 66 76 74 77 67 78 73 79 68 80 69 81 70 82 71 83 72 84 51 85
REMARK SMILES IDX 52 86 60 87 53 88 59 89 54 90 55 91 56 92 57 93 58 94
REMARK H PARENT 7 24 79 50 49 61
REMARK Flexibility Score: inf
ROOT
ATOM      1  C   UNL A   1      37.980  21.262  25.041  1.00  0.00     0.275 C 
ENDROOT
BRANCH   1   2
ATOM      2  C   UNL A   1      37.017  22.024  24.127  1.00  0.00     0.275 C 
BRANCH   2   3
ATOM      3  O   UNL A   1      35.634  21.725  24.428  1.00  0.00    -0.459 OA
BRANCH   3   4
ATOM      4  C   UNL A   1      35.013  22.664  25.175  1.00  0.00     0.338 C 
ATOM      5  O   UNL A   1      35.005  22.720  26.397  1.00  0.00    -0.246 OA
BRANCH   4   6
ATOM      6  C   UNL A   1      34.352  23.685  24.347  1.00  0.00     0.087 C 
ATOM      7  C   UNL A   1      31.837  27.901  23.252  1.00  0.00     0.029 A 
ATOM      8  C   UNL A   1      32.075  26.693  22.539  1.00  0.00     0.058 A 
ATOM      9  C   UNL A   1      32.311  27.992  24.569  1.00  0.00     0.050 A 
ATOM     10  C   UNL A   1      32.846  25.670  23.093  1.00  0.00     0.128 A 
ATOM     11  C   UNL A   1      33.194  27.040  25.058  1.00  0.00     0.033 A 
ATOM     12  Cl  UNL A   1      31.758  29.162  25.712  1.00  0.00    -0.084 Cl
ATOM     13  C   UNL A   1      33.474  25.901  24.308  1.00  0.00     0.019 A 
ATOM     14  O   UNL A   1      32.985  24.484  22.415  1.00  0.00    -0.475 OA
ATOM     15  C   UNL A   1      34.375  24.920  24.851  1.00  0.00     0.027 C 
ATOM     16  C   UNL A   1      33.483  23.326  23.178  1.00  0.00     0.316 C 
BRANCH   7  17
ATOM     17  C   UNL A   1      31.117  29.051  22.566  1.00  0.00     0.301 C 
BRANCH  17  18
ATOM     18  N   UNL A   1      29.763  29.382  23.052  1.00  0.00    -0.327 N 
ATOM     19  C   UNL A   1      28.524  27.384  23.810  1.00  0.00     0.075 C 
ATOM     20  C   UNL A   1      28.698  28.425  22.712  1.00  0.00     0.181 C 
ATOM     21  C   UNL A   1      27.438  29.270  22.534  1.00  0.00     0.071 C 
ATOM     22  C   UNL A   1      27.984  30.575  21.998  1.00  0.00     0.071 C 
ATOM     23  C   UNL A   1      29.289  30.745  22.766  1.00  0.00     0.181 C 
ATOM     24  H   UNL A   1      29.933  29.314  24.055  1.00  0.00     0.348 HD
ATOM     25  C   UNL A   1      29.090  31.503  24.078  1.00  0.00     0.075 C 
ENDBRANCH  17  18
ENDBRANCH   7  17
BRANCH  16  26
ATOM     26  C   UNL A   1      32.320  22.423  23.621  1.00  0.00     0.430 C 
ATOM     27  F   UNL A   1      31.237  22.582  22.824  1.00  0.00    -0.167 F 
ATOM     28  F   UNL A   1      32.662  21.111  23.544  1.00  0.00    -0.167 F 
ATOM     29  F   UNL A   1      31.929  22.663  24.891  1.00  0.00    -0.167 F 
ENDBRANCH  16  26
ENDBRANCH   4   6
ENDBRANCH   3   4
ENDBRANCH   2   3
ENDBRANCH   1   2
BRANCH   1  30
ATOM     30  O   UNL A   1      38.396  22.067  26.160  1.00  0.00    -0.458 OA
BRANCH  30  31
ATOM     31  C   UNL A   1      39.721  22.037  26.426  1.00  0.00     0.338 C 
ATOM     32  O   UNL A   1      40.513  21.162  26.122  1.00  0.00    -0.246 OA
BRANCH  31  33
ATOM     33  C   UNL A   1      40.138  23.282  27.089  1.00  0.00     0.060 A 
ATOM     34  C   UNL A   1      41.114  23.282  28.080  1.00  0.00     0.016 A 
ATOM     35  C   UNL A   1      39.684  24.487  26.569  1.00  0.00     0.016 A 
ATOM     36  C   UNL A   1      41.619  24.505  28.539  1.00  0.00     0.010 A 
ATOM     37  C   UNL A   1      40.328  25.679  26.886  1.00  0.00     0.010 A 
ATOM     38  C   UNL A   1      41.273  25.722  27.914  1.00  0.00    -0.014 A 
BRANCH  38  39
ATOM     39  C   UNL A   1      41.853  27.031  28.353  1.00  0.00     0.031 A 
ATOM     40  C   UNL A   1      43.329  27.324  28.163  1.00  0.00     0.074 A 
ATOM     41  C   UNL A   1      41.062  27.963  28.930  1.00  0.00     0.049 A 
ATOM     42  N   UNL A   1      43.998  28.408  28.473  1.00  0.00    -0.248 NA
ATOM     43  C   UNL A   1      44.176  26.262  27.590  1.00  0.00     0.031 C 
ATOM     44  C   UNL A   1      39.641  27.792  29.245  1.00  0.00     0.029 A 
ATOM     45  N   UNL A   1      41.326  29.255  29.323  1.00  0.00    -0.354 N 
ATOM     46  C   UNL A   1      45.326  28.143  28.152  1.00  0.00     0.074 A 
ATOM     47  C   UNL A   1      45.392  26.773  27.709  1.00  0.00     0.031 C 
ATOM     48  C   UNL A   1      39.138  28.960  29.675  1.00  0.00     0.029 A 
ATOM     49  C   UNL A   1      40.208  29.952  29.727  1.00  0.00     0.049 A 
ATOM     50  H   UNL A   1      42.230  29.645  29.315  1.00  0.00     0.167 HD
ATOM     51  C   UNL A   1      46.391  28.978  28.162  1.00  0.00     0.031 A 
ATOM     52  C   UNL A   1      40.048  31.246  30.074  1.00  0.00     0.031 A 
ATOM     53  C   UNL A   1      46.315  30.368  28.517  1.00  0.00     0.049 A 
ATOM     54  C   UNL A   1      41.242  32.163  30.050  1.00  0.00     0.074 A 
ATOM     55  C   UNL A   1      47.326  31.312  28.489  1.00  0.00     0.029 A 
ATOM     56  N   UNL A   1      45.164  31.020  28.925  1.00  0.00    -0.354 N 
ATOM     57  N   UNL A   1      42.474  31.898  29.689  1.00  0.00    -0.248 NA
ATOM     58  C   UNL A   1      41.026  33.556  30.471  1.00  0.00     0.031 C 
ATOM     59  C   UNL A   1      46.798  32.526  28.927  1.00  0.00     0.029 A 
ATOM     60  C   UNL A   1      45.443  32.355  29.162  1.00  0.00     0.049 A 
ATOM     61  H   UNL A   1      44.280  30.600  29.030  1.00  0.00     0.167 HD
ATOM     62  C   UNL A   1      43.171  33.095  29.813  1.00  0.00     0.074 A 
ATOM     63  C   UNL A   1      42.223  34.090  30.263  1.00  0.00     0.031 C 
ATOM     64  C   UNL A   1      44.483  33.342  29.581  1.00  0.00     0.031 A 
BRANCH  51  65
ATOM     65  C   UNL A   1      47.727  28.456  27.695  1.00  0.00    -0.014 A 
ATOM     66  C   UNL A   1      47.993  28.321  26.319  1.00  0.00     0.010 A 
ATOM     67  C   UNL A   1      48.653  27.945  28.623  1.00  0.00     0.010 A 
ATOM     68  C   UNL A   1      49.131  27.637  25.881  1.00  0.00     0.020 A 
ATOM     69  C   UNL A   1      49.808  27.291  28.189  1.00  0.00     0.020 A 
ATOM     70  C   UNL A   1      50.022  27.111  26.821  1.00  0.00     0.054 A 
BRANCH  70  71
ATOM     71  S   UNL A   1      51.447  26.151  26.238  1.00  0.00     0.124 S 
ATOM     72  O   UNL A   1      51.364  26.325  24.791  1.00  0.00    -0.237 OA
ATOM     73  O   UNL A   1      52.570  26.819  26.893  1.00  0.00    -0.237 OA
ATOM     74  O   UNL A   1      51.170  24.799  26.721  1.00  0.00    -0.744 OA
ENDBRANCH  70  71
ENDBRANCH  51  65
BRANCH  52  75
ATOM     75  C   UNL A   1      38.687  31.772  30.392  1.00  0.00    -0.014 A 
ATOM     76  C   UNL A   1      37.836  32.248  29.378  1.00  0.00     0.010 A 
ATOM     77  C   UNL A   1      38.249  31.833  31.728  1.00  0.00     0.010 A 
ATOM     78  C   UNL A   1      36.596  32.810  29.696  1.00  0.00     0.020 A 
ATOM     79  C   UNL A   1      36.996  32.362  32.048  1.00  0.00     0.020 A 
ATOM     80  C   UNL A   1      36.187  32.871  31.031  1.00  0.00     0.054 A 
BRANCH  80  81
ATOM     81  S   UNL A   1      34.578  33.614  31.422  1.00  0.00     0.124 S 
ATOM     82  O   UNL A   1      33.965  33.712  30.099  1.00  0.00    -0.237 OA
ATOM     83  O   UNL A   1      33.981  32.630  32.321  1.00  0.00    -0.237 OA
ATOM     84  O   UNL A   1      34.931  34.887  32.043  1.00  0.00    -0.744 OA
ENDBRANCH  80  81
ENDBRANCH  52  75
BRANCH  64  85
ATOM     85  C   UNL A   1      44.998  34.742  29.782  1.00  0.00    -0.014 A 
ATOM     86  C   UNL A   1      45.386  35.160  31.070  1.00  0.00     0.010 A 
ATOM     87  C   UNL A   1      44.936  35.684  28.742  1.00  0.00     0.010 A 
ATOM     88  C   UNL A   1      45.658  36.505  31.324  1.00  0.00     0.020 A 
ATOM     89  C   UNL A   1      45.239  37.027  28.987  1.00  0.00     0.020 A 
ATOM     90  C   UNL A   1      45.569  37.433  30.283  1.00  0.00     0.054 A 
BRANCH  90  91
ATOM     91  S   UNL A   1      45.870  39.183  30.644  1.00  0.00     0.124 S 
ATOM     92  O   UNL A   1      44.892  39.454  31.693  1.00  0.00    -0.237 OA
ATOM     93  O   UNL A   1      47.267  39.188  31.070  1.00  0.00    -0.237 OA
ATOM     94  O   UNL A   1      45.615  39.845  29.366  1.00  0.00    -0.744 OA
ENDBRANCH  90  91
ENDBRANCH  64  85
ENDBRANCH  38  39
ENDBRANCH  31  33
ENDBRANCH  30  31
ENDBRANCH   1  30
TORSDOF 17
ENDMDL
MODEL 3
REMARK VINA RESULT:     -11.2      2.394      3.174
REMARK SMILES C[C@@H]1CC[C@H](C)[N@H+]1Cc1cc2c(cc1Cl)C=C(C(=O)OCCOC(=O)c1ccc(-c3c4nc(c(-c5ccc(S(=O)(=O)[O-])cc5)c5ccc([nH]5)c(-c5ccc(S(=O)(=O)[O-])cc5)c5nc(c(-c6ccc(S(=O)(=O)[O-])cc6)c6ccc3[nH]6)C=C5)C=C4)cc1)[C@@H](C(F)(F)F)O2
REMARK SMILES IDX 22 1 21 2 20 3 18 4 19 5 17 6 9 7 10 8 14 9 11 10 13 11
REMARK SMILES IDX 15 12 12 13 91 14 16 15 86 16 8 17 7 18 6 19 5 20 4 21 3 22
REMARK SMILES IDX 2 23 1 25 87 26 88 27 89 28 90 29 23 30 24 31 25 32 26 33
REMARK SMILES IDX 27 34 85 35 28 36 84 37 29 38 30 39 31 40 78 41 32 42 83 43
REMARK SMILES IDX 77 44 79 45 33 46 82 47 76 48 75 49 34 51 64 52 45 53 63 54
REMARK SMILES IDX 46 55 49 56 62 57 80 58 47 59 48 60 61 62 81 63 50 64 35 65
REMARK SMILES IDX 36 66 44 67 37 68 43 69 38 70 39 71 40 72 41 73 42 74 65 75
REMARK SMILES IDX 66 76 74 77 67 78 73 79 68 80 69 81 70 82 71 83 72 84 51 85
REMARK SMILES IDX 52 86 60 87 53 88 59 89 54 90 55 91 56 92 57 93 58 94
REMARK H PARENT 7 24 79 50 49 61
REMARK Flexibility Score: inf
ROOT
ATOM      1  C   UNL A   1      34.330  31.103  27.709  1.00  0.00     0.275 C 
ENDROOT
BRANCH   1   2
ATOM      2  C   UNL A   1      34.159  29.646  27.272  1.00  0.00     0.275 C 
BRANCH   2   3
ATOM      3  O   UNL A   1      32.918  29.437  26.558  1.00  0.00    -0.459 OA
BRANCH   3   4
ATOM      4  C   UNL A   1      33.029  28.642  25.473  1.00  0.00     0.338 C 
ATOM      5  O   UNL A   1      33.316  29.008  24.341  1.00  0.00    -0.246 OA
BRANCH   4   6
ATOM      6  C   UNL A   1      32.805  27.224  25.797  1.00  0.00     0.087 C 
ATOM      7  C   UNL A   1      33.518  22.246  25.719  1.00  0.00     0.029 A 
ATOM      8  C   UNL A   1      32.421  23.069  26.094  1.00  0.00     0.058 A 
ATOM      9  C   UNL A   1      34.656  22.869  25.186  1.00  0.00     0.050 A 
ATOM     10  C   UNL A   1      32.509  24.461  26.032  1.00  0.00     0.128 A 
ATOM     11  C   UNL A   1      34.794  24.248  25.262  1.00  0.00     0.033 A 
ATOM     12  Cl  UNL A   1      35.877  22.039  24.292  1.00  0.00    -0.084 Cl
ATOM     13  C   UNL A   1      33.731  25.029  25.707  1.00  0.00     0.019 A 
ATOM     14  O   UNL A   1      31.404  25.223  26.318  1.00  0.00    -0.475 OA
ATOM     15  C   UNL A   1      33.897  26.458  25.752  1.00  0.00     0.027 C 
ATOM     16  C   UNL A   1      31.430  26.634  25.892  1.00  0.00     0.316 C 
BRANCH   7  17
ATOM     17  C   UNL A   1      33.441  20.743  25.936  1.00  0.00     0.301 C 
BRANCH  17  18
ATOM     18  N   UNL A   1      33.476  19.888  24.733  1.00  0.00    -0.327 N 
ATOM     19  C   UNL A   1      32.501  21.006  22.758  1.00  0.00     0.075 C 
ATOM     20  C   UNL A   1      32.303  19.961  23.847  1.00  0.00     0.181 C 
ATOM     21  C   UNL A   1      32.152  18.558  23.261  1.00  0.00     0.071 C 
ATOM     22  C   UNL A   1      32.660  17.673  24.378  1.00  0.00     0.071 C 
ATOM     23  C   UNL A   1      33.820  18.475  24.954  1.00  0.00     0.181 C 
ATOM     24  H   UNL A   1      34.258  20.328  24.249  1.00  0.00     0.348 HD
ATOM     25  C   UNL A   1      35.144  18.155  24.259  1.00  0.00     0.075 C 
ENDBRANCH  17  18
ENDBRANCH   7  17
BRANCH  16  26
ATOM     26  C   UNL A   1      30.665  26.820  24.571  1.00  0.00     0.430 C 
ATOM     27  F   UNL A   1      30.259  28.102  24.409  1.00  0.00    -0.167 F 
ATOM     28  F   UNL A   1      31.452  26.530  23.504  1.00  0.00    -0.167 F 
ATOM     29  F   UNL A   1      29.570  26.033  24.489  1.00  0.00    -0.167 F 
ENDBRANCH  16  26
ENDBRANCH   4   6
ENDBRANCH   3   4
ENDBRANCH   2   3
ENDBRANCH   1   2
BRANCH   1  30
ATOM     30  O   UNL A   1      35.709  31.414  27.984  1.00  0.00    -0.458 OA
BRANCH  30  31
ATOM     31  C   UNL A   1      36.189  30.910  29.143  1.00  0.00     0.338 C 
ATOM     32  O   UNL A   1      35.647  30.927  30.234  1.00  0.00    -0.246 OA
BRANCH  31  33
ATOM     33  C   UNL A   1      37.473  30.232  28.911  1.00  0.00     0.060 A 
ATOM     34  C   UNL A   1      37.936  29.980  27.625  1.00  0.00     0.016 A 
ATOM     35  C   UNL A   1      38.313  30.026  29.998  1.00  0.00     0.016 A 
ATOM     36  C   UNL A   1      39.247  29.516  27.450  1.00  0.00     0.010 A 
ATOM     37  C   UNL A   1      39.665  29.758  29.805  1.00  0.00     0.010 A 
ATOM     38  C   UNL A   1      40.150  29.447  28.532  1.00  0.00    -0.014 A 
BRANCH  38  39
ATOM     39  C   UNL A   1      41.571  29.013  28.351  1.00  0.00     0.031 A 
ATOM     40  C   UNL A   1      41.900  27.575  27.996  1.00  0.00     0.074 A 
ATOM     41  C   UNL A   1      42.578  29.901  28.509  1.00  0.00     0.049 A 
ATOM     42  N   UNL A   1      43.073  27.027  27.791  1.00  0.00    -0.248 NA
ATOM     43  C   UNL A   1      40.783  26.616  27.895  1.00  0.00     0.031 C 
ATOM     44  C   UNL A   1      42.418  31.298  28.922  1.00  0.00     0.029 A 
ATOM     45  N   UNL A   1      43.933  29.778  28.306  1.00  0.00    -0.354 N 
ATOM     46  C   UNL A   1      42.828  25.675  27.561  1.00  0.00     0.074 A 
ATOM     47  C   UNL A   1      41.414  25.462  27.738  1.00  0.00     0.031 C 
ATOM     48  C   UNL A   1      43.603  31.925  28.835  1.00  0.00     0.029 A 
ATOM     49  C   UNL A   1      44.622  30.966  28.419  1.00  0.00     0.049 A 
ATOM     50  H   UNL A   1      44.370  28.920  28.097  1.00  0.00     0.167 HD
ATOM     51  C   UNL A   1      43.688  24.705  27.173  1.00  0.00     0.031 A 
ATOM     52  C   UNL A   1      45.918  31.264  28.190  1.00  0.00     0.031 A 
ATOM     53  C   UNL A   1      45.082  24.930  26.908  1.00  0.00     0.049 A 
ATOM     54  C   UNL A   1      46.850  30.174  27.732  1.00  0.00     0.074 A 
ATOM     55  C   UNL A   1      46.019  24.025  26.442  1.00  0.00     0.029 A 
ATOM     56  N   UNL A   1      45.729  26.147  27.045  1.00  0.00    -0.354 N 
ATOM     57  N   UNL A   1      46.579  28.919  27.470  1.00  0.00    -0.248 NA
ATOM     58  C   UNL A   1      48.261  30.540  27.531  1.00  0.00     0.031 C 
ATOM     59  C   UNL A   1      47.246  24.681  26.344  1.00  0.00     0.029 A 
ATOM     60  C   UNL A   1      47.058  26.012  26.683  1.00  0.00     0.049 A 
ATOM     61  H   UNL A   1      45.308  26.981  27.354  1.00  0.00     0.167 HD
ATOM     62  C   UNL A   1      47.777  28.353  27.047  1.00  0.00     0.074 A 
ATOM     63  C   UNL A   1      48.770  29.405  27.069  1.00  0.00     0.031 C 
ATOM     64  C   UNL A   1      48.029  27.073  26.681  1.00  0.00     0.031 A 
BRANCH  51  65
ATOM     65  C   UNL A   1      43.152  23.318  26.919  1.00  0.00    -0.014 A 
ATOM     66  C   UNL A   1      42.949  22.430  27.992  1.00  0.00     0.010 A 
ATOM     67  C   UNL A   1      43.009  22.843  25.602  1.00  0.00     0.010 A 
ATOM     68  C   UNL A   1      42.668  21.082  27.753  1.00  0.00     0.020 A 
ATOM     69  C   UNL A   1      42.695  21.504  25.359  1.00  0.00     0.020 A 
ATOM     70  C   UNL A   1      42.560  20.625  26.436  1.00  0.00     0.054 A 
BRANCH  70  71
ATOM     71  S   UNL A   1      42.281  18.856  26.141  1.00  0.00     0.124 S 
ATOM     72  O   UNL A   1      42.596  18.274  27.442  1.00  0.00    -0.237 OA
ATOM     73  O   UNL A   1      40.872  18.816  25.754  1.00  0.00    -0.237 OA
ATOM     74  O   UNL A   1      43.222  18.535  25.069  1.00  0.00    -0.744 OA
ENDBRANCH  70  71
ENDBRANCH  51  65
BRANCH  52  75
ATOM     75  C   UNL A   1      46.392  32.676  28.308  1.00  0.00    -0.014 A 
ATOM     76  C   UNL A   1      46.358  33.549  27.206  1.00  0.00     0.010 A 
ATOM     77  C   UNL A   1      46.919  33.142  29.527  1.00  0.00     0.010 A 
ATOM     78  C   UNL A   1      46.876  34.844  27.308  1.00  0.00     0.020 A 
ATOM     79  C   UNL A   1      47.408  34.447  29.643  1.00  0.00     0.020 A 
ATOM     80  C   UNL A   1      47.406  35.282  28.525  1.00  0.00     0.054 A 
BRANCH  80  81
ATOM     81  S   UNL A   1      48.084  36.962  28.632  1.00  0.00     0.124 S 
ATOM     82  O   UNL A   1      49.450  36.764  28.151  1.00  0.00    -0.237 OA
ATOM     83  O   UNL A   1      47.207  37.718  27.741  1.00  0.00    -0.237 OA
ATOM     84  O   UNL A   1      47.962  37.291  30.048  1.00  0.00    -0.744 OA
ENDBRANCH  80  81
ENDBRANCH  52  75
BRANCH  64  85
ATOM     85  C   UNL A   1      49.425  26.711  26.249  1.00  0.00    -0.014 A 
ATOM     86  C   UNL A   1      50.363  26.292  27.212  1.00  0.00     0.010 A 
ATOM     87  C   UNL A   1      49.851  26.947  24.931  1.00  0.00     0.010 A 
ATOM     88  C   UNL A   1      51.711  26.161  26.876  1.00  0.00     0.020 A 
ATOM     89  C   UNL A   1      51.195  26.785  24.583  1.00  0.00     0.020 A 
ATOM     90  C   UNL A   1      52.121  26.422  25.566  1.00  0.00     0.054 A 
BRANCH  90  91
ATOM     91  S   UNL A   1      53.884  26.301  25.160  1.00  0.00     0.124 S 
ATOM     92  O   UNL A   1      54.280  27.704  25.090  1.00  0.00    -0.237 OA
ATOM     93  O   UNL A   1      54.423  25.551  26.291  1.00  0.00    -0.237 OA
ATOM     94  O   UNL A   1      53.894  25.585  23.886  1.00  0.00    -0.744 OA
ENDBRANCH  90  91
ENDBRANCH  64  85
ENDBRANCH  38  39
ENDBRANCH  31  33
ENDBRANCH  30  31
ENDBRANCH   1  30
TORSDOF 17
ENDMDL
