MODEL 1
REMARK VINA RESULT:     -10.9      0.000      0.000
REMARK SMILES O=C(OCCOC(=O)[C@H]1[NH2+][C@@H]2CC[C@H]1CC2(F)F)c1ccc(-c2c3nc(c(-c4ccc(S(=O)(=O)[O-])cc4)c4ccc([nH]4)c(-c4ccc(S(=O)(=O)[O-])cc4)c4nc(c(-c5ccc(S(=O)(=O)[O-])cc5)c5ccc2[nH]5)C=C4)C=C3)cc1
REMARK SMILES IDX 3 1 2 2 1 3 19 4 20 5 78 6 21 7 77 8 22 9 23 10 24 11 71 12
REMARK SMILES IDX 25 13 76 14 70 15 72 16 26 17 75 18 69 19 68 20 27 22 57 23
REMARK SMILES IDX 38 24 56 25 39 26 42 27 55 28 73 29 40 30 41 31 54 33 74 34
REMARK SMILES IDX 43 35 28 36 29 37 37 38 30 39 36 40 31 41 32 42 33 43 34 44
REMARK SMILES IDX 35 45 58 46 59 47 67 48 60 49 66 50 61 51 62 52 63 53 64 54
REMARK SMILES IDX 65 55 44 56 45 57 53 58 46 59 52 60 47 61 48 62 49 63 50 64
REMARK SMILES IDX 51 65 4 66 5 67 6 68 7 69 8 70 9 71 10 72 14 73 11 74 13 77
REMARK SMILES IDX 15 78 12 79 16 80 17 81 18 82
REMARK H PARENT 72 21 42 32 10 75 10 76
REMARK Flexibility Score: inf
ROOT
ATOM      1  O   UNL A   1      39.665  22.844  26.963  1.00  0.00    -0.458 OA
ENDROOT
BRANCH   1   2
ATOM      2  C   UNL A   1      40.686  23.710  26.867  1.00  0.00     0.338 C 
ATOM      3  O   UNL A   1      41.711  23.380  26.280  1.00  0.00    -0.246 OA
BRANCH   2   4
ATOM      4  C   UNL A   1      40.670  25.037  27.558  1.00  0.00     0.060 A 
ATOM      5  C   UNL A   1      41.870  26.182  27.728  1.00  0.00     0.016 A 
ATOM      6  C   UNL A   1      39.261  25.258  28.531  1.00  0.00     0.016 A 
ATOM      7  C   UNL A   1      41.822  27.527  28.759  1.00  0.00     0.010 A 
ATOM      8  C   UNL A   1      39.197  26.805  29.788  1.00  0.00     0.010 A 
ATOM      9  C   UNL A   1      40.567  27.904  29.766  1.00  0.00    -0.014 A 
BRANCH   9  10
ATOM     10  C   UNL A   1      40.652  29.016  30.734  1.00  0.00     0.031 A 
ATOM     11  C   UNL A   1      41.401  28.790  32.011  1.00  0.00     0.074 A 
ATOM     12  C   UNL A   1      39.875  30.097  30.535  1.00  0.00     0.049 A 
ATOM     13  N   UNL A   1      41.256  29.373  33.167  1.00  0.00    -0.248 NA
ATOM     14  C   UNL A   1      42.400  27.712  32.020  1.00  0.00     0.031 C 
ATOM     15  C   UNL A   1      39.121  30.398  29.313  1.00  0.00     0.029 A 
ATOM     16  N   UNL A   1      39.477  31.072  31.411  1.00  0.00    -0.354 N 
ATOM     17  C   UNL A   1      42.109  28.682  34.024  1.00  0.00     0.074 A 
ATOM     18  C   UNL A   1      42.600  27.534  33.313  1.00  0.00     0.031 C 
ATOM     19  C   UNL A   1      38.219  31.358  29.576  1.00  0.00     0.029 A 
ATOM     20  C   UNL A   1      38.387  31.787  30.958  1.00  0.00     0.049 A 
ATOM     21  H   UNL A   1      39.923  31.247  32.272  1.00  0.00     0.167 HD
ATOM     22  C   UNL A   1      42.556  29.049  35.246  1.00  0.00     0.031 A 
ATOM     23  C   UNL A   1      37.603  32.669  31.606  1.00  0.00     0.031 A 
ATOM     24  C   UNL A   1      42.102  30.254  35.871  1.00  0.00     0.049 A 
ATOM     25  C   UNL A   1      38.037  33.062  32.989  1.00  0.00     0.074 A 
ATOM     26  C   UNL A   1      42.516  30.841  37.046  1.00  0.00     0.029 A 
ATOM     27  N   UNL A   1      41.109  31.065  35.332  1.00  0.00    -0.354 N 
ATOM     28  N   UNL A   1      38.942  32.488  33.752  1.00  0.00    -0.248 NA
ATOM     29  C   UNL A   1      37.432  34.266  33.564  1.00  0.00     0.031 C 
ATOM     30  C   UNL A   1      41.719  31.971  37.254  1.00  0.00     0.029 A 
ATOM     31  C   UNL A   1      40.869  32.133  36.165  1.00  0.00     0.049 A 
ATOM     32  H   UNL A   1      40.644  30.899  34.480  1.00  0.00     0.167 HD
ATOM     33  C   UNL A   1      39.074  33.305  34.864  1.00  0.00     0.074 A 
ATOM     34  C   UNL A   1      38.131  34.396  34.685  1.00  0.00     0.031 C 
ATOM     35  C   UNL A   1      39.919  33.192  35.920  1.00  0.00     0.031 A 
BRANCH  22  36
ATOM     36  C   UNL A   1      43.579  28.161  35.915  1.00  0.00    -0.014 A 
ATOM     37  C   UNL A   1      44.964  28.339  35.702  1.00  0.00     0.010 A 
ATOM     38  C   UNL A   1      43.158  27.094  36.724  1.00  0.00     0.010 A 
ATOM     39  C   UNL A   1      45.891  27.417  36.195  1.00  0.00     0.020 A 
ATOM     40  C   UNL A   1      44.086  26.193  37.261  1.00  0.00     0.020 A 
ATOM     41  C   UNL A   1      45.443  26.342  36.967  1.00  0.00     0.054 A 
BRANCH  41  42
ATOM     42  S   UNL A   1      46.666  25.155  37.587  1.00  0.00     0.124 S 
ATOM     43  O   UNL A   1      46.290  23.934  36.880  1.00  0.00    -0.237 OA
ATOM     44  O   UNL A   1      47.931  25.754  37.170  1.00  0.00    -0.237 OA
ATOM     45  O   UNL A   1      46.432  25.137  39.029  1.00  0.00    -0.744 OA
ENDBRANCH  41  42
ENDBRANCH  22  36
BRANCH  23  46
ATOM     46  C   UNL A   1      36.455  33.301  30.898  1.00  0.00    -0.014 A 
ATOM     47  C   UNL A   1      35.215  33.437  31.547  1.00  0.00     0.010 A 
ATOM     48  C   UNL A   1      36.620  33.881  29.625  1.00  0.00     0.010 A 
ATOM     49  C   UNL A   1      34.168  34.143  30.945  1.00  0.00     0.020 A 
ATOM     50  C   UNL A   1      35.577  34.602  29.024  1.00  0.00     0.020 A 
ATOM     51  C   UNL A   1      34.358  34.732  29.693  1.00  0.00     0.054 A 
BRANCH  51  52
ATOM     52  S   UNL A   1      33.008  35.725  28.989  1.00  0.00     0.124 S 
ATOM     53  O   UNL A   1      33.735  36.799  28.317  1.00  0.00    -0.237 OA
ATOM     54  O   UNL A   1      32.344  34.766  28.110  1.00  0.00    -0.237 OA
ATOM     55  O   UNL A   1      32.231  36.130  30.158  1.00  0.00    -0.744 OA
ENDBRANCH  51  52
ENDBRANCH  23  46
BRANCH  35  56
ATOM     56  C   UNL A   1      39.907  34.296  36.932  1.00  0.00    -0.014 A 
ATOM     57  C   UNL A   1      39.091  34.221  38.070  1.00  0.00     0.010 A 
ATOM     58  C   UNL A   1      40.847  35.334  36.807  1.00  0.00     0.010 A 
ATOM     59  C   UNL A   1      39.221  35.173  39.078  1.00  0.00     0.020 A 
ATOM     60  C   UNL A   1      41.005  36.266  37.830  1.00  0.00     0.020 A 
ATOM     61  C   UNL A   1      40.189  36.178  38.959  1.00  0.00     0.054 A 
BRANCH  61  62
ATOM     62  S   UNL A   1      40.417  37.324  40.341  1.00  0.00     0.124 S 
ATOM     63  O   UNL A   1      41.380  36.607  41.171  1.00  0.00    -0.237 OA
ATOM     64  O   UNL A   1      40.924  38.522  39.677  1.00  0.00    -0.237 OA
ATOM     65  O   UNL A   1      39.077  37.453  40.909  1.00  0.00    -0.744 OA
ENDBRANCH  61  62
ENDBRANCH  35  56
ENDBRANCH   9  10
ENDBRANCH   2   4
ENDBRANCH   1   2
BRANCH   1  66
ATOM     66  C   UNL A   1      38.819  22.498  25.872  1.00  0.00     0.275 C 
BRANCH  66  67
ATOM     67  C   UNL A   1      37.519  23.320  25.780  1.00  0.00     0.274 C 
BRANCH  67  68
ATOM     68  O   UNL A   1      36.434  22.679  25.063  1.00  0.00    -0.458 OA
BRANCH  68  69
ATOM     69  C   UNL A   1      36.175  23.007  23.746  1.00  0.00     0.365 C 
ATOM     70  O   UNL A   1      37.033  23.086  22.879  1.00  0.00    -0.245 OA
BRANCH  69  71
ATOM     71  C   UNL A   1      34.634  23.209  23.546  1.00  0.00     0.297 C 
ATOM     72  N   UNL A   1      33.591  22.024  24.161  1.00  0.00    -0.327 N 
ATOM     73  C   UNL A   1      34.053  24.955  23.918  1.00  0.00     0.066 C 
ATOM     74  C   UNL A   1      32.125  22.683  24.877  1.00  0.00     0.254 C 
ATOM     75  H   UNL A   1      34.090  21.495  24.876  1.00  0.00     0.347 HD
ATOM     76  H   UNL A   1      33.306  21.438  23.376  1.00  0.00     0.347 HD
ATOM     77  C   UNL A   1      32.710  24.300  22.686  1.00  0.00     0.017 C 
ATOM     78  C   UNL A   1      33.388  25.536  25.981  1.00  0.00     0.094 C 
ATOM     79  C   UNL A   1      31.679  23.137  23.373  1.00  0.00     0.072 C 
ATOM     80  C   UNL A   1      32.086  24.002  26.394  1.00  0.00     0.298 C 
ATOM     81  F   UNL A   1      30.832  24.489  26.596  1.00  0.00    -0.200 F 
ATOM     82  F   UNL A   1      32.462  23.405  27.561  1.00  0.00    -0.200 F 
ENDBRANCH  69  71
ENDBRANCH  68  69
ENDBRANCH  67  68
ENDBRANCH  66  67
ENDBRANCH   1  66
TORSDOF 14
ENDMDL
MODEL 2
REMARK VINA RESULT:     -10.8      7.118     12.810
REMARK SMILES O=C(OCCOC(=O)[C@H]1[NH2+][C@@H]2CC[C@H]1CC2(F)F)c1ccc(-c2c3nc(c(-c4ccc(S(=O)(=O)[O-])cc4)c4ccc([nH]4)c(-c4ccc(S(=O)(=O)[O-])cc4)c4nc(c(-c5ccc(S(=O)(=O)[O-])cc5)c5ccc2[nH]5)C=C4)C=C3)cc1
REMARK SMILES IDX 3 1 2 2 1 3 19 4 20 5 78 6 21 7 77 8 22 9 23 10 24 11 71 12
REMARK SMILES IDX 25 13 76 14 70 15 72 16 26 17 75 18 69 19 68 20 27 22 57 23
REMARK SMILES IDX 38 24 56 25 39 26 42 27 55 28 73 29 40 30 41 31 54 33 74 34
REMARK SMILES IDX 43 35 28 36 29 37 37 38 30 39 36 40 31 41 32 42 33 43 34 44
REMARK SMILES IDX 35 45 58 46 59 47 67 48 60 49 66 50 61 51 62 52 63 53 64 54
REMARK SMILES IDX 65 55 44 56 45 57 53 58 46 59 52 60 47 61 48 62 49 63 50 64
REMARK SMILES IDX 51 65 4 66 5 67 6 68 7 69 8 70 9 71 10 72 14 73 11 74 13 77
REMARK SMILES IDX 15 78 12 79 16 80 17 81 18 82
REMARK H PARENT 72 21 42 32 10 75 10 76
REMARK Flexibility Score: inf
ROOT
ATOM      1  O   UNL A   1      35.203  29.129  28.335  1.00  0.00    -0.458 OA
ENDROOT
BRANCH   1   2
ATOM      2  C   UNL A   1      36.240  29.787  28.874  1.00  0.00     0.338 C 
ATOM      3  O   UNL A   1      36.069  30.898  29.365  1.00  0.00    -0.246 OA
BRANCH   2   4
ATOM      4  C   UNL A   1      37.640  29.265  28.794  1.00  0.00     0.060 A 
ATOM      5  C   UNL A   1      38.695  28.807  30.002  1.00  0.00     0.016 A 
ATOM      6  C   UNL A   1      38.313  29.421  27.212  1.00  0.00     0.016 A 
ATOM      7  C   UNL A   1      40.348  28.484  29.809  1.00  0.00     0.010 A 
ATOM      8  C   UNL A   1      40.265  29.094  26.964  1.00  0.00     0.010 A 
ATOM      9  C   UNL A   1      41.171  28.584  28.381  1.00  0.00    -0.014 A 
BRANCH   9  10
ATOM     10  C   UNL A   1      42.638  28.420  28.313  1.00  0.00     0.031 A 
ATOM     11  C   UNL A   1      43.491  29.650  28.340  1.00  0.00     0.074 A 
ATOM     12  C   UNL A   1      43.131  27.206  28.007  1.00  0.00     0.049 A 
ATOM     13  N   UNL A   1      44.687  29.836  27.857  1.00  0.00    -0.248 NA
ATOM     14  C   UNL A   1      42.900  30.863  28.921  1.00  0.00     0.031 C 
ATOM     15  C   UNL A   1      42.367  25.953  27.970  1.00  0.00     0.029 A 
ATOM     16  N   UNL A   1      44.365  26.848  27.529  1.00  0.00    -0.354 N 
ATOM     17  C   UNL A   1      44.938  31.193  28.040  1.00  0.00     0.074 A 
ATOM     18  C   UNL A   1      43.715  31.804  28.482  1.00  0.00     0.031 C 
ATOM     19  C   UNL A   1      43.083  25.019  27.323  1.00  0.00     0.029 A 
ATOM     20  C   UNL A   1      44.377  25.586  26.971  1.00  0.00     0.049 A 
ATOM     21  H   UNL A   1      45.158  27.429  27.580  1.00  0.00     0.167 HD
ATOM     22  C   UNL A   1      46.119  31.847  27.983  1.00  0.00     0.031 A 
ATOM     23  C   UNL A   1      45.328  24.977  26.237  1.00  0.00     0.031 A 
ATOM     24  C   UNL A   1      47.328  31.167  27.626  1.00  0.00     0.049 A 
ATOM     25  C   UNL A   1      46.638  25.698  26.105  1.00  0.00     0.074 A 
ATOM     26  C   UNL A   1      48.624  31.633  27.617  1.00  0.00     0.029 A 
ATOM     27  N   UNL A   1      47.362  29.840  27.213  1.00  0.00    -0.354 N 
ATOM     28  N   UNL A   1      46.913  26.949  26.403  1.00  0.00    -0.248 NA
ATOM     29  C   UNL A   1      47.788  24.917  25.639  1.00  0.00     0.031 C 
ATOM     30  C   UNL A   1      49.435  30.603  27.128  1.00  0.00     0.029 A 
ATOM     31  C   UNL A   1      48.654  29.473  26.915  1.00  0.00     0.049 A 
ATOM     32  H   UNL A   1      46.578  29.249  27.145  1.00  0.00     0.167 HD
ATOM     33  C   UNL A   1      48.282  27.087  26.238  1.00  0.00     0.074 A 
ATOM     34  C   UNL A   1      48.772  25.797  25.782  1.00  0.00     0.031 C 
ATOM     35  C   UNL A   1      49.074  28.164  26.474  1.00  0.00     0.031 A 
BRANCH  22  36
ATOM     36  C   UNL A   1      46.128  33.315  28.344  1.00  0.00    -0.014 A 
ATOM     37  C   UNL A   1      46.138  33.744  29.690  1.00  0.00     0.010 A 
ATOM     38  C   UNL A   1      46.065  34.285  27.332  1.00  0.00     0.010 A 
ATOM     39  C   UNL A   1      45.983  35.095  30.013  1.00  0.00     0.020 A 
ATOM     40  C   UNL A   1      45.958  35.645  27.650  1.00  0.00     0.020 A 
ATOM     41  C   UNL A   1      45.886  36.038  28.988  1.00  0.00     0.054 A 
BRANCH  41  42
ATOM     42  S   UNL A   1      45.677  37.783  29.435  1.00  0.00     0.124 S 
ATOM     43  O   UNL A   1      46.817  38.407  28.769  1.00  0.00    -0.237 OA
ATOM     44  O   UNL A   1      44.370  38.102  28.867  1.00  0.00    -0.237 OA
ATOM     45  O   UNL A   1      45.735  37.777  30.894  1.00  0.00    -0.744 OA
ENDBRANCH  41  42
ENDBRANCH  22  36
BRANCH  23  46
ATOM     46  C   UNL A   1      45.095  23.599  25.720  1.00  0.00    -0.014 A 
ATOM     47  C   UNL A   1      44.762  23.401  24.368  1.00  0.00     0.010 A 
ATOM     48  C   UNL A   1      45.324  22.473  26.533  1.00  0.00     0.010 A 
ATOM     49  C   UNL A   1      44.669  22.110  23.837  1.00  0.00     0.020 A 
ATOM     50  C   UNL A   1      45.246  21.176  26.001  1.00  0.00     0.020 A 
ATOM     51  C   UNL A   1      44.923  21.005  24.653  1.00  0.00     0.054 A 
BRANCH  51  52
ATOM     52  S   UNL A   1      44.891  19.349  23.904  1.00  0.00     0.124 S 
ATOM     53  O   UNL A   1      46.293  18.951  23.979  1.00  0.00    -0.237 OA
ATOM     54  O   UNL A   1      43.981  18.627  24.789  1.00  0.00    -0.237 OA
ATOM     55  O   UNL A   1      44.380  19.590  22.556  1.00  0.00    -0.744 OA
ENDBRANCH  51  52
ENDBRANCH  23  46
BRANCH  35  56
ATOM     56  C   UNL A   1      50.550  27.983  26.302  1.00  0.00    -0.014 A 
ATOM     57  C   UNL A   1      51.339  27.469  27.341  1.00  0.00     0.010 A 
ATOM     58  C   UNL A   1      51.109  28.184  25.027  1.00  0.00     0.010 A 
ATOM     59  C   UNL A   1      52.674  27.151  27.103  1.00  0.00     0.020 A 
ATOM     60  C   UNL A   1      52.433  27.832  24.777  1.00  0.00     0.020 A 
ATOM     61  C   UNL A   1      53.206  27.318  25.818  1.00  0.00     0.054 A 
BRANCH  61  62
ATOM     62  S   UNL A   1      54.906  26.779  25.512  1.00  0.00     0.124 S 
ATOM     63  O   UNL A   1      55.559  28.032  25.145  1.00  0.00    -0.237 OA
ATOM     64  O   UNL A   1      55.297  26.218  26.802  1.00  0.00    -0.237 OA
ATOM     65  O   UNL A   1      54.772  25.806  24.430  1.00  0.00    -0.744 OA
ENDBRANCH  61  62
ENDBRANCH  35  56
ENDBRANCH   9  10
ENDBRANCH   2   4
ENDBRANCH   1   2
BRANCH   1  66
ATOM     66  C   UNL A   1      34.584  29.502  27.108  1.00  0.00     0.275 C 
BRANCH  66  67
ATOM     67  C   UNL A   1      33.218  30.198  27.263  1.00  0.00     0.274 C 
BRANCH  67  68
ATOM     68  O   UNL A   1      32.064  29.338  27.080  1.00  0.00    -0.458 OA
BRANCH  68  69
ATOM     69  C   UNL A   1      31.710  28.900  25.817  1.00  0.00     0.365 C 
ATOM     70  O   UNL A   1      31.612  29.631  24.843  1.00  0.00    -0.245 OA
BRANCH  69  71
ATOM     71  C   UNL A   1      31.509  27.346  25.836  1.00  0.00     0.297 C 
ATOM     72  N   UNL A   1      30.184  26.706  24.996  1.00  0.00    -0.327 N 
ATOM     73  C   UNL A   1      33.093  26.382  25.542  1.00  0.00     0.066 C 
ATOM     74  C   UNL A   1      30.545  25.203  24.158  1.00  0.00     0.254 C 
ATOM     75  H   UNL A   1      29.876  27.394  24.308  1.00  0.00     0.347 HD
ATOM     76  H   UNL A   1      29.461  26.500  25.686  1.00  0.00     0.347 HD
ATOM     77  C   UNL A   1      31.998  25.131  26.533  1.00  0.00     0.017 C 
ATOM     78  C   UNL A   1      33.725  25.806  23.467  1.00  0.00     0.094 C 
ATOM     79  C   UNL A   1      30.705  24.505  25.626  1.00  0.00     0.072 C 
ATOM     80  C   UNL A   1      31.979  24.985  22.764  1.00  0.00     0.298 C 
ATOM     81  F   UNL A   1      32.167  23.676  22.446  1.00  0.00    -0.200 F 
ATOM     82  F   UNL A   1      31.627  25.617  21.609  1.00  0.00    -0.200 F 
ENDBRANCH  69  71
ENDBRANCH  68  69
ENDBRANCH  67  68
ENDBRANCH  66  67
ENDBRANCH   1  66
TORSDOF 14
ENDMDL
MODEL 3
REMARK VINA RESULT:     -10.7      6.746     12.576
REMARK SMILES O=C(OCCOC(=O)[C@H]1[NH2+][C@@H]2CC[C@H]1CC2(F)F)c1ccc(-c2c3nc(c(-c4ccc(S(=O)(=O)[O-])cc4)c4ccc([nH]4)c(-c4ccc(S(=O)(=O)[O-])cc4)c4nc(c(-c5ccc(S(=O)(=O)[O-])cc5)c5ccc2[nH]5)C=C4)C=C3)cc1
REMARK SMILES IDX 3 1 2 2 1 3 19 4 20 5 78 6 21 7 77 8 22 9 23 10 24 11 71 12
REMARK SMILES IDX 25 13 76 14 70 15 72 16 26 17 75 18 69 19 68 20 27 22 57 23
REMARK SMILES IDX 38 24 56 25 39 26 42 27 55 28 73 29 40 30 41 31 54 33 74 34
REMARK SMILES IDX 43 35 28 36 29 37 37 38 30 39 36 40 31 41 32 42 33 43 34 44
REMARK SMILES IDX 35 45 58 46 59 47 67 48 60 49 66 50 61 51 62 52 63 53 64 54
REMARK SMILES IDX 65 55 44 56 45 57 53 58 46 59 52 60 47 61 48 62 49 63 50 64
REMARK SMILES IDX 51 65 4 66 5 67 6 68 7 69 8 70 9 71 10 72 14 73 11 74 13 77
REMARK SMILES IDX 15 78 12 79 16 80 17 81 18 82
REMARK H PARENT 72 21 42 32 10 75 10 76
REMARK Flexibility Score: inf
ROOT
ATOM      1  O   UNL A   1      35.380  31.580  27.648  1.00  0.00    -0.458 OA
ENDROOT
BRANCH   1   2
ATOM      2  C   UNL A   1      36.092  31.549  28.785  1.00  0.00     0.338 C 
ATOM      3  O   UNL A   1      35.752  32.245  29.736  1.00  0.00    -0.246 OA
BRANCH   2   4
ATOM      4  C   UNL A   1      37.371  30.782  28.900  1.00  0.00     0.060 A 
ATOM      5  C   UNL A   1      38.500  30.738  30.126  1.00  0.00     0.016 A 
ATOM      6  C   UNL A   1      37.835  30.044  27.410  1.00  0.00     0.016 A 
ATOM      7  C   UNL A   1      40.042  30.039  30.035  1.00  0.00     0.010 A 
ATOM      8  C   UNL A   1      39.660  29.255  27.258  1.00  0.00     0.010 A 
ATOM      9  C   UNL A   1      40.665  29.293  28.699  1.00  0.00    -0.014 A 
BRANCH   9  10
ATOM     10  C   UNL A   1      42.065  28.826  28.650  1.00  0.00     0.031 A 
ATOM     11  C   UNL A   1      43.145  29.843  28.446  1.00  0.00     0.074 A 
ATOM     12  C   UNL A   1      42.295  27.503  28.564  1.00  0.00     0.049 A 
ATOM     13  N   UNL A   1      44.331  29.695  27.927  1.00  0.00    -0.248 NA
ATOM     14  C   UNL A   1      42.833  31.234  28.804  1.00  0.00     0.031 C 
ATOM     15  C   UNL A   1      41.297  26.445  28.760  1.00  0.00     0.029 A 
ATOM     16  N   UNL A   1      43.410  26.825  28.147  1.00  0.00    -0.354 N 
ATOM     17  C   UNL A   1      44.854  30.984  27.859  1.00  0.00     0.074 A 
ATOM     18  C   UNL A   1      43.797  31.898  28.194  1.00  0.00     0.031 C 
ATOM     19  C   UNL A   1      41.784  25.286  28.287  1.00  0.00     0.029 A 
ATOM     20  C   UNL A   1      43.148  25.508  27.827  1.00  0.00     0.049 A 
ATOM     21  H   UNL A   1      44.304  27.232  28.085  1.00  0.00     0.167 HD
ATOM     22  C   UNL A   1      46.137  31.365  27.674  1.00  0.00     0.031 A 
ATOM     23  C   UNL A   1      43.924  24.600  27.206  1.00  0.00     0.031 A 
ATOM     24  C   UNL A   1      47.170  30.402  27.435  1.00  0.00     0.049 A 
ATOM     25  C   UNL A   1      45.344  25.006  26.934  1.00  0.00     0.074 A 
ATOM     26  C   UNL A   1      48.531  30.587  27.331  1.00  0.00     0.029 A 
ATOM     27  N   UNL A   1      46.922  29.045  27.269  1.00  0.00    -0.354 N 
ATOM     28  N   UNL A   1      45.874  26.208  26.998  1.00  0.00    -0.248 NA
ATOM     29  C   UNL A   1      46.294  23.940  26.607  1.00  0.00     0.031 C 
ATOM     30  C   UNL A   1      49.099  29.345  27.029  1.00  0.00     0.029 A 
ATOM     31  C   UNL A   1      48.101  28.377  27.030  1.00  0.00     0.049 A 
ATOM     32  H   UNL A   1      46.034  28.622  27.315  1.00  0.00     0.167 HD
ATOM     33  C   UNL A   1      47.235  26.035  26.799  1.00  0.00     0.074 A 
ATOM     34  C   UNL A   1      47.438  24.613  26.580  1.00  0.00     0.031 C 
ATOM     35  C   UNL A   1      48.234  26.953  26.830  1.00  0.00     0.031 A 
BRANCH  22  36
ATOM     36  C   UNL A   1      46.452  32.840  27.764  1.00  0.00    -0.014 A 
ATOM     37  C   UNL A   1      46.731  33.462  29.001  1.00  0.00     0.010 A 
ATOM     38  C   UNL A   1      46.413  33.636  26.608  1.00  0.00     0.010 A 
ATOM     39  C   UNL A   1      46.861  34.850  29.094  1.00  0.00     0.020 A 
ATOM     40  C   UNL A   1      46.590  35.023  26.688  1.00  0.00     0.020 A 
ATOM     41  C   UNL A   1      46.782  35.624  27.934  1.00  0.00     0.054 A 
BRANCH  41  42
ATOM     42  S   UNL A   1      46.945  37.425  28.083  1.00  0.00     0.124 S 
ATOM     43  O   UNL A   1      48.158  37.555  28.887  1.00  0.00    -0.237 OA
ATOM     44  O   UNL A   1      47.069  37.849  26.691  1.00  0.00    -0.237 OA
ATOM     45  O   UNL A   1      45.710  37.831  28.748  1.00  0.00    -0.744 OA
ENDBRANCH  41  42
ENDBRANCH  22  36
BRANCH  23  46
ATOM     46  C   UNL A   1      43.401  23.230  26.948  1.00  0.00    -0.014 A 
ATOM     47  C   UNL A   1      43.405  22.708  25.643  1.00  0.00     0.010 A 
ATOM     48  C   UNL A   1      43.012  22.391  28.012  1.00  0.00     0.010 A 
ATOM     49  C   UNL A   1      43.039  21.378  25.404  1.00  0.00     0.020 A 
ATOM     50  C   UNL A   1      42.659  21.054  27.779  1.00  0.00     0.020 A 
ATOM     51  C   UNL A   1      42.680  20.555  26.474  1.00  0.00     0.054 A 
BRANCH  51  52
ATOM     52  S   UNL A   1      42.309  18.808  26.136  1.00  0.00     0.124 S 
ATOM     53  O   UNL A   1      40.904  18.863  25.743  1.00  0.00    -0.237 OA
ATOM     54  O   UNL A   1      43.252  18.493  25.065  1.00  0.00    -0.237 OA
ATOM     55  O   UNL A   1      42.578  18.144  27.409  1.00  0.00    -0.744 OA
ENDBRANCH  51  52
ENDBRANCH  23  46
BRANCH  35  56
ATOM     56  C   UNL A   1      49.635  26.449  26.680  1.00  0.00    -0.014 A 
ATOM     57  C   UNL A   1      50.242  26.371  25.418  1.00  0.00     0.010 A 
ATOM     58  C   UNL A   1      50.393  26.209  27.840  1.00  0.00     0.010 A 
ATOM     59  C   UNL A   1      51.597  26.063  25.320  1.00  0.00     0.020 A 
ATOM     60  C   UNL A   1      51.755  25.938  27.747  1.00  0.00     0.020 A 
ATOM     61  C   UNL A   1      52.347  25.867  26.485  1.00  0.00     0.054 A 
BRANCH  61  62
ATOM     62  S   UNL A   1      54.129  25.592  26.328  1.00  0.00     0.124 S 
ATOM     63  O   UNL A   1      54.575  25.705  27.713  1.00  0.00    -0.237 OA
ATOM     64  O   UNL A   1      54.192  24.252  25.751  1.00  0.00    -0.237 OA
ATOM     65  O   UNL A   1      54.569  26.668  25.441  1.00  0.00    -0.744 OA
ENDBRANCH  61  62
ENDBRANCH  35  56
ENDBRANCH   9  10
ENDBRANCH   2   4
ENDBRANCH   1   2
BRANCH   1  66
ATOM     66  C   UNL A   1      34.448  30.570  27.274  1.00  0.00     0.275 C 
BRANCH  66  67
ATOM     67  C   UNL A   1      32.968  30.981  27.403  1.00  0.00     0.274 C 
BRANCH  67  68
ATOM     68  O   UNL A   1      32.013  29.904  27.232  1.00  0.00    -0.458 OA
BRANCH  68  69
ATOM     69  C   UNL A   1      31.765  29.381  25.977  1.00  0.00     0.365 C 
ATOM     70  O   UNL A   1      31.387  30.043  25.023  1.00  0.00    -0.245 OA
BRANCH  69  71
ATOM     71  C   UNL A   1      32.087  27.847  25.972  1.00  0.00     0.297 C 
ATOM     72  N   UNL A   1      30.936  26.792  26.630  1.00  0.00    -0.327 N 
ATOM     73  C   UNL A   1      32.792  27.235  24.344  1.00  0.00     0.066 C 
ATOM     74  C   UNL A   1      30.763  25.292  25.726  1.00  0.00     0.254 C 
ATOM     75  H   UNL A   1      30.033  27.267  26.642  1.00  0.00     0.347 HD
ATOM     76  H   UNL A   1      31.255  26.544  27.566  1.00  0.00     0.347 HD
ATOM     77  C   UNL A   1      33.468  25.949  25.624  1.00  0.00     0.017 C 
ATOM     78  C   UNL A   1      31.446  26.482  22.714  1.00  0.00     0.094 C 
ATOM     79  C   UNL A   1      32.270  24.903  26.222  1.00  0.00     0.072 C 
ATOM     80  C   UNL A   1      30.269  25.178  23.780  1.00  0.00     0.298 C 
ATOM     81  F   UNL A   1      30.416  23.913  23.304  1.00  0.00    -0.200 F 
ATOM     82  F   UNL A   1      28.961  25.512  23.595  1.00  0.00    -0.200 F 
ENDBRANCH  69  71
ENDBRANCH  68  69
ENDBRANCH  67  68
ENDBRANCH  66  67
ENDBRANCH   1  66
TORSDOF 14
ENDMDL
