MODEL 1
REMARK VINA RESULT:      -9.6      0.000      0.000
REMARK SMILES CC(C)c1ccc(C[N@@H+](CC(=O)OCCOC(=O)c2ccc(-c3c4nc(c(-c5ccc(S(=O)(=O)[O-])cc5)c5ccc([nH]5)c(-c5ccc(S(=O)(=O)[O-])cc5)c5nc(c(-c6ccc(S(=O)(=O)[O-])cc6)c6ccc3[nH]6)C=C5)C=C4)cc2)CC(F)(F)F)cc1
REMARK SMILES IDX 14 1 13 2 11 3 12 4 10 5 9 6 8 8 7 9 4 10 5 11 85 12 6 13
REMARK SMILES IDX 84 14 2 15 1 16 3 17 79 18 80 19 81 20 82 21 83 22 15 23
REMARK SMILES IDX 16 24 17 25 18 26 19 27 20 28 78 29 21 30 77 31 22 32 23 33
REMARK SMILES IDX 24 34 71 35 25 36 76 37 70 38 72 39 26 40 75 41 69 42 68 43
REMARK SMILES IDX 27 45 57 46 38 47 56 48 39 49 42 50 55 51 73 52 40 53 41 54
REMARK SMILES IDX 54 56 74 57 43 58 28 59 29 60 37 61 30 62 36 63 31 64 32 65
REMARK SMILES IDX 33 66 34 67 35 68 58 69 59 70 67 71 60 72 66 73 61 74 62 75
REMARK SMILES IDX 63 76 64 77 65 78 44 79 45 80 53 81 46 82 52 83 47 84 48 85
REMARK SMILES IDX 49 86 50 87 51 88
REMARK H PARENT 9 7 72 44 42 55
REMARK Flexibility Score: inf
ROOT
ATOM      1  C   UNL A   1      36.359  22.530  23.752  1.00  0.00     0.274 C 
ENDROOT
BRANCH   1   2
ATOM      2  O   UNL A   1      35.352  23.227  24.515  1.00  0.00    -0.458 OA
BRANCH   2   3
ATOM      3  C   UNL A   1      34.260  22.501  24.866  1.00  0.00     0.361 C 
ATOM      4  O   UNL A   1      34.277  21.604  25.704  1.00  0.00    -0.245 OA
BRANCH   3   5
ATOM      5  C   UNL A   1      32.994  22.815  24.070  1.00  0.00     0.387 C 
BRANCH   5   6
ATOM      6  N   UNL A   1      32.473  24.193  24.092  1.00  0.00    -0.314 N 
ATOM      7  H   UNL A   1      33.288  24.780  24.267  1.00  0.00     0.349 HD
BRANCH   6   8
ATOM      8  C   UNL A   1      31.672  24.531  25.261  1.00  0.00     0.299 C 
BRANCH   8   9
ATOM      9  C   UNL A   1      32.081  25.838  25.901  1.00  0.00     0.006 A 
ATOM     10  C   UNL A   1      32.718  28.405  26.928  1.00  0.00    -0.045 A 
ATOM     11  C   UNL A   1      33.644  27.677  26.160  1.00  0.00     0.004 A 
ATOM     12  C   UNL A   1      31.485  27.798  27.208  1.00  0.00     0.004 A 
ATOM     13  C   UNL A   1      33.340  26.404  25.673  1.00  0.00     0.010 A 
ATOM     14  C   UNL A   1      31.172  26.532  26.707  1.00  0.00     0.010 A 
BRANCH  10  15
ATOM     15  C   UNL A   1      33.053  29.829  27.352  1.00  0.00     0.013 C 
ATOM     16  C   UNL A   1      34.521  30.235  27.164  1.00  0.00     0.012 C 
ATOM     17  C   UNL A   1      32.163  30.858  26.643  1.00  0.00     0.012 C 
ENDBRANCH  10  15
ENDBRANCH   8   9
ENDBRANCH   6   8
BRANCH   6  18
ATOM     18  C   UNL A   1      32.063  24.732  22.769  1.00  0.00     0.380 C 
BRANCH  18  19
ATOM     19  C   UNL A   1      32.828  25.840  21.995  1.00  0.00     0.438 C 
ATOM     20  F   UNL A   1      32.303  27.066  22.221  1.00  0.00    -0.165 F 
ATOM     21  F   UNL A   1      34.115  25.910  22.416  1.00  0.00    -0.165 F 
ATOM     22  F   UNL A   1      32.836  25.636  20.658  1.00  0.00    -0.165 F 
ENDBRANCH  18  19
ENDBRANCH   6  18
ENDBRANCH   5   6
ENDBRANCH   3   5
ENDBRANCH   2   3
ENDBRANCH   1   2
BRANCH   1  23
ATOM     23  C   UNL A   1      37.489  21.978  24.623  1.00  0.00     0.275 C 
BRANCH  23  24
ATOM     24  O   UNL A   1      37.661  22.747  25.828  1.00  0.00    -0.458 OA
BRANCH  24  25
ATOM     25  C   UNL A   1      38.949  22.863  26.217  1.00  0.00     0.338 C 
ATOM     26  O   UNL A   1      39.841  22.055  26.036  1.00  0.00    -0.246 OA
BRANCH  25  27
ATOM     27  C   UNL A   1      39.213  24.162  26.843  1.00  0.00     0.060 A 
ATOM     28  C   UNL A   1      40.012  25.079  26.157  1.00  0.00     0.016 A 
ATOM     29  C   UNL A   1      38.843  24.386  28.169  1.00  0.00     0.016 A 
ATOM     30  C   UNL A   1      40.473  26.215  26.811  1.00  0.00     0.010 A 
ATOM     31  C   UNL A   1      39.278  25.547  28.814  1.00  0.00     0.010 A 
ATOM     32  C   UNL A   1      40.109  26.459  28.144  1.00  0.00    -0.014 A 
BRANCH  32  33
ATOM     33  C   UNL A   1      40.575  27.701  28.800  1.00  0.00     0.031 A 
ATOM     34  C   UNL A   1      41.992  27.844  29.276  1.00  0.00     0.074 A 
ATOM     35  C   UNL A   1      39.705  28.720  28.923  1.00  0.00     0.049 A 
ATOM     36  N   UNL A   1      42.562  28.869  29.856  1.00  0.00    -0.248 NA
ATOM     37  C   UNL A   1      42.884  26.691  29.075  1.00  0.00     0.031 C 
ATOM     38  C   UNL A   1      38.310  28.694  28.477  1.00  0.00     0.029 A 
ATOM     39  N   UNL A   1      39.869  29.979  29.437  1.00  0.00    -0.354 N 
ATOM     40  C   UNL A   1      43.872  28.482  30.111  1.00  0.00     0.074 A 
ATOM     41  C   UNL A   1      44.011  27.125  29.625  1.00  0.00     0.031 C 
ATOM     42  C   UNL A   1      37.756  29.894  28.701  1.00  0.00     0.029 A 
ATOM     43  C   UNL A   1      38.740  30.757  29.343  1.00  0.00     0.049 A 
ATOM     44  H   UNL A   1      40.713  30.297  29.833  1.00  0.00     0.167 HD
ATOM     45  C   UNL A   1      44.863  29.193  30.703  1.00  0.00     0.031 A 
ATOM     46  C   UNL A   1      38.520  32.026  29.735  1.00  0.00     0.031 A 
ATOM     47  C   UNL A   1      44.713  30.542  31.188  1.00  0.00     0.049 A 
ATOM     48  C   UNL A   1      39.636  32.793  30.377  1.00  0.00     0.074 A 
ATOM     49  C   UNL A   1      45.651  31.342  31.818  1.00  0.00     0.029 A 
ATOM     50  N   UNL A   1      43.550  31.292  31.092  1.00  0.00    -0.354 N 
ATOM     51  N   UNL A   1      40.862  32.400  30.632  1.00  0.00    -0.248 NA
ATOM     52  C   UNL A   1      39.339  34.171  30.785  1.00  0.00     0.031 C 
ATOM     53  C   UNL A   1      45.046  32.568  32.126  1.00  0.00     0.029 A 
ATOM     54  C   UNL A   1      43.744  32.543  31.655  1.00  0.00     0.049 A 
ATOM     55  H   UNL A   1      42.711  30.981  30.683  1.00  0.00     0.167 HD
ATOM     56  C   UNL A   1      41.486  33.486  31.231  1.00  0.00     0.074 A 
ATOM     57  C   UNL A   1      40.510  34.558  31.276  1.00  0.00     0.031 C 
ATOM     58  C   UNL A   1      42.752  33.586  31.707  1.00  0.00     0.031 A 
BRANCH  45  59
ATOM     59  C   UNL A   1      46.189  28.506  30.894  1.00  0.00    -0.014 A 
ATOM     60  C   UNL A   1      46.447  27.723  32.032  1.00  0.00     0.010 A 
ATOM     61  C   UNL A   1      47.180  28.623  29.903  1.00  0.00     0.010 A 
ATOM     62  C   UNL A   1      47.687  27.095  32.192  1.00  0.00     0.020 A 
ATOM     63  C   UNL A   1      48.415  27.983  30.051  1.00  0.00     0.020 A 
ATOM     64  C   UNL A   1      48.667  27.238  31.203  1.00  0.00     0.054 A 
BRANCH  64  65
ATOM     65  S   UNL A   1      50.265  26.406  31.422  1.00  0.00     0.124 S 
ATOM     66  O   UNL A   1      50.805  26.433  30.065  1.00  0.00    -0.237 OA
ATOM     67  O   UNL A   1      50.950  27.262  32.387  1.00  0.00    -0.237 OA
ATOM     68  O   UNL A   1      49.899  25.082  31.920  1.00  0.00    -0.744 OA
ENDBRANCH  64  65
ENDBRANCH  45  59
BRANCH  46  69
ATOM     69  C   UNL A   1      37.182  32.632  29.517  1.00  0.00    -0.014 A 
ATOM     70  C   UNL A   1      36.206  32.585  30.526  1.00  0.00     0.010 A 
ATOM     71  C   UNL A   1      36.906  33.321  28.322  1.00  0.00     0.010 A 
ATOM     72  C   UNL A   1      34.975  33.220  30.346  1.00  0.00     0.020 A 
ATOM     73  C   UNL A   1      35.684  33.975  28.148  1.00  0.00     0.020 A 
ATOM     74  C   UNL A   1      34.723  33.915  29.159  1.00  0.00     0.054 A 
BRANCH  74  75
ATOM     75  S   UNL A   1      33.160  34.819  28.977  1.00  0.00     0.124 S 
ATOM     76  O   UNL A   1      32.625  34.775  30.333  1.00  0.00    -0.237 OA
ATOM     77  O   UNL A   1      33.599  36.134  28.512  1.00  0.00    -0.237 OA
ATOM     78  O   UNL A   1      32.430  34.032  27.986  1.00  0.00    -0.744 OA
ENDBRANCH  74  75
ENDBRANCH  46  69
BRANCH  58  79
ATOM     79  C   UNL A   1      43.135  34.906  32.312  1.00  0.00    -0.014 A 
ATOM     80  C   UNL A   1      43.050  35.113  33.701  1.00  0.00     0.010 A 
ATOM     81  C   UNL A   1      43.572  35.953  31.484  1.00  0.00     0.010 A 
ATOM     82  C   UNL A   1      43.347  36.364  34.246  1.00  0.00     0.020 A 
ATOM     83  C   UNL A   1      43.888  37.201  32.028  1.00  0.00     0.020 A 
ATOM     84  C   UNL A   1      43.752  37.404  33.403  1.00  0.00     0.054 A 
BRANCH  84  85
ATOM     85  S   UNL A   1      44.129  39.026  34.123  1.00  0.00     0.124 S 
ATOM     86  O   UNL A   1      44.263  38.702  35.540  1.00  0.00    -0.237 OA
ATOM     87  O   UNL A   1      45.366  39.406  33.445  1.00  0.00    -0.237 OA
ATOM     88  O   UNL A   1      42.962  39.833  33.774  1.00  0.00    -0.744 OA
ENDBRANCH  84  85
ENDBRANCH  58  79
ENDBRANCH  32  33
ENDBRANCH  25  27
ENDBRANCH  24  25
ENDBRANCH  23  24
ENDBRANCH   1  23
TORSDOF 20
ENDMDL
MODEL 2
REMARK VINA RESULT:      -9.6      4.088     10.196
REMARK SMILES CC(C)c1ccc(C[N@@H+](CC(=O)OCCOC(=O)c2ccc(-c3c4nc(c(-c5ccc(S(=O)(=O)[O-])cc5)c5ccc([nH]5)c(-c5ccc(S(=O)(=O)[O-])cc5)c5nc(c(-c6ccc(S(=O)(=O)[O-])cc6)c6ccc3[nH]6)C=C5)C=C4)cc2)CC(F)(F)F)cc1
REMARK SMILES IDX 14 1 13 2 11 3 12 4 10 5 9 6 8 8 7 9 4 10 5 11 85 12 6 13
REMARK SMILES IDX 84 14 2 15 1 16 3 17 79 18 80 19 81 20 82 21 83 22 15 23
REMARK SMILES IDX 16 24 17 25 18 26 19 27 20 28 78 29 21 30 77 31 22 32 23 33
REMARK SMILES IDX 24 34 71 35 25 36 76 37 70 38 72 39 26 40 75 41 69 42 68 43
REMARK SMILES IDX 27 45 57 46 38 47 56 48 39 49 42 50 55 51 73 52 40 53 41 54
REMARK SMILES IDX 54 56 74 57 43 58 28 59 29 60 37 61 30 62 36 63 31 64 32 65
REMARK SMILES IDX 33 66 34 67 35 68 58 69 59 70 67 71 60 72 66 73 61 74 62 75
REMARK SMILES IDX 63 76 64 77 65 78 44 79 45 80 53 81 46 82 52 83 47 84 48 85
REMARK SMILES IDX 49 86 50 87 51 88
REMARK H PARENT 9 7 72 44 42 55
REMARK Flexibility Score: inf
ROOT
ATOM      1  C   UNL A   1      33.741  31.559  27.763  1.00  0.00     0.274 C 
ENDROOT
BRANCH   1   2
ATOM      2  O   UNL A   1      33.700  30.188  27.312  1.00  0.00    -0.458 OA
BRANCH   2   3
ATOM      3  C   UNL A   1      32.493  29.736  26.886  1.00  0.00     0.361 C 
ATOM      4  O   UNL A   1      31.737  29.053  27.573  1.00  0.00    -0.245 OA
BRANCH   3   5
ATOM      5  C   UNL A   1      32.160  30.062  25.430  1.00  0.00     0.387 C 
BRANCH   5   6
ATOM      6  N   UNL A   1      31.871  28.950  24.509  1.00  0.00    -0.314 N 
ATOM      7  H   UNL A   1      31.692  28.147  25.112  1.00  0.00     0.349 HD
BRANCH   6   8
ATOM      8  C   UNL A   1      33.022  28.448  23.768  1.00  0.00     0.299 C 
BRANCH   8   9
ATOM      9  C   UNL A   1      33.370  27.018  24.114  1.00  0.00     0.006 A 
ATOM     10  C   UNL A   1      34.260  24.402  24.754  1.00  0.00    -0.045 A 
ATOM     11  C   UNL A   1      33.832  24.728  23.455  1.00  0.00     0.004 A 
ATOM     12  C   UNL A   1      34.189  25.402  25.733  1.00  0.00     0.004 A 
ATOM     13  C   UNL A   1      33.373  26.010  23.144  1.00  0.00     0.010 A 
ATOM     14  C   UNL A   1      33.746  26.690  25.421  1.00  0.00     0.010 A 
BRANCH  10  15
ATOM     15  C   UNL A   1      34.849  23.023  25.023  1.00  0.00     0.013 C 
ATOM     16  C   UNL A   1      34.742  22.543  26.476  1.00  0.00     0.012 C 
ATOM     17  C   UNL A   1      34.241  21.955  24.104  1.00  0.00     0.012 C 
ENDBRANCH  10  15
ENDBRANCH   8   9
ENDBRANCH   6   8
BRANCH   6  18
ATOM     18  C   UNL A   1      30.559  29.031  23.815  1.00  0.00     0.380 C 
BRANCH  18  19
ATOM     19  C   UNL A   1      29.834  27.826  23.158  1.00  0.00     0.438 C 
ATOM     20  F   UNL A   1      29.749  26.770  24.000  1.00  0.00    -0.165 F 
ATOM     21  F   UNL A   1      28.553  28.153  22.852  1.00  0.00    -0.165 F 
ATOM     22  F   UNL A   1      30.439  27.403  22.026  1.00  0.00    -0.165 F 
ENDBRANCH  18  19
ENDBRANCH   6  18
ENDBRANCH   5   6
ENDBRANCH   3   5
ENDBRANCH   2   3
ENDBRANCH   1   2
BRANCH   1  23
ATOM     23  C   UNL A   1      34.715  31.774  28.923  1.00  0.00     0.275 C 
BRANCH  23  24
ATOM     24  O   UNL A   1      36.022  31.245  28.631  1.00  0.00    -0.458 OA
BRANCH  24  25
ATOM     25  C   UNL A   1      36.542  30.505  29.634  1.00  0.00     0.338 C 
ATOM     26  O   UNL A   1      36.017  30.253  30.702  1.00  0.00    -0.246 OA
BRANCH  25  27
ATOM     27  C   UNL A   1      37.840  29.931  29.268  1.00  0.00     0.060 A 
ATOM     28  C   UNL A   1      38.812  29.802  30.263  1.00  0.00     0.016 A 
ATOM     29  C   UNL A   1      38.155  29.715  27.927  1.00  0.00     0.016 A 
ATOM     30  C   UNL A   1      40.119  29.485  29.911  1.00  0.00     0.010 A 
ATOM     31  C   UNL A   1      39.461  29.360  27.579  1.00  0.00     0.010 A 
ATOM     32  C   UNL A   1      40.454  29.261  28.567  1.00  0.00    -0.014 A 
BRANCH  32  33
ATOM     33  C   UNL A   1      41.843  28.877  28.227  1.00  0.00     0.031 A 
ATOM     34  C   UNL A   1      42.966  29.870  28.315  1.00  0.00     0.074 A 
ATOM     35  C   UNL A   1      42.082  27.600  27.877  1.00  0.00     0.049 A 
ATOM     36  N   UNL A   1      44.238  29.690  28.066  1.00  0.00    -0.248 NA
ATOM     37  C   UNL A   1      42.620  31.236  28.735  1.00  0.00     0.031 C 
ATOM     38  C   UNL A   1      41.066  26.550  27.779  1.00  0.00     0.029 A 
ATOM     39  N   UNL A   1      43.253  26.964  27.561  1.00  0.00    -0.354 N 
ATOM     40  C   UNL A   1      44.844  30.923  28.277  1.00  0.00     0.074 A 
ATOM     41  C   UNL A   1      43.798  31.843  28.670  1.00  0.00     0.031 C 
ATOM     42  C   UNL A   1      41.662  25.392  27.465  1.00  0.00     0.029 A 
ATOM     43  C   UNL A   1      43.092  25.625  27.297  1.00  0.00     0.049 A 
ATOM     44  H   UNL A   1      44.125  27.420  27.526  1.00  0.00     0.167 HD
ATOM     45  C   UNL A   1      46.152  31.255  28.146  1.00  0.00     0.031 A 
ATOM     46  C   UNL A   1      43.995  24.688  26.954  1.00  0.00     0.031 A 
ATOM     47  C   UNL A   1      47.186  30.332  27.749  1.00  0.00     0.049 A 
ATOM     48  C   UNL A   1      45.436  25.080  26.826  1.00  0.00     0.074 A 
ATOM     49  C   UNL A   1      48.538  30.574  27.571  1.00  0.00     0.029 A 
ATOM     50  N   UNL A   1      46.983  28.988  27.473  1.00  0.00    -0.354 N 
ATOM     51  N   UNL A   1      45.986  26.257  27.007  1.00  0.00    -0.248 NA
ATOM     52  C   UNL A   1      46.377  24.018  26.449  1.00  0.00     0.031 C 
ATOM     53  C   UNL A   1      49.147  29.380  27.162  1.00  0.00     0.029 A 
ATOM     54  C   UNL A   1      48.181  28.389  27.121  1.00  0.00     0.049 A 
ATOM     55  H   UNL A   1      46.114  28.528  27.522  1.00  0.00     0.167 HD
ATOM     56  C   UNL A   1      47.341  26.079  26.766  1.00  0.00     0.074 A 
ATOM     57  C   UNL A   1      47.529  24.675  26.453  1.00  0.00     0.031 C 
ATOM     58  C   UNL A   1      48.340  26.995  26.794  1.00  0.00     0.031 A 
BRANCH  45  59
ATOM     59  C   UNL A   1      46.531  32.690  28.399  1.00  0.00    -0.014 A 
ATOM     60  C   UNL A   1      46.493  33.646  27.369  1.00  0.00     0.010 A 
ATOM     61  C   UNL A   1      46.901  33.092  29.695  1.00  0.00     0.010 A 
ATOM     62  C   UNL A   1      46.852  34.974  27.623  1.00  0.00     0.020 A 
ATOM     63  C   UNL A   1      47.244  34.422  29.957  1.00  0.00     0.020 A 
ATOM     64  C   UNL A   1      47.235  35.351  28.915  1.00  0.00     0.054 A 
BRANCH  64  65
ATOM     65  S   UNL A   1      47.684  37.081  29.230  1.00  0.00     0.124 S 
ATOM     66  O   UNL A   1      47.918  37.073  30.672  1.00  0.00    -0.237 OA
ATOM     67  O   UNL A   1      48.875  37.264  28.403  1.00  0.00    -0.237 OA
ATOM     68  O   UNL A   1      46.508  37.828  28.793  1.00  0.00    -0.744 OA
ENDBRANCH  64  65
ENDBRANCH  45  59
BRANCH  46  69
ATOM     69  C   UNL A   1      43.542  23.294  26.716  1.00  0.00    -0.014 A 
ATOM     70  C   UNL A   1      43.748  22.682  25.468  1.00  0.00     0.010 A 
ATOM     71  C   UNL A   1      42.965  22.552  27.761  1.00  0.00     0.010 A 
ATOM     72  C   UNL A   1      43.388  21.347  25.270  1.00  0.00     0.020 A 
ATOM     73  C   UNL A   1      42.623  21.211  27.573  1.00  0.00     0.020 A 
ATOM     74  C   UNL A   1      42.832  20.618  26.326  1.00  0.00     0.054 A 
BRANCH  74  75
ATOM     75  S   UNL A   1      42.459  18.858  26.088  1.00  0.00     0.124 S 
ATOM     76  O   UNL A   1      41.041  18.892  25.747  1.00  0.00    -0.237 OA
ATOM     77  O   UNL A   1      43.362  18.480  25.002  1.00  0.00    -0.237 OA
ATOM     78  O   UNL A   1      42.781  18.267  27.384  1.00  0.00    -0.744 OA
ENDBRANCH  74  75
ENDBRANCH  46  69
BRANCH  58  79
ATOM     79  C   UNL A   1      49.719  26.490  26.477  1.00  0.00    -0.014 A 
ATOM     80  C   UNL A   1      50.181  26.443  25.149  1.00  0.00     0.010 A 
ATOM     81  C   UNL A   1      50.555  26.045  27.515  1.00  0.00     0.010 A 
ATOM     82  C   UNL A   1      51.440  25.912  24.861  1.00  0.00     0.020 A 
ATOM     83  C   UNL A   1      51.822  25.530  27.231  1.00  0.00     0.020 A 
ATOM     84  C   UNL A   1      52.247  25.446  25.903  1.00  0.00     0.054 A 
BRANCH  84  85
ATOM     85  S   UNL A   1      53.877  24.752  25.514  1.00  0.00     0.124 S 
ATOM     86  O   UNL A   1      54.563  24.856  26.798  1.00  0.00    -0.237 OA
ATOM     87  O   UNL A   1      53.560  23.393  25.080  1.00  0.00    -0.237 OA
ATOM     88  O   UNL A   1      54.380  25.632  24.462  1.00  0.00    -0.744 OA
ENDBRANCH  84  85
ENDBRANCH  58  79
ENDBRANCH  32  33
ENDBRANCH  25  27
ENDBRANCH  24  25
ENDBRANCH  23  24
ENDBRANCH   1  23
TORSDOF 20
ENDMDL
MODEL 3
REMARK VINA RESULT:      -9.5      3.588      6.032
REMARK SMILES CC(C)c1ccc(C[N@@H+](CC(=O)OCCOC(=O)c2ccc(-c3c4nc(c(-c5ccc(S(=O)(=O)[O-])cc5)c5ccc([nH]5)c(-c5ccc(S(=O)(=O)[O-])cc5)c5nc(c(-c6ccc(S(=O)(=O)[O-])cc6)c6ccc3[nH]6)C=C5)C=C4)cc2)CC(F)(F)F)cc1
REMARK SMILES IDX 14 1 13 2 11 3 12 4 10 5 9 6 8 8 7 9 4 10 5 11 85 12 6 13
REMARK SMILES IDX 84 14 2 15 1 16 3 17 79 18 80 19 81 20 82 21 83 22 15 23
REMARK SMILES IDX 16 24 17 25 18 26 19 27 20 28 78 29 21 30 77 31 22 32 23 33
REMARK SMILES IDX 24 34 71 35 25 36 76 37 70 38 72 39 26 40 75 41 69 42 68 43
REMARK SMILES IDX 27 45 57 46 38 47 56 48 39 49 42 50 55 51 73 52 40 53 41 54
REMARK SMILES IDX 54 56 74 57 43 58 28 59 29 60 37 61 30 62 36 63 31 64 32 65
REMARK SMILES IDX 33 66 34 67 35 68 58 69 59 70 67 71 60 72 66 73 61 74 62 75
REMARK SMILES IDX 63 76 64 77 65 78 44 79 45 80 53 81 46 82 52 83 47 84 48 85
REMARK SMILES IDX 49 86 50 87 51 88
REMARK H PARENT 9 7 72 44 42 55
REMARK Flexibility Score: inf
ROOT
ATOM      1  C   UNL A   1      40.435  19.902  25.969  1.00  0.00     0.274 C 
ENDROOT
BRANCH   1   2
ATOM      2  O   UNL A   1      41.618  19.447  26.660  1.00  0.00    -0.458 OA
BRANCH   2   3
ATOM      3  C   UNL A   1      42.780  19.511  25.960  1.00  0.00     0.361 C 
ATOM      4  O   UNL A   1      43.542  18.560  25.813  1.00  0.00    -0.245 OA
BRANCH   3   5
ATOM      5  C   UNL A   1      43.135  20.899  25.426  1.00  0.00     0.387 C 
BRANCH   5   6
ATOM      6  N   UNL A   1      43.698  21.889  26.360  1.00  0.00    -0.314 N 
ATOM      7  H   UNL A   1      43.252  22.771  26.109  1.00  0.00     0.349 HD
BRANCH   6   8
ATOM      8  C   UNL A   1      45.091  22.242  26.117  1.00  0.00     0.299 C 
BRANCH   8   9
ATOM      9  C   UNL A   1      45.339  23.733  26.149  1.00  0.00     0.006 A 
ATOM     10  C   UNL A   1      45.698  26.533  26.431  1.00  0.00    -0.045 A 
ATOM     11  C   UNL A   1      44.667  26.007  25.632  1.00  0.00     0.004 A 
ATOM     12  C   UNL A   1      46.570  25.625  27.048  1.00  0.00     0.004 A 
ATOM     13  C   UNL A   1      44.503  24.629  25.474  1.00  0.00     0.010 A 
ATOM     14  C   UNL A   1      46.398  24.245  26.905  1.00  0.00     0.010 A 
BRANCH  10  15
ATOM     15  C   UNL A   1      45.776  28.037  26.657  1.00  0.00     0.013 C 
ATOM     16  C   UNL A   1      46.927  28.744  25.929  1.00  0.00     0.012 C 
ATOM     17  C   UNL A   1      44.459  28.737  26.294  1.00  0.00     0.012 C 
ENDBRANCH  10  15
ENDBRANCH   8   9
ENDBRANCH   6   8
BRANCH   6  18
ATOM     18  C   UNL A   1      43.229  21.768  27.765  1.00  0.00     0.380 C 
BRANCH  18  19
ATOM     19  C   UNL A   1      42.836  22.968  28.668  1.00  0.00     0.438 C 
ATOM     20  F   UNL A   1      42.494  24.055  27.940  1.00  0.00    -0.165 F 
ATOM     21  F   UNL A   1      41.740  22.664  29.408  1.00  0.00    -0.165 F 
ATOM     22  F   UNL A   1      43.824  23.333  29.515  1.00  0.00    -0.165 F 
ENDBRANCH  18  19
ENDBRANCH   6  18
ENDBRANCH   5   6
ENDBRANCH   3   5
ENDBRANCH   2   3
ENDBRANCH   1   2
BRANCH   1  23
ATOM     23  C   UNL A   1      39.779  21.107  26.645  1.00  0.00     0.275 C 
BRANCH  23  24
ATOM     24  O   UNL A   1      39.574  22.194  25.723  1.00  0.00    -0.458 OA
BRANCH  24  25
ATOM     25  C   UNL A   1      38.667  23.100  26.147  1.00  0.00     0.338 C 
ATOM     26  O   UNL A   1      37.456  23.014  26.063  1.00  0.00    -0.246 OA
BRANCH  25  27
ATOM     27  C   UNL A   1      39.305  24.228  26.832  1.00  0.00     0.060 A 
ATOM     28  C   UNL A   1      38.991  24.453  28.174  1.00  0.00     0.016 A 
ATOM     29  C   UNL A   1      40.042  25.161  26.102  1.00  0.00     0.016 A 
ATOM     30  C   UNL A   1      39.389  25.637  28.785  1.00  0.00     0.010 A 
ATOM     31  C   UNL A   1      40.472  26.333  26.729  1.00  0.00     0.010 A 
ATOM     32  C   UNL A   1      40.133  26.586  28.068  1.00  0.00    -0.014 A 
BRANCH  32  33
ATOM     33  C   UNL A   1      40.585  27.814  28.758  1.00  0.00     0.031 A 
ATOM     34  C   UNL A   1      41.995  27.951  29.256  1.00  0.00     0.074 A 
ATOM     35  C   UNL A   1      39.710  28.827  28.893  1.00  0.00     0.049 A 
ATOM     36  N   UNL A   1      42.553  28.965  29.867  1.00  0.00    -0.248 NA
ATOM     37  C   UNL A   1      42.894  26.807  29.041  1.00  0.00     0.031 C 
ATOM     38  C   UNL A   1      38.321  28.806  28.428  1.00  0.00     0.029 A 
ATOM     39  N   UNL A   1      39.863  30.075  29.437  1.00  0.00    -0.354 N 
ATOM     40  C   UNL A   1      43.861  28.577  30.130  1.00  0.00     0.074 A 
ATOM     41  C   UNL A   1      44.012  27.232  29.616  1.00  0.00     0.031 C 
ATOM     42  C   UNL A   1      37.760  29.999  28.672  1.00  0.00     0.029 A 
ATOM     43  C   UNL A   1      38.732  30.851  29.346  1.00  0.00     0.049 A 
ATOM     44  H   UNL A   1      40.699  30.386  29.851  1.00  0.00     0.167 HD
ATOM     45  C   UNL A   1      44.842  29.278  30.751  1.00  0.00     0.031 A 
ATOM     46  C   UNL A   1      38.501  32.109  29.763  1.00  0.00     0.031 A 
ATOM     47  C   UNL A   1      44.681  30.615  31.264  1.00  0.00     0.049 A 
ATOM     48  C   UNL A   1      39.606  32.866  30.438  1.00  0.00     0.074 A 
ATOM     49  C   UNL A   1      45.607  31.404  31.925  1.00  0.00     0.029 A 
ATOM     50  N   UNL A   1      43.516  31.363  31.170  1.00  0.00    -0.354 N 
ATOM     51  N   UNL A   1      40.830  32.472  30.700  1.00  0.00    -0.248 NA
ATOM     52  C   UNL A   1      39.298  34.233  30.873  1.00  0.00     0.031 C 
ATOM     53  C   UNL A   1      44.993  32.621  32.252  1.00  0.00     0.029 A 
ATOM     54  C   UNL A   1      43.698  32.602  31.764  1.00  0.00     0.049 A 
ATOM     55  H   UNL A   1      42.684  31.058  30.743  1.00  0.00     0.167 HD
ATOM     56  C   UNL A   1      41.442  33.545  31.331  1.00  0.00     0.074 A 
ATOM     57  C   UNL A   1      40.461  34.613  31.387  1.00  0.00     0.031 C 
ATOM     58  C   UNL A   1      42.701  33.639  31.826  1.00  0.00     0.031 A 
BRANCH  45  59
ATOM     59  C   UNL A   1      46.168  28.592  30.944  1.00  0.00    -0.014 A 
ATOM     60  C   UNL A   1      46.465  27.900  32.131  1.00  0.00     0.010 A 
ATOM     61  C   UNL A   1      47.118  28.615  29.908  1.00  0.00     0.010 A 
ATOM     62  C   UNL A   1      47.704  27.271  32.291  1.00  0.00     0.020 A 
ATOM     63  C   UNL A   1      48.352  27.974  30.057  1.00  0.00     0.020 A 
ATOM     64  C   UNL A   1      48.644  27.321  31.256  1.00  0.00     0.054 A 
BRANCH  64  65
ATOM     65  S   UNL A   1      50.242  26.488  31.477  1.00  0.00     0.124 S 
ATOM     66  O   UNL A   1      51.018  27.027  30.363  1.00  0.00    -0.237 OA
ATOM     67  O   UNL A   1      50.660  26.932  32.805  1.00  0.00    -0.237 OA
ATOM     68  O   UNL A   1      49.908  25.070  31.377  1.00  0.00    -0.744 OA
ENDBRANCH  64  65
ENDBRANCH  45  59
BRANCH  46  69
ATOM     69  C   UNL A   1      37.164  32.716  29.542  1.00  0.00    -0.014 A 
ATOM     70  C   UNL A   1      36.206  32.722  30.569  1.00  0.00     0.010 A 
ATOM     71  C   UNL A   1      36.871  33.351  28.322  1.00  0.00     0.010 A 
ATOM     72  C   UNL A   1      34.976  33.358  30.382  1.00  0.00     0.020 A 
ATOM     73  C   UNL A   1      35.651  34.006  28.139  1.00  0.00     0.020 A 
ATOM     74  C   UNL A   1      34.709  34.001  29.169  1.00  0.00     0.054 A 
BRANCH  74  75
ATOM     75  S   UNL A   1      33.149  34.908  28.973  1.00  0.00     0.124 S 
ATOM     76  O   UNL A   1      33.611  36.198  28.473  1.00  0.00    -0.237 OA
ATOM     77  O   UNL A   1      32.414  34.084  28.015  1.00  0.00    -0.237 OA
ATOM     78  O   UNL A   1      32.593  34.918  30.324  1.00  0.00    -0.744 OA
ENDBRANCH  74  75
ENDBRANCH  46  69
BRANCH  58  79
ATOM     79  C   UNL A   1      43.071  34.947  32.466  1.00  0.00    -0.014 A 
ATOM     80  C   UNL A   1      42.755  35.204  33.813  1.00  0.00     0.010 A 
ATOM     81  C   UNL A   1      43.728  35.932  31.710  1.00  0.00     0.010 A 
ATOM     82  C   UNL A   1      43.047  36.447  34.379  1.00  0.00     0.020 A 
ATOM     83  C   UNL A   1      44.038  37.171  32.280  1.00  0.00     0.020 A 
ATOM     84  C   UNL A   1      43.675  37.427  33.604  1.00  0.00     0.054 A 
BRANCH  84  85
ATOM     85  S   UNL A   1      44.041  39.039  34.350  1.00  0.00     0.124 S 
ATOM     86  O   UNL A   1      44.034  38.720  35.775  1.00  0.00    -0.237 OA
ATOM     87  O   UNL A   1      45.348  39.371  33.787  1.00  0.00    -0.237 OA
ATOM     88  O   UNL A   1      42.941  39.885  33.893  1.00  0.00    -0.744 OA
ENDBRANCH  84  85
ENDBRANCH  58  79
ENDBRANCH  32  33
ENDBRANCH  25  27
ENDBRANCH  24  25
ENDBRANCH  23  24
ENDBRANCH   1  23
TORSDOF 20
ENDMDL
