MODEL 1
REMARK VINA RESULT:     -10.0      0.000      0.000
REMARK SMILES CC1=C(C)C(=O)N([C@@](C)(C(=O)OCCOC(=O)c2ccc(-c3c4nc(c(-c5ccc(S(=O)(=O)[O-])cc5)c5ccc([nH]5)c(-c5ccc(S(=O)(=O)[O-])cc5)c5nc(c(-c6ccc(S(=O)(=O)[O-])cc6)c6ccc3[nH]6)C=C5)C=C4)cc2)C(F)(F)F)C1=O
REMARK SMILES IDX 14 1 13 2 12 3 10 4 11 5 8 6 9 7 7 8 1 9 2 10 3 11 82 12
REMARK SMILES IDX 4 13 5 14 83 15 6 16 78 17 79 18 80 19 81 20 15 21 16 22
REMARK SMILES IDX 17 23 18 24 19 25 77 26 20 27 76 28 21 29 22 30 23 31 70 32
REMARK SMILES IDX 24 33 75 34 69 35 71 36 25 37 74 38 68 39 67 40 26 42 56 43
REMARK SMILES IDX 37 44 55 45 38 46 41 47 54 48 72 49 39 50 40 51 53 53 73 54
REMARK SMILES IDX 42 55 27 56 28 57 36 58 29 59 35 60 30 61 31 62 32 63 33 64
REMARK SMILES IDX 34 65 57 66 58 67 66 68 59 69 65 70 60 71 61 72 62 73 63 74
REMARK SMILES IDX 64 75 43 76 44 77 52 78 45 79 51 80 46 81 47 82 48 83 49 84
REMARK SMILES IDX 50 85
REMARK H PARENT 71 41 41 52
REMARK Flexibility Score: inf
ROOT
ATOM      1  C   UNL A   1      34.265  29.792  27.676  1.00  0.00     0.275 C 
ENDROOT
BRANCH   1   2
ATOM      2  C   UNL A   1      34.175  31.302  27.463  1.00  0.00     0.274 C 
BRANCH   2   3
ATOM      3  O   UNL A   1      33.608  31.984  28.610  1.00  0.00    -0.460 OA
BRANCH   3   4
ATOM      4  C   UNL A   1      33.403  33.325  28.476  1.00  0.00     0.341 C 
ATOM      5  O   UNL A   1      32.567  33.787  27.705  1.00  0.00    -0.249 OA
BRANCH   4   6
ATOM      6  C   UNL A   1      34.417  34.197  29.221  1.00  0.00     0.240 C 
ATOM      7  C   UNL A   1      35.193  34.974  28.131  1.00  0.00     0.058 C 
BRANCH   6   8
ATOM      8  N   UNL A   1      35.390  33.453  30.078  1.00  0.00    -0.249 N 
ATOM      9  C   UNL A   1      38.823  32.757  31.227  1.00  0.00     0.051 C 
ATOM     10  C   UNL A   1      37.355  32.784  31.037  1.00  0.00     0.023 C 
ATOM     11  C   UNL A   1      36.382  32.514  31.910  1.00  0.00     0.023 C 
ATOM     12  C   UNL A   1      36.720  33.344  29.832  1.00  0.00     0.258 C 
ATOM     13  C   UNL A   1      36.464  32.074  33.325  1.00  0.00     0.051 C 
ATOM     14  C   UNL A   1      35.108  32.841  31.259  1.00  0.00     0.258 C 
ATOM     15  O   UNL A   1      37.341  33.691  28.844  1.00  0.00    -0.269 OA
ATOM     16  O   UNL A   1      34.033  32.635  31.784  1.00  0.00    -0.269 OA
ENDBRANCH   6   8
BRANCH   6  17
ATOM     17  C   UNL A   1      33.606  35.262  29.986  1.00  0.00     0.422 C 
ATOM     18  F   UNL A   1      32.405  34.831  30.398  1.00  0.00    -0.168 F 
ATOM     19  F   UNL A   1      34.294  35.676  31.082  1.00  0.00    -0.168 F 
ATOM     20  F   UNL A   1      33.385  36.377  29.249  1.00  0.00    -0.168 F 
ENDBRANCH   6  17
ENDBRANCH   4   6
ENDBRANCH   3   4
ENDBRANCH   2   3
ENDBRANCH   1   2
BRANCH   1  21
ATOM     21  O   UNL A   1      35.636  29.384  27.811  1.00  0.00    -0.458 OA
BRANCH  21  22
ATOM     22  C   UNL A   1      36.149  29.576  29.047  1.00  0.00     0.338 C 
ATOM     23  O   UNL A   1      35.543  29.552  30.106  1.00  0.00    -0.246 OA
BRANCH  22  24
ATOM     24  C   UNL A   1      37.612  29.669  28.984  1.00  0.00     0.060 A 
ATOM     25  C   UNL A   1      38.172  29.834  27.729  1.00  0.00     0.016 A 
ATOM     26  C   UNL A   1      38.419  29.335  30.068  1.00  0.00     0.016 A 
ATOM     27  C   UNL A   1      39.494  29.473  27.507  1.00  0.00     0.010 A 
ATOM     28  C   UNL A   1      39.794  29.135  29.866  1.00  0.00     0.010 A 
ATOM     29  C   UNL A   1      40.341  29.133  28.570  1.00  0.00    -0.014 A 
BRANCH  29  30
ATOM     30  C   UNL A   1      41.757  28.742  28.281  1.00  0.00     0.031 A 
ATOM     31  C   UNL A   1      42.886  29.738  28.426  1.00  0.00     0.074 A 
ATOM     32  C   UNL A   1      42.050  27.464  27.953  1.00  0.00     0.049 A 
ATOM     33  N   UNL A   1      44.154  29.600  28.121  1.00  0.00    -0.248 NA
ATOM     34  C   UNL A   1      42.550  31.066  28.965  1.00  0.00     0.031 C 
ATOM     35  C   UNL A   1      41.076  26.375  27.820  1.00  0.00     0.029 A 
ATOM     36  N   UNL A   1      43.254  26.849  27.706  1.00  0.00    -0.354 N 
ATOM     37  C   UNL A   1      44.748  30.834  28.372  1.00  0.00     0.074 A 
ATOM     38  C   UNL A   1      43.700  31.714  28.840  1.00  0.00     0.031 C 
ATOM     39  C   UNL A   1      41.723  25.221  27.609  1.00  0.00     0.029 A 
ATOM     40  C   UNL A   1      43.144  25.499  27.460  1.00  0.00     0.049 A 
ATOM     41  H   UNL A   1      44.114  27.329  27.706  1.00  0.00     0.167 HD
ATOM     42  C   UNL A   1      46.047  31.200  28.226  1.00  0.00     0.031 A 
ATOM     43  C   UNL A   1      44.067  24.582  27.107  1.00  0.00     0.031 A 
ATOM     44  C   UNL A   1      47.098  30.307  27.807  1.00  0.00     0.049 A 
ATOM     45  C   UNL A   1      45.488  25.022  26.916  1.00  0.00     0.074 A 
ATOM     46  C   UNL A   1      48.445  30.580  27.643  1.00  0.00     0.029 A 
ATOM     47  N   UNL A   1      46.927  28.963  27.506  1.00  0.00    -0.354 N 
ATOM     48  N   UNL A   1      46.016  26.208  27.099  1.00  0.00    -0.248 NA
ATOM     49  C   UNL A   1      46.436  24.001  26.453  1.00  0.00     0.031 C 
ATOM     50  C   UNL A   1      49.078  29.419  27.185  1.00  0.00     0.029 A 
ATOM     51  C   UNL A   1      48.138  28.402  27.130  1.00  0.00     0.049 A 
ATOM     52  H   UNL A   1      46.071  28.479  27.551  1.00  0.00     0.167 HD
ATOM     53  C   UNL A   1      47.360  26.075  26.778  1.00  0.00     0.074 A 
ATOM     54  C   UNL A   1      47.570  24.684  26.428  1.00  0.00     0.031 C 
ATOM     55  C   UNL A   1      48.332  27.022  26.765  1.00  0.00     0.031 A 
BRANCH  42  56
ATOM     56  C   UNL A   1      46.403  32.648  28.472  1.00  0.00    -0.014 A 
ATOM     57  C   UNL A   1      46.837  33.105  29.729  1.00  0.00     0.010 A 
ATOM     58  C   UNL A   1      46.342  33.562  27.401  1.00  0.00     0.010 A 
ATOM     59  C   UNL A   1      47.163  34.453  29.920  1.00  0.00     0.020 A 
ATOM     60  C   UNL A   1      46.696  34.903  27.580  1.00  0.00     0.020 A 
ATOM     61  C   UNL A   1      47.088  35.344  28.845  1.00  0.00     0.054 A 
BRANCH  61  62
ATOM     62  S   UNL A   1      47.535  37.083  29.116  1.00  0.00     0.124 S 
ATOM     63  O   UNL A   1      46.334  37.778  28.658  1.00  0.00    -0.237 OA
ATOM     64  O   UNL A   1      47.777  37.131  30.556  1.00  0.00    -0.237 OA
ATOM     65  O   UNL A   1      48.718  37.272  28.281  1.00  0.00    -0.744 OA
ENDBRANCH  61  62
ENDBRANCH  42  56
BRANCH  43  66
ATOM     66  C   UNL A   1      43.654  23.173  26.848  1.00  0.00    -0.014 A 
ATOM     67  C   UNL A   1      43.873  22.575  25.595  1.00  0.00     0.010 A 
ATOM     68  C   UNL A   1      43.051  22.413  27.869  1.00  0.00     0.010 A 
ATOM     69  C   UNL A   1      43.487  21.250  25.366  1.00  0.00     0.020 A 
ATOM     70  C   UNL A   1      42.701  21.078  27.657  1.00  0.00     0.020 A 
ATOM     71  C   UNL A   1      42.909  20.508  26.401  1.00  0.00     0.054 A 
BRANCH  71  72
ATOM     72  S   UNL A   1      42.470  18.773  26.102  1.00  0.00     0.124 S 
ATOM     73  O   UNL A   1      42.682  18.176  27.417  1.00  0.00    -0.237 OA
ATOM     74  O   UNL A   1      41.078  18.870  25.667  1.00  0.00    -0.237 OA
ATOM     75  O   UNL A   1      43.409  18.356  25.064  1.00  0.00    -0.744 OA
ENDBRANCH  71  72
ENDBRANCH  43  66
BRANCH  55  76
ATOM     76  C   UNL A   1      49.715  26.568  26.378  1.00  0.00    -0.014 A 
ATOM     77  C   UNL A   1      50.563  25.937  27.308  1.00  0.00     0.010 A 
ATOM     78  C   UNL A   1      50.177  26.782  25.067  1.00  0.00     0.010 A 
ATOM     79  C   UNL A   1      51.866  25.585  26.950  1.00  0.00     0.020 A 
ATOM     80  C   UNL A   1      51.468  26.400  24.696  1.00  0.00     0.020 A 
ATOM     81  C   UNL A   1      52.313  25.825  25.648  1.00  0.00     0.054 A 
BRANCH  81  82
ATOM     82  S   UNL A   1      54.011  25.363  25.207  1.00  0.00     0.124 S 
ATOM     83  O   UNL A   1      54.025  25.601  23.767  1.00  0.00    -0.237 OA
ATOM     84  O   UNL A   1      54.813  26.288  26.005  1.00  0.00    -0.237 OA
ATOM     85  O   UNL A   1      54.104  23.961  25.607  1.00  0.00    -0.744 OA
ENDBRANCH  81  82
ENDBRANCH  55  76
ENDBRANCH  29  30
ENDBRANCH  22  24
ENDBRANCH  21  22
ENDBRANCH   1  21
TORSDOF 16
ENDMDL
MODEL 2
REMARK VINA RESULT:     -10.0      4.032      5.521
REMARK SMILES CC1=C(C)C(=O)N([C@@](C)(C(=O)OCCOC(=O)c2ccc(-c3c4nc(c(-c5ccc(S(=O)(=O)[O-])cc5)c5ccc([nH]5)c(-c5ccc(S(=O)(=O)[O-])cc5)c5nc(c(-c6ccc(S(=O)(=O)[O-])cc6)c6ccc3[nH]6)C=C5)C=C4)cc2)C(F)(F)F)C1=O
REMARK SMILES IDX 14 1 13 2 12 3 10 4 11 5 8 6 9 7 7 8 1 9 2 10 3 11 82 12
REMARK SMILES IDX 4 13 5 14 83 15 6 16 78 17 79 18 80 19 81 20 15 21 16 22
REMARK SMILES IDX 17 23 18 24 19 25 77 26 20 27 76 28 21 29 22 30 23 31 70 32
REMARK SMILES IDX 24 33 75 34 69 35 71 36 25 37 74 38 68 39 67 40 26 42 56 43
REMARK SMILES IDX 37 44 55 45 38 46 41 47 54 48 72 49 39 50 40 51 53 53 73 54
REMARK SMILES IDX 42 55 27 56 28 57 36 58 29 59 35 60 30 61 31 62 32 63 33 64
REMARK SMILES IDX 34 65 57 66 58 67 66 68 59 69 65 70 60 71 61 72 62 73 63 74
REMARK SMILES IDX 64 75 43 76 44 77 52 78 45 79 51 80 46 81 47 82 48 83 49 84
REMARK SMILES IDX 50 85
REMARK H PARENT 71 41 41 52
REMARK Flexibility Score: inf
ROOT
ATOM      1  C   UNL A   1      32.425  30.755  26.976  1.00  0.00     0.275 C 
ENDROOT
BRANCH   1   2
ATOM      2  C   UNL A   1      32.355  30.104  25.595  1.00  0.00     0.274 C 
BRANCH   2   3
ATOM      3  O   UNL A   1      31.490  28.942  25.581  1.00  0.00    -0.460 OA
BRANCH   3   4
ATOM      4  C   UNL A   1      30.880  28.656  24.395  1.00  0.00     0.341 C 
ATOM      5  O   UNL A   1      30.196  29.479  23.794  1.00  0.00    -0.249 OA
BRANCH   4   6
ATOM      6  C   UNL A   1      30.968  27.186  23.979  1.00  0.00     0.240 C 
ATOM      7  C   UNL A   1      29.512  26.663  23.949  1.00  0.00     0.058 C 
BRANCH   6   8
ATOM      8  N   UNL A   1      31.783  26.315  24.879  1.00  0.00    -0.249 N 
ATOM      9  C   UNL A   1      32.159  23.376  27.073  1.00  0.00     0.051 C 
ATOM     10  C   UNL A   1      32.380  24.595  26.263  1.00  0.00     0.023 C 
ATOM     11  C   UNL A   1      33.498  25.033  25.680  1.00  0.00     0.023 C 
ATOM     12  C   UNL A   1      31.276  25.447  25.792  1.00  0.00     0.258 C 
ATOM     13  C   UNL A   1      34.866  24.459  25.685  1.00  0.00     0.051 C 
ATOM     14  C   UNL A   1      33.139  26.205  24.873  1.00  0.00     0.258 C 
ATOM     15  O   UNL A   1      30.119  25.307  26.146  1.00  0.00    -0.269 OA
ATOM     16  O   UNL A   1      33.963  26.867  24.275  1.00  0.00    -0.269 OA
ENDBRANCH   6   8
BRANCH   6  17
ATOM     17  C   UNL A   1      31.440  27.171  22.511  1.00  0.00     0.422 C 
ATOM     18  F   UNL A   1      30.474  27.473  21.631  1.00  0.00    -0.168 F 
ATOM     19  F   UNL A   1      32.451  28.063  22.335  1.00  0.00    -0.168 F 
ATOM     20  F   UNL A   1      31.941  25.970  22.136  1.00  0.00    -0.168 F 
ENDBRANCH   6  17
ENDBRANCH   4   6
ENDBRANCH   3   4
ENDBRANCH   2   3
ENDBRANCH   1   2
BRANCH   1  21
ATOM     21  O   UNL A   1      33.786  30.826  27.432  1.00  0.00    -0.458 OA
BRANCH  21  22
ATOM     22  C   UNL A   1      34.305  29.635  27.808  1.00  0.00     0.338 C 
ATOM     23  O   UNL A   1      33.784  28.537  27.692  1.00  0.00    -0.246 OA
BRANCH  22  24
ATOM     24  C   UNL A   1      35.693  29.800  28.252  1.00  0.00     0.060 A 
ATOM     25  C   UNL A   1      36.619  30.152  27.284  1.00  0.00     0.016 A 
ATOM     26  C   UNL A   1      36.123  29.365  29.501  1.00  0.00     0.016 A 
ATOM     27  C   UNL A   1      37.966  29.882  27.483  1.00  0.00     0.010 A 
ATOM     28  C   UNL A   1      37.501  29.253  29.754  1.00  0.00     0.010 A 
ATOM     29  C   UNL A   1      38.441  29.445  28.726  1.00  0.00    -0.014 A 
BRANCH  29  30
ATOM     30  C   UNL A   1      39.901  29.158  28.891  1.00  0.00     0.031 A 
ATOM     31  C   UNL A   1      40.834  30.183  29.499  1.00  0.00     0.074 A 
ATOM     32  C   UNL A   1      40.392  27.942  28.561  1.00  0.00     0.049 A 
ATOM     33  N   UNL A   1      42.139  30.142  29.623  1.00  0.00    -0.248 NA
ATOM     34  C   UNL A   1      40.230  31.421  30.017  1.00  0.00     0.031 C 
ATOM     35  C   UNL A   1      39.609  26.831  28.009  1.00  0.00     0.029 A 
ATOM     36  N   UNL A   1      41.657  27.418  28.673  1.00  0.00    -0.354 N 
ATOM     37  C   UNL A   1      42.513  31.365  30.172  1.00  0.00     0.074 A 
ATOM     38  C   UNL A   1      41.300  32.133  30.345  1.00  0.00     0.031 C 
ATOM     39  C   UNL A   1      40.383  25.742  27.918  1.00  0.00     0.029 A 
ATOM     40  C   UNL A   1      41.747  26.102  28.279  1.00  0.00     0.049 A 
ATOM     41  H   UNL A   1      42.426  27.935  29.006  1.00  0.00     0.167 HD
ATOM     42  C   UNL A   1      43.752  31.807  30.504  1.00  0.00     0.031 A 
ATOM     43  C   UNL A   1      42.807  25.277  28.169  1.00  0.00     0.031 A 
ATOM     44  C   UNL A   1      44.954  31.019  30.378  1.00  0.00     0.049 A 
ATOM     45  C   UNL A   1      44.171  25.804  28.506  1.00  0.00     0.074 A 
ATOM     46  C   UNL A   1      46.253  31.373  30.699  1.00  0.00     0.029 A 
ATOM     47  N   UNL A   1      45.003  29.714  29.911  1.00  0.00    -0.354 N 
ATOM     48  N   UNL A   1      44.509  26.984  28.966  1.00  0.00    -0.248 NA
ATOM     49  C   UNL A   1      45.300  24.890  28.292  1.00  0.00     0.031 C 
ATOM     50  C   UNL A   1      47.095  30.305  30.372  1.00  0.00     0.029 A 
ATOM     51  C   UNL A   1      46.313  29.259  29.911  1.00  0.00     0.049 A 
ATOM     52  H   UNL A   1      44.224  29.187  29.623  1.00  0.00     0.167 HD
ATOM     53  C   UNL A   1      45.891  26.954  29.101  1.00  0.00     0.074 A 
ATOM     54  C   UNL A   1      46.319  25.625  28.712  1.00  0.00     0.031 C 
ATOM     55  C   UNL A   1      46.731  27.941  29.502  1.00  0.00     0.031 A 
BRANCH  42  56
ATOM     56  C   UNL A   1      43.887  33.231  30.990  1.00  0.00    -0.014 A 
ATOM     57  C   UNL A   1      43.879  33.555  32.358  1.00  0.00     0.010 A 
ATOM     58  C   UNL A   1      44.069  34.264  30.049  1.00  0.00     0.010 A 
ATOM     59  C   UNL A   1      44.009  34.885  32.774  1.00  0.00     0.020 A 
ATOM     60  C   UNL A   1      44.231  35.591  30.460  1.00  0.00     0.020 A 
ATOM     61  C   UNL A   1      44.182  35.896  31.821  1.00  0.00     0.054 A 
BRANCH  61  62
ATOM     62  S   UNL A   1      44.368  37.610  32.388  1.00  0.00     0.124 S 
ATOM     63  O   UNL A   1      43.312  37.713  33.391  1.00  0.00    -0.237 OA
ATOM     64  O   UNL A   1      45.733  37.629  32.910  1.00  0.00    -0.237 OA
ATOM     65  O   UNL A   1      44.157  38.402  31.179  1.00  0.00    -0.744 OA
ENDBRANCH  61  62
ENDBRANCH  42  56
BRANCH  43  66
ATOM     66  C   UNL A   1      42.621  23.891  27.655  1.00  0.00    -0.014 A 
ATOM     67  C   UNL A   1      42.698  23.613  26.279  1.00  0.00     0.010 A 
ATOM     68  C   UNL A   1      42.381  22.830  28.551  1.00  0.00     0.010 A 
ATOM     69  C   UNL A   1      42.529  22.306  25.810  1.00  0.00     0.020 A 
ATOM     70  C   UNL A   1      42.251  21.519  28.091  1.00  0.00     0.020 A 
ATOM     71  C   UNL A   1      42.312  21.267  26.720  1.00  0.00     0.054 A 
BRANCH  71  72
ATOM     72  S   UNL A   1      42.154  19.570  26.096  1.00  0.00     0.124 S 
ATOM     73  O   UNL A   1      43.058  19.583  24.950  1.00  0.00    -0.237 OA
ATOM     74  O   UNL A   1      42.591  18.772  27.239  1.00  0.00    -0.237 OA
ATOM     75  O   UNL A   1      40.734  19.455  25.772  1.00  0.00    -0.744 OA
ENDBRANCH  71  72
ENDBRANCH  43  66
BRANCH  55  76
ATOM     76  C   UNL A   1      48.197  27.601  29.559  1.00  0.00    -0.014 A 
ATOM     77  C   UNL A   1      48.761  26.988  30.692  1.00  0.00     0.010 A 
ATOM     78  C   UNL A   1      49.025  27.908  28.464  1.00  0.00     0.010 A 
ATOM     79  C   UNL A   1      50.135  26.743  30.754  1.00  0.00     0.020 A 
ATOM     80  C   UNL A   1      50.394  27.633  28.507  1.00  0.00     0.020 A 
ATOM     81  C   UNL A   1      50.944  27.074  29.663  1.00  0.00     0.054 A 
BRANCH  81  82
ATOM     82  S   UNL A   1      52.725  26.750  29.766  1.00  0.00     0.124 S 
ATOM     83  O   UNL A   1      53.262  28.085  30.018  1.00  0.00    -0.237 OA
ATOM     84  O   UNL A   1      52.817  25.815  30.885  1.00  0.00    -0.237 OA
ATOM     85  O   UNL A   1      53.052  26.184  28.460  1.00  0.00    -0.744 OA
ENDBRANCH  81  82
ENDBRANCH  55  76
ENDBRANCH  29  30
ENDBRANCH  22  24
ENDBRANCH  21  22
ENDBRANCH   1  21
TORSDOF 16
ENDMDL
MODEL 3
REMARK VINA RESULT:      -9.8      4.552      9.661
REMARK SMILES CC1=C(C)C(=O)N([C@@](C)(C(=O)OCCOC(=O)c2ccc(-c3c4nc(c(-c5ccc(S(=O)(=O)[O-])cc5)c5ccc([nH]5)c(-c5ccc(S(=O)(=O)[O-])cc5)c5nc(c(-c6ccc(S(=O)(=O)[O-])cc6)c6ccc3[nH]6)C=C5)C=C4)cc2)C(F)(F)F)C1=O
REMARK SMILES IDX 14 1 13 2 12 3 10 4 11 5 8 6 9 7 7 8 1 9 2 10 3 11 82 12
REMARK SMILES IDX 4 13 5 14 83 15 6 16 78 17 79 18 80 19 81 20 15 21 16 22
REMARK SMILES IDX 17 23 18 24 19 25 77 26 20 27 76 28 21 29 22 30 23 31 70 32
REMARK SMILES IDX 24 33 75 34 69 35 71 36 25 37 74 38 68 39 67 40 26 42 56 43
REMARK SMILES IDX 37 44 55 45 38 46 41 47 54 48 72 49 39 50 40 51 53 53 73 54
REMARK SMILES IDX 42 55 27 56 28 57 36 58 29 59 35 60 30 61 31 62 32 63 33 64
REMARK SMILES IDX 34 65 57 66 58 67 66 68 59 69 65 70 60 71 61 72 62 73 63 74
REMARK SMILES IDX 64 75 43 76 44 77 52 78 45 79 51 80 46 81 47 82 48 83 49 84
REMARK SMILES IDX 50 85
REMARK H PARENT 71 41 41 52
REMARK Flexibility Score: inf
ROOT
ATOM      1  C   UNL A   1      37.211  21.304  24.904  1.00  0.00     0.275 C 
ENDROOT
BRANCH   1   2
ATOM      2  C   UNL A   1      35.791  21.225  25.461  1.00  0.00     0.274 C 
BRANCH   2   3
ATOM      3  O   UNL A   1      34.820  21.831  24.571  1.00  0.00    -0.460 OA
BRANCH   3   4
ATOM      4  C   UNL A   1      34.430  23.101  24.878  1.00  0.00     0.341 C 
ATOM      5  O   UNL A   1      34.809  23.678  25.892  1.00  0.00    -0.249 OA
BRANCH   4   6
ATOM      6  C   UNL A   1      33.346  23.667  23.956  1.00  0.00     0.240 C 
ATOM      7  C   UNL A   1      33.722  23.212  22.526  1.00  0.00     0.058 C 
BRANCH   6   8
ATOM      8  N   UNL A   1      33.204  25.155  23.976  1.00  0.00    -0.249 N 
ATOM      9  C   UNL A   1      32.969  28.362  25.777  1.00  0.00     0.051 C 
ATOM     10  C   UNL A   1      33.056  27.302  24.749  1.00  0.00     0.023 C 
ATOM     11  C   UNL A   1      33.533  27.367  23.503  1.00  0.00     0.023 C 
ATOM     12  C   UNL A   1      32.793  25.884  25.045  1.00  0.00     0.258 C 
ATOM     13  C   UNL A   1      34.092  28.518  22.753  1.00  0.00     0.051 C 
ATOM     14  C   UNL A   1      33.530  26.002  22.963  1.00  0.00     0.258 C 
ATOM     15  O   UNL A   1      32.346  25.490  26.107  1.00  0.00    -0.269 OA
ATOM     16  O   UNL A   1      33.847  25.750  21.819  1.00  0.00    -0.269 OA
ENDBRANCH   6   8
BRANCH   6  17
ATOM     17  C   UNL A   1      32.042  22.917  24.296  1.00  0.00     0.422 C 
ATOM     18  F   UNL A   1      31.898  22.650  25.602  1.00  0.00    -0.168 F 
ATOM     19  F   UNL A   1      30.966  23.648  23.904  1.00  0.00    -0.168 F 
ATOM     20  F   UNL A   1      31.938  21.733  23.646  1.00  0.00    -0.168 F 
ENDBRANCH   6  17
ENDBRANCH   4   6
ENDBRANCH   3   4
ENDBRANCH   2   3
ENDBRANCH   1   2
BRANCH   1  21
ATOM     21  O   UNL A   1      37.902  22.442  25.444  1.00  0.00    -0.458 OA
BRANCH  21  22
ATOM     22  C   UNL A   1      39.039  22.133  26.108  1.00  0.00     0.338 C 
ATOM     23  O   UNL A   1      39.701  21.114  25.996  1.00  0.00    -0.246 OA
BRANCH  22  24
ATOM     24  C   UNL A   1      39.495  23.279  26.902  1.00  0.00     0.060 A 
ATOM     25  C   UNL A   1      39.004  24.522  26.540  1.00  0.00     0.016 A 
ATOM     26  C   UNL A   1      40.565  23.184  27.786  1.00  0.00     0.016 A 
ATOM     27  C   UNL A   1      39.697  25.671  26.894  1.00  0.00     0.010 A 
ATOM     28  C   UNL A   1      41.160  24.359  28.276  1.00  0.00     0.010 A 
ATOM     29  C   UNL A   1      40.778  25.620  27.783  1.00  0.00    -0.014 A 
BRANCH  29  30
ATOM     30  C   UNL A   1      41.502  26.885  28.128  1.00  0.00     0.031 A 
ATOM     31  C   UNL A   1      40.778  28.046  28.775  1.00  0.00     0.074 A 
ATOM     32  C   UNL A   1      42.836  26.975  27.929  1.00  0.00     0.049 A 
ATOM     33  N   UNL A   1      41.224  29.248  29.048  1.00  0.00    -0.248 NA
ATOM     34  C   UNL A   1      39.369  27.839  29.147  1.00  0.00     0.031 C 
ATOM     35  C   UNL A   1      43.684  25.922  27.359  1.00  0.00     0.029 A 
ATOM     36  N   UNL A   1      43.725  27.984  28.214  1.00  0.00    -0.354 N 
ATOM     37  C   UNL A   1      40.140  29.954  29.562  1.00  0.00     0.074 A 
ATOM     38  C   UNL A   1      39.011  29.051  29.550  1.00  0.00     0.031 C 
ATOM     39  C   UNL A   1      44.967  26.301  27.421  1.00  0.00     0.029 A 
ATOM     40  C   UNL A   1      45.031  27.670  27.912  1.00  0.00     0.049 A 
ATOM     41  H   UNL A   1      43.454  28.848  28.600  1.00  0.00     0.167 HD
ATOM     42  C   UNL A   1      40.089  31.236  30.004  1.00  0.00     0.031 A 
ATOM     43  C   UNL A   1      46.158  28.405  27.972  1.00  0.00     0.031 A 
ATOM     44  C   UNL A   1      41.229  32.119  30.062  1.00  0.00     0.049 A 
ATOM     45  C   UNL A   1      46.068  29.832  28.428  1.00  0.00     0.074 A 
ATOM     46  C   UNL A   1      41.282  33.429  30.506  1.00  0.00     0.029 A 
ATOM     47  N   UNL A   1      42.519  31.777  29.683  1.00  0.00    -0.354 N 
ATOM     48  N   UNL A   1      45.021  30.497  28.852  1.00  0.00    -0.248 NA
ATOM     49  C   UNL A   1      47.312  30.612  28.398  1.00  0.00     0.031 C 
ATOM     50  C   UNL A   1      42.589  33.898  30.340  1.00  0.00     0.029 A 
ATOM     51  C   UNL A   1      43.368  32.859  29.857  1.00  0.00     0.049 A 
ATOM     52  H   UNL A   1      42.792  30.896  29.340  1.00  0.00     0.167 HD
ATOM     53  C   UNL A   1      45.481  31.775  29.143  1.00  0.00     0.074 A 
ATOM     54  C   UNL A   1      46.907  31.775  28.885  1.00  0.00     0.031 C 
ATOM     55  C   UNL A   1      44.782  32.854  29.577  1.00  0.00     0.031 A 
BRANCH  42  56
ATOM     56  C   UNL A   1      38.745  31.788  30.416  1.00  0.00    -0.014 A 
ATOM     57  C   UNL A   1      38.290  31.726  31.746  1.00  0.00     0.010 A 
ATOM     58  C   UNL A   1      37.938  32.424  29.452  1.00  0.00     0.010 A 
ATOM     59  C   UNL A   1      37.039  32.250  32.093  1.00  0.00     0.020 A 
ATOM     60  C   UNL A   1      36.702  32.978  29.801  1.00  0.00     0.020 A 
ATOM     61  C   UNL A   1      36.252  32.871  31.118  1.00  0.00     0.054 A 
BRANCH  61  62
ATOM     62  S   UNL A   1      34.643  33.561  31.600  1.00  0.00     0.124 S 
ATOM     63  O   UNL A   1      33.993  33.742  30.304  1.00  0.00    -0.237 OA
ATOM     64  O   UNL A   1      34.082  32.507  32.441  1.00  0.00    -0.237 OA
ATOM     65  O   UNL A   1      34.989  34.795  32.300  1.00  0.00    -0.744 OA
ENDBRANCH  61  62
ENDBRANCH  42  56
BRANCH  43  66
ATOM     66  C   UNL A   1      47.454  27.820  27.523  1.00  0.00    -0.014 A 
ATOM     67  C   UNL A   1      47.819  27.826  26.166  1.00  0.00     0.010 A 
ATOM     68  C   UNL A   1      48.342  27.264  28.465  1.00  0.00     0.010 A 
ATOM     69  C   UNL A   1      49.041  27.280  25.759  1.00  0.00     0.020 A 
ATOM     70  C   UNL A   1      49.580  26.754  28.068  1.00  0.00     0.020 A 
ATOM     71  C   UNL A   1      49.916  26.753  26.714  1.00  0.00     0.054 A 
BRANCH  71  72
ATOM     72  S   UNL A   1      51.521  26.102  26.173  1.00  0.00     0.124 S 
ATOM     73  O   UNL A   1      51.452  24.715  26.620  1.00  0.00    -0.237 OA
ATOM     74  O   UNL A   1      51.472  26.304  24.726  1.00  0.00    -0.237 OA
ATOM     75  O   UNL A   1      52.487  26.941  26.878  1.00  0.00    -0.744 OA
ENDBRANCH  71  72
ENDBRANCH  43  66
BRANCH  55  76
ATOM     76  C   UNL A   1      45.567  34.117  29.819  1.00  0.00    -0.014 A 
ATOM     77  C   UNL A   1      45.739  35.075  28.802  1.00  0.00     0.010 A 
ATOM     78  C   UNL A   1      46.147  34.346  31.079  1.00  0.00     0.010 A 
ATOM     79  C   UNL A   1      46.526  36.207  29.023  1.00  0.00     0.020 A 
ATOM     80  C   UNL A   1      46.908  35.493  31.315  1.00  0.00     0.020 A 
ATOM     81  C   UNL A   1      47.112  36.405  30.277  1.00  0.00     0.054 A 
BRANCH  81  82
ATOM     82  S   UNL A   1      48.134  37.880  30.541  1.00  0.00     0.124 S 
ATOM     83  O   UNL A   1      49.184  37.369  31.416  1.00  0.00    -0.237 OA
ATOM     84  O   UNL A   1      48.558  38.223  29.185  1.00  0.00    -0.237 OA
ATOM     85  O   UNL A   1      47.216  38.833  31.160  1.00  0.00    -0.744 OA
ENDBRANCH  81  82
ENDBRANCH  55  76
ENDBRANCH  29  30
ENDBRANCH  22  24
ENDBRANCH  21  22
ENDBRANCH   1  21
TORSDOF 16
ENDMDL
