MODEL 1
REMARK VINA RESULT:     -10.3      0.000      0.000
REMARK SMILES C[C@H](NC(=O)CCn1ccccc1=O)C(=O)OCCOC(=O)c1ccc(-c2c3nc(c(-c4ccc(S(=O)(=O)[O-])cc4)c4ccc([nH]4)c(-c4ccc(S(=O)(=O)[O-])cc4)c4nc(c(-c5ccc(S(=O)(=O)[O-])cc5)c5ccc2[nH]5)C=C4)C=C3)cc1
REMARK SMILES IDX 18 1 17 2 15 3 16 4 2 5 1 6 3 7 4 8 5 10 6 11 7 12 8 13 9 14
REMARK SMILES IDX 13 15 10 16 12 17 14 18 11 19 19 20 20 21 21 22 22 23 23 24
REMARK SMILES IDX 24 25 82 26 25 27 81 28 26 29 27 30 28 31 75 32 29 33 80 34
REMARK SMILES IDX 74 35 76 36 30 37 79 38 73 39 72 40 31 42 61 43 42 44 60 45
REMARK SMILES IDX 43 46 46 47 59 48 77 49 44 50 45 51 58 53 78 54 47 55 32 56
REMARK SMILES IDX 33 57 41 58 34 59 40 60 35 61 36 62 37 63 38 64 39 65 62 66
REMARK SMILES IDX 63 67 71 68 64 69 70 70 65 71 66 72 67 73 68 74 69 75 48 76
REMARK SMILES IDX 49 77 57 78 50 79 56 80 51 81 52 82 53 83 54 84 55 85
REMARK H PARENT 3 9 76 41 46 52
REMARK Flexibility Score: inf
ROOT
ATOM      1  C   UNL A   1      31.742  29.915  25.502  1.00  0.00     0.274 C 
ENDROOT
BRANCH   1   2
ATOM      2  O   UNL A   1      31.976  28.636  24.881  1.00  0.00    -0.461 OA
BRANCH   2   3
ATOM      3  C   UNL A   1      30.910  28.138  24.200  1.00  0.00     0.328 C 
ATOM      4  O   UNL A   1      30.133  28.817  23.534  1.00  0.00    -0.250 OA
BRANCH   3   5
ATOM      5  C   UNL A   1      30.635  26.666  24.499  1.00  0.00     0.189 C 
ATOM      6  C   UNL A   1      29.240  26.340  23.966  1.00  0.00     0.043 C 
BRANCH   5   7
ATOM      7  N   UNL A   1      30.724  26.153  25.856  1.00  0.00    -0.343 N 
ATOM      8  C   UNL A   1      31.681  25.294  26.329  1.00  0.00     0.222 C 
ATOM      9  H   UNL A   1      30.035  26.449  26.494  1.00  0.00     0.164 HD
ATOM     10  O   UNL A   1      31.384  24.535  27.255  1.00  0.00    -0.275 OA
BRANCH   8  11
ATOM     11  C   UNL A   1      33.108  25.344  25.793  1.00  0.00     0.122 C 
BRANCH  11  12
ATOM     12  C   UNL A   1      33.923  24.041  25.747  1.00  0.00     0.135 C 
BRANCH  12  13
ATOM     13  N   UNL A   1      33.300  22.932  25.003  1.00  0.00    -0.315 N 
ATOM     14  C   UNL A   1      32.902  23.125  23.688  1.00  0.00     0.089 A 
ATOM     15  C   UNL A   1      33.094  21.705  25.651  1.00  0.00     0.250 A 
ATOM     16  C   UNL A   1      32.485  22.101  22.933  1.00  0.00     0.018 A 
ATOM     17  C   UNL A   1      32.736  20.560  24.770  1.00  0.00     0.072 A 
ATOM     18  O   UNL A   1      33.276  21.508  26.848  1.00  0.00    -0.269 OA
ATOM     19  C   UNL A   1      32.473  20.765  23.474  1.00  0.00     0.007 A 
ENDBRANCH  12  13
ENDBRANCH  11  12
ENDBRANCH   8  11
ENDBRANCH   5   7
ENDBRANCH   3   5
ENDBRANCH   2   3
ENDBRANCH   1   2
BRANCH   1  20
ATOM     20  C   UNL A   1      32.099  29.891  26.988  1.00  0.00     0.275 C 
BRANCH  20  21
ATOM     21  O   UNL A   1      33.485  29.577  27.214  1.00  0.00    -0.458 OA
BRANCH  21  22
ATOM     22  C   UNL A   1      34.238  30.593  27.694  1.00  0.00     0.338 C 
ATOM     23  O   UNL A   1      33.868  31.739  27.925  1.00  0.00    -0.246 OA
BRANCH  22  24
ATOM     24  C   UNL A   1      35.579  30.094  28.026  1.00  0.00     0.060 A 
ATOM     25  C   UNL A   1      36.593  30.083  27.067  1.00  0.00     0.016 A 
ATOM     26  C   UNL A   1      35.837  29.688  29.336  1.00  0.00     0.016 A 
ATOM     27  C   UNL A   1      37.872  29.652  27.430  1.00  0.00     0.010 A 
ATOM     28  C   UNL A   1      37.118  29.273  29.700  1.00  0.00     0.010 A 
ATOM     29  C   UNL A   1      38.146  29.246  28.749  1.00  0.00    -0.014 A 
BRANCH  29  30
ATOM     30  C   UNL A   1      39.522  28.859  29.143  1.00  0.00     0.031 A 
ATOM     31  C   UNL A   1      40.374  29.766  29.981  1.00  0.00     0.074 A 
ATOM     32  C   UNL A   1      40.008  27.672  28.731  1.00  0.00     0.049 A 
ATOM     33  N   UNL A   1      41.533  29.518  30.534  1.00  0.00    -0.248 NA
ATOM     34  C   UNL A   1      39.865  31.124  30.230  1.00  0.00     0.031 C 
ATOM     35  C   UNL A   1      39.295  26.731  27.867  1.00  0.00     0.029 A 
ATOM     36  N   UNL A   1      41.204  27.051  28.991  1.00  0.00    -0.354 N 
ATOM     37  C   UNL A   1      41.884  30.676  31.216  1.00  0.00     0.074 A 
ATOM     38  C   UNL A   1      40.841  31.646  30.964  1.00  0.00     0.031 C 
ATOM     39  C   UNL A   1      40.049  25.634  27.701  1.00  0.00     0.029 A 
ATOM     40  C   UNL A   1      41.307  25.801  28.429  1.00  0.00     0.049 A 
ATOM     41  H   UNL A   1      41.920  27.461  29.529  1.00  0.00     0.167 HD
ATOM     42  C   UNL A   1      42.967  30.897  31.999  1.00  0.00     0.031 A 
ATOM     43  C   UNL A   1      42.289  24.878  28.502  1.00  0.00     0.031 A 
ATOM     44  C   UNL A   1      44.013  29.930  32.220  1.00  0.00     0.049 A 
ATOM     45  C   UNL A   1      43.495  25.152  29.354  1.00  0.00     0.074 A 
ATOM     46  C   UNL A   1      45.117  30.040  33.049  1.00  0.00     0.029 A 
ATOM     47  N   UNL A   1      44.100  28.691  31.601  1.00  0.00    -0.354 N 
ATOM     48  N   UNL A   1      43.757  26.207  30.089  1.00  0.00    -0.248 NA
ATOM     49  C   UNL A   1      44.528  24.109  29.408  1.00  0.00     0.031 C 
ATOM     50  C   UNL A   1      45.908  28.902  32.875  1.00  0.00     0.029 A 
ATOM     51  C   UNL A   1      45.260  28.045  31.998  1.00  0.00     0.049 A 
ATOM     52  H   UNL A   1      43.436  28.326  30.973  1.00  0.00     0.167 HD
ATOM     53  C   UNL A   1      44.979  25.951  30.702  1.00  0.00     0.074 A 
ATOM     54  C   UNL A   1      45.396  24.633  30.266  1.00  0.00     0.031 C 
ATOM     55  C   UNL A   1      45.683  26.740  31.550  1.00  0.00     0.031 A 
BRANCH  42  56
ATOM     56  C   UNL A   1      43.080  32.225  32.703  1.00  0.00    -0.014 A 
ATOM     57  C   UNL A   1      42.442  32.425  33.941  1.00  0.00     0.010 A 
ATOM     58  C   UNL A   1      43.713  33.314  32.078  1.00  0.00     0.010 A 
ATOM     59  C   UNL A   1      42.412  33.693  34.530  1.00  0.00     0.020 A 
ATOM     60  C   UNL A   1      43.710  34.579  32.677  1.00  0.00     0.020 A 
ATOM     61  C   UNL A   1      43.041  34.764  33.888  1.00  0.00     0.054 A 
BRANCH  61  62
ATOM     62  S   UNL A   1      42.980  36.407  34.656  1.00  0.00     0.124 S 
ATOM     63  O   UNL A   1      43.265  37.288  33.527  1.00  0.00    -0.237 OA
ATOM     64  O   UNL A   1      41.617  36.468  35.178  1.00  0.00    -0.237 OA
ATOM     65  O   UNL A   1      44.025  36.344  35.677  1.00  0.00    -0.744 OA
ENDBRANCH  61  62
ENDBRANCH  42  56
BRANCH  43  66
ATOM     66  C   UNL A   1      42.099  23.581  27.798  1.00  0.00    -0.014 A 
ATOM     67  C   UNL A   1      41.323  22.560  28.380  1.00  0.00     0.010 A 
ATOM     68  C   UNL A   1      42.803  23.314  26.611  1.00  0.00     0.010 A 
ATOM     69  C   UNL A   1      41.312  21.278  27.827  1.00  0.00     0.020 A 
ATOM     70  C   UNL A   1      42.772  22.038  26.040  1.00  0.00     0.020 A 
ATOM     71  C   UNL A   1      42.055  21.020  26.672  1.00  0.00     0.054 A 
BRANCH  71  72
ATOM     72  S   UNL A   1      42.106  19.324  26.028  1.00  0.00     0.124 S 
ATOM     73  O   UNL A   1      40.699  19.080  25.717  1.00  0.00    -0.237 OA
ATOM     74  O   UNL A   1      42.993  19.446  24.874  1.00  0.00    -0.237 OA
ATOM     75  O   UNL A   1      42.641  18.550  27.144  1.00  0.00    -0.744 OA
ENDBRANCH  71  72
ENDBRANCH  43  66
BRANCH  55  76
ATOM     76  C   UNL A   1      47.004  26.232  32.070  1.00  0.00    -0.014 A 
ATOM     77  C   UNL A   1      48.184  26.481  31.343  1.00  0.00     0.010 A 
ATOM     78  C   UNL A   1      47.058  25.384  33.190  1.00  0.00     0.010 A 
ATOM     79  C   UNL A   1      49.382  25.856  31.697  1.00  0.00     0.020 A 
ATOM     80  C   UNL A   1      48.261  24.780  33.566  1.00  0.00     0.020 A 
ATOM     81  C   UNL A   1      49.410  24.997  32.799  1.00  0.00     0.054 A 
BRANCH  81  82
ATOM     82  S   UNL A   1      50.962  24.153  33.212  1.00  0.00     0.124 S 
ATOM     83  O   UNL A   1      50.822  22.887  32.500  1.00  0.00    -0.237 OA
ATOM     84  O   UNL A   1      51.974  25.064  32.684  1.00  0.00    -0.237 OA
ATOM     85  O   UNL A   1      50.922  24.057  34.671  1.00  0.00    -0.744 OA
ENDBRANCH  81  82
ENDBRANCH  55  76
ENDBRANCH  29  30
ENDBRANCH  22  24
ENDBRANCH  21  22
ENDBRANCH  20  21
ENDBRANCH   1  20
TORSDOF 18
ENDMDL
MODEL 2
REMARK VINA RESULT:     -10.2      1.404      8.501
REMARK SMILES C[C@H](NC(=O)CCn1ccccc1=O)C(=O)OCCOC(=O)c1ccc(-c2c3nc(c(-c4ccc(S(=O)(=O)[O-])cc4)c4ccc([nH]4)c(-c4ccc(S(=O)(=O)[O-])cc4)c4nc(c(-c5ccc(S(=O)(=O)[O-])cc5)c5ccc2[nH]5)C=C4)C=C3)cc1
REMARK SMILES IDX 18 1 17 2 15 3 16 4 2 5 1 6 3 7 4 8 5 10 6 11 7 12 8 13 9 14
REMARK SMILES IDX 13 15 10 16 12 17 14 18 11 19 19 20 20 21 21 22 22 23 23 24
REMARK SMILES IDX 24 25 82 26 25 27 81 28 26 29 27 30 28 31 75 32 29 33 80 34
REMARK SMILES IDX 74 35 76 36 30 37 79 38 73 39 72 40 31 42 61 43 42 44 60 45
REMARK SMILES IDX 43 46 46 47 59 48 77 49 44 50 45 51 58 53 78 54 47 55 32 56
REMARK SMILES IDX 33 57 41 58 34 59 40 60 35 61 36 62 37 63 38 64 39 65 62 66
REMARK SMILES IDX 63 67 71 68 64 69 70 70 65 71 66 72 67 73 68 74 69 75 48 76
REMARK SMILES IDX 49 77 57 78 50 79 56 80 51 81 52 82 53 83 54 84 55 85
REMARK H PARENT 3 9 76 41 46 52
REMARK Flexibility Score: inf
ROOT
ATOM      1  C   UNL A   1      31.772  29.309  26.024  1.00  0.00     0.274 C 
ENDROOT
BRANCH   1   2
ATOM      2  O   UNL A   1      31.551  28.016  25.428  1.00  0.00    -0.461 OA
BRANCH   2   3
ATOM      3  C   UNL A   1      31.147  27.055  26.300  1.00  0.00     0.328 C 
ATOM      4  O   UNL A   1      31.347  27.089  27.512  1.00  0.00    -0.250 OA
BRANCH   3   5
ATOM      5  C   UNL A   1      30.590  25.810  25.614  1.00  0.00     0.189 C 
ATOM      6  C   UNL A   1      29.598  26.276  24.549  1.00  0.00     0.043 C 
BRANCH   5   7
ATOM      7  N   UNL A   1      29.953  24.756  26.386  1.00  0.00    -0.343 N 
ATOM      8  C   UNL A   1      30.518  23.555  26.726  1.00  0.00     0.222 C 
ATOM      9  H   UNL A   1      29.031  24.920  26.693  1.00  0.00     0.164 HD
ATOM     10  O   UNL A   1      29.778  22.581  26.883  1.00  0.00    -0.275 OA
BRANCH   8  11
ATOM     11  C   UNL A   1      32.014  23.447  27.003  1.00  0.00     0.122 C 
BRANCH  11  12
ATOM     12  C   UNL A   1      32.794  22.276  26.384  1.00  0.00     0.135 C 
BRANCH  12  13
ATOM     13  N   UNL A   1      32.486  21.988  24.972  1.00  0.00    -0.315 N 
ATOM     14  C   UNL A   1      32.437  23.027  24.053  1.00  0.00     0.089 A 
ATOM     15  C   UNL A   1      32.220  20.666  24.587  1.00  0.00     0.250 A 
ATOM     16  C   UNL A   1      32.322  22.786  22.741  1.00  0.00     0.018 A 
ATOM     17  C   UNL A   1      32.206  20.408  23.120  1.00  0.00     0.072 A 
ATOM     18  O   UNL A   1      32.094  19.724  25.362  1.00  0.00    -0.269 OA
ATOM     19  C   UNL A   1      32.280  21.429  22.258  1.00  0.00     0.007 A 
ENDBRANCH  12  13
ENDBRANCH  11  12
ENDBRANCH   8  11
ENDBRANCH   5   7
ENDBRANCH   3   5
ENDBRANCH   2   3
ENDBRANCH   1   2
BRANCH   1  20
ATOM     20  C   UNL A   1      33.261  29.645  26.102  1.00  0.00     0.275 C 
BRANCH  20  21
ATOM     21  O   UNL A   1      33.802  29.442  27.419  1.00  0.00    -0.458 OA
BRANCH  21  22
ATOM     22  C   UNL A   1      34.540  30.465  27.907  1.00  0.00     0.338 C 
ATOM     23  O   UNL A   1      34.147  31.594  28.179  1.00  0.00    -0.246 OA
BRANCH  22  24
ATOM     24  C   UNL A   1      35.902  29.994  28.190  1.00  0.00     0.060 A 
ATOM     25  C   UNL A   1      36.903  30.080  27.221  1.00  0.00     0.016 A 
ATOM     26  C   UNL A   1      36.192  29.513  29.468  1.00  0.00     0.016 A 
ATOM     27  C   UNL A   1      38.201  29.672  27.540  1.00  0.00     0.010 A 
ATOM     28  C   UNL A   1      37.492  29.122  29.790  1.00  0.00     0.010 A 
ATOM     29  C   UNL A   1      38.506  29.193  28.828  1.00  0.00    -0.014 A 
BRANCH  29  30
ATOM     30  C   UNL A   1      39.901  28.830  29.180  1.00  0.00     0.031 A 
ATOM     31  C   UNL A   1      40.460  27.479  28.840  1.00  0.00     0.074 A 
ATOM     32  C   UNL A   1      40.667  29.733  29.820  1.00  0.00     0.049 A 
ATOM     33  N   UNL A   1      41.694  27.057  28.941  1.00  0.00    -0.248 NA
ATOM     34  C   UNL A   1      39.519  26.474  28.323  1.00  0.00     0.031 C 
ATOM     35  C   UNL A   1      40.217  31.056  30.252  1.00  0.00     0.029 A 
ATOM     36  N   UNL A   1      41.984  29.682  30.208  1.00  0.00    -0.354 N 
ATOM     37  C   UNL A   1      41.686  25.747  28.479  1.00  0.00     0.074 A 
ATOM     38  C   UNL A   1      40.315  25.425  28.149  1.00  0.00     0.031 C 
ATOM     39  C   UNL A   1      41.249  31.708  30.808  1.00  0.00     0.029 A 
ATOM     40  C   UNL A   1      42.429  30.844  30.792  1.00  0.00     0.049 A 
ATOM     41  H   UNL A   1      42.554  28.890  30.080  1.00  0.00     0.167 HD
ATOM     42  C   UNL A   1      42.734  24.902  28.326  1.00  0.00     0.031 A 
ATOM     43  C   UNL A   1      43.651  31.190  31.246  1.00  0.00     0.031 A 
ATOM     44  C   UNL A   1      44.091  25.227  28.686  1.00  0.00     0.049 A 
ATOM     45  C   UNL A   1      44.794  30.229  31.092  1.00  0.00     0.074 A 
ATOM     46  C   UNL A   1      45.229  24.459  28.508  1.00  0.00     0.029 A 
ATOM     47  N   UNL A   1      44.494  26.398  29.312  1.00  0.00    -0.354 N 
ATOM     48  N   UNL A   1      44.795  29.037  30.546  1.00  0.00    -0.248 NA
ATOM     49  C   UNL A   1      46.106  30.662  31.594  1.00  0.00     0.031 C 
ATOM     50  C   UNL A   1      46.306  25.132  29.090  1.00  0.00     0.029 A 
ATOM     51  C   UNL A   1      45.856  26.355  29.563  1.00  0.00     0.049 A 
ATOM     52  H   UNL A   1      43.900  27.149  29.542  1.00  0.00     0.167 HD
ATOM     53  C   UNL A   1      46.106  28.581  30.626  1.00  0.00     0.074 A 
ATOM     54  C   UNL A   1      46.876  29.633  31.258  1.00  0.00     0.031 C 
ATOM     55  C   UNL A   1      46.618  27.397  30.208  1.00  0.00     0.031 A 
BRANCH  42  56
ATOM     56  C   UNL A   1      42.474  23.546  27.723  1.00  0.00    -0.014 A 
ATOM     57  C   UNL A   1      42.246  22.434  28.554  1.00  0.00     0.010 A 
ATOM     58  C   UNL A   1      42.580  23.348  26.334  1.00  0.00     0.010 A 
ATOM     59  C   UNL A   1      42.154  21.148  28.014  1.00  0.00     0.020 A 
ATOM     60  C   UNL A   1      42.461  22.067  25.786  1.00  0.00     0.020 A 
ATOM     61  C   UNL A   1      42.271  20.972  26.632  1.00  0.00     0.054 A 
BRANCH  61  62
ATOM     62  S   UNL A   1      42.165  19.296  25.946  1.00  0.00     0.124 S 
ATOM     63  O   UNL A   1      43.004  19.394  24.756  1.00  0.00    -0.237 OA
ATOM     64  O   UNL A   1      42.697  18.472  27.029  1.00  0.00    -0.237 OA
ATOM     65  O   UNL A   1      40.736  19.122  25.690  1.00  0.00    -0.744 OA
ENDBRANCH  61  62
ENDBRANCH  42  56
BRANCH  43  66
ATOM     66  C   UNL A   1      43.838  32.554  31.811  1.00  0.00    -0.014 A 
ATOM     67  C   UNL A   1      43.624  32.794  33.182  1.00  0.00     0.010 A 
ATOM     68  C   UNL A   1      44.098  33.641  30.959  1.00  0.00     0.010 A 
ATOM     69  C   UNL A   1      43.596  34.100  33.676  1.00  0.00     0.020 A 
ATOM     70  C   UNL A   1      44.097  34.948  31.456  1.00  0.00     0.020 A 
ATOM     71  C   UNL A   1      43.811  35.170  32.804  1.00  0.00     0.054 A 
BRANCH  71  72
ATOM     72  S   UNL A   1      43.672  36.861  33.448  1.00  0.00     0.124 S 
ATOM     73  O   UNL A   1      44.848  36.951  34.310  1.00  0.00    -0.237 OA
ATOM     74  O   UNL A   1      43.717  37.671  32.234  1.00  0.00    -0.237 OA
ATOM     75  O   UNL A   1      42.388  36.858  34.144  1.00  0.00    -0.744 OA
ENDBRANCH  71  72
ENDBRANCH  43  66
BRANCH  55  76
ATOM     76  C   UNL A   1      48.088  27.136  30.427  1.00  0.00    -0.014 A 
ATOM     77  C   UNL A   1      48.525  26.589  31.649  1.00  0.00     0.010 A 
ATOM     78  C   UNL A   1      49.042  27.569  29.491  1.00  0.00     0.010 A 
ATOM     79  C   UNL A   1      49.888  26.524  31.950  1.00  0.00     0.020 A 
ATOM     80  C   UNL A   1      50.408  27.477  29.775  1.00  0.00     0.020 A 
ATOM     81  C   UNL A   1      50.821  26.983  31.016  1.00  0.00     0.054 A 
BRANCH  81  82
ATOM     82  S   UNL A   1      52.584  26.938  31.445  1.00  0.00     0.124 S 
ATOM     83  O   UNL A   1      52.860  25.506  31.463  1.00  0.00    -0.237 OA
ATOM     84  O   UNL A   1      53.201  27.686  30.353  1.00  0.00    -0.237 OA
ATOM     85  O   UNL A   1      52.635  27.599  32.749  1.00  0.00    -0.744 OA
ENDBRANCH  81  82
ENDBRANCH  55  76
ENDBRANCH  29  30
ENDBRANCH  22  24
ENDBRANCH  21  22
ENDBRANCH  20  21
ENDBRANCH   1  20
TORSDOF 18
ENDMDL
MODEL 3
REMARK VINA RESULT:     -10.0      1.795      8.625
REMARK SMILES C[C@H](NC(=O)CCn1ccccc1=O)C(=O)OCCOC(=O)c1ccc(-c2c3nc(c(-c4ccc(S(=O)(=O)[O-])cc4)c4ccc([nH]4)c(-c4ccc(S(=O)(=O)[O-])cc4)c4nc(c(-c5ccc(S(=O)(=O)[O-])cc5)c5ccc2[nH]5)C=C4)C=C3)cc1
REMARK SMILES IDX 18 1 17 2 15 3 16 4 2 5 1 6 3 7 4 8 5 10 6 11 7 12 8 13 9 14
REMARK SMILES IDX 13 15 10 16 12 17 14 18 11 19 19 20 20 21 21 22 22 23 23 24
REMARK SMILES IDX 24 25 82 26 25 27 81 28 26 29 27 30 28 31 75 32 29 33 80 34
REMARK SMILES IDX 74 35 76 36 30 37 79 38 73 39 72 40 31 42 61 43 42 44 60 45
REMARK SMILES IDX 43 46 46 47 59 48 77 49 44 50 45 51 58 53 78 54 47 55 32 56
REMARK SMILES IDX 33 57 41 58 34 59 40 60 35 61 36 62 37 63 38 64 39 65 62 66
REMARK SMILES IDX 63 67 71 68 64 69 70 70 65 71 66 72 67 73 68 74 69 75 48 76
REMARK SMILES IDX 49 77 57 78 50 79 56 80 51 81 52 82 53 83 54 84 55 85
REMARK H PARENT 3 9 76 41 46 52
REMARK Flexibility Score: inf
ROOT
ATOM      1  C   UNL A   1      32.140  29.029  25.858  1.00  0.00     0.274 C 
ENDROOT
BRANCH   1   2
ATOM      2  O   UNL A   1      31.844  29.301  24.474  1.00  0.00    -0.461 OA
BRANCH   2   3
ATOM      3  C   UNL A   1      31.509  28.205  23.743  1.00  0.00     0.328 C 
ATOM      4  O   UNL A   1      30.440  27.609  23.838  1.00  0.00    -0.250 OA
BRANCH   3   5
ATOM      5  C   UNL A   1      32.670  27.645  22.926  1.00  0.00     0.189 C 
ATOM      6  C   UNL A   1      33.613  28.805  22.607  1.00  0.00     0.043 C 
BRANCH   5   7
ATOM      7  N   UNL A   1      32.429  26.916  21.692  1.00  0.00    -0.343 N 
ATOM      8  C   UNL A   1      32.836  25.636  21.421  1.00  0.00     0.222 C 
ATOM      9  H   UNL A   1      31.926  27.384  20.985  1.00  0.00     0.164 HD
ATOM     10  O   UNL A   1      33.060  25.326  20.248  1.00  0.00    -0.275 OA
BRANCH   8  11
ATOM     11  C   UNL A   1      32.916  24.592  22.529  1.00  0.00     0.122 C 
BRANCH  11  12
ATOM     12  C   UNL A   1      34.199  24.509  23.372  1.00  0.00     0.135 C 
BRANCH  12  13
ATOM     13  N   UNL A   1      34.442  23.212  24.028  1.00  0.00    -0.315 N 
ATOM     14  C   UNL A   1      33.368  22.447  24.457  1.00  0.00     0.089 A 
ATOM     15  C   UNL A   1      35.763  22.787  24.233  1.00  0.00     0.250 A 
ATOM     16  C   UNL A   1      33.542  21.198  24.907  1.00  0.00     0.018 A 
ATOM     17  C   UNL A   1      35.931  21.362  24.628  1.00  0.00     0.072 A 
ATOM     18  O   UNL A   1      36.758  23.473  24.022  1.00  0.00    -0.269 OA
ATOM     19  C   UNL A   1      34.860  20.615  24.922  1.00  0.00     0.007 A 
ENDBRANCH  12  13
ENDBRANCH  11  12
ENDBRANCH   8  11
ENDBRANCH   5   7
ENDBRANCH   3   5
ENDBRANCH   2   3
ENDBRANCH   1   2
BRANCH   1  20
ATOM     20  C   UNL A   1      33.605  29.317  26.186  1.00  0.00     0.275 C 
BRANCH  20  21
ATOM     21  O   UNL A   1      33.842  29.413  27.601  1.00  0.00    -0.458 OA
BRANCH  21  22
ATOM     22  C   UNL A   1      34.609  30.456  27.991  1.00  0.00     0.338 C 
ATOM     23  O   UNL A   1      34.238  31.604  28.207  1.00  0.00    -0.246 OA
BRANCH  22  24
ATOM     24  C   UNL A   1      35.978  29.988  28.246  1.00  0.00     0.060 A 
ATOM     25  C   UNL A   1      36.968  30.113  27.269  1.00  0.00     0.016 A 
ATOM     26  C   UNL A   1      36.286  29.471  29.505  1.00  0.00     0.016 A 
ATOM     27  C   UNL A   1      38.273  29.707  27.562  1.00  0.00     0.010 A 
ATOM     28  C   UNL A   1      37.592  29.081  29.801  1.00  0.00     0.010 A 
ATOM     29  C   UNL A   1      38.596  29.191  28.831  1.00  0.00    -0.014 A 
BRANCH  29  30
ATOM     30  C   UNL A   1      39.997  28.829  29.157  1.00  0.00     0.031 A 
ATOM     31  C   UNL A   1      40.550  27.478  28.812  1.00  0.00     0.074 A 
ATOM     32  C   UNL A   1      40.776  29.735  29.779  1.00  0.00     0.049 A 
ATOM     33  N   UNL A   1      41.786  27.056  28.890  1.00  0.00    -0.248 NA
ATOM     34  C   UNL A   1      39.599  26.470  28.318  1.00  0.00     0.031 C 
ATOM     35  C   UNL A   1      40.333  31.060  30.214  1.00  0.00     0.029 A 
ATOM     36  N   UNL A   1      42.099  29.686  30.141  1.00  0.00    -0.354 N 
ATOM     37  C   UNL A   1      41.769  25.744  28.435  1.00  0.00     0.074 A 
ATOM     38  C   UNL A   1      40.392  25.421  28.132  1.00  0.00     0.031 C 
ATOM     39  C   UNL A   1      41.376  31.714  30.748  1.00  0.00     0.029 A 
ATOM     40  C   UNL A   1      42.556  30.850  30.712  1.00  0.00     0.049 A 
ATOM     41  H   UNL A   1      42.667  28.893  30.005  1.00  0.00     0.167 HD
ATOM     42  C   UNL A   1      42.813  24.899  28.265  1.00  0.00     0.031 A 
ATOM     43  C   UNL A   1      43.786  31.199  31.140  1.00  0.00     0.031 A 
ATOM     44  C   UNL A   1      44.177  25.225  28.597  1.00  0.00     0.049 A 
ATOM     45  C   UNL A   1      44.926  30.237  30.968  1.00  0.00     0.074 A 
ATOM     46  C   UNL A   1      45.312  24.457  28.399  1.00  0.00     0.029 A 
ATOM     47  N   UNL A   1      44.592  26.399  29.209  1.00  0.00    -0.354 N 
ATOM     48  N   UNL A   1      44.917  29.043  30.426  1.00  0.00    -0.248 NA
ATOM     49  C   UNL A   1      46.247  30.673  31.442  1.00  0.00     0.031 C 
ATOM     50  C   UNL A   1      46.400  25.132  28.958  1.00  0.00     0.029 A 
ATOM     51  C   UNL A   1      45.959  26.357  29.434  1.00  0.00     0.049 A 
ATOM     52  H   UNL A   1      44.002  27.150  29.448  1.00  0.00     0.167 HD
ATOM     53  C   UNL A   1      46.229  28.587  30.482  1.00  0.00     0.074 A 
ATOM     54  C   UNL A   1      47.011  29.642  31.095  1.00  0.00     0.031 C 
ATOM     55  C   UNL A   1      46.733  27.402  30.060  1.00  0.00     0.031 A 
BRANCH  42  56
ATOM     56  C   UNL A   1      42.542  23.540  27.672  1.00  0.00    -0.014 A 
ATOM     57  C   UNL A   1      42.214  22.457  28.508  1.00  0.00     0.010 A 
ATOM     58  C   UNL A   1      42.735  23.307  26.298  1.00  0.00     0.010 A 
ATOM     59  C   UNL A   1      42.108  21.163  27.988  1.00  0.00     0.020 A 
ATOM     60  C   UNL A   1      42.603  22.019  25.769  1.00  0.00     0.020 A 
ATOM     61  C   UNL A   1      42.312  20.952  26.621  1.00  0.00     0.054 A 
BRANCH  61  62
ATOM     62  S   UNL A   1      42.187  19.265  25.964  1.00  0.00     0.124 S 
ATOM     63  O   UNL A   1      42.694  18.462  27.073  1.00  0.00    -0.237 OA
ATOM     64  O   UNL A   1      40.759  19.133  25.687  1.00  0.00    -0.237 OA
ATOM     65  O   UNL A   1      43.040  19.298  24.777  1.00  0.00    -0.744 OA
ENDBRANCH  61  62
ENDBRANCH  42  56
BRANCH  43  66
ATOM     66  C   UNL A   1      43.984  32.565  31.696  1.00  0.00    -0.014 A 
ATOM     67  C   UNL A   1      43.830  32.803  33.076  1.00  0.00     0.010 A 
ATOM     68  C   UNL A   1      44.193  33.654  30.833  1.00  0.00     0.010 A 
ATOM     69  C   UNL A   1      43.811  34.109  33.570  1.00  0.00     0.020 A 
ATOM     70  C   UNL A   1      44.201  34.961  31.329  1.00  0.00     0.020 A 
ATOM     71  C   UNL A   1      43.974  35.181  32.689  1.00  0.00     0.054 A 
BRANCH  71  72
ATOM     72  S   UNL A   1      43.846  36.871  33.338  1.00  0.00     0.124 S 
ATOM     73  O   UNL A   1      42.563  36.827  34.037  1.00  0.00    -0.237 OA
ATOM     74  O   UNL A   1      45.025  36.977  34.193  1.00  0.00    -0.237 OA
ATOM     75  O   UNL A   1      43.873  37.702  32.137  1.00  0.00    -0.744 OA
ENDBRANCH  71  72
ENDBRANCH  43  66
BRANCH  55  76
ATOM     76  C   UNL A   1      48.207  27.141  30.251  1.00  0.00    -0.014 A 
ATOM     77  C   UNL A   1      48.665  26.572  31.455  1.00  0.00     0.010 A 
ATOM     78  C   UNL A   1      49.146  27.596  29.309  1.00  0.00     0.010 A 
ATOM     79  C   UNL A   1      50.033  26.506  31.733  1.00  0.00     0.020 A 
ATOM     80  C   UNL A   1      50.516  27.504  29.571  1.00  0.00     0.020 A 
ATOM     81  C   UNL A   1      50.950  26.987  30.795  1.00  0.00     0.054 A 
BRANCH  81  82
ATOM     82  S   UNL A   1      52.719  26.940  31.196  1.00  0.00     0.124 S 
ATOM     83  O   UNL A   1      52.772  25.912  32.230  1.00  0.00    -0.237 OA
ATOM     84  O   UNL A   1      53.330  26.582  29.919  1.00  0.00    -0.237 OA
ATOM     85  O   UNL A   1      53.002  28.300  31.654  1.00  0.00    -0.744 OA
ENDBRANCH  81  82
ENDBRANCH  55  76
ENDBRANCH  29  30
ENDBRANCH  22  24
ENDBRANCH  21  22
ENDBRANCH  20  21
ENDBRANCH   1  20
TORSDOF 18
ENDMDL
