MODEL 1
REMARK VINA RESULT:     -11.6      0.000      0.000
REMARK SMILES COc1ccc(C(=O)OCCOC(=O)c2ccc(-c3c4nc(c(-c5ccc(S(=O)(=O)[O-])cc5)c5ccc([nH]5)c(-c5ccc(S(=O)(=O)[O-])cc5)c5nc(c(-c6ccc(S(=O)(=O)[O-])cc6)c6ccc3[nH]6)C=C5)C=C4)cc2)cc1NC(=O)c1cc([N+](=O)[O-])ccc1Cl
REMARK SMILES IDX 10 1 9 2 7 3 8 4 6 5 3 6 4 7 76 8 5 9 75 10 2 11 1 12 77 13
REMARK SMILES IDX 78 14 79 16 80 17 81 18 88 19 82 20 87 21 89 22 86 23 83 24
REMARK SMILES IDX 84 25 85 26 11 27 12 28 13 29 14 30 15 31 16 32 74 33 17 34
REMARK SMILES IDX 73 35 18 36 19 37 20 38 67 39 21 40 72 41 66 42 68 43 22 44
REMARK SMILES IDX 71 45 65 46 64 47 23 49 53 50 34 51 52 52 35 53 38 54 51 55
REMARK SMILES IDX 69 56 36 57 37 58 50 60 70 61 39 62 24 63 25 64 33 65 26 66
REMARK SMILES IDX 32 67 27 68 28 69 29 70 30 71 31 72 54 73 55 74 63 75 56 76
REMARK SMILES IDX 62 77 57 78 58 79 59 80 60 81 61 82 40 83 41 84 49 85 42 86
REMARK SMILES IDX 48 87 43 88 44 89 45 90 46 91 47 92
REMARK H PARENT 77 15 68 48 38 59
REMARK Flexibility Score: inf
ROOT
ATOM      1  C   UNL A   1      34.563  31.585  27.706  1.00  0.00     0.275 C 
ENDROOT
BRANCH   1   2
ATOM      2  O   UNL A   1      33.662  30.471  27.530  1.00  0.00    -0.458 OA
BRANCH   2   3
ATOM      3  C   UNL A   1      34.163  29.390  26.877  1.00  0.00     0.338 C 
ATOM      4  O   UNL A   1      35.150  28.753  27.198  1.00  0.00    -0.246 OA
BRANCH   3   5
ATOM      5  C   UNL A   1      33.352  29.051  25.674  1.00  0.00     0.062 A 
ATOM      6  C   UNL A   1      31.747  27.996  23.670  1.00  0.00     0.142 A 
ATOM      7  C   UNL A   1      31.195  28.889  24.587  1.00  0.00     0.049 A 
ATOM      8  C   UNL A   1      33.105  27.645  23.730  1.00  0.00     0.084 A 
ATOM      9  C   UNL A   1      31.981  29.338  25.645  1.00  0.00     0.019 A 
ATOM     10  C   UNL A   1      33.920  28.307  24.642  1.00  0.00     0.045 A 
BRANCH   6  11
ATOM     11  O   UNL A   1      30.939  27.433  22.714  1.00  0.00    -0.495 OA
ATOM     12  C   UNL A   1      29.625  27.207  23.230  1.00  0.00     0.278 C 
ENDBRANCH   6  11
BRANCH   8  13
ATOM     13  N   UNL A   1      33.524  26.539  22.960  1.00  0.00    -0.319 N 
ATOM     14  C   UNL A   1      33.594  25.191  23.238  1.00  0.00     0.257 C 
ATOM     15  H   UNL A   1      33.825  26.776  22.053  1.00  0.00     0.170 HD
ATOM     16  O   UNL A   1      33.896  24.384  22.360  1.00  0.00    -0.269 OA
BRANCH  14  17
ATOM     17  C   UNL A   1      33.370  24.658  24.591  1.00  0.00     0.065 A 
ATOM     18  C   UNL A   1      32.046  24.708  25.050  1.00  0.00     0.101 A 
ATOM     19  C   UNL A   1      34.376  24.075  25.377  1.00  0.00     0.054 A 
ATOM     20  C   UNL A   1      31.719  24.095  26.263  1.00  0.00     0.270 A 
ATOM     21  C   UNL A   1      34.027  23.434  26.574  1.00  0.00     0.028 A 
ATOM     22  Cl  UNL A   1      36.034  24.052  24.901  1.00  0.00    -0.083 Cl
ATOM     23  C   UNL A   1      32.698  23.431  27.014  1.00  0.00     0.087 A 
BRANCH  20  24
ATOM     24  N   UNL A   1      30.333  24.139  26.745  1.00  0.00     0.062 N 
ATOM     25  O   UNL A   1      29.927  23.181  27.416  1.00  0.00    -0.258 OA
ATOM     26  O   UNL A   1      29.651  25.127  26.438  1.00  0.00    -0.258 OA
ENDBRANCH  20  24
ENDBRANCH  14  17
ENDBRANCH   8  13
ENDBRANCH   3   5
ENDBRANCH   2   3
ENDBRANCH   1   2
BRANCH   1  27
ATOM     27  C   UNL A   1      34.838  31.848  29.187  1.00  0.00     0.275 C 
BRANCH  27  28
ATOM     28  O   UNL A   1      36.238  31.699  29.474  1.00  0.00    -0.458 OA
BRANCH  28  29
ATOM     29  C   UNL A   1      36.538  30.652  30.277  1.00  0.00     0.338 C 
ATOM     30  O   UNL A   1      35.861  30.196  31.184  1.00  0.00    -0.246 OA
BRANCH  29  31
ATOM     31  C   UNL A   1      37.754  29.996  29.789  1.00  0.00     0.060 A 
ATOM     32  C   UNL A   1      38.605  29.453  30.744  1.00  0.00     0.016 A 
ATOM     33  C   UNL A   1      38.136  30.042  28.455  1.00  0.00     0.016 A 
ATOM     34  C   UNL A   1      39.881  29.038  30.409  1.00  0.00     0.010 A 
ATOM     35  C   UNL A   1      39.391  29.536  28.096  1.00  0.00     0.010 A 
ATOM     36  C   UNL A   1      40.289  29.062  29.075  1.00  0.00    -0.014 A 
BRANCH  36  37
ATOM     37  C   UNL A   1      41.673  28.653  28.728  1.00  0.00     0.031 A 
ATOM     38  C   UNL A   1      42.791  29.651  28.837  1.00  0.00     0.074 A 
ATOM     39  C   UNL A   1      41.932  27.384  28.352  1.00  0.00     0.049 A 
ATOM     40  N   UNL A   1      44.030  29.552  28.432  1.00  0.00    -0.248 NA
ATOM     41  C   UNL A   1      42.466  30.940  29.471  1.00  0.00     0.031 C 
ATOM     42  C   UNL A   1      40.950  26.295  28.297  1.00  0.00     0.029 A 
ATOM     43  N   UNL A   1      43.103  26.790  27.959  1.00  0.00    -0.354 N 
ATOM     44  C   UNL A   1      44.612  30.788  28.696  1.00  0.00     0.074 A 
ATOM     45  C   UNL A   1      43.587  31.620  29.288  1.00  0.00     0.031 C 
ATOM     46  C   UNL A   1      41.571  25.161  27.939  1.00  0.00     0.029 A 
ATOM     47  C   UNL A   1      42.964  25.461  27.637  1.00  0.00     0.049 A 
ATOM     48  H   UNL A   1      43.962  27.270  27.913  1.00  0.00     0.167 HD
ATOM     49  C   UNL A   1      45.883  31.190  28.454  1.00  0.00     0.031 A 
ATOM     50  C   UNL A   1      43.846  24.590  27.113  1.00  0.00     0.031 A 
ATOM     51  C   UNL A   1      46.894  30.337  27.885  1.00  0.00     0.049 A 
ATOM     52  C   UNL A   1      45.226  25.076  26.780  1.00  0.00     0.074 A 
ATOM     53  C   UNL A   1      48.215  30.632  27.606  1.00  0.00     0.029 A 
ATOM     54  N   UNL A   1      46.692  29.015  27.508  1.00  0.00    -0.354 N 
ATOM     55  N   UNL A   1      45.752  26.261  26.983  1.00  0.00    -0.248 NA
ATOM     56  C   UNL A   1      46.127  24.114  26.135  1.00  0.00     0.031 C 
ATOM     57  C   UNL A   1      48.795  29.510  27.003  1.00  0.00     0.029 A 
ATOM     58  C   UNL A   1      47.856  28.491  26.972  1.00  0.00     0.049 A 
ATOM     59  H   UNL A   1      45.845  28.524  27.608  1.00  0.00     0.167 HD
ATOM     60  C   UNL A   1      47.055  26.183  26.510  1.00  0.00     0.074 A 
ATOM     61  C   UNL A   1      47.239  24.828  26.025  1.00  0.00     0.031 C 
ATOM     62  C   UNL A   1      48.014  27.141  26.484  1.00  0.00     0.031 A 
BRANCH  49  63
ATOM     63  C   UNL A   1      46.217  32.635  28.733  1.00  0.00    -0.014 A 
ATOM     64  C   UNL A   1      46.705  33.062  29.982  1.00  0.00     0.010 A 
ATOM     65  C   UNL A   1      46.010  33.593  27.722  1.00  0.00     0.010 A 
ATOM     66  C   UNL A   1      46.908  34.423  30.237  1.00  0.00     0.020 A 
ATOM     67  C   UNL A   1      46.246  34.949  27.961  1.00  0.00     0.020 A 
ATOM     68  C   UNL A   1      46.665  35.359  29.227  1.00  0.00     0.054 A 
BRANCH  68  69
ATOM     69  S   UNL A   1      46.904  37.119  29.591  1.00  0.00     0.124 S 
ATOM     70  O   UNL A   1      48.039  37.451  28.734  1.00  0.00    -0.237 OA
ATOM     71  O   UNL A   1      45.627  37.705  29.196  1.00  0.00    -0.237 OA
ATOM     72  O   UNL A   1      47.181  37.143  31.026  1.00  0.00    -0.744 OA
ENDBRANCH  68  69
ENDBRANCH  49  63
BRANCH  50  73
ATOM     73  C   UNL A   1      43.429  23.184  26.853  1.00  0.00    -0.014 A 
ATOM     74  C   UNL A   1      43.639  22.606  25.589  1.00  0.00     0.010 A 
ATOM     75  C   UNL A   1      42.876  22.397  27.880  1.00  0.00     0.010 A 
ATOM     76  C   UNL A   1      43.312  21.267  25.360  1.00  0.00     0.020 A 
ATOM     77  C   UNL A   1      42.577  21.049  27.665  1.00  0.00     0.020 A 
ATOM     78  C   UNL A   1      42.795  20.493  26.403  1.00  0.00     0.054 A 
BRANCH  78  79
ATOM     79  S   UNL A   1      42.467  18.735  26.104  1.00  0.00     0.124 S 
ATOM     80  O   UNL A   1      41.063  18.749  25.705  1.00  0.00    -0.237 OA
ATOM     81  O   UNL A   1      43.421  18.413  25.046  1.00  0.00    -0.237 OA
ATOM     82  O   UNL A   1      42.746  18.108  27.394  1.00  0.00    -0.744 OA
ENDBRANCH  78  79
ENDBRANCH  50  73
BRANCH  62  83
ATOM     83  C   UNL A   1      49.363  26.746  25.946  1.00  0.00    -0.014 A 
ATOM     84  C   UNL A   1      49.749  27.063  24.632  1.00  0.00     0.010 A 
ATOM     85  C   UNL A   1      50.274  26.087  26.791  1.00  0.00     0.010 A 
ATOM     86  C   UNL A   1      51.013  26.695  24.161  1.00  0.00     0.020 A 
ATOM     87  C   UNL A   1      51.549  25.748  26.335  1.00  0.00     0.020 A 
ATOM     88  C   UNL A   1      51.905  26.042  25.017  1.00  0.00     0.054 A 
BRANCH  88  89
ATOM     89  S   UNL A   1      53.555  25.616  24.397  1.00  0.00     0.124 S 
ATOM     90  O   UNL A   1      54.399  26.587  25.086  1.00  0.00    -0.237 OA
ATOM     91  O   UNL A   1      53.710  24.229  24.829  1.00  0.00    -0.237 OA
ATOM     92  O   UNL A   1      53.442  25.802  22.952  1.00  0.00    -0.744 OA
ENDBRANCH  88  89
ENDBRANCH  62  83
ENDBRANCH  36  37
ENDBRANCH  29  31
ENDBRANCH  28  29
ENDBRANCH  27  28
ENDBRANCH   1  27
TORSDOF 18
ENDMDL
MODEL 2
REMARK VINA RESULT:     -11.4      1.286      2.104
REMARK SMILES COc1ccc(C(=O)OCCOC(=O)c2ccc(-c3c4nc(c(-c5ccc(S(=O)(=O)[O-])cc5)c5ccc([nH]5)c(-c5ccc(S(=O)(=O)[O-])cc5)c5nc(c(-c6ccc(S(=O)(=O)[O-])cc6)c6ccc3[nH]6)C=C5)C=C4)cc2)cc1NC(=O)c1cc([N+](=O)[O-])ccc1Cl
REMARK SMILES IDX 10 1 9 2 7 3 8 4 6 5 3 6 4 7 76 8 5 9 75 10 2 11 1 12 77 13
REMARK SMILES IDX 78 14 79 16 80 17 81 18 88 19 82 20 87 21 89 22 86 23 83 24
REMARK SMILES IDX 84 25 85 26 11 27 12 28 13 29 14 30 15 31 16 32 74 33 17 34
REMARK SMILES IDX 73 35 18 36 19 37 20 38 67 39 21 40 72 41 66 42 68 43 22 44
REMARK SMILES IDX 71 45 65 46 64 47 23 49 53 50 34 51 52 52 35 53 38 54 51 55
REMARK SMILES IDX 69 56 36 57 37 58 50 60 70 61 39 62 24 63 25 64 33 65 26 66
REMARK SMILES IDX 32 67 27 68 28 69 29 70 30 71 31 72 54 73 55 74 63 75 56 76
REMARK SMILES IDX 62 77 57 78 58 79 59 80 60 81 61 82 40 83 41 84 49 85 42 86
REMARK SMILES IDX 48 87 43 88 44 89 45 90 46 91 47 92
REMARK H PARENT 77 15 68 48 38 59
REMARK Flexibility Score: inf
ROOT
ATOM      1  C   UNL A   1      34.844  31.992  27.709  1.00  0.00     0.275 C 
ENDROOT
BRANCH   1   2
ATOM      2  O   UNL A   1      33.824  31.027  27.378  1.00  0.00    -0.458 OA
BRANCH   2   3
ATOM      3  C   UNL A   1      34.252  29.762  27.124  1.00  0.00     0.338 C 
ATOM      4  O   UNL A   1      35.298  29.270  27.506  1.00  0.00    -0.246 OA
BRANCH   3   5
ATOM      5  C   UNL A   1      33.274  29.009  26.291  1.00  0.00     0.062 A 
ATOM      6  C   UNL A   1      31.128  27.713  25.097  1.00  0.00     0.142 A 
ATOM      7  C   UNL A   1      31.452  29.008  24.697  1.00  0.00     0.049 A 
ATOM      8  C   UNL A   1      31.887  27.048  26.074  1.00  0.00     0.084 A 
ATOM      9  C   UNL A   1      32.467  29.686  25.366  1.00  0.00     0.019 A 
ATOM     10  C   UNL A   1      33.047  27.657  26.539  1.00  0.00     0.045 A 
BRANCH   6  11
ATOM     11  O   UNL A   1      30.034  27.095  24.546  1.00  0.00    -0.495 OA
ATOM     12  C   UNL A   1      29.578  27.806  23.393  1.00  0.00     0.278 C 
ENDBRANCH   6  11
BRANCH   8  13
ATOM     13  N   UNL A   1      31.344  25.868  26.626  1.00  0.00    -0.319 N 
ATOM     14  C   UNL A   1      31.626  24.535  26.420  1.00  0.00     0.257 C 
ATOM     15  H   UNL A   1      30.627  26.028  27.281  1.00  0.00     0.170 HD
ATOM     16  O   UNL A   1      31.088  23.666  27.105  1.00  0.00    -0.269 OA
BRANCH  14  17
ATOM     17  C   UNL A   1      32.527  24.081  25.349  1.00  0.00     0.065 A 
ATOM     18  C   UNL A   1      33.878  23.955  25.707  1.00  0.00     0.101 A 
ATOM     19  C   UNL A   1      32.095  23.730  24.061  1.00  0.00     0.054 A 
ATOM     20  C   UNL A   1      34.778  23.395  24.796  1.00  0.00     0.270 A 
ATOM     21  C   UNL A   1      33.002  23.139  23.170  1.00  0.00     0.028 A 
ATOM     22  Cl  UNL A   1      30.465  23.935  23.538  1.00  0.00    -0.083 Cl
ATOM     23  C   UNL A   1      34.341  22.958  23.538  1.00  0.00     0.087 A 
BRANCH  20  24
ATOM     24  N   UNL A   1      36.191  23.256  25.168  1.00  0.00     0.062 N 
ATOM     25  O   UNL A   1      36.451  23.005  26.352  1.00  0.00    -0.258 OA
ATOM     26  O   UNL A   1      37.036  23.414  24.276  1.00  0.00    -0.258 OA
ENDBRANCH  20  24
ENDBRANCH  14  17
ENDBRANCH   8  13
ENDBRANCH   3   5
ENDBRANCH   2   3
ENDBRANCH   1   2
BRANCH   1  27
ATOM     27  C   UNL A   1      34.905  32.244  29.216  1.00  0.00     0.275 C 
BRANCH  27  28
ATOM     28  O   UNL A   1      36.264  32.198  29.681  1.00  0.00    -0.458 OA
BRANCH  28  29
ATOM     29  C   UNL A   1      36.543  31.157  30.499  1.00  0.00     0.338 C 
ATOM     30  O   UNL A   1      35.857  30.728  31.413  1.00  0.00    -0.246 OA
BRANCH  29  31
ATOM     31  C   UNL A   1      37.744  30.470  30.020  1.00  0.00     0.060 A 
ATOM     32  C   UNL A   1      38.587  29.925  30.981  1.00  0.00     0.016 A 
ATOM     33  C   UNL A   1      38.125  30.487  28.684  1.00  0.00     0.016 A 
ATOM     34  C   UNL A   1      39.854  29.480  30.651  1.00  0.00     0.010 A 
ATOM     35  C   UNL A   1      39.369  29.950  28.331  1.00  0.00     0.010 A 
ATOM     36  C   UNL A   1      40.259  29.474  29.317  1.00  0.00    -0.014 A 
BRANCH  36  37
ATOM     37  C   UNL A   1      41.634  29.033  28.974  1.00  0.00     0.031 A 
ATOM     38  C   UNL A   1      42.779  29.997  29.110  1.00  0.00     0.074 A 
ATOM     39  C   UNL A   1      41.860  27.764  28.578  1.00  0.00     0.049 A 
ATOM     40  N   UNL A   1      44.018  29.871  28.713  1.00  0.00    -0.248 NA
ATOM     41  C   UNL A   1      42.484  31.283  29.764  1.00  0.00     0.031 C 
ATOM     42  C   UNL A   1      40.850  26.704  28.495  1.00  0.00     0.029 A 
ATOM     43  N   UNL A   1      43.018  27.145  28.184  1.00  0.00    -0.354 N 
ATOM     44  C   UNL A   1      44.632  31.085  29.004  1.00  0.00     0.074 A 
ATOM     45  C   UNL A   1      43.625  31.935  29.602  1.00  0.00     0.031 C 
ATOM     46  C   UNL A   1      41.441  25.560  28.122  1.00  0.00     0.029 A 
ATOM     47  C   UNL A   1      42.845  25.825  27.837  1.00  0.00     0.049 A 
ATOM     48  H   UNL A   1      43.890  27.601  28.153  1.00  0.00     0.167 HD
ATOM     49  C   UNL A   1      45.916  31.455  28.780  1.00  0.00     0.031 A 
ATOM     50  C   UNL A   1      43.707  24.940  27.304  1.00  0.00     0.031 A 
ATOM     51  C   UNL A   1      46.907  30.584  28.204  1.00  0.00     0.049 A 
ATOM     52  C   UNL A   1      45.103  25.392  26.992  1.00  0.00     0.074 A 
ATOM     53  C   UNL A   1      48.239  30.847  27.941  1.00  0.00     0.029 A 
ATOM     54  N   UNL A   1      46.671  29.275  27.801  1.00  0.00    -0.354 N 
ATOM     55  N   UNL A   1      45.660  26.558  27.220  1.00  0.00    -0.248 NA
ATOM     56  C   UNL A   1      45.982  24.417  26.337  1.00  0.00     0.031 C 
ATOM     57  C   UNL A   1      48.792  29.719  27.323  1.00  0.00     0.029 A 
ATOM     58  C   UNL A   1      47.825  28.728  27.266  1.00  0.00     0.049 A 
ATOM     59  H   UNL A   1      45.810  28.806  27.886  1.00  0.00     0.167 HD
ATOM     60  C   UNL A   1      46.965  26.451  26.757  1.00  0.00     0.074 A 
ATOM     61  C   UNL A   1      47.115  25.101  26.249  1.00  0.00     0.031 C 
ATOM     62  C   UNL A   1      47.950  27.383  26.756  1.00  0.00     0.031 A 
BRANCH  49  63
ATOM     63  C   UNL A   1      46.287  32.885  29.087  1.00  0.00    -0.014 A 
ATOM     64  C   UNL A   1      46.924  33.250  30.288  1.00  0.00     0.010 A 
ATOM     65  C   UNL A   1      45.965  33.891  28.157  1.00  0.00     0.010 A 
ATOM     66  C   UNL A   1      47.162  34.597  30.583  1.00  0.00     0.020 A 
ATOM     67  C   UNL A   1      46.234  35.234  28.431  1.00  0.00     0.020 A 
ATOM     68  C   UNL A   1      46.804  35.582  29.656  1.00  0.00     0.054 A 
BRANCH  68  69
ATOM     69  S   UNL A   1      47.093  37.322  30.075  1.00  0.00     0.124 S 
ATOM     70  O   UNL A   1      46.029  37.578  31.044  1.00  0.00    -0.237 OA
ATOM     71  O   UNL A   1      48.446  37.301  30.621  1.00  0.00    -0.237 OA
ATOM     72  O   UNL A   1      46.950  38.016  28.798  1.00  0.00    -0.744 OA
ENDBRANCH  68  69
ENDBRANCH  49  63
BRANCH  50  73
ATOM     73  C   UNL A   1      43.253  23.551  27.016  1.00  0.00    -0.014 A 
ATOM     74  C   UNL A   1      43.144  23.103  25.688  1.00  0.00     0.010 A 
ATOM     75  C   UNL A   1      42.985  22.650  28.064  1.00  0.00     0.010 A 
ATOM     76  C   UNL A   1      42.784  21.781  25.414  1.00  0.00     0.020 A 
ATOM     77  C   UNL A   1      42.656  21.319  27.795  1.00  0.00     0.020 A 
ATOM     78  C   UNL A   1      42.555  20.894  26.469  1.00  0.00     0.054 A 
BRANCH  78  79
ATOM     79  S   UNL A   1      42.181  19.161  26.085  1.00  0.00     0.124 S 
ATOM     80  O   UNL A   1      40.746  19.209  25.824  1.00  0.00    -0.237 OA
ATOM     81  O   UNL A   1      43.027  18.907  24.922  1.00  0.00    -0.237 OA
ATOM     82  O   UNL A   1      42.574  18.447  27.298  1.00  0.00    -0.744 OA
ENDBRANCH  78  79
ENDBRANCH  50  73
BRANCH  62  83
ATOM     83  C   UNL A   1      49.292  26.960  26.222  1.00  0.00    -0.014 A 
ATOM     84  C   UNL A   1      50.236  26.315  27.038  1.00  0.00     0.010 A 
ATOM     85  C   UNL A   1      49.589  27.173  24.863  1.00  0.00     0.010 A 
ATOM     86  C   UNL A   1      51.470  25.921  26.513  1.00  0.00     0.020 A 
ATOM     87  C   UNL A   1      50.807  26.751  24.327  1.00  0.00     0.020 A 
ATOM     88  C   UNL A   1      51.746  26.140  25.160  1.00  0.00     0.054 A 
BRANCH  88  89
ATOM     89  S   UNL A   1      53.336  25.579  24.492  1.00  0.00     0.124 S 
ATOM     90  O   UNL A   1      53.367  24.182  24.914  1.00  0.00    -0.237 OA
ATOM     91  O   UNL A   1      53.174  25.799  23.057  1.00  0.00    -0.237 OA
ATOM     92  O   UNL A   1      54.312  26.449  25.143  1.00  0.00    -0.744 OA
ENDBRANCH  88  89
ENDBRANCH  62  83
ENDBRANCH  36  37
ENDBRANCH  29  31
ENDBRANCH  28  29
ENDBRANCH  27  28
ENDBRANCH   1  27
TORSDOF 18
ENDMDL
MODEL 3
REMARK VINA RESULT:     -11.2      1.478      8.288
REMARK SMILES COc1ccc(C(=O)OCCOC(=O)c2ccc(-c3c4nc(c(-c5ccc(S(=O)(=O)[O-])cc5)c5ccc([nH]5)c(-c5ccc(S(=O)(=O)[O-])cc5)c5nc(c(-c6ccc(S(=O)(=O)[O-])cc6)c6ccc3[nH]6)C=C5)C=C4)cc2)cc1NC(=O)c1cc([N+](=O)[O-])ccc1Cl
REMARK SMILES IDX 10 1 9 2 7 3 8 4 6 5 3 6 4 7 76 8 5 9 75 10 2 11 1 12 77 13
REMARK SMILES IDX 78 14 79 16 80 17 81 18 88 19 82 20 87 21 89 22 86 23 83 24
REMARK SMILES IDX 84 25 85 26 11 27 12 28 13 29 14 30 15 31 16 32 74 33 17 34
REMARK SMILES IDX 73 35 18 36 19 37 20 38 67 39 21 40 72 41 66 42 68 43 22 44
REMARK SMILES IDX 71 45 65 46 64 47 23 49 53 50 34 51 52 52 35 53 38 54 51 55
REMARK SMILES IDX 69 56 36 57 37 58 50 60 70 61 39 62 24 63 25 64 33 65 26 66
REMARK SMILES IDX 32 67 27 68 28 69 29 70 30 71 31 72 54 73 55 74 63 75 56 76
REMARK SMILES IDX 62 77 57 78 58 79 59 80 60 81 61 82 40 83 41 84 49 85 42 86
REMARK SMILES IDX 48 87 43 88 44 89 45 90 46 91 47 92
REMARK H PARENT 77 15 68 48 38 59
REMARK Flexibility Score: inf
ROOT
ATOM      1  C   UNL A   1      35.035  31.623  27.696  1.00  0.00     0.275 C 
ENDROOT
BRANCH   1   2
ATOM      2  O   UNL A   1      34.010  30.610  27.626  1.00  0.00    -0.458 OA
BRANCH   2   3
ATOM      3  C   UNL A   1      34.421  29.363  27.272  1.00  0.00     0.338 C 
ATOM      4  O   UNL A   1      35.457  28.826  27.616  1.00  0.00    -0.246 OA
BRANCH   3   5
ATOM      5  C   UNL A   1      33.433  28.694  26.379  1.00  0.00     0.062 A 
ATOM      6  C   UNL A   1      31.260  27.591  25.049  1.00  0.00     0.142 A 
ATOM      7  C   UNL A   1      31.737  28.841  24.658  1.00  0.00     0.049 A 
ATOM      8  C   UNL A   1      31.879  26.874  26.085  1.00  0.00     0.084 A 
ATOM      9  C   UNL A   1      32.764  29.430  25.391  1.00  0.00     0.019 A 
ATOM     10  C   UNL A   1      33.058  27.375  26.625  1.00  0.00     0.045 A 
BRANCH   6  11
ATOM     11  O   UNL A   1      30.153  27.073  24.428  1.00  0.00    -0.495 OA
ATOM     12  C   UNL A   1      29.577  28.031  23.536  1.00  0.00     0.278 C 
ENDBRANCH   6  11
BRANCH   8  13
ATOM     13  N   UNL A   1      31.185  25.762  26.609  1.00  0.00    -0.319 N 
ATOM     14  C   UNL A   1      31.374  24.404  26.472  1.00  0.00     0.257 C 
ATOM     15  H   UNL A   1      30.421  26.003  27.182  1.00  0.00     0.170 HD
ATOM     16  O   UNL A   1      30.698  23.607  27.121  1.00  0.00    -0.269 OA
BRANCH  14  17
ATOM     17  C   UNL A   1      32.339  23.840  25.514  1.00  0.00     0.065 A 
ATOM     18  C   UNL A   1      33.604  23.535  26.038  1.00  0.00     0.101 A 
ATOM     19  C   UNL A   1      32.034  23.555  24.175  1.00  0.00     0.054 A 
ATOM     20  C   UNL A   1      34.533  22.866  25.237  1.00  0.00     0.270 A 
ATOM     21  C   UNL A   1      32.963  22.853  23.394  1.00  0.00     0.028 A 
ATOM     22  Cl  UNL A   1      30.525  23.976  23.453  1.00  0.00    -0.083 Cl
ATOM     23  C   UNL A   1      34.209  22.496  23.925  1.00  0.00     0.087 A 
BRANCH  20  24
ATOM     24  N   UNL A   1      35.856  22.540  25.782  1.00  0.00     0.062 N 
ATOM     25  O   UNL A   1      36.636  23.478  25.997  1.00  0.00    -0.258 OA
ATOM     26  O   UNL A   1      36.117  21.345  25.977  1.00  0.00    -0.258 OA
ENDBRANCH  20  24
ENDBRANCH  14  17
ENDBRANCH   8  13
ENDBRANCH   3   5
ENDBRANCH   2   3
ENDBRANCH   1   2
BRANCH   1  27
ATOM     27  C   UNL A   1      35.315  32.032  29.143  1.00  0.00     0.275 C 
BRANCH  27  28
ATOM     28  O   UNL A   1      36.711  31.887  29.447  1.00  0.00    -0.458 OA
BRANCH  28  29
ATOM     29  C   UNL A   1      37.019  30.778  30.159  1.00  0.00     0.338 C 
ATOM     30  O   UNL A   1      36.354  30.252  31.036  1.00  0.00    -0.246 OA
BRANCH  29  31
ATOM     31  C   UNL A   1      38.224  30.160  29.600  1.00  0.00     0.060 A 
ATOM     32  C   UNL A   1      39.246  29.851  30.490  1.00  0.00     0.016 A 
ATOM     33  C   UNL A   1      38.422  30.025  28.233  1.00  0.00     0.016 A 
ATOM     34  C   UNL A   1      40.504  29.499  30.038  1.00  0.00     0.010 A 
ATOM     35  C   UNL A   1      39.667  29.577  27.773  1.00  0.00     0.010 A 
ATOM     36  C   UNL A   1      40.730  29.345  28.670  1.00  0.00    -0.014 A 
BRANCH  36  37
ATOM     37  C   UNL A   1      42.093  29.006  28.189  1.00  0.00     0.031 A 
ATOM     38  C   UNL A   1      42.393  27.605  27.736  1.00  0.00     0.074 A 
ATOM     39  C   UNL A   1      43.045  29.958  28.124  1.00  0.00     0.049 A 
ATOM     40  N   UNL A   1      43.544  27.061  27.439  1.00  0.00    -0.248 NA
ATOM     41  C   UNL A   1      41.247  26.688  27.621  1.00  0.00     0.031 C 
ATOM     42  C   UNL A   1      42.856  31.377  28.444  1.00  0.00     0.029 A 
ATOM     43  N   UNL A   1      44.362  29.880  27.751  1.00  0.00    -0.354 N 
ATOM     44  C   UNL A   1      43.270  25.724  27.171  1.00  0.00     0.074 A 
ATOM     45  C   UNL A   1      41.846  25.540  27.350  1.00  0.00     0.031 C 
ATOM     46  C   UNL A   1      43.998  32.038  28.210  1.00  0.00     0.029 A 
ATOM     47  C   UNL A   1      45.027  31.081  27.827  1.00  0.00     0.049 A 
ATOM     48  H   UNL A   1      44.790  29.043  27.456  1.00  0.00     0.167 HD
ATOM     49  C   UNL A   1      44.133  24.740  26.818  1.00  0.00     0.031 A 
ATOM     50  C   UNL A   1      46.330  31.373  27.654  1.00  0.00     0.031 A 
ATOM     51  C   UNL A   1      45.544  24.952  26.623  1.00  0.00     0.049 A 
ATOM     52  C   UNL A   1      47.282  30.257  27.341  1.00  0.00     0.074 A 
ATOM     53  C   UNL A   1      46.511  24.035  26.255  1.00  0.00     0.029 A 
ATOM     54  N   UNL A   1      46.190  26.173  26.779  1.00  0.00    -0.354 N 
ATOM     55  N   UNL A   1      47.023  28.986  27.142  1.00  0.00    -0.248 NA
ATOM     56  C   UNL A   1      48.703  30.610  27.243  1.00  0.00     0.031 C 
ATOM     57  C   UNL A   1      47.750  24.686  26.250  1.00  0.00     0.029 A 
ATOM     58  C   UNL A   1      47.547  26.025  26.544  1.00  0.00     0.049 A 
ATOM     59  H   UNL A   1      45.747  27.017  27.020  1.00  0.00     0.167 HD
ATOM     60  C   UNL A   1      48.247  28.388  26.873  1.00  0.00     0.074 A 
ATOM     61  C   UNL A   1      49.243  29.442  26.921  1.00  0.00     0.031 C 
ATOM     62  C   UNL A   1      48.522  27.087  26.606  1.00  0.00     0.031 A 
BRANCH  49  63
ATOM     63  C   UNL A   1      43.579  23.342  26.704  1.00  0.00    -0.014 A 
ATOM     64  C   UNL A   1      43.234  22.580  27.836  1.00  0.00     0.010 A 
ATOM     65  C   UNL A   1      43.425  22.769  25.427  1.00  0.00     0.010 A 
ATOM     66  C   UNL A   1      42.818  21.251  27.695  1.00  0.00     0.020 A 
ATOM     67  C   UNL A   1      42.975  21.454  25.281  1.00  0.00     0.020 A 
ATOM     68  C   UNL A   1      42.703  20.693  26.418  1.00  0.00     0.054 A 
BRANCH  68  69
ATOM     69  S   UNL A   1      42.193  18.960  26.264  1.00  0.00     0.124 S 
ATOM     70  O   UNL A   1      40.833  19.092  25.748  1.00  0.00    -0.237 OA
ATOM     71  O   UNL A   1      43.171  18.420  25.325  1.00  0.00    -0.237 OA
ATOM     72  O   UNL A   1      42.293  18.446  27.628  1.00  0.00    -0.744 OA
ENDBRANCH  68  69
ENDBRANCH  49  63
BRANCH  50  73
ATOM     73  C   UNL A   1      46.796  32.780  27.802  1.00  0.00    -0.014 A 
ATOM     74  C   UNL A   1      47.029  33.571  26.664  1.00  0.00     0.010 A 
ATOM     75  C   UNL A   1      46.954  33.354  29.077  1.00  0.00     0.010 A 
ATOM     76  C   UNL A   1      47.401  34.912  26.798  1.00  0.00     0.020 A 
ATOM     77  C   UNL A   1      47.295  34.702  29.216  1.00  0.00     0.020 A 
ATOM     78  C   UNL A   1      47.519  35.472  28.073  1.00  0.00     0.054 A 
BRANCH  78  79
ATOM     79  S   UNL A   1      47.911  37.237  28.216  1.00  0.00     0.124 S 
ATOM     80  O   UNL A   1      48.019  37.409  29.662  1.00  0.00    -0.237 OA
ATOM     81  O   UNL A   1      49.164  37.342  27.472  1.00  0.00    -0.237 OA
ATOM     82  O   UNL A   1      46.767  37.896  27.590  1.00  0.00    -0.744 OA
ENDBRANCH  78  79
ENDBRANCH  50  73
BRANCH  62  83
ATOM     83  C   UNL A   1      49.955  26.738  26.307  1.00  0.00    -0.014 A 
ATOM     84  C   UNL A   1      50.836  26.322  27.320  1.00  0.00     0.010 A 
ATOM     85  C   UNL A   1      50.411  26.784  24.977  1.00  0.00     0.010 A 
ATOM     86  C   UNL A   1      52.159  25.992  27.013  1.00  0.00     0.020 A 
ATOM     87  C   UNL A   1      51.721  26.422  24.660  1.00  0.00     0.020 A 
ATOM     88  C   UNL A   1      52.592  26.042  25.684  1.00  0.00     0.054 A 
BRANCH  88  89
ATOM     89  S   UNL A   1      54.300  25.565  25.304  1.00  0.00     0.124 S 
ATOM     90  O   UNL A   1      54.550  26.292  24.063  1.00  0.00    -0.237 OA
ATOM     91  O   UNL A   1      55.032  26.046  26.473  1.00  0.00    -0.237 OA
ATOM     92  O   UNL A   1      54.233  24.111  25.172  1.00  0.00    -0.744 OA
ENDBRANCH  88  89
ENDBRANCH  62  83
ENDBRANCH  36  37
ENDBRANCH  29  31
ENDBRANCH  28  29
ENDBRANCH  27  28
ENDBRANCH   1  27
TORSDOF 18
ENDMDL
