MODEL 1
REMARK VINA RESULT:      -9.8      0.000      0.000
REMARK SMILES Cc1cc(F)c([C@@H](C)[N@@H+]2C[C@H](C)[C@H](C(=O)OCCOC(=O)c3ccc(-c4c5nc(c(-c6ccc(S(=O)(=O)[O-])cc6)c6ccc([nH]6)c(-c6ccc(S(=O)(=O)[O-])cc6)c6nc(c(-c7ccc(S(=O)(=O)[O-])cc7)c7ccc4[nH]7)C=C6)C=C5)cc3)C2)cc1F
REMARK SMILES IDX 18 1 17 2 16 3 14 4 15 5 13 6 9 7 10 8 82 9 11 11 12 12 7 13
REMARK SMILES IDX 8 14 6 15 1 16 2 17 3 18 84 19 4 20 83 21 85 22 5 23 19 24
REMARK SMILES IDX 20 25 21 26 22 27 23 28 81 29 24 30 80 31 25 32 26 33 27 34
REMARK SMILES IDX 74 35 28 36 79 37 73 38 75 39 29 40 78 41 72 42 71 43 30 45
REMARK SMILES IDX 60 46 41 47 59 48 42 49 45 50 58 51 76 52 43 53 44 54 57 56
REMARK SMILES IDX 77 57 46 58 31 59 32 60 40 61 33 62 39 63 34 64 35 65 36 66
REMARK SMILES IDX 37 67 38 68 61 69 62 70 70 71 63 72 69 73 64 74 65 75 66 76
REMARK SMILES IDX 67 77 68 78 47 79 48 80 56 81 49 82 55 83 50 84 51 85 52 86
REMARK SMILES IDX 53 87 54 88
REMARK H PARENT 9 10 75 44 45 55
REMARK Flexibility Score: inf
ROOT
ATOM      1  C   UNL A   1      33.470  32.793  27.836  1.00  0.00     0.275 C 
ENDROOT
BRANCH   1   2
ATOM      2  C   UNL A   1      33.822  33.989  28.725  1.00  0.00     0.274 C 
BRANCH   2   3
ATOM      3  O   UNL A   1      35.080  33.769  29.389  1.00  0.00    -0.462 OA
BRANCH   3   4
ATOM      4  C   UNL A   1      35.028  33.413  30.691  1.00  0.00     0.315 C 
ATOM      5  O   UNL A   1      34.031  32.950  31.237  1.00  0.00    -0.252 OA
BRANCH   4   6
ATOM      6  C   UNL A   1      36.316  33.638  31.453  1.00  0.00     0.162 C 
ATOM      7  N   UNL A   1      37.672  32.636  33.109  1.00  0.00    -0.328 N 
ATOM      8  C   UNL A   1      37.652  34.067  33.381  1.00  0.00     0.267 C 
ATOM      9  C   UNL A   1      36.791  32.308  32.002  1.00  0.00     0.278 C 
ATOM     10  H   UNL A   1      38.616  32.433  32.779  1.00  0.00     0.348 HD
ATOM     11  C   UNL A   1      36.464  34.644  32.599  1.00  0.00     0.061 C 
ATOM     12  C   UNL A   1      35.264  34.871  33.511  1.00  0.00     0.015 C 
BRANCH   7  13
ATOM     13  C   UNL A   1      37.789  31.701  34.225  1.00  0.00     0.215 C 
ATOM     14  C   UNL A   1      37.807  32.405  35.590  1.00  0.00     0.081 C 
BRANCH  13  15
ATOM     15  C   UNL A   1      38.913  30.681  34.111  1.00  0.00     0.048 A 
ATOM     16  C   UNL A   1      42.030  27.694  33.694  1.00  0.00     0.047 C 
ATOM     17  C   UNL A   1      40.957  28.729  33.816  1.00  0.00    -0.012 A 
ATOM     18  C   UNL A   1      41.132  29.821  34.668  1.00  0.00     0.046 A 
ATOM     19  C   UNL A   1      39.748  28.614  33.130  1.00  0.00     0.126 A 
ATOM     20  C   UNL A   1      40.116  30.766  34.822  1.00  0.00     0.132 A 
ATOM     21  C   UNL A   1      38.744  29.574  33.261  1.00  0.00     0.052 A 
ATOM     22  F   UNL A   1      39.529  27.561  32.330  1.00  0.00    -0.207 F 
ATOM     23  F   UNL A   1      40.344  31.759  35.689  1.00  0.00    -0.206 F 
ENDBRANCH  13  15
ENDBRANCH   7  13
ENDBRANCH   4   6
ENDBRANCH   3   4
ENDBRANCH   2   3
ENDBRANCH   1   2
BRANCH   1  24
ATOM     24  O   UNL A   1      34.635  32.019  27.496  1.00  0.00    -0.458 OA
BRANCH  24  25
ATOM     25  C   UNL A   1      34.550  30.688  27.751  1.00  0.00     0.338 C 
ATOM     26  O   UNL A   1      33.601  29.956  27.557  1.00  0.00    -0.246 OA
BRANCH  25  27
ATOM     27  C   UNL A   1      35.878  30.210  28.169  1.00  0.00     0.060 A 
ATOM     28  C   UNL A   1      36.092  29.698  29.447  1.00  0.00     0.016 A 
ATOM     29  C   UNL A   1      36.923  30.266  27.245  1.00  0.00     0.016 A 
ATOM     30  C   UNL A   1      37.374  29.275  29.803  1.00  0.00     0.010 A 
ATOM     31  C   UNL A   1      38.195  29.833  27.592  1.00  0.00     0.010 A 
ATOM     32  C   UNL A   1      38.433  29.354  28.881  1.00  0.00    -0.014 A 
BRANCH  32  33
ATOM     33  C   UNL A   1      39.799  28.925  29.246  1.00  0.00     0.031 A 
ATOM     34  C   UNL A   1      40.691  29.840  30.035  1.00  0.00     0.074 A 
ATOM     35  C   UNL A   1      40.237  27.725  28.827  1.00  0.00     0.049 A 
ATOM     36  N   UNL A   1      41.894  29.613  30.492  1.00  0.00    -0.248 NA
ATOM     37  C   UNL A   1      40.177  31.187  30.338  1.00  0.00     0.031 C 
ATOM     38  C   UNL A   1      39.464  26.791  28.006  1.00  0.00     0.029 A 
ATOM     39  N   UNL A   1      41.430  27.082  29.036  1.00  0.00    -0.354 N 
ATOM     40  C   UNL A   1      42.272  30.776  31.151  1.00  0.00     0.074 A 
ATOM     41  C   UNL A   1      41.199  31.730  30.984  1.00  0.00     0.031 C 
ATOM     42  C   UNL A   1      40.187  25.676  27.817  1.00  0.00     0.029 A 
ATOM     43  C   UNL A   1      41.480  25.828  28.479  1.00  0.00     0.049 A 
ATOM     44  H   UNL A   1      42.177  27.481  29.537  1.00  0.00     0.167 HD
ATOM     45  C   UNL A   1      43.404  31.009  31.857  1.00  0.00     0.031 A 
ATOM     46  C   UNL A   1      42.453  24.896  28.511  1.00  0.00     0.031 A 
ATOM     47  C   UNL A   1      44.462  30.046  32.008  1.00  0.00     0.049 A 
ATOM     48  C   UNL A   1      43.708  25.183  29.285  1.00  0.00     0.074 A 
ATOM     49  C   UNL A   1      45.625  30.161  32.748  1.00  0.00     0.029 A 
ATOM     50  N   UNL A   1      44.489  28.795  31.409  1.00  0.00    -0.354 N 
ATOM     51  N   UNL A   1      44.016  26.256  29.976  1.00  0.00    -0.248 NA
ATOM     52  C   UNL A   1      44.740  24.139  29.298  1.00  0.00     0.031 C 
ATOM     53  C   UNL A   1      46.383  29.006  32.547  1.00  0.00     0.029 A 
ATOM     54  C   UNL A   1      45.663  28.141  31.736  1.00  0.00     0.049 A 
ATOM     55  H   UNL A   1      43.778  28.428  30.835  1.00  0.00     0.167 HD
ATOM     56  C   UNL A   1      45.274  26.012  30.513  1.00  0.00     0.074 A 
ATOM     57  C   UNL A   1      45.660  24.683  30.086  1.00  0.00     0.031 C 
ATOM     58  C   UNL A   1      46.037  26.820  31.288  1.00  0.00     0.031 A 
BRANCH  45  59
ATOM     59  C   UNL A   1      43.553  32.339  32.550  1.00  0.00    -0.014 A 
ATOM     60  C   UNL A   1      43.072  32.510  33.861  1.00  0.00     0.010 A 
ATOM     61  C   UNL A   1      44.063  33.453  31.859  1.00  0.00     0.010 A 
ATOM     62  C   UNL A   1      43.072  33.775  34.457  1.00  0.00     0.020 A 
ATOM     63  C   UNL A   1      44.088  34.714  32.460  1.00  0.00     0.020 A 
ATOM     64  C   UNL A   1      43.569  34.871  33.747  1.00  0.00     0.054 A 
BRANCH  64  65
ATOM     65  S   UNL A   1      43.532  36.512  34.522  1.00  0.00     0.124 S 
ATOM     66  O   UNL A   1      42.106  36.822  34.520  1.00  0.00    -0.237 OA
ATOM     67  O   UNL A   1      44.121  36.260  35.835  1.00  0.00    -0.237 OA
ATOM     68  O   UNL A   1      44.351  37.329  33.630  1.00  0.00    -0.744 OA
ENDBRANCH  64  65
ENDBRANCH  45  59
BRANCH  46  69
ATOM     69  C   UNL A   1      42.221  23.591  27.835  1.00  0.00    -0.014 A 
ATOM     70  C   UNL A   1      41.552  22.549  28.504  1.00  0.00     0.010 A 
ATOM     71  C   UNL A   1      42.770  23.347  26.564  1.00  0.00     0.010 A 
ATOM     72  C   UNL A   1      41.489  21.272  27.942  1.00  0.00     0.020 A 
ATOM     73  C   UNL A   1      42.686  22.076  25.986  1.00  0.00     0.020 A 
ATOM     74  C   UNL A   1      42.073  21.039  26.694  1.00  0.00     0.054 A 
BRANCH  74  75
ATOM     75  S   UNL A   1      42.044  19.356  26.015  1.00  0.00     0.124 S 
ATOM     76  O   UNL A   1      40.625  19.177  25.723  1.00  0.00    -0.237 OA
ATOM     77  O   UNL A   1      42.917  19.466  24.849  1.00  0.00    -0.237 OA
ATOM     78  O   UNL A   1      42.567  18.538  27.107  1.00  0.00    -0.744 OA
ENDBRANCH  74  75
ENDBRANCH  46  69
BRANCH  58  79
ATOM     79  C   UNL A   1      47.389  26.317  31.720  1.00  0.00    -0.014 A 
ATOM     80  C   UNL A   1      48.466  26.342  30.816  1.00  0.00     0.010 A 
ATOM     81  C   UNL A   1      47.548  25.682  32.964  1.00  0.00     0.010 A 
ATOM     82  C   UNL A   1      49.667  25.702  31.130  1.00  0.00     0.020 A 
ATOM     83  C   UNL A   1      48.758  25.064  33.292  1.00  0.00     0.020 A 
ATOM     84  C   UNL A   1      49.799  25.054  32.361  1.00  0.00     0.054 A 
BRANCH  84  85
ATOM     85  S   UNL A   1      51.347  24.182  32.729  1.00  0.00     0.124 S 
ATOM     86  O   UNL A   1      51.135  22.892  32.080  1.00  0.00    -0.237 OA
ATOM     87  O   UNL A   1      52.355  25.041  32.111  1.00  0.00    -0.237 OA
ATOM     88  O   UNL A   1      51.381  24.149  34.190  1.00  0.00    -0.744 OA
ENDBRANCH  84  85
ENDBRANCH  58  79
ENDBRANCH  32  33
ENDBRANCH  25  27
ENDBRANCH  24  25
ENDBRANCH   1  24
TORSDOF 16
ENDMDL
MODEL 2
REMARK VINA RESULT:      -9.8      3.680      6.068
REMARK SMILES Cc1cc(F)c([C@@H](C)[N@@H+]2C[C@H](C)[C@H](C(=O)OCCOC(=O)c3ccc(-c4c5nc(c(-c6ccc(S(=O)(=O)[O-])cc6)c6ccc([nH]6)c(-c6ccc(S(=O)(=O)[O-])cc6)c6nc(c(-c7ccc(S(=O)(=O)[O-])cc7)c7ccc4[nH]7)C=C6)C=C5)cc3)C2)cc1F
REMARK SMILES IDX 18 1 17 2 16 3 14 4 15 5 13 6 9 7 10 8 82 9 11 11 12 12 7 13
REMARK SMILES IDX 8 14 6 15 1 16 2 17 3 18 84 19 4 20 83 21 85 22 5 23 19 24
REMARK SMILES IDX 20 25 21 26 22 27 23 28 81 29 24 30 80 31 25 32 26 33 27 34
REMARK SMILES IDX 74 35 28 36 79 37 73 38 75 39 29 40 78 41 72 42 71 43 30 45
REMARK SMILES IDX 60 46 41 47 59 48 42 49 45 50 58 51 76 52 43 53 44 54 57 56
REMARK SMILES IDX 77 57 46 58 31 59 32 60 40 61 33 62 39 63 34 64 35 65 36 66
REMARK SMILES IDX 37 67 38 68 61 69 62 70 70 71 63 72 69 73 64 74 65 75 66 76
REMARK SMILES IDX 67 77 68 78 47 79 48 80 56 81 49 82 55 83 50 84 51 85 52 86
REMARK SMILES IDX 53 87 54 88
REMARK H PARENT 9 10 75 44 45 55
REMARK Flexibility Score: inf
ROOT
ATOM      1  C   UNL A   1      33.466  29.024  26.217  1.00  0.00     0.275 C 
ENDROOT
BRANCH   1   2
ATOM      2  C   UNL A   1      32.113  29.513  25.692  1.00  0.00     0.274 C 
BRANCH   2   3
ATOM      3  O   UNL A   1      31.241  28.398  25.432  1.00  0.00    -0.462 OA
BRANCH   3   4
ATOM      4  C   UNL A   1      30.632  28.371  24.226  1.00  0.00     0.315 C 
ATOM      5  O   UNL A   1      30.260  29.372  23.621  1.00  0.00    -0.252 OA
BRANCH   4   6
ATOM      6  C   UNL A   1      30.426  26.982  23.661  1.00  0.00     0.162 C 
ATOM      7  N   UNL A   1      30.600  24.706  24.270  1.00  0.00    -0.328 N 
ATOM      8  C   UNL A   1      31.100  24.823  22.907  1.00  0.00     0.267 C 
ATOM      9  C   UNL A   1      30.269  26.011  24.814  1.00  0.00     0.278 C 
ATOM     10  H   UNL A   1      29.713  24.206  24.194  1.00  0.00     0.348 HD
ATOM     11  C   UNL A   1      31.386  26.313  22.673  1.00  0.00     0.061 C 
ATOM     12  C   UNL A   1      32.875  26.613  22.807  1.00  0.00     0.015 C 
BRANCH   7  13
ATOM     13  C   UNL A   1      31.172  23.693  25.153  1.00  0.00     0.215 C 
ATOM     14  C   UNL A   1      30.575  23.734  26.568  1.00  0.00     0.081 C 
BRANCH  13  15
ATOM     15  C   UNL A   1      32.693  23.640  25.194  1.00  0.00     0.048 A 
ATOM     16  C   UNL A   1      37.021  23.353  25.251  1.00  0.00     0.047 C 
ATOM     17  C   UNL A   1      35.528  23.450  25.209  1.00  0.00    -0.012 A 
ATOM     18  C   UNL A   1      34.887  24.581  25.718  1.00  0.00     0.046 A 
ATOM     19  C   UNL A   1      34.741  22.413  24.711  1.00  0.00     0.126 A 
ATOM     20  C   UNL A   1      33.493  24.660  25.725  1.00  0.00     0.132 A 
ATOM     21  C   UNL A   1      33.348  22.504  24.689  1.00  0.00     0.052 A 
ATOM     22  F   UNL A   1      35.319  21.297  24.245  1.00  0.00    -0.207 F 
ATOM     23  F   UNL A   1      32.954  25.755  26.269  1.00  0.00    -0.206 F 
ENDBRANCH  13  15
ENDBRANCH   7  13
ENDBRANCH   4   6
ENDBRANCH   3   4
ENDBRANCH   2   3
ENDBRANCH   1   2
BRANCH   1  24
ATOM     24  O   UNL A   1      33.687  29.426  27.581  1.00  0.00    -0.458 OA
BRANCH  24  25
ATOM     25  C   UNL A   1      34.478  30.516  27.751  1.00  0.00     0.338 C 
ATOM     26  O   UNL A   1      34.147  31.683  27.711  1.00  0.00    -0.246 OA
BRANCH  25  27
ATOM     27  C   UNL A   1      35.816  30.060  28.160  1.00  0.00     0.060 A 
ATOM     28  C   UNL A   1      36.055  29.590  29.451  1.00  0.00     0.016 A 
ATOM     29  C   UNL A   1      36.844  30.092  27.217  1.00  0.00     0.016 A 
ATOM     30  C   UNL A   1      37.346  29.186  29.798  1.00  0.00     0.010 A 
ATOM     31  C   UNL A   1      38.125  29.679  27.556  1.00  0.00     0.010 A 
ATOM     32  C   UNL A   1      38.389  29.242  28.855  1.00  0.00    -0.014 A 
BRANCH  32  33
ATOM     33  C   UNL A   1      39.764  28.834  29.210  1.00  0.00     0.031 A 
ATOM     34  C   UNL A   1      40.651  29.765  29.984  1.00  0.00     0.074 A 
ATOM     35  C   UNL A   1      40.214  27.637  28.793  1.00  0.00     0.049 A 
ATOM     36  N   UNL A   1      41.861  29.556  30.432  1.00  0.00    -0.248 NA
ATOM     37  C   UNL A   1      40.121  31.107  30.285  1.00  0.00     0.031 C 
ATOM     38  C   UNL A   1      39.446  26.688  27.985  1.00  0.00     0.029 A 
ATOM     39  N   UNL A   1      41.417  27.011  28.995  1.00  0.00    -0.354 N 
ATOM     40  C   UNL A   1      42.230  30.729  31.081  1.00  0.00     0.074 A 
ATOM     41  C   UNL A   1      41.143  31.667  30.918  1.00  0.00     0.031 C 
ATOM     42  C   UNL A   1      40.181  25.582  27.795  1.00  0.00     0.029 A 
ATOM     43  C   UNL A   1      41.479  25.754  28.444  1.00  0.00     0.049 A 
ATOM     44  H   UNL A   1      42.163  27.423  29.487  1.00  0.00     0.167 HD
ATOM     45  C   UNL A   1      43.365  30.981  31.774  1.00  0.00     0.031 A 
ATOM     46  C   UNL A   1      42.464  24.836  28.472  1.00  0.00     0.031 A 
ATOM     47  C   UNL A   1      44.437  30.033  31.921  1.00  0.00     0.049 A 
ATOM     48  C   UNL A   1      43.722  25.144  29.233  1.00  0.00     0.074 A 
ATOM     49  C   UNL A   1      45.605  30.168  32.649  1.00  0.00     0.029 A 
ATOM     50  N   UNL A   1      44.475  28.779  31.328  1.00  0.00    -0.354 N 
ATOM     51  N   UNL A   1      44.022  26.225  29.915  1.00  0.00    -0.248 NA
ATOM     52  C   UNL A   1      44.768  24.114  29.243  1.00  0.00     0.031 C 
ATOM     53  C   UNL A   1      46.377  29.021  32.448  1.00  0.00     0.029 A 
ATOM     54  C   UNL A   1      45.661  28.142  31.648  1.00  0.00     0.049 A 
ATOM     55  H   UNL A   1      43.764  28.399  30.763  1.00  0.00     0.167 HD
ATOM     56  C   UNL A   1      45.288  26.001  30.442  1.00  0.00     0.074 A 
ATOM     57  C   UNL A   1      45.689  24.675  30.018  1.00  0.00     0.031 C 
ATOM     58  C   UNL A   1      46.048  26.824  31.205  1.00  0.00     0.031 A 
BRANCH  45  59
ATOM     59  C   UNL A   1      43.503  32.316  32.458  1.00  0.00    -0.014 A 
ATOM     60  C   UNL A   1      44.152  33.381  31.807  1.00  0.00     0.010 A 
ATOM     61  C   UNL A   1      43.096  32.480  33.795  1.00  0.00     0.010 A 
ATOM     62  C   UNL A   1      44.416  34.574  32.487  1.00  0.00     0.020 A 
ATOM     63  C   UNL A   1      43.336  33.679  34.471  1.00  0.00     0.020 A 
ATOM     64  C   UNL A   1      44.016  34.710  33.819  1.00  0.00     0.054 A 
BRANCH  64  65
ATOM     65  S   UNL A   1      44.396  36.252  34.698  1.00  0.00     0.124 S 
ATOM     66  O   UNL A   1      44.412  35.818  36.091  1.00  0.00    -0.237 OA
ATOM     67  O   UNL A   1      45.692  36.629  34.138  1.00  0.00    -0.237 OA
ATOM     68  O   UNL A   1      43.291  37.135  34.330  1.00  0.00    -0.744 OA
ENDBRANCH  64  65
ENDBRANCH  45  59
BRANCH  46  69
ATOM     69  C   UNL A   1      42.243  23.524  27.807  1.00  0.00    -0.014 A 
ATOM     70  C   UNL A   1      41.712  22.438  28.526  1.00  0.00     0.010 A 
ATOM     71  C   UNL A   1      42.672  23.324  26.482  1.00  0.00     0.010 A 
ATOM     72  C   UNL A   1      41.668  21.163  27.956  1.00  0.00     0.020 A 
ATOM     73  C   UNL A   1      42.606  22.054  25.899  1.00  0.00     0.020 A 
ATOM     74  C   UNL A   1      42.133  20.976  26.652  1.00  0.00     0.054 A 
BRANCH  74  75
ATOM     75  S   UNL A   1      42.136  19.300  25.957  1.00  0.00     0.124 S 
ATOM     76  O   UNL A   1      40.724  19.104  25.644  1.00  0.00    -0.237 OA
ATOM     77  O   UNL A   1      43.025  19.432  24.805  1.00  0.00    -0.237 OA
ATOM     78  O   UNL A   1      42.655  18.478  27.048  1.00  0.00    -0.744 OA
ENDBRANCH  74  75
ENDBRANCH  46  69
BRANCH  58  79
ATOM     79  C   UNL A   1      47.410  26.341  31.627  1.00  0.00    -0.014 A 
ATOM     80  C   UNL A   1      48.496  26.445  30.738  1.00  0.00     0.010 A 
ATOM     81  C   UNL A   1      47.576  25.649  32.839  1.00  0.00     0.010 A 
ATOM     82  C   UNL A   1      49.713  25.828  31.033  1.00  0.00     0.020 A 
ATOM     83  C   UNL A   1      48.802  25.053  33.149  1.00  0.00     0.020 A 
ATOM     84  C   UNL A   1      49.852  25.122  32.231  1.00  0.00     0.054 A 
BRANCH  84  85
ATOM     85  S   UNL A   1      51.423  24.281  32.574  1.00  0.00     0.124 S 
ATOM     86  O   UNL A   1      51.146  22.920  32.125  1.00  0.00    -0.237 OA
ATOM     87  O   UNL A   1      52.375  25.032  31.758  1.00  0.00    -0.237 OA
ATOM     88  O   UNL A   1      51.589  24.441  34.017  1.00  0.00    -0.744 OA
ENDBRANCH  84  85
ENDBRANCH  58  79
ENDBRANCH  32  33
ENDBRANCH  25  27
ENDBRANCH  24  25
ENDBRANCH   1  24
TORSDOF 16
ENDMDL
MODEL 3
REMARK VINA RESULT:      -9.7      4.487     11.206
REMARK SMILES Cc1cc(F)c([C@@H](C)[N@@H+]2C[C@H](C)[C@H](C(=O)OCCOC(=O)c3ccc(-c4c5nc(c(-c6ccc(S(=O)(=O)[O-])cc6)c6ccc([nH]6)c(-c6ccc(S(=O)(=O)[O-])cc6)c6nc(c(-c7ccc(S(=O)(=O)[O-])cc7)c7ccc4[nH]7)C=C6)C=C5)cc3)C2)cc1F
REMARK SMILES IDX 18 1 17 2 16 3 14 4 15 5 13 6 9 7 10 8 82 9 11 11 12 12 7 13
REMARK SMILES IDX 8 14 6 15 1 16 2 17 3 18 84 19 4 20 83 21 85 22 5 23 19 24
REMARK SMILES IDX 20 25 21 26 22 27 23 28 81 29 24 30 80 31 25 32 26 33 27 34
REMARK SMILES IDX 74 35 28 36 79 37 73 38 75 39 29 40 78 41 72 42 71 43 30 45
REMARK SMILES IDX 60 46 41 47 59 48 42 49 45 50 58 51 76 52 43 53 44 54 57 56
REMARK SMILES IDX 77 57 46 58 31 59 32 60 40 61 33 62 39 63 34 64 35 65 36 66
REMARK SMILES IDX 37 67 38 68 61 69 62 70 70 71 63 72 69 73 64 74 65 75 66 76
REMARK SMILES IDX 67 77 68 78 47 79 48 80 56 81 49 82 55 83 50 84 51 85 52 86
REMARK SMILES IDX 53 87 54 88
REMARK H PARENT 9 10 75 44 45 55
REMARK Flexibility Score: inf
ROOT
ATOM      1  C   UNL A   1      37.246  22.010  24.775  1.00  0.00     0.275 C 
ENDROOT
BRANCH   1   2
ATOM      2  C   UNL A   1      35.843  21.691  25.299  1.00  0.00     0.274 C 
BRANCH   2   3
ATOM      3  O   UNL A   1      34.853  21.979  24.294  1.00  0.00    -0.462 OA
BRANCH   3   4
ATOM      4  C   UNL A   1      33.740  21.213  24.299  1.00  0.00     0.315 C 
ATOM      5  O   UNL A   1      33.726  20.024  24.604  1.00  0.00    -0.252 OA
BRANCH   4   6
ATOM      6  C   UNL A   1      32.480  21.939  23.882  1.00  0.00     0.162 C 
ATOM      7  N   UNL A   1      31.761  23.986  22.946  1.00  0.00    -0.328 N 
ATOM      8  C   UNL A   1      30.816  23.643  23.999  1.00  0.00     0.267 C 
ATOM      9  C   UNL A   1      32.853  23.030  22.899  1.00  0.00     0.278 C 
ATOM     10  H   UNL A   1      31.251  23.864  22.070  1.00  0.00     0.348 HD
ATOM     11  C   UNL A   1      31.498  22.579  24.870  1.00  0.00     0.061 C 
ATOM     12  C   UNL A   1      32.066  23.193  26.145  1.00  0.00     0.015 C 
BRANCH   7  13
ATOM     13  C   UNL A   1      32.037  25.393  22.667  1.00  0.00     0.215 C 
ATOM     14  C   UNL A   1      32.992  25.586  21.479  1.00  0.00     0.081 C 
BRANCH  13  15
ATOM     15  C   UNL A   1      32.466  26.228  23.865  1.00  0.00     0.048 A 
ATOM     16  C   UNL A   1      33.565  28.691  27.262  1.00  0.00     0.047 C 
ATOM     17  C   UNL A   1      33.167  27.835  26.102  1.00  0.00    -0.012 A 
ATOM     18  C   UNL A   1      34.010  26.808  25.670  1.00  0.00     0.046 A 
ATOM     19  C   UNL A   1      31.986  28.061  25.397  1.00  0.00     0.126 A 
ATOM     20  C   UNL A   1      33.667  26.035  24.559  1.00  0.00     0.132 A 
ATOM     21  C   UNL A   1      31.629  27.268  24.305  1.00  0.00     0.052 A 
ATOM     22  F   UNL A   1      31.169  29.059  25.760  1.00  0.00    -0.207 F 
ATOM     23  F   UNL A   1      34.546  25.100  24.181  1.00  0.00    -0.206 F 
ENDBRANCH  13  15
ENDBRANCH   7  13
ENDBRANCH   4   6
ENDBRANCH   3   4
ENDBRANCH   2   3
ENDBRANCH   1   2
BRANCH   1  24
ATOM     24  O   UNL A   1      37.811  23.162  25.427  1.00  0.00    -0.458 OA
BRANCH  24  25
ATOM     25  C   UNL A   1      38.902  22.924  26.198  1.00  0.00     0.338 C 
ATOM     26  O   UNL A   1      39.522  21.886  26.305  1.00  0.00    -0.246 OA
BRANCH  25  27
ATOM     27  C   UNL A   1      39.336  24.199  26.793  1.00  0.00     0.060 A 
ATOM     28  C   UNL A   1      40.068  25.128  26.055  1.00  0.00     0.016 A 
ATOM     29  C   UNL A   1      38.983  24.466  28.117  1.00  0.00     0.016 A 
ATOM     30  C   UNL A   1      40.474  26.314  26.670  1.00  0.00     0.010 A 
ATOM     31  C   UNL A   1      39.374  25.651  28.725  1.00  0.00     0.010 A 
ATOM     32  C   UNL A   1      40.140  26.574  28.012  1.00  0.00    -0.014 A 
BRANCH  32  33
ATOM     33  C   UNL A   1      40.575  27.817  28.682  1.00  0.00     0.031 A 
ATOM     34  C   UNL A   1      41.981  27.946  29.192  1.00  0.00     0.074 A 
ATOM     35  C   UNL A   1      39.681  28.806  28.859  1.00  0.00     0.049 A 
ATOM     36  N   UNL A   1      42.554  28.978  29.753  1.00  0.00    -0.248 NA
ATOM     37  C   UNL A   1      42.853  26.765  29.073  1.00  0.00     0.031 C 
ATOM     38  C   UNL A   1      38.277  28.750  28.449  1.00  0.00     0.029 A 
ATOM     39  N   UNL A   1      39.819  30.050  29.419  1.00  0.00    -0.354 N 
ATOM     40  C   UNL A   1      43.855  28.579  30.035  1.00  0.00     0.074 A 
ATOM     41  C   UNL A   1      43.971  27.193  29.642  1.00  0.00     0.031 C 
ATOM     42  C   UNL A   1      37.692  29.923  28.734  1.00  0.00     0.029 A 
ATOM     43  C   UNL A   1      38.671  30.803  29.368  1.00  0.00     0.049 A 
ATOM     44  H   UNL A   1      40.659  30.371  29.818  1.00  0.00     0.167 HD
ATOM     45  C   UNL A   1      44.865  29.318  30.550  1.00  0.00     0.031 A 
ATOM     46  C   UNL A   1      38.437  32.066  29.772  1.00  0.00     0.031 A 
ATOM     47  C   UNL A   1      44.727  30.697  30.938  1.00  0.00     0.049 A 
ATOM     48  C   UNL A   1      39.569  32.863  30.357  1.00  0.00     0.074 A 
ATOM     49  C   UNL A   1      45.701  31.553  31.418  1.00  0.00     0.029 A 
ATOM     50  N   UNL A   1      43.543  31.419  30.896  1.00  0.00    -0.354 N 
ATOM     51  N   UNL A   1      40.817  32.499  30.539  1.00  0.00    -0.248 NA
ATOM     52  C   UNL A   1      39.272  34.237  30.779  1.00  0.00     0.031 C 
ATOM     53  C   UNL A   1      45.095  32.773  31.723  1.00  0.00     0.029 A 
ATOM     54  C   UNL A   1      43.755  32.701  31.371  1.00  0.00     0.049 A 
ATOM     55  H   UNL A   1      42.679  31.070  30.576  1.00  0.00     0.167 HD
ATOM     56  C   UNL A   1      41.457  33.603  31.089  1.00  0.00     0.074 A 
ATOM     57  C   UNL A   1      40.464  34.654  31.191  1.00  0.00     0.031 C 
ATOM     58  C   UNL A   1      42.749  33.731  31.477  1.00  0.00     0.031 A 
BRANCH  45  59
ATOM     59  C   UNL A   1      46.220  28.675  30.696  1.00  0.00    -0.014 A 
ATOM     60  C   UNL A   1      46.591  28.078  31.914  1.00  0.00     0.010 A 
ATOM     61  C   UNL A   1      47.171  28.769  29.664  1.00  0.00     0.010 A 
ATOM     62  C   UNL A   1      47.896  27.612  32.107  1.00  0.00     0.020 A 
ATOM     63  C   UNL A   1      48.468  28.282  29.843  1.00  0.00     0.020 A 
ATOM     64  C   UNL A   1      48.829  27.728  31.074  1.00  0.00     0.054 A 
BRANCH  64  65
ATOM     65  S   UNL A   1      50.526  27.149  31.351  1.00  0.00     0.124 S 
ATOM     66  O   UNL A   1      50.704  26.182  30.273  1.00  0.00    -0.237 OA
ATOM     67  O   UNL A   1      51.308  28.378  31.232  1.00  0.00    -0.237 OA
ATOM     68  O   UNL A   1      50.478  26.583  32.698  1.00  0.00    -0.744 OA
ENDBRANCH  64  65
ENDBRANCH  45  59
BRANCH  46  69
ATOM     69  C   UNL A   1      37.085  32.649  29.562  1.00  0.00    -0.014 A 
ATOM     70  C   UNL A   1      36.738  33.222  28.325  1.00  0.00     0.010 A 
ATOM     71  C   UNL A   1      36.180  32.738  30.635  1.00  0.00     0.010 A 
ATOM     72  C   UNL A   1      35.539  33.925  28.180  1.00  0.00     0.020 A 
ATOM     73  C   UNL A   1      34.967  33.418  30.487  1.00  0.00     0.020 A 
ATOM     74  C   UNL A   1      34.669  34.034  29.268  1.00  0.00     0.054 A 
BRANCH  74  75
ATOM     75  S   UNL A   1      33.152  35.012  29.080  1.00  0.00     0.124 S 
ATOM     76  O   UNL A   1      32.593  34.957  30.428  1.00  0.00    -0.237 OA
ATOM     77  O   UNL A   1      33.661  36.316  28.662  1.00  0.00    -0.237 OA
ATOM     78  O   UNL A   1      32.400  34.284  28.061  1.00  0.00    -0.744 OA
ENDBRANCH  74  75
ENDBRANCH  46  69
BRANCH  58  79
ATOM     79  C   UNL A   1      43.184  35.043  32.073  1.00  0.00    -0.014 A 
ATOM     80  C   UNL A   1      42.935  35.311  33.431  1.00  0.00     0.010 A 
ATOM     81  C   UNL A   1      43.697  36.062  31.252  1.00  0.00     0.010 A 
ATOM     82  C   UNL A   1      43.150  36.589  33.951  1.00  0.00     0.020 A 
ATOM     83  C   UNL A   1      43.939  37.335  31.776  1.00  0.00     0.020 A 
ATOM     84  C   UNL A   1      43.637  37.597  33.115  1.00  0.00     0.054 A 
BRANCH  84  85
ATOM     85  S   UNL A   1      43.859  39.265  33.793  1.00  0.00     0.124 S 
ATOM     86  O   UNL A   1      43.976  39.002  35.224  1.00  0.00    -0.237 OA
ATOM     87  O   UNL A   1      45.082  39.719  33.134  1.00  0.00    -0.237 OA
ATOM     88  O   UNL A   1      42.644  39.966  33.383  1.00  0.00    -0.744 OA
ENDBRANCH  84  85
ENDBRANCH  58  79
ENDBRANCH  32  33
ENDBRANCH  25  27
ENDBRANCH  24  25
ENDBRANCH   1  24
TORSDOF 16
ENDMDL
