MODEL 1
REMARK VINA RESULT:     -12.4      0.000      0.000
REMARK SMILES Cc1ccccc1CCNS(=O)(=O)c1ccc(C(=O)OCCOC(=O)c2ccc(-c3c4nc(c(-c5ccc(S(=O)(=O)[O-])cc5)c5ccc([nH]5)c(-c5ccc(S(=O)(=O)[O-])cc5)c5nc(c(-c6ccc(S(=O)(=O)[O-])cc6)c6ccc3[nH]6)C=C5)C=C4)cc2)o1
REMARK SMILES IDX 21 1 20 2 18 3 19 4 17 5 14 6 15 7 86 8 16 9 11 10 12 11
REMARK SMILES IDX 13 12 10 13 9 15 8 16 7 17 1 18 2 19 3 20 4 21 6 22 5 23
REMARK SMILES IDX 22 24 23 25 24 26 25 27 26 28 27 29 85 30 28 31 84 32 29 33
REMARK SMILES IDX 30 34 31 35 78 36 32 37 83 38 77 39 79 40 33 41 82 42 76 43
REMARK SMILES IDX 75 44 34 46 64 47 45 48 63 49 46 50 49 51 62 52 80 53 47 54
REMARK SMILES IDX 48 55 61 57 81 58 50 59 35 60 36 61 44 62 37 63 43 64 38 65
REMARK SMILES IDX 39 66 40 67 41 68 42 69 65 70 66 71 74 72 67 73 73 74 68 75
REMARK SMILES IDX 69 76 70 77 71 78 72 79 51 80 52 81 60 82 53 83 59 84 54 85
REMARK SMILES IDX 55 86 56 87 57 88 58 89
REMARK H PARENT 10 14 79 45 49 56
REMARK Flexibility Score: inf
ROOT
ATOM      1  C   UNL A   1      33.408  28.667  26.689  1.00  0.00     0.275 C 
ENDROOT
BRANCH   1   2
ATOM      2  O   UNL A   1      33.345  29.612  25.616  1.00  0.00    -0.456 OA
BRANCH   2   3
ATOM      3  C   UNL A   1      32.073  29.881  25.210  1.00  0.00     0.374 C 
ATOM      4  O   UNL A   1      31.407  30.817  25.636  1.00  0.00    -0.242 OA
BRANCH   3   5
ATOM      5  C   UNL A   1      31.569  28.872  24.305  1.00  0.00     0.213 A 
ATOM      6  C   UNL A   1      31.666  27.178  22.843  1.00  0.00     0.234 A 
ATOM      7  C   UNL A   1      30.412  27.777  22.738  1.00  0.00     0.065 A 
ATOM      8  O   UNL A   1      32.339  27.819  23.874  1.00  0.00    -0.436 OA
ATOM      9  C   UNL A   1      30.371  28.869  23.625  1.00  0.00     0.060 A 
BRANCH   6  10
ATOM     10  S   UNL A   1      32.402  25.950  21.736  1.00  0.00     0.273 S 
ATOM     11  O   UNL A   1      33.818  26.239  21.698  1.00  0.00    -0.204 OA
ATOM     12  O   UNL A   1      31.593  26.065  20.535  1.00  0.00    -0.204 OA
BRANCH  10  13
ATOM     13  N   UNL A   1      32.162  24.358  22.234  1.00  0.00    -0.208 NA
ATOM     14  H   UNL A   1      31.975  24.377  23.237  1.00  0.00     0.141 HD
BRANCH  13  15
ATOM     15  C   UNL A   1      33.270  23.383  22.006  1.00  0.00     0.104 C 
BRANCH  15  16
ATOM     16  C   UNL A   1      33.537  22.561  23.290  1.00  0.00     0.052 C 
BRANCH  16  17
ATOM     17  C   UNL A   1      34.791  22.931  24.083  1.00  0.00    -0.044 A 
ATOM     18  C   UNL A   1      33.663  24.788  25.487  1.00  0.00     0.044 C 
ATOM     19  C   UNL A   1      34.844  23.957  25.052  1.00  0.00    -0.048 A 
ATOM     20  C   UNL A   1      36.060  24.215  25.724  1.00  0.00     0.004 A 
ATOM     21  C   UNL A   1      37.212  23.483  25.449  1.00  0.00     0.000 A 
ATOM     22  C   UNL A   1      35.963  22.177  23.858  1.00  0.00     0.004 A 
ATOM     23  C   UNL A   1      37.162  22.457  24.516  1.00  0.00     0.000 A 
ENDBRANCH  16  17
ENDBRANCH  15  16
ENDBRANCH  13  15
ENDBRANCH  10  13
ENDBRANCH   6  10
ENDBRANCH   3   5
ENDBRANCH   2   3
ENDBRANCH   1   2
BRANCH   1  24
ATOM     24  C   UNL A   1      34.581  28.938  27.648  1.00  0.00     0.275 C 
BRANCH  24  25
ATOM     25  O   UNL A   1      35.229  30.242  27.680  1.00  0.00    -0.458 OA
BRANCH  25  26
ATOM     26  C   UNL A   1      36.284  30.519  28.498  1.00  0.00     0.338 C 
ATOM     27  O   UNL A   1      36.219  31.378  29.370  1.00  0.00    -0.246 OA
BRANCH  26  28
ATOM     28  C   UNL A   1      37.406  29.559  28.337  1.00  0.00     0.060 A 
ATOM     29  C   UNL A   1      38.285  29.672  27.249  1.00  0.00     0.016 A 
ATOM     30  C   UNL A   1      37.724  28.751  29.422  1.00  0.00     0.016 A 
ATOM     31  C   UNL A   1      39.557  29.107  27.317  1.00  0.00     0.010 A 
ATOM     32  C   UNL A   1      39.028  28.383  29.583  1.00  0.00     0.010 A 
ATOM     33  C   UNL A   1      39.930  28.509  28.515  1.00  0.00    -0.014 A 
BRANCH  33  34
ATOM     34  C   UNL A   1      41.159  27.769  28.740  1.00  0.00     0.031 A 
ATOM     35  C   UNL A   1      41.302  26.361  28.343  1.00  0.00     0.074 A 
ATOM     36  C   UNL A   1      42.150  28.568  29.205  1.00  0.00     0.049 A 
ATOM     37  N   UNL A   1      42.239  25.606  28.784  1.00  0.00    -0.248 NA
ATOM     38  C   UNL A   1      40.407  25.651  27.428  1.00  0.00     0.031 C 
ATOM     39  C   UNL A   1      43.584  28.401  29.327  1.00  0.00     0.029 A 
ATOM     40  N   UNL A   1      41.924  29.789  29.842  1.00  0.00    -0.354 N 
ATOM     41  C   UNL A   1      42.280  24.474  27.996  1.00  0.00     0.074 A 
ATOM     42  C   UNL A   1      41.050  24.487  27.248  1.00  0.00     0.031 C 
ATOM     43  C   UNL A   1      44.036  29.294  30.238  1.00  0.00     0.029 A 
ATOM     44  C   UNL A   1      42.876  29.964  30.828  1.00  0.00     0.049 A 
ATOM     45  H   UNL A   1      41.203  30.422  29.624  1.00  0.00     0.167 HD
ATOM     46  C   UNL A   1      43.442  23.761  27.977  1.00  0.00     0.031 A 
ATOM     47  C   UNL A   1      42.407  29.826  32.109  1.00  0.00     0.031 A 
ATOM     48  C   UNL A   1      44.387  24.348  28.928  1.00  0.00     0.049 A 
ATOM     49  C   UNL A   1      42.862  28.503  32.710  1.00  0.00     0.074 A 
ATOM     50  C   UNL A   1      45.440  25.238  28.804  1.00  0.00     0.029 A 
ATOM     51  N   UNL A   1      44.020  24.367  30.260  1.00  0.00    -0.354 N 
ATOM     52  N   UNL A   1      43.370  27.519  32.015  1.00  0.00    -0.248 NA
ATOM     53  C   UNL A   1      42.799  28.187  34.133  1.00  0.00     0.031 C 
ATOM     54  C   UNL A   1      45.664  25.827  30.087  1.00  0.00     0.029 A 
ATOM     55  C   UNL A   1      44.757  25.284  30.980  1.00  0.00     0.049 A 
ATOM     56  H   UNL A   1      43.318  23.796  30.647  1.00  0.00     0.167 HD
ATOM     57  C   UNL A   1      43.780  26.515  32.841  1.00  0.00     0.074 A 
ATOM     58  C   UNL A   1      43.343  26.956  34.158  1.00  0.00     0.031 C 
ATOM     59  C   UNL A   1      44.462  25.416  32.399  1.00  0.00     0.031 A 
BRANCH  46  60
ATOM     60  C   UNL A   1      43.842  22.698  26.983  1.00  0.00    -0.014 A 
ATOM     61  C   UNL A   1      42.928  21.647  26.741  1.00  0.00     0.010 A 
ATOM     62  C   UNL A   1      45.052  22.646  26.267  1.00  0.00     0.010 A 
ATOM     63  C   UNL A   1      43.208  20.585  25.875  1.00  0.00     0.020 A 
ATOM     64  C   UNL A   1      45.350  21.578  25.392  1.00  0.00     0.020 A 
ATOM     65  C   UNL A   1      44.424  20.550  25.207  1.00  0.00     0.054 A 
BRANCH  65  66
ATOM     66  S   UNL A   1      44.746  19.153  24.095  1.00  0.00     0.124 S 
ATOM     67  O   UNL A   1      44.436  19.718  22.784  1.00  0.00    -0.237 OA
ATOM     68  O   UNL A   1      46.159  18.873  24.339  1.00  0.00    -0.237 OA
ATOM     69  O   UNL A   1      43.820  18.120  24.556  1.00  0.00    -0.744 OA
ENDBRANCH  65  66
ENDBRANCH  46  60
BRANCH  47  70
ATOM     70  C   UNL A   1      41.061  30.504  32.307  1.00  0.00    -0.014 A 
ATOM     71  C   UNL A   1      40.001  29.711  32.826  1.00  0.00     0.010 A 
ATOM     72  C   UNL A   1      40.904  31.901  32.362  1.00  0.00     0.010 A 
ATOM     73  C   UNL A   1      38.908  30.282  33.497  1.00  0.00     0.020 A 
ATOM     74  C   UNL A   1      39.786  32.481  33.007  1.00  0.00     0.020 A 
ATOM     75  C   UNL A   1      38.820  31.668  33.609  1.00  0.00     0.054 A 
BRANCH  75  76
ATOM     76  S   UNL A   1      37.533  32.361  34.701  1.00  0.00     0.124 S 
ATOM     77  O   UNL A   1      36.319  32.179  33.911  1.00  0.00    -0.237 OA
ATOM     78  O   UNL A   1      37.642  31.505  35.883  1.00  0.00    -0.237 OA
ATOM     79  O   UNL A   1      37.948  33.749  34.887  1.00  0.00    -0.744 OA
ENDBRANCH  75  76
ENDBRANCH  47  70
BRANCH  59  80
ATOM     80  C   UNL A   1      44.898  24.297  33.298  1.00  0.00    -0.014 A 
ATOM     81  C   UNL A   1      44.025  23.293  33.729  1.00  0.00     0.010 A 
ATOM     82  C   UNL A   1      46.213  24.285  33.819  1.00  0.00     0.010 A 
ATOM     83  C   UNL A   1      44.484  22.254  34.544  1.00  0.00     0.020 A 
ATOM     84  C   UNL A   1      46.673  23.276  34.654  1.00  0.00     0.020 A 
ATOM     85  C   UNL A   1      45.811  22.242  34.982  1.00  0.00     0.054 A 
BRANCH  85  86
ATOM     86  S   UNL A   1      46.397  20.877  36.002  1.00  0.00     0.124 S 
ATOM     87  O   UNL A   1      45.547  20.980  37.186  1.00  0.00    -0.237 OA
ATOM     88  O   UNL A   1      46.136  19.727  35.138  1.00  0.00    -0.237 OA
ATOM     89  O   UNL A   1      47.808  21.183  36.222  1.00  0.00    -0.744 OA
ENDBRANCH  85  86
ENDBRANCH  59  80
ENDBRANCH  33  34
ENDBRANCH  26  28
ENDBRANCH  25  26
ENDBRANCH  24  25
ENDBRANCH   1  24
TORSDOF 19
ENDMDL
MODEL 2
REMARK VINA RESULT:     -12.4      1.551      2.230
REMARK SMILES Cc1ccccc1CCNS(=O)(=O)c1ccc(C(=O)OCCOC(=O)c2ccc(-c3c4nc(c(-c5ccc(S(=O)(=O)[O-])cc5)c5ccc([nH]5)c(-c5ccc(S(=O)(=O)[O-])cc5)c5nc(c(-c6ccc(S(=O)(=O)[O-])cc6)c6ccc3[nH]6)C=C5)C=C4)cc2)o1
REMARK SMILES IDX 21 1 20 2 18 3 19 4 17 5 14 6 15 7 86 8 16 9 11 10 12 11
REMARK SMILES IDX 13 12 10 13 9 15 8 16 7 17 1 18 2 19 3 20 4 21 6 22 5 23
REMARK SMILES IDX 22 24 23 25 24 26 25 27 26 28 27 29 85 30 28 31 84 32 29 33
REMARK SMILES IDX 30 34 31 35 78 36 32 37 83 38 77 39 79 40 33 41 82 42 76 43
REMARK SMILES IDX 75 44 34 46 64 47 45 48 63 49 46 50 49 51 62 52 80 53 47 54
REMARK SMILES IDX 48 55 61 57 81 58 50 59 35 60 36 61 44 62 37 63 43 64 38 65
REMARK SMILES IDX 39 66 40 67 41 68 42 69 65 70 66 71 74 72 67 73 73 74 68 75
REMARK SMILES IDX 69 76 70 77 71 78 72 79 51 80 52 81 60 82 53 83 59 84 54 85
REMARK SMILES IDX 55 86 56 87 57 88 58 89
REMARK H PARENT 10 14 79 45 49 56
REMARK Flexibility Score: inf
ROOT
ATOM      1  C   UNL A   1      32.924  29.305  26.084  1.00  0.00     0.275 C 
ENDROOT
BRANCH   1   2
ATOM      2  O   UNL A   1      31.622  28.711  26.125  1.00  0.00    -0.456 OA
BRANCH   2   3
ATOM      3  C   UNL A   1      31.174  28.312  24.903  1.00  0.00     0.374 C 
ATOM      4  O   UNL A   1      31.033  29.068  23.950  1.00  0.00    -0.242 OA
BRANCH   3   5
ATOM      5  C   UNL A   1      30.782  26.919  24.899  1.00  0.00     0.213 A 
ATOM      6  C   UNL A   1      30.650  24.811  25.644  1.00  0.00     0.234 A 
ATOM      7  C   UNL A   1      30.319  24.819  24.290  1.00  0.00     0.065 A 
ATOM      8  O   UNL A   1      30.855  26.131  26.022  1.00  0.00    -0.436 OA
ATOM      9  C   UNL A   1      30.449  26.138  23.814  1.00  0.00     0.060 A 
BRANCH   6  10
ATOM     10  S   UNL A   1      30.973  23.374  26.695  1.00  0.00     0.273 S 
ATOM     11  O   UNL A   1      29.735  23.094  27.387  1.00  0.00    -0.204 OA
ATOM     12  O   UNL A   1      32.159  23.769  27.435  1.00  0.00    -0.204 OA
BRANCH  10  13
ATOM     13  N   UNL A   1      31.467  22.007  25.842  1.00  0.00    -0.208 NA
ATOM     14  H   UNL A   1      30.785  21.270  26.025  1.00  0.00     0.141 HD
BRANCH  13  15
ATOM     15  C   UNL A   1      32.818  21.448  26.145  1.00  0.00     0.104 C 
BRANCH  15  16
ATOM     16  C   UNL A   1      33.704  21.463  24.875  1.00  0.00     0.052 C 
BRANCH  16  17
ATOM     17  C   UNL A   1      33.681  22.749  24.049  1.00  0.00    -0.044 A 
ATOM     18  C   UNL A   1      35.039  24.160  25.739  1.00  0.00     0.044 C 
ATOM     19  C   UNL A   1      34.262  23.968  24.461  1.00  0.00    -0.048 A 
ATOM     20  C   UNL A   1      34.179  25.097  23.614  1.00  0.00     0.004 A 
ATOM     21  C   UNL A   1      33.530  25.037  22.384  1.00  0.00     0.000 A 
ATOM     22  C   UNL A   1      33.070  22.707  22.777  1.00  0.00     0.004 A 
ATOM     23  C   UNL A   1      32.978  23.837  21.961  1.00  0.00     0.000 A 
ENDBRANCH  16  17
ENDBRANCH  15  16
ENDBRANCH  13  15
ENDBRANCH  10  13
ENDBRANCH   6  10
ENDBRANCH   3   5
ENDBRANCH   2   3
ENDBRANCH   1   2
BRANCH   1  24
ATOM     24  C   UNL A   1      33.756  28.992  27.340  1.00  0.00     0.275 C 
BRANCH  24  25
ATOM     25  O   UNL A   1      35.212  29.018  27.293  1.00  0.00    -0.458 OA
BRANCH  25  26
ATOM     26  C   UNL A   1      35.941  30.091  27.713  1.00  0.00     0.338 C 
ATOM     27  O   UNL A   1      35.456  31.215  27.785  1.00  0.00    -0.246 OA
BRANCH  26  28
ATOM     28  C   UNL A   1      37.279  29.712  28.234  1.00  0.00     0.060 A 
ATOM     29  C   UNL A   1      37.399  29.066  29.474  1.00  0.00     0.016 A 
ATOM     30  C   UNL A   1      38.351  29.754  27.350  1.00  0.00     0.016 A 
ATOM     31  C   UNL A   1      38.539  28.318  29.763  1.00  0.00     0.010 A 
ATOM     32  C   UNL A   1      39.364  28.860  27.535  1.00  0.00     0.010 A 
ATOM     33  C   UNL A   1      39.490  28.183  28.758  1.00  0.00    -0.014 A 
BRANCH  33  34
ATOM     34  C   UNL A   1      40.788  27.546  28.906  1.00  0.00     0.031 A 
ATOM     35  C   UNL A   1      41.011  26.144  28.529  1.00  0.00     0.074 A 
ATOM     36  C   UNL A   1      41.743  28.432  29.278  1.00  0.00     0.049 A 
ATOM     37  N   UNL A   1      42.035  25.475  28.915  1.00  0.00    -0.248 NA
ATOM     38  C   UNL A   1      40.112  25.343  27.699  1.00  0.00     0.031 C 
ATOM     39  C   UNL A   1      43.191  28.379  29.297  1.00  0.00     0.029 A 
ATOM     40  N   UNL A   1      41.468  29.648  29.904  1.00  0.00    -0.354 N 
ATOM     41  C   UNL A   1      42.108  24.329  28.150  1.00  0.00     0.074 A 
ATOM     42  C   UNL A   1      40.830  24.227  27.496  1.00  0.00     0.031 C 
ATOM     43  C   UNL A   1      43.636  29.329  30.153  1.00  0.00     0.029 A 
ATOM     44  C   UNL A   1      42.473  29.923  30.813  1.00  0.00     0.049 A 
ATOM     45  H   UNL A   1      40.685  30.218  29.727  1.00  0.00     0.167 HD
ATOM     46  C   UNL A   1      43.318  23.708  28.060  1.00  0.00     0.031 A 
ATOM     47  C   UNL A   1      42.111  29.784  32.128  1.00  0.00     0.031 A 
ATOM     48  C   UNL A   1      44.281  24.391  28.925  1.00  0.00     0.049 A 
ATOM     49  C   UNL A   1      42.711  28.517  32.722  1.00  0.00     0.074 A 
ATOM     50  C   UNL A   1      45.248  25.357  28.704  1.00  0.00     0.029 A 
ATOM     51  N   UNL A   1      44.011  24.418  30.280  1.00  0.00    -0.354 N 
ATOM     52  N   UNL A   1      43.243  27.556  32.012  1.00  0.00    -0.248 NA
ATOM     53  C   UNL A   1      42.777  28.235  34.151  1.00  0.00     0.031 C 
ATOM     54  C   UNL A   1      45.517  25.995  29.954  1.00  0.00     0.029 A 
ATOM     55  C   UNL A   1      44.723  25.409  30.924  1.00  0.00     0.049 A 
ATOM     56  H   UNL A   1      43.386  23.805  30.731  1.00  0.00     0.167 HD
ATOM     57  C   UNL A   1      43.790  26.610  32.825  1.00  0.00     0.074 A 
ATOM     58  C   UNL A   1      43.416  27.051  34.162  1.00  0.00     0.031 C 
ATOM     59  C   UNL A   1      44.523  25.556  32.358  1.00  0.00     0.031 A 
BRANCH  46  60
ATOM     60  C   UNL A   1      43.728  22.652  27.062  1.00  0.00    -0.014 A 
ATOM     61  C   UNL A   1      42.856  21.556  26.870  1.00  0.00     0.010 A 
ATOM     62  C   UNL A   1      44.909  22.649  26.296  1.00  0.00     0.010 A 
ATOM     63  C   UNL A   1      43.151  20.497  26.004  1.00  0.00     0.020 A 
ATOM     64  C   UNL A   1      45.221  21.585  25.421  1.00  0.00     0.020 A 
ATOM     65  C   UNL A   1      44.339  20.512  25.286  1.00  0.00     0.054 A 
BRANCH  65  66
ATOM     66  S   UNL A   1      44.682  19.118  24.177  1.00  0.00     0.124 S 
ATOM     67  O   UNL A   1      44.410  19.690  22.861  1.00  0.00    -0.237 OA
ATOM     68  O   UNL A   1      46.086  18.829  24.456  1.00  0.00    -0.237 OA
ATOM     69  O   UNL A   1      43.738  18.088  24.609  1.00  0.00    -0.744 OA
ENDBRANCH  65  66
ENDBRANCH  46  60
BRANCH  47  70
ATOM     70  C   UNL A   1      40.733  30.361  32.411  1.00  0.00    -0.014 A 
ATOM     71  C   UNL A   1      39.916  29.671  33.348  1.00  0.00     0.010 A 
ATOM     72  C   UNL A   1      40.375  31.687  32.103  1.00  0.00     0.010 A 
ATOM     73  C   UNL A   1      38.885  30.315  34.049  1.00  0.00     0.020 A 
ATOM     74  C   UNL A   1      39.314  32.330  32.783  1.00  0.00     0.020 A 
ATOM     75  C   UNL A   1      38.607  31.653  33.782  1.00  0.00     0.054 A 
BRANCH  75  76
ATOM     76  S   UNL A   1      37.443  32.525  34.884  1.00  0.00     0.124 S 
ATOM     77  O   UNL A   1      37.466  31.696  36.086  1.00  0.00    -0.237 OA
ATOM     78  O   UNL A   1      38.075  33.837  35.020  1.00  0.00    -0.237 OA
ATOM     79  O   UNL A   1      36.184  32.504  34.144  1.00  0.00    -0.744 OA
ENDBRANCH  75  76
ENDBRANCH  47  70
BRANCH  59  80
ATOM     80  C   UNL A   1      45.110  24.498  33.245  1.00  0.00    -0.014 A 
ATOM     81  C   UNL A   1      46.425  24.553  33.718  1.00  0.00     0.010 A 
ATOM     82  C   UNL A   1      44.354  23.342  33.554  1.00  0.00     0.010 A 
ATOM     83  C   UNL A   1      46.917  23.556  34.565  1.00  0.00     0.020 A 
ATOM     84  C   UNL A   1      44.842  22.330  34.369  1.00  0.00     0.020 A 
ATOM     85  C   UNL A   1      46.114  22.464  34.903  1.00  0.00     0.054 A 
BRANCH  85  86
ATOM     86  S   UNL A   1      46.751  21.207  36.026  1.00  0.00     0.124 S 
ATOM     87  O   UNL A   1      47.857  20.633  35.263  1.00  0.00    -0.237 OA
ATOM     88  O   UNL A   1      47.135  22.011  37.184  1.00  0.00    -0.237 OA
ATOM     89  O   UNL A   1      45.614  20.315  36.236  1.00  0.00    -0.744 OA
ENDBRANCH  85  86
ENDBRANCH  59  80
ENDBRANCH  33  34
ENDBRANCH  26  28
ENDBRANCH  25  26
ENDBRANCH  24  25
ENDBRANCH   1  24
TORSDOF 19
ENDMDL
MODEL 3
REMARK VINA RESULT:     -12.1      4.618     11.218
REMARK SMILES Cc1ccccc1CCNS(=O)(=O)c1ccc(C(=O)OCCOC(=O)c2ccc(-c3c4nc(c(-c5ccc(S(=O)(=O)[O-])cc5)c5ccc([nH]5)c(-c5ccc(S(=O)(=O)[O-])cc5)c5nc(c(-c6ccc(S(=O)(=O)[O-])cc6)c6ccc3[nH]6)C=C5)C=C4)cc2)o1
REMARK SMILES IDX 21 1 20 2 18 3 19 4 17 5 14 6 15 7 86 8 16 9 11 10 12 11
REMARK SMILES IDX 13 12 10 13 9 15 8 16 7 17 1 18 2 19 3 20 4 21 6 22 5 23
REMARK SMILES IDX 22 24 23 25 24 26 25 27 26 28 27 29 85 30 28 31 84 32 29 33
REMARK SMILES IDX 30 34 31 35 78 36 32 37 83 38 77 39 79 40 33 41 82 42 76 43
REMARK SMILES IDX 75 44 34 46 64 47 45 48 63 49 46 50 49 51 62 52 80 53 47 54
REMARK SMILES IDX 48 55 61 57 81 58 50 59 35 60 36 61 44 62 37 63 43 64 38 65
REMARK SMILES IDX 39 66 40 67 41 68 42 69 65 70 66 71 74 72 67 73 73 74 68 75
REMARK SMILES IDX 69 76 70 77 71 78 72 79 51 80 52 81 60 82 53 83 59 84 54 85
REMARK SMILES IDX 55 86 56 87 57 88 58 89
REMARK H PARENT 10 14 79 45 49 56
REMARK Flexibility Score: inf
ROOT
ATOM      1  C   UNL A   1      37.009  23.832  26.248  1.00  0.00     0.275 C 
ENDROOT
BRANCH   1   2
ATOM      2  O   UNL A   1      36.153  23.497  25.152  1.00  0.00    -0.456 OA
BRANCH   2   3
ATOM      3  C   UNL A   1      35.114  22.691  25.507  1.00  0.00     0.374 C 
ATOM      4  O   UNL A   1      35.151  21.468  25.449  1.00  0.00    -0.242 OA
BRANCH   3   5
ATOM      5  C   UNL A   1      33.933  23.450  25.855  1.00  0.00     0.213 A 
ATOM      6  C   UNL A   1      32.683  25.277  26.202  1.00  0.00     0.234 A 
ATOM      7  C   UNL A   1      32.074  24.199  26.843  1.00  0.00     0.065 A 
ATOM      8  O   UNL A   1      33.790  24.778  25.529  1.00  0.00    -0.436 OA
ATOM      9  C   UNL A   1      32.886  23.064  26.662  1.00  0.00     0.060 A 
BRANCH   6  10
ATOM     10  S   UNL A   1      32.277  27.033  26.362  1.00  0.00     0.273 S 
ATOM     11  O   UNL A   1      33.492  27.691  26.783  1.00  0.00    -0.204 OA
ATOM     12  O   UNL A   1      31.106  27.021  27.222  1.00  0.00    -0.204 OA
BRANCH  10  13
ATOM     13  N   UNL A   1      31.720  27.732  24.932  1.00  0.00    -0.208 NA
ATOM     14  H   UNL A   1      31.701  28.742  25.074  1.00  0.00     0.141 HD
BRANCH  13  15
ATOM     15  C   UNL A   1      30.369  27.327  24.439  1.00  0.00     0.104 C 
BRANCH  15  16
ATOM     16  C   UNL A   1      30.472  26.738  23.011  1.00  0.00     0.052 C 
BRANCH  16  17
ATOM     17  C   UNL A   1      31.226  25.415  22.878  1.00  0.00    -0.044 A 
ATOM     18  C   UNL A   1      33.366  26.445  21.854  1.00  0.00     0.044 C 
ATOM     19  C   UNL A   1      32.521  25.291  22.328  1.00  0.00    -0.048 A 
ATOM     20  C   UNL A   1      33.123  24.014  22.253  1.00  0.00     0.004 A 
ATOM     21  C   UNL A   1      32.465  22.872  22.703  1.00  0.00     0.000 A 
ATOM     22  C   UNL A   1      30.603  24.246  23.367  1.00  0.00     0.004 A 
ATOM     23  C   UNL A   1      31.203  22.990  23.267  1.00  0.00     0.000 A 
ENDBRANCH  16  17
ENDBRANCH  15  16
ENDBRANCH  13  15
ENDBRANCH  10  13
ENDBRANCH   6  10
ENDBRANCH   3   5
ENDBRANCH   2   3
ENDBRANCH   1   2
BRANCH   1  24
ATOM     24  C   UNL A   1      38.440  23.293  26.066  1.00  0.00     0.275 C 
BRANCH  24  25
ATOM     25  O   UNL A   1      39.458  23.531  27.079  1.00  0.00    -0.458 OA
BRANCH  25  26
ATOM     26  C   UNL A   1      40.407  24.502  26.954  1.00  0.00     0.338 C 
ATOM     27  O   UNL A   1      41.414  24.338  26.275  1.00  0.00    -0.246 OA
BRANCH  26  28
ATOM     28  C   UNL A   1      39.994  25.795  27.557  1.00  0.00     0.060 A 
ATOM     29  C   UNL A   1      39.434  25.829  28.844  1.00  0.00     0.016 A 
ATOM     30  C   UNL A   1      40.436  26.961  26.946  1.00  0.00     0.016 A 
ATOM     31  C   UNL A   1      39.465  27.007  29.587  1.00  0.00     0.010 A 
ATOM     32  C   UNL A   1      40.662  28.050  27.737  1.00  0.00     0.010 A 
ATOM     33  C   UNL A   1      40.132  28.096  29.036  1.00  0.00    -0.014 A 
BRANCH  33  34
ATOM     34  C   UNL A   1      40.171  29.434  29.601  1.00  0.00     0.031 A 
ATOM     35  C   UNL A   1      39.059  30.380  29.434  1.00  0.00     0.074 A 
ATOM     36  C   UNL A   1      41.258  29.615  30.390  1.00  0.00     0.049 A 
ATOM     37  N   UNL A   1      39.178  31.638  29.654  1.00  0.00    -0.248 NA
ATOM     38  C   UNL A   1      37.711  30.024  28.993  1.00  0.00     0.031 C 
ATOM     39  C   UNL A   1      41.618  30.622  31.366  1.00  0.00     0.029 A 
ATOM     40  N   UNL A   1      42.417  28.843  30.298  1.00  0.00    -0.354 N 
ATOM     41  C   UNL A   1      37.911  32.181  29.716  1.00  0.00     0.074 A 
ATOM     42  C   UNL A   1      37.038  31.171  29.179  1.00  0.00     0.031 C 
ATOM     43  C   UNL A   1      42.960  30.587  31.534  1.00  0.00     0.029 A 
ATOM     44  C   UNL A   1      43.512  29.644  30.559  1.00  0.00     0.049 A 
ATOM     45  H   UNL A   1      42.448  27.883  30.082  1.00  0.00     0.167 HD
ATOM     46  C   UNL A   1      37.765  33.368  30.370  1.00  0.00     0.031 A 
ATOM     47  C   UNL A   1      44.277  29.946  29.462  1.00  0.00     0.031 A 
ATOM     48  C   UNL A   1      39.080  33.856  30.788  1.00  0.00     0.049 A 
ATOM     49  C   UNL A   1      44.051  31.388  29.028  1.00  0.00     0.074 A 
ATOM     50  C   UNL A   1      39.793  33.788  31.973  1.00  0.00     0.029 A 
ATOM     51  N   UNL A   1      40.005  34.124  29.796  1.00  0.00    -0.354 N 
ATOM     52  N   UNL A   1      43.063  32.134  29.449  1.00  0.00    -0.248 NA
ATOM     53  C   UNL A   1      44.920  32.109  28.104  1.00  0.00     0.031 C 
ATOM     54  C   UNL A   1      41.175  33.976  31.659  1.00  0.00     0.029 A 
ATOM     55  C   UNL A   1      41.291  34.167  30.293  1.00  0.00     0.049 A 
ATOM     56  H   UNL A   1      39.773  34.267  28.850  1.00  0.00     0.167 HD
ATOM     57  C   UNL A   1      43.187  33.403  28.971  1.00  0.00     0.074 A 
ATOM     58  C   UNL A   1      44.336  33.322  28.079  1.00  0.00     0.031 C 
ATOM     59  C   UNL A   1      42.367  34.429  29.350  1.00  0.00     0.031 A 
BRANCH  46  60
ATOM     60  C   UNL A   1      36.477  33.996  30.842  1.00  0.00    -0.014 A 
ATOM     61  C   UNL A   1      35.461  34.211  29.883  1.00  0.00     0.010 A 
ATOM     62  C   UNL A   1      36.184  34.397  32.159  1.00  0.00     0.010 A 
ATOM     63  C   UNL A   1      34.243  34.824  30.195  1.00  0.00     0.020 A 
ATOM     64  C   UNL A   1      34.959  35.020  32.488  1.00  0.00     0.020 A 
ATOM     65  C   UNL A   1      33.999  35.234  31.499  1.00  0.00     0.054 A 
BRANCH  65  66
ATOM     66  S   UNL A   1      32.407  36.027  31.859  1.00  0.00     0.124 S 
ATOM     67  O   UNL A   1      32.805  37.178  32.666  1.00  0.00    -0.237 OA
ATOM     68  O   UNL A   1      31.901  36.341  30.526  1.00  0.00    -0.237 OA
ATOM     69  O   UNL A   1      31.660  34.997  32.580  1.00  0.00    -0.744 OA
ENDBRANCH  65  66
ENDBRANCH  46  60
BRANCH  47  70
ATOM     70  C   UNL A   1      44.489  28.743  28.558  1.00  0.00    -0.014 A 
ATOM     71  C   UNL A   1      44.035  28.847  27.214  1.00  0.00     0.010 A 
ATOM     72  C   UNL A   1      45.406  27.715  28.847  1.00  0.00     0.010 A 
ATOM     73  C   UNL A   1      44.578  28.062  26.185  1.00  0.00     0.020 A 
ATOM     74  C   UNL A   1      45.930  26.898  27.817  1.00  0.00     0.020 A 
ATOM     75  C   UNL A   1      45.545  27.108  26.489  1.00  0.00     0.054 A 
BRANCH  75  76
ATOM     76  S   UNL A   1      46.409  26.290  25.105  1.00  0.00     0.124 S 
ATOM     77  O   UNL A   1      46.486  27.355  24.109  1.00  0.00    -0.237 OA
ATOM     78  O   UNL A   1      47.683  25.915  25.718  1.00  0.00    -0.237 OA
ATOM     79  O   UNL A   1      45.527  25.179  24.755  1.00  0.00    -0.744 OA
ENDBRANCH  75  76
ENDBRANCH  47  70
BRANCH  59  80
ATOM     80  C   UNL A   1      42.483  35.824  28.811  1.00  0.00    -0.014 A 
ATOM     81  C   UNL A   1      43.059  36.869  29.540  1.00  0.00     0.010 A 
ATOM     82  C   UNL A   1      41.912  36.142  27.556  1.00  0.00     0.010 A 
ATOM     83  C   UNL A   1      43.170  38.147  28.984  1.00  0.00     0.020 A 
ATOM     84  C   UNL A   1      41.988  37.414  27.005  1.00  0.00     0.020 A 
ATOM     85  C   UNL A   1      42.654  38.403  27.711  1.00  0.00     0.054 A 
BRANCH  85  86
ATOM     86  S   UNL A   1      42.838  40.046  26.994  1.00  0.00     0.124 S 
ATOM     87  O   UNL A   1      43.357  40.824  28.116  1.00  0.00    -0.237 OA
ATOM     88  O   UNL A   1      43.785  39.793  25.911  1.00  0.00    -0.237 OA
ATOM     89  O   UNL A   1      41.485  40.398  26.569  1.00  0.00    -0.744 OA
ENDBRANCH  85  86
ENDBRANCH  59  80
ENDBRANCH  33  34
ENDBRANCH  26  28
ENDBRANCH  25  26
ENDBRANCH  24  25
ENDBRANCH   1  24
TORSDOF 19
ENDMDL
