MODEL 1
REMARK VINA RESULT:     -10.0      0.000      0.000
REMARK SMILES CCN(CC(C)(C)O)C(=O)Nc1ccc(C(=O)OCCOC(=O)c2ccc(-c3c4nc(c(-c5ccc(S(=O)(=O)[O-])cc5)c5ccc([nH]5)c(-c5ccc(S(=O)(=O)[O-])cc5)c5nc(c(-c6ccc(S(=O)(=O)[O-])cc6)c6ccc3[nH]6)C=C5)C=C4)cc2)c(O)c1
REMARK SMILES IDX 19 1 18 2 16 3 17 4 15 5 12 6 13 7 86 8 14 9 84 10 11 11
REMARK SMILES IDX 9 12 10 13 3 15 2 16 1 17 4 18 5 19 6 20 7 21 8 22 85 24
REMARK SMILES IDX 20 26 21 27 22 28 23 29 24 30 25 31 83 32 26 33 82 34 27 35
REMARK SMILES IDX 28 36 29 37 76 38 30 39 81 40 75 41 77 42 31 43 80 44 74 45
REMARK SMILES IDX 73 46 32 48 62 49 43 50 61 51 44 52 47 53 60 54 78 55 45 56
REMARK SMILES IDX 46 57 59 59 79 60 48 61 33 62 34 63 42 64 35 65 41 66 36 67
REMARK SMILES IDX 37 68 38 69 39 70 40 71 63 72 64 73 72 74 65 75 71 76 66 77
REMARK SMILES IDX 67 78 68 79 69 80 70 81 49 82 50 83 58 84 51 85 57 86 52 87
REMARK SMILES IDX 53 88 54 89 55 90 56 91
REMARK H PARENT 11 14 8 23 85 25 77 47 47 58
REMARK Flexibility Score: inf
ROOT
ATOM      1  C   UNL A   1      36.204  20.479  25.238  1.00  0.00     0.275 C 
ENDROOT
BRANCH   1   2
ATOM      2  O   UNL A   1      35.194  21.268  25.899  1.00  0.00    -0.458 OA
BRANCH   2   3
ATOM      3  C   UNL A   1      34.155  21.659  25.117  1.00  0.00     0.342 C 
ATOM      4  O   UNL A   1      33.634  20.999  24.231  1.00  0.00    -0.246 OA
BRANCH   3   5
ATOM      5  C   UNL A   1      33.625  22.966  25.576  1.00  0.00     0.101 A 
ATOM      6  C   UNL A   1      32.695  25.587  26.082  1.00  0.00     0.046 A 
ATOM      7  C   UNL A   1      33.996  25.365  25.659  1.00  0.00     0.027 A 
ATOM      8  C   UNL A   1      31.912  24.471  26.407  1.00  0.00     0.073 A 
ATOM      9  C   UNL A   1      34.459  24.072  25.394  1.00  0.00     0.022 A 
ATOM     10  C   UNL A   1      32.362  23.172  26.137  1.00  0.00     0.132 A 
BRANCH   6  11
ATOM     11  N   UNL A   1      32.138  26.854  26.303  1.00  0.00    -0.308 N 
ATOM     12  C   UNL A   1      31.662  27.910  25.603  1.00  0.00     0.321 C 
ATOM     13  O   UNL A   1      31.627  28.966  26.253  1.00  0.00    -0.248 OA
ATOM     14  H   UNL A   1      32.075  27.031  27.269  1.00  0.00     0.171 HD
BRANCH  12  15
ATOM     15  N   UNL A   1      31.095  27.842  24.355  1.00  0.00    -0.322 N 
BRANCH  15  16
ATOM     16  C   UNL A   1      30.598  29.106  23.782  1.00  0.00     0.118 C 
ATOM     17  C   UNL A   1      29.260  28.950  23.069  1.00  0.00     0.027 C 
ENDBRANCH  15  16
BRANCH  15  18
ATOM     18  C   UNL A   1      30.845  26.672  23.508  1.00  0.00     0.155 C 
BRANCH  18  19
ATOM     19  C   UNL A   1      31.956  26.431  22.429  1.00  0.00     0.077 C 
ATOM     20  C   UNL A   1      33.220  27.289  22.606  1.00  0.00     0.043 C 
ATOM     21  C   UNL A   1      32.282  24.941  22.366  1.00  0.00     0.043 C 
BRANCH  19  22
ATOM     22  O   UNL A   1      31.427  26.765  21.133  1.00  0.00    -0.389 OA
ATOM     23  H   UNL A   1      31.901  26.264  20.451  1.00  0.00     0.211 HD
ENDBRANCH  19  22
ENDBRANCH  18  19
ENDBRANCH  15  18
ENDBRANCH  12  15
ENDBRANCH   6  11
BRANCH  10  24
ATOM     24  O   UNL A   1      31.497  22.160  26.455  1.00  0.00    -0.507 OA
ATOM     25  H   UNL A   1      30.722  22.029  25.943  1.00  0.00     0.293 HD
ENDBRANCH  10  24
ENDBRANCH   3   5
ENDBRANCH   2   3
ENDBRANCH   1   2
BRANCH   1  26
ATOM     26  C   UNL A   1      37.355  21.361  24.745  1.00  0.00     0.275 C 
BRANCH  26  27
ATOM     27  O   UNL A   1      37.841  22.254  25.768  1.00  0.00    -0.458 OA
BRANCH  27  28
ATOM     28  C   UNL A   1      39.109  22.025  26.182  1.00  0.00     0.338 C 
ATOM     29  O   UNL A   1      39.765  21.010  26.020  1.00  0.00    -0.246 OA
BRANCH  28  30
ATOM     30  C   UNL A   1      39.632  23.207  26.886  1.00  0.00     0.060 A 
ATOM     31  C   UNL A   1      39.208  24.471  26.488  1.00  0.00     0.016 A 
ATOM     32  C   UNL A   1      40.653  23.075  27.829  1.00  0.00     0.016 A 
ATOM     33  C   UNL A   1      39.863  25.604  26.985  1.00  0.00     0.010 A 
ATOM     34  C   UNL A   1      41.267  24.221  28.359  1.00  0.00     0.010 A 
ATOM     35  C   UNL A   1      40.915  25.508  27.913  1.00  0.00    -0.014 A 
BRANCH  35  36
ATOM     36  C   UNL A   1      41.673  26.721  28.375  1.00  0.00     0.031 A 
ATOM     37  C   UNL A   1      40.959  27.857  29.084  1.00  0.00     0.074 A 
ATOM     38  C   UNL A   1      43.007  26.830  28.191  1.00  0.00     0.049 A 
ATOM     39  N   UNL A   1      41.372  29.079  29.316  1.00  0.00    -0.248 NA
ATOM     40  C   UNL A   1      39.606  27.582  29.596  1.00  0.00     0.031 C 
ATOM     41  C   UNL A   1      43.877  25.809  27.602  1.00  0.00     0.029 A 
ATOM     42  N   UNL A   1      43.873  27.862  28.484  1.00  0.00    -0.354 N 
ATOM     43  C   UNL A   1      40.313  29.735  29.940  1.00  0.00     0.074 A 
ATOM     44  C   UNL A   1      39.239  28.771  30.060  1.00  0.00     0.031 C 
ATOM     45  C   UNL A   1      45.144  26.247  27.610  1.00  0.00     0.029 A 
ATOM     46  C   UNL A   1      45.170  27.623  28.089  1.00  0.00     0.049 A 
ATOM     47  H   UNL A   1      43.590  28.692  28.933  1.00  0.00     0.167 HD
ATOM     48  C   UNL A   1      40.236  31.020  30.371  1.00  0.00     0.031 A 
ATOM     49  C   UNL A   1      46.253  28.427  28.042  1.00  0.00     0.031 A 
ATOM     50  C   UNL A   1      41.320  31.969  30.303  1.00  0.00     0.049 A 
ATOM     51  C   UNL A   1      46.132  29.867  28.459  1.00  0.00     0.074 A 
ATOM     52  C   UNL A   1      41.322  33.303  30.681  1.00  0.00     0.029 A 
ATOM     53  N   UNL A   1      42.601  31.680  29.864  1.00  0.00    -0.354 N 
ATOM     54  N   UNL A   1      45.086  30.501  28.929  1.00  0.00    -0.248 NA
ATOM     55  C   UNL A   1      47.332  30.705  28.316  1.00  0.00     0.031 C 
ATOM     56  C   UNL A   1      42.595  33.828  30.444  1.00  0.00     0.029 A 
ATOM     57  C   UNL A   1      43.400  32.807  29.966  1.00  0.00     0.049 A 
ATOM     58  H   UNL A   1      42.900  30.805  29.530  1.00  0.00     0.167 HD
ATOM     59  C   UNL A   1      45.509  31.806  29.156  1.00  0.00     0.074 A 
ATOM     60  C   UNL A   1      46.906  31.870  28.786  1.00  0.00     0.031 C 
ATOM     61  C   UNL A   1      44.796  32.858  29.624  1.00  0.00     0.031 A 
BRANCH  48  62
ATOM     62  C   UNL A   1      38.925  31.510  30.932  1.00  0.00    -0.014 A 
ATOM     63  C   UNL A   1      38.624  31.399  32.300  1.00  0.00     0.010 A 
ATOM     64  C   UNL A   1      38.022  32.185  30.087  1.00  0.00     0.010 A 
ATOM     65  C   UNL A   1      37.435  31.936  32.809  1.00  0.00     0.020 A 
ATOM     66  C   UNL A   1      36.845  32.744  30.595  1.00  0.00     0.020 A 
ATOM     67  C   UNL A   1      36.554  32.605  31.953  1.00  0.00     0.054 A 
BRANCH  67  68
ATOM     68  S   UNL A   1      35.041  33.332  32.647  1.00  0.00     0.124 S 
ATOM     69  O   UNL A   1      35.160  34.727  32.231  1.00  0.00    -0.237 OA
ATOM     70  O   UNL A   1      33.985  32.568  31.989  1.00  0.00    -0.237 OA
ATOM     71  O   UNL A   1      35.172  33.098  34.083  1.00  0.00    -0.744 OA
ENDBRANCH  67  68
ENDBRANCH  48  62
BRANCH  49  72
ATOM     72  C   UNL A   1      47.534  27.912  27.480  1.00  0.00    -0.014 A 
ATOM     73  C   UNL A   1      47.833  28.051  26.115  1.00  0.00     0.010 A 
ATOM     74  C   UNL A   1      48.459  27.263  28.320  1.00  0.00     0.010 A 
ATOM     75  C   UNL A   1      49.025  27.535  25.596  1.00  0.00     0.020 A 
ATOM     76  C   UNL A   1      49.666  26.778  27.813  1.00  0.00     0.020 A 
ATOM     77  C   UNL A   1      49.933  26.901  26.449  1.00  0.00     0.054 A 
BRANCH  77  78
ATOM     78  S   UNL A   1      51.494  26.271  25.772  1.00  0.00     0.124 S 
ATOM     79  O   UNL A   1      51.263  26.377  24.336  1.00  0.00    -0.237 OA
ATOM     80  O   UNL A   1      52.479  27.196  26.327  1.00  0.00    -0.237 OA
ATOM     81  O   UNL A   1      51.566  24.910  26.299  1.00  0.00    -0.744 OA
ENDBRANCH  77  78
ENDBRANCH  49  72
BRANCH  61  82
ATOM     82  C   UNL A   1      45.522  34.160  29.831  1.00  0.00    -0.014 A 
ATOM     83  C   UNL A   1      46.185  34.444  31.036  1.00  0.00     0.010 A 
ATOM     84  C   UNL A   1      45.600  35.081  28.770  1.00  0.00     0.010 A 
ATOM     85  C   UNL A   1      46.904  35.634  31.183  1.00  0.00     0.020 A 
ATOM     86  C   UNL A   1      46.333  36.262  28.905  1.00  0.00     0.020 A 
ATOM     87  C   UNL A   1      46.975  36.535  30.115  1.00  0.00     0.054 A 
BRANCH  87  88
ATOM     88  S   UNL A   1      47.969  38.041  30.305  1.00  0.00     0.124 S 
ATOM     89  O   UNL A   1      47.101  38.878  31.129  1.00  0.00    -0.237 OA
ATOM     90  O   UNL A   1      49.176  37.548  30.964  1.00  0.00    -0.237 OA
ATOM     91  O   UNL A   1      48.162  38.505  28.933  1.00  0.00    -0.744 OA
ENDBRANCH  87  88
ENDBRANCH  61  82
ENDBRANCH  35  36
ENDBRANCH  28  30
ENDBRANCH  27  28
ENDBRANCH  26  27
ENDBRANCH   1  26
TORSDOF 21
ENDMDL
MODEL 2
REMARK VINA RESULT:      -9.8      5.609      9.136
REMARK SMILES CCN(CC(C)(C)O)C(=O)Nc1ccc(C(=O)OCCOC(=O)c2ccc(-c3c4nc(c(-c5ccc(S(=O)(=O)[O-])cc5)c5ccc([nH]5)c(-c5ccc(S(=O)(=O)[O-])cc5)c5nc(c(-c6ccc(S(=O)(=O)[O-])cc6)c6ccc3[nH]6)C=C5)C=C4)cc2)c(O)c1
REMARK SMILES IDX 19 1 18 2 16 3 17 4 15 5 12 6 13 7 86 8 14 9 84 10 11 11
REMARK SMILES IDX 9 12 10 13 3 15 2 16 1 17 4 18 5 19 6 20 7 21 8 22 85 24
REMARK SMILES IDX 20 26 21 27 22 28 23 29 24 30 25 31 83 32 26 33 82 34 27 35
REMARK SMILES IDX 28 36 29 37 76 38 30 39 81 40 75 41 77 42 31 43 80 44 74 45
REMARK SMILES IDX 73 46 32 48 62 49 43 50 61 51 44 52 47 53 60 54 78 55 45 56
REMARK SMILES IDX 46 57 59 59 79 60 48 61 33 62 34 63 42 64 35 65 41 66 36 67
REMARK SMILES IDX 37 68 38 69 39 70 40 71 63 72 64 73 72 74 65 75 71 76 66 77
REMARK SMILES IDX 67 78 68 79 69 80 70 81 49 82 50 83 58 84 51 85 57 86 52 87
REMARK SMILES IDX 53 88 54 89 55 90 56 91
REMARK H PARENT 11 14 8 23 85 25 77 47 47 58
REMARK Flexibility Score: inf
ROOT
ATOM      1  C   UNL A   1      34.384  34.574  27.877  1.00  0.00     0.275 C 
ENDROOT
BRANCH   1   2
ATOM      2  O   UNL A   1      33.934  33.230  28.144  1.00  0.00    -0.458 OA
BRANCH   2   3
ATOM      3  C   UNL A   1      34.825  32.248  27.853  1.00  0.00     0.342 C 
ATOM      4  O   UNL A   1      36.041  32.346  27.896  1.00  0.00    -0.246 OA
BRANCH   3   5
ATOM      5  C   UNL A   1      34.120  30.967  27.606  1.00  0.00     0.101 A 
ATOM      6  C   UNL A   1      32.670  28.683  26.785  1.00  0.00     0.046 A 
ATOM      7  C   UNL A   1      32.053  29.922  26.875  1.00  0.00     0.027 A 
ATOM      8  C   UNL A   1      33.981  28.567  27.269  1.00  0.00     0.073 A 
ATOM      9  C   UNL A   1      32.768  31.058  27.267  1.00  0.00     0.022 A 
ATOM     10  C   UNL A   1      34.708  29.700  27.656  1.00  0.00     0.132 A 
BRANCH   6  11
ATOM     11  N   UNL A   1      32.041  27.514  26.337  1.00  0.00    -0.308 N 
ATOM     12  C   UNL A   1      32.075  26.659  25.289  1.00  0.00     0.321 C 
ATOM     13  O   UNL A   1      31.048  25.974  25.168  1.00  0.00    -0.248 OA
ATOM     14  H   UNL A   1      31.361  27.226  26.988  1.00  0.00     0.171 HD
BRANCH  12  15
ATOM     15  N   UNL A   1      33.176  26.404  24.510  1.00  0.00    -0.322 N 
BRANCH  15  16
ATOM     16  C   UNL A   1      34.261  25.622  25.130  1.00  0.00     0.118 C 
ATOM     17  C   UNL A   1      33.765  24.351  25.809  1.00  0.00     0.027 C 
ENDBRANCH  15  16
BRANCH  15  18
ATOM     18  C   UNL A   1      33.476  26.851  23.146  1.00  0.00     0.155 C 
BRANCH  18  19
ATOM     19  C   UNL A   1      32.711  26.044  22.041  1.00  0.00     0.077 C 
ATOM     20  C   UNL A   1      32.696  24.521  22.251  1.00  0.00     0.043 C 
ATOM     21  C   UNL A   1      31.303  26.614  21.887  1.00  0.00     0.043 C 
BRANCH  19  22
ATOM     22  O   UNL A   1      33.356  26.264  20.773  1.00  0.00    -0.389 OA
ATOM     23  H   UNL A   1      34.245  25.877  20.791  1.00  0.00     0.211 HD
ENDBRANCH  19  22
ENDBRANCH  18  19
ENDBRANCH  15  18
ENDBRANCH  12  15
ENDBRANCH   6  11
BRANCH  10  24
ATOM     24  O   UNL A   1      35.993  29.475  28.069  1.00  0.00    -0.507 OA
ATOM     25  H   UNL A   1      36.678  29.375  27.436  1.00  0.00     0.293 HD
ENDBRANCH  10  24
ENDBRANCH   3   5
ENDBRANCH   2   3
ENDBRANCH   1   2
BRANCH   1  26
ATOM     26  C   UNL A   1      33.507  35.602  28.600  1.00  0.00     0.275 C 
BRANCH  26  27
ATOM     27  O   UNL A   1      32.730  35.013  29.661  1.00  0.00    -0.458 OA
BRANCH  27  28
ATOM     28  C   UNL A   1      32.873  35.592  30.875  1.00  0.00     0.338 C 
ATOM     29  O   UNL A   1      32.262  36.554  31.308  1.00  0.00    -0.246 OA
BRANCH  28  30
ATOM     30  C   UNL A   1      33.904  34.887  31.654  1.00  0.00     0.060 A 
ATOM     31  C   UNL A   1      34.941  35.621  32.221  1.00  0.00     0.016 A 
ATOM     32  C   UNL A   1      33.931  33.491  31.692  1.00  0.00     0.016 A 
ATOM     33  C   UNL A   1      36.043  34.949  32.762  1.00  0.00     0.010 A 
ATOM     34  C   UNL A   1      35.018  32.829  32.285  1.00  0.00     0.010 A 
ATOM     35  C   UNL A   1      36.118  33.545  32.792  1.00  0.00    -0.014 A 
BRANCH  35  36
ATOM     36  C   UNL A   1      37.341  32.830  33.292  1.00  0.00     0.031 A 
ATOM     37  C   UNL A   1      37.784  32.971  34.737  1.00  0.00     0.074 A 
ATOM     38  C   UNL A   1      38.071  32.030  32.483  1.00  0.00     0.049 A 
ATOM     39  N   UNL A   1      38.933  32.662  35.286  1.00  0.00    -0.248 NA
ATOM     40  C   UNL A   1      36.808  33.535  35.685  1.00  0.00     0.031 C 
ATOM     41  C   UNL A   1      37.759  31.709  31.088  1.00  0.00     0.029 A 
ATOM     42  N   UNL A   1      39.238  31.337  32.721  1.00  0.00    -0.354 N 
ATOM     43  C   UNL A   1      38.843  33.049  36.622  1.00  0.00     0.074 A 
ATOM     44  C   UNL A   1      37.521  33.610  36.803  1.00  0.00     0.031 C 
ATOM     45  C   UNL A   1      38.681  30.862  30.611  1.00  0.00     0.029 A 
ATOM     46  C   UNL A   1      39.719  30.670  31.616  1.00  0.00     0.049 A 
ATOM     47  H   UNL A   1      39.686  31.320  33.598  1.00  0.00     0.167 HD
ATOM     48  C   UNL A   1      39.773  32.954  37.605  1.00  0.00     0.031 A 
ATOM     49  C   UNL A   1      40.888  30.034  31.394  1.00  0.00     0.031 A 
ATOM     50  C   UNL A   1      41.071  32.348  37.444  1.00  0.00     0.049 A 
ATOM     51  C   UNL A   1      41.934  29.997  32.473  1.00  0.00     0.074 A 
ATOM     52  C   UNL A   1      42.093  32.240  38.375  1.00  0.00     0.029 A 
ATOM     53  N   UNL A   1      41.516  31.718  36.294  1.00  0.00    -0.354 N 
ATOM     54  N   UNL A   1      41.876  30.481  33.690  1.00  0.00    -0.248 NA
ATOM     55  C   UNL A   1      43.212  29.350  32.142  1.00  0.00     0.031 C 
ATOM     56  C   UNL A   1      43.165  31.570  37.780  1.00  0.00     0.029 A 
ATOM     57  C   UNL A   1      42.791  31.215  36.494  1.00  0.00     0.049 A 
ATOM     58  H   UNL A   1      41.002  31.638  35.459  1.00  0.00     0.167 HD
ATOM     59  C   UNL A   1      43.102  30.177  34.274  1.00  0.00     0.074 A 
ATOM     60  C   UNL A   1      43.875  29.458  33.285  1.00  0.00     0.031 C 
ATOM     61  C   UNL A   1      43.546  30.476  35.517  1.00  0.00     0.031 A 
BRANCH  48  62
ATOM     62  C   UNL A   1      39.450  33.544  38.955  1.00  0.00    -0.014 A 
ATOM     63  C   UNL A   1      38.955  32.751  40.004  1.00  0.00     0.010 A 
ATOM     64  C   UNL A   1      39.746  34.899  39.205  1.00  0.00     0.010 A 
ATOM     65  C   UNL A   1      38.741  33.306  41.271  1.00  0.00     0.020 A 
ATOM     66  C   UNL A   1      39.557  35.451  40.475  1.00  0.00     0.020 A 
ATOM     67  C   UNL A   1      39.044  34.653  41.498  1.00  0.00     0.054 A 
BRANCH  67  68
ATOM     68  S   UNL A   1      38.801  35.337  43.163  1.00  0.00     0.124 S 
ATOM     69  O   UNL A   1      37.348  35.282  43.301  1.00  0.00    -0.237 OA
ATOM     70  O   UNL A   1      39.547  34.406  44.005  1.00  0.00    -0.237 OA
ATOM     71  O   UNL A   1      39.367  36.680  43.073  1.00  0.00    -0.744 OA
ENDBRANCH  67  68
ENDBRANCH  48  62
BRANCH  49  72
ATOM     72  C   UNL A   1      41.176  29.463  30.048  1.00  0.00    -0.014 A 
ATOM     73  C   UNL A   1      40.639  28.226  29.656  1.00  0.00     0.010 A 
ATOM     74  C   UNL A   1      42.010  30.160  29.153  1.00  0.00     0.010 A 
ATOM     75  C   UNL A   1      40.945  27.687  28.402  1.00  0.00     0.020 A 
ATOM     76  C   UNL A   1      42.289  29.643  27.887  1.00  0.00     0.020 A 
ATOM     77  C   UNL A   1      41.769  28.400  27.525  1.00  0.00     0.054 A 
BRANCH  77  78
ATOM     78  S   UNL A   1      42.125  27.711  25.886  1.00  0.00     0.124 S 
ATOM     79  O   UNL A   1      42.074  28.900  25.043  1.00  0.00    -0.237 OA
ATOM     80  O   UNL A   1      43.449  27.120  26.069  1.00  0.00    -0.237 OA
ATOM     81  O   UNL A   1      41.046  26.748  25.682  1.00  0.00    -0.744 OA
ENDBRANCH  77  78
ENDBRANCH  49  72
BRANCH  61  82
ATOM     82  C   UNL A   1      44.906  29.973  35.916  1.00  0.00    -0.014 A 
ATOM     83  C   UNL A   1      46.057  30.759  35.741  1.00  0.00     0.010 A 
ATOM     84  C   UNL A   1      45.019  28.718  36.544  1.00  0.00     0.010 A 
ATOM     85  C   UNL A   1      47.302  30.294  36.176  1.00  0.00     0.020 A 
ATOM     86  C   UNL A   1      46.258  28.259  36.998  1.00  0.00     0.020 A 
ATOM     87  C   UNL A   1      47.394  29.047  36.804  1.00  0.00     0.054 A 
BRANCH  87  88
ATOM     88  S   UNL A   1      49.009  28.495  37.420  1.00  0.00     0.124 S 
ATOM     89  O   UNL A   1      49.931  29.222  36.553  1.00  0.00    -0.237 OA
ATOM     90  O   UNL A   1      48.986  28.928  38.815  1.00  0.00    -0.237 OA
ATOM     91  O   UNL A   1      48.978  27.047  37.224  1.00  0.00    -0.744 OA
ENDBRANCH  87  88
ENDBRANCH  61  82
ENDBRANCH  35  36
ENDBRANCH  28  30
ENDBRANCH  27  28
ENDBRANCH  26  27
ENDBRANCH   1  26
TORSDOF 21
ENDMDL
MODEL 3
REMARK VINA RESULT:      -9.8      2.435      7.899
REMARK SMILES CCN(CC(C)(C)O)C(=O)Nc1ccc(C(=O)OCCOC(=O)c2ccc(-c3c4nc(c(-c5ccc(S(=O)(=O)[O-])cc5)c5ccc([nH]5)c(-c5ccc(S(=O)(=O)[O-])cc5)c5nc(c(-c6ccc(S(=O)(=O)[O-])cc6)c6ccc3[nH]6)C=C5)C=C4)cc2)c(O)c1
REMARK SMILES IDX 19 1 18 2 16 3 17 4 15 5 12 6 13 7 86 8 14 9 84 10 11 11
REMARK SMILES IDX 9 12 10 13 3 15 2 16 1 17 4 18 5 19 6 20 7 21 8 22 85 24
REMARK SMILES IDX 20 26 21 27 22 28 23 29 24 30 25 31 83 32 26 33 82 34 27 35
REMARK SMILES IDX 28 36 29 37 76 38 30 39 81 40 75 41 77 42 31 43 80 44 74 45
REMARK SMILES IDX 73 46 32 48 62 49 43 50 61 51 44 52 47 53 60 54 78 55 45 56
REMARK SMILES IDX 46 57 59 59 79 60 48 61 33 62 34 63 42 64 35 65 41 66 36 67
REMARK SMILES IDX 37 68 38 69 39 70 40 71 63 72 64 73 72 74 65 75 71 76 66 77
REMARK SMILES IDX 67 78 68 79 69 80 70 81 49 82 50 83 58 84 51 85 57 86 52 87
REMARK SMILES IDX 53 88 54 89 55 90 56 91
REMARK H PARENT 11 14 8 23 85 25 77 47 47 58
REMARK Flexibility Score: inf
ROOT
ATOM      1  C   UNL A   1      31.826  30.508  26.883  1.00  0.00     0.275 C 
ENDROOT
BRANCH   1   2
ATOM      2  O   UNL A   1      32.318  29.208  26.498  1.00  0.00    -0.458 OA
BRANCH   2   3
ATOM      3  C   UNL A   1      31.714  28.654  25.416  1.00  0.00     0.342 C 
ATOM      4  O   UNL A   1      31.028  29.242  24.595  1.00  0.00    -0.246 OA
BRANCH   3   5
ATOM      5  C   UNL A   1      32.117  27.233  25.271  1.00  0.00     0.101 A 
ATOM      6  C   UNL A   1      32.498  24.454  24.918  1.00  0.00     0.046 A 
ATOM      7  C   UNL A   1      31.621  24.935  25.880  1.00  0.00     0.027 A 
ATOM      8  C   UNL A   1      33.305  25.382  24.246  1.00  0.00     0.073 A 
ATOM      9  C   UNL A   1      31.418  26.308  26.050  1.00  0.00     0.022 A 
ATOM     10  C   UNL A   1      33.103  26.759  24.403  1.00  0.00     0.132 A 
BRANCH   6  11
ATOM     11  N   UNL A   1      32.705  23.096  24.643  1.00  0.00    -0.308 N 
ATOM     12  C   UNL A   1      33.655  22.144  24.792  1.00  0.00     0.321 C 
ATOM     13  O   UNL A   1      33.511  21.171  24.038  1.00  0.00    -0.248 OA
ATOM     14  H   UNL A   1      31.911  22.716  24.201  1.00  0.00     0.171 HD
BRANCH  12  15
ATOM     15  N   UNL A   1      34.604  22.122  25.784  1.00  0.00    -0.322 N 
BRANCH  15  16
ATOM     16  C   UNL A   1      34.252  21.407  27.024  1.00  0.00     0.118 C 
ATOM     17  C   UNL A   1      33.452  22.264  27.998  1.00  0.00     0.027 C 
ENDBRANCH  15  16
BRANCH  15  18
ATOM     18  C   UNL A   1      35.921  22.765  25.828  1.00  0.00     0.155 C 
BRANCH  18  19
ATOM     19  C   UNL A   1      36.964  22.123  24.850  1.00  0.00     0.077 C 
ATOM     20  C   UNL A   1      37.014  20.586  24.881  1.00  0.00     0.043 C 
ATOM     21  C   UNL A   1      36.727  22.659  23.440  1.00  0.00     0.043 C 
BRANCH  19  22
ATOM     22  O   UNL A   1      38.282  22.571  25.215  1.00  0.00    -0.389 OA
ATOM     23  H   UNL A   1      38.702  22.998  24.452  1.00  0.00     0.211 HD
ENDBRANCH  19  22
ENDBRANCH  18  19
ENDBRANCH  15  18
ENDBRANCH  12  15
ENDBRANCH   6  11
BRANCH  10  24
ATOM     24  O   UNL A   1      33.919  27.572  23.663  1.00  0.00    -0.507 OA
ATOM     25  H   UNL A   1      34.584  27.197  23.118  1.00  0.00     0.293 HD
ENDBRANCH  10  24
ENDBRANCH   3   5
ENDBRANCH   2   3
ENDBRANCH   1   2
BRANCH   1  26
ATOM     26  C   UNL A   1      32.981  31.492  27.095  1.00  0.00     0.275 C 
BRANCH  26  27
ATOM     27  O   UNL A   1      34.233  30.824  27.349  1.00  0.00    -0.458 OA
BRANCH  27  28
ATOM     28  C   UNL A   1      34.834  31.143  28.519  1.00  0.00     0.338 C 
ATOM     29  O   UNL A   1      34.407  31.886  29.386  1.00  0.00    -0.246 OA
BRANCH  28  30
ATOM     30  C   UNL A   1      36.127  30.449  28.629  1.00  0.00     0.060 A 
ATOM     31  C   UNL A   1      36.648  30.193  29.893  1.00  0.00     0.016 A 
ATOM     32  C   UNL A   1      36.892  30.193  27.490  1.00  0.00     0.016 A 
ATOM     33  C   UNL A   1      37.970  29.747  30.015  1.00  0.00     0.010 A 
ATOM     34  C   UNL A   1      38.199  29.697  27.624  1.00  0.00     0.010 A 
ATOM     35  C   UNL A   1      38.780  29.507  28.891  1.00  0.00    -0.014 A 
BRANCH  35  36
ATOM     36  C   UNL A   1      40.224  29.115  29.028  1.00  0.00     0.031 A 
ATOM     37  C   UNL A   1      41.259  30.124  29.493  1.00  0.00     0.074 A 
ATOM     38  C   UNL A   1      40.643  27.858  28.761  1.00  0.00     0.049 A 
ATOM     39  N   UNL A   1      42.566  30.063  29.420  1.00  0.00    -0.248 NA
ATOM     40  C   UNL A   1      40.757  31.359  30.117  1.00  0.00     0.031 C 
ATOM     41  C   UNL A   1      39.785  26.733  28.379  1.00  0.00     0.029 A 
ATOM     42  N   UNL A   1      41.908  27.312  28.770  1.00  0.00    -0.354 N 
ATOM     43  C   UNL A   1      43.040  31.272  29.928  1.00  0.00     0.074 A 
ATOM     44  C   UNL A   1      41.878  32.044  30.314  1.00  0.00     0.031 C 
ATOM     45  C   UNL A   1      40.537  25.634  28.227  1.00  0.00     0.029 A 
ATOM     46  C   UNL A   1      41.942  25.992  28.379  1.00  0.00     0.049 A 
ATOM     47  H   UNL A   1      42.712  27.818  29.031  1.00  0.00     0.167 HD
ATOM     48  C   UNL A   1      44.320  31.703  30.058  1.00  0.00     0.031 A 
ATOM     49  C   UNL A   1      42.974  25.169  28.100  1.00  0.00     0.031 A 
ATOM     50  C   UNL A   1      45.483  30.918  29.725  1.00  0.00     0.049 A 
ATOM     51  C   UNL A   1      44.384  25.684  28.183  1.00  0.00     0.074 A 
ATOM     52  C   UNL A   1      46.818  31.286  29.789  1.00  0.00     0.029 A 
ATOM     53  N   UNL A   1      45.456  29.599  29.304  1.00  0.00    -0.354 N 
ATOM     54  N   UNL A   1      44.804  26.871  28.545  1.00  0.00    -0.248 NA
ATOM     55  C   UNL A   1      45.457  24.756  27.796  1.00  0.00     0.031 C 
ATOM     56  C   UNL A   1      47.596  30.200  29.379  1.00  0.00     0.029 A 
ATOM     57  C   UNL A   1      46.748  29.139  29.109  1.00  0.00     0.049 A 
ATOM     58  H   UNL A   1      44.640  29.067  29.163  1.00  0.00     0.167 HD
ATOM     59  C   UNL A   1      46.191  26.824  28.449  1.00  0.00     0.074 A 
ATOM     60  C   UNL A   1      46.540  25.491  28.009  1.00  0.00     0.031 C 
ATOM     61  C   UNL A   1      47.091  27.804  28.698  1.00  0.00     0.031 A 
BRANCH  48  62
ATOM     62  C   UNL A   1      44.556  33.108  30.554  1.00  0.00    -0.014 A 
ATOM     63  C   UNL A   1      44.798  33.376  31.912  1.00  0.00     0.010 A 
ATOM     64  C   UNL A   1      44.635  34.164  29.625  1.00  0.00     0.010 A 
ATOM     65  C   UNL A   1      45.095  34.677  32.334  1.00  0.00     0.020 A 
ATOM     66  C   UNL A   1      44.955  35.460  30.039  1.00  0.00     0.020 A 
ATOM     67  C   UNL A   1      45.172  35.711  31.394  1.00  0.00     0.054 A 
BRANCH  67  68
ATOM     68  S   UNL A   1      45.605  37.381  31.962  1.00  0.00     0.124 S 
ATOM     69  O   UNL A   1      46.149  37.114  33.291  1.00  0.00    -0.237 OA
ATOM     70  O   UNL A   1      46.575  37.819  30.962  1.00  0.00    -0.237 OA
ATOM     71  O   UNL A   1      44.331  38.094  31.944  1.00  0.00    -0.744 OA
ENDBRANCH  67  68
ENDBRANCH  48  62
BRANCH  49  72
ATOM     72  C   UNL A   1      42.707  23.786  27.610  1.00  0.00    -0.014 A 
ATOM     73  C   UNL A   1      42.665  23.501  26.235  1.00  0.00     0.010 A 
ATOM     74  C   UNL A   1      42.478  22.747  28.531  1.00  0.00     0.010 A 
ATOM     75  C   UNL A   1      42.382  22.205  25.790  1.00  0.00     0.020 A 
ATOM     76  C   UNL A   1      42.231  21.445  28.092  1.00  0.00     0.020 A 
ATOM     77  C   UNL A   1      42.165  21.186  26.722  1.00  0.00     0.054 A 
BRANCH  77  78
ATOM     78  S   UNL A   1      41.839  19.502  26.134  1.00  0.00     0.124 S 
ATOM     79  O   UNL A   1      42.693  19.425  24.954  1.00  0.00    -0.237 OA
ATOM     80  O   UNL A   1      42.251  18.681  27.270  1.00  0.00    -0.237 OA
ATOM     81  O   UNL A   1      40.402  19.508  25.870  1.00  0.00    -0.744 OA
ENDBRANCH  77  78
ENDBRANCH  49  72
BRANCH  61  82
ATOM     82  C   UNL A   1      48.551  27.464  28.569  1.00  0.00    -0.014 A 
ATOM     83  C   UNL A   1      49.235  27.624  27.352  1.00  0.00     0.010 A 
ATOM     84  C   UNL A   1      49.264  27.046  29.708  1.00  0.00     0.010 A 
ATOM     85  C   UNL A   1      50.605  27.360  27.273  1.00  0.00     0.020 A 
ATOM     86  C   UNL A   1      50.637  26.800  29.638  1.00  0.00     0.020 A 
ATOM     87  C   UNL A   1      51.299  26.952  28.417  1.00  0.00     0.054 A 
BRANCH  87  88
ATOM     88  S   UNL A   1      53.089  26.680  28.305  1.00  0.00     0.124 S 
ATOM     89  O   UNL A   1      53.179  25.669  27.255  1.00  0.00    -0.237 OA
ATOM     90  O   UNL A   1      53.594  28.004  27.947  1.00  0.00    -0.237 OA
ATOM     91  O   UNL A   1      53.455  26.222  29.644  1.00  0.00    -0.744 OA
ENDBRANCH  87  88
ENDBRANCH  61  82
ENDBRANCH  35  36
ENDBRANCH  28  30
ENDBRANCH  27  28
ENDBRANCH  26  27
ENDBRANCH   1  26
TORSDOF 21
ENDMDL
