MODEL 1
REMARK VINA RESULT:     -10.0      0.000      0.000
REMARK SMILES CC(C)(C)OC(=O)N1CCC[C@H]1C(=O)N[C@@H](Cc1ccccc1)C(=O)OCCOC(=O)c1ccc(-c2c3nc(c(-c4ccc(S(=O)(=O)[O-])cc4)c4ccc([nH]4)c(-c4ccc(S(=O)(=O)[O-])cc4)c4nc(c(-c5ccc(S(=O)(=O)[O-])cc5)c5ccc2[nH]5)C=C4)C=C3)cc1
REMARK SMILES IDX 27 1 26 2 24 3 25 4 16 5 15 6 13 7 14 8 12 10 8 11 9 12
REMARK SMILES IDX 10 13 11 14 6 15 7 16 5 17 2 18 1 19 3 20 4 21 17 22 18 23
REMARK SMILES IDX 19 24 23 25 20 26 22 27 21 28 28 29 29 30 30 31 31 32 32 33
REMARK SMILES IDX 33 34 91 35 34 36 90 37 35 38 36 39 37 40 84 41 38 42 89 43
REMARK SMILES IDX 83 44 85 45 39 46 88 47 82 48 81 49 40 51 70 52 51 53 69 54
REMARK SMILES IDX 52 55 55 56 68 57 86 58 53 59 54 60 67 62 87 63 56 64 41 65
REMARK SMILES IDX 42 66 50 67 43 68 49 69 44 70 45 71 46 72 47 73 48 74 71 75
REMARK SMILES IDX 72 76 80 77 73 78 79 79 74 80 75 81 76 82 77 83 78 84 57 85
REMARK SMILES IDX 58 86 66 87 59 88 65 89 60 90 61 91 62 92 63 93 64 94
REMARK H PARENT 15 9 85 50 55 61
REMARK Flexibility Score: inf
ROOT
ATOM      1  C   UNL A   1      47.754  41.298  28.997  1.00  0.00     0.274 C 
ENDROOT
BRANCH   1   2
ATOM      2  O   UNL A   1      46.474  41.515  28.357  1.00  0.00    -0.461 OA
BRANCH   2   3
ATOM      3  C   UNL A   1      46.487  42.269  27.220  1.00  0.00     0.329 C 
ATOM      4  O   UNL A   1      47.451  42.932  26.844  1.00  0.00    -0.250 OA
BRANCH   3   5
ATOM      5  C   UNL A   1      45.106  42.341  26.507  1.00  0.00     0.196 C 
BRANCH   5   6
ATOM      6  N   UNL A   1      44.870  43.591  25.773  1.00  0.00    -0.341 N 
ATOM      7  C   UNL A   1      44.844  43.858  24.422  1.00  0.00     0.243 C 
ATOM      8  O   UNL A   1      44.429  44.977  24.099  1.00  0.00    -0.273 OA
ATOM      9  H   UNL A   1      44.702  44.373  26.346  1.00  0.00     0.164 HD
BRANCH   7  10
ATOM     10  C   UNL A   1      45.404  42.856  23.339  1.00  0.00     0.178 C 
ATOM     11  N   UNL A   1      44.916  43.080  21.931  1.00  0.00    -0.296 N 
ATOM     12  C   UNL A   1      45.817  44.052  21.325  1.00  0.00     0.124 C 
ATOM     13  C   UNL A   1      47.182  43.611  21.781  1.00  0.00     0.024 C 
ATOM     14  C   UNL A   1      46.938  43.171  23.222  1.00  0.00     0.037 C 
BRANCH  11  15
ATOM     15  C   UNL A   1      43.569  43.032  21.330  1.00  0.00     0.410 C 
ATOM     16  O   UNL A   1      42.895  42.211  22.014  1.00  0.00    -0.224 OA
BRANCH  15  17
ATOM     17  O   UNL A   1      42.898  43.989  19.843  1.00  0.00    -0.444 OA
BRANCH  17  18
ATOM     18  C   UNL A   1      42.714  44.730  18.275  1.00  0.00     0.106 C 
ATOM     19  C   UNL A   1      43.342  43.887  17.155  1.00  0.00     0.056 C 
ATOM     20  C   UNL A   1      43.200  46.196  18.096  1.00  0.00     0.056 C 
ATOM     21  C   UNL A   1      41.176  44.822  18.040  1.00  0.00     0.056 C 
ENDBRANCH  17  18
ENDBRANCH  15  17
ENDBRANCH  11  15
ENDBRANCH   7  10
ENDBRANCH   5   6
BRANCH   5  22
ATOM     22  C   UNL A   1      44.915  41.047  25.697  1.00  0.00     0.072 C 
BRANCH  22  23
ATOM     23  C   UNL A   1      43.824  40.156  26.231  1.00  0.00    -0.045 A 
ATOM     24  C   UNL A   1      42.487  40.527  26.088  1.00  0.00     0.004 A 
ATOM     25  C   UNL A   1      44.137  38.892  26.764  1.00  0.00     0.004 A 
ATOM     26  C   UNL A   1      41.477  39.634  26.440  1.00  0.00     0.000 A 
ATOM     27  C   UNL A   1      43.127  37.993  27.088  1.00  0.00     0.000 A 
ATOM     28  C   UNL A   1      41.796  38.364  26.923  1.00  0.00     0.000 A 
ENDBRANCH  22  23
ENDBRANCH   5  22
ENDBRANCH   3   5
ENDBRANCH   2   3
ENDBRANCH   1   2
BRANCH   1  29
ATOM     29  C   UNL A   1      47.811  39.941  29.704  1.00  0.00     0.275 C 
BRANCH  29  30
ATOM     30  O   UNL A   1      47.066  38.966  28.960  1.00  0.00    -0.458 OA
BRANCH  30  31
ATOM     31  C   UNL A   1      47.853  38.010  28.428  1.00  0.00     0.338 C 
ATOM     32  O   UNL A   1      48.994  38.135  28.012  1.00  0.00    -0.246 OA
BRANCH  31  33
ATOM     33  C   UNL A   1      47.225  36.708  28.560  1.00  0.00     0.060 A 
ATOM     34  C   UNL A   1      47.673  35.646  29.968  1.00  0.00     0.016 A 
ATOM     35  C   UNL A   1      46.415  35.983  27.104  1.00  0.00     0.016 A 
ATOM     36  C   UNL A   1      47.387  33.844  29.901  1.00  0.00     0.010 A 
ATOM     37  C   UNL A   1      46.160  34.181  27.037  1.00  0.00     0.010 A 
ATOM     38  C   UNL A   1      46.652  33.108  28.422  1.00  0.00    -0.014 A 
BRANCH  38  39
ATOM     39  C   UNL A   1      46.243  31.667  28.382  1.00  0.00     0.031 A 
ATOM     40  C   UNL A   1      47.111  30.645  27.690  1.00  0.00     0.074 A 
ATOM     41  C   UNL A   1      45.017  31.289  28.810  1.00  0.00     0.049 A 
ATOM     42  N   UNL A   1      46.879  29.372  27.482  1.00  0.00    -0.248 NA
ATOM     43  C   UNL A   1      48.420  31.092  27.198  1.00  0.00     0.031 C 
ATOM     44  C   UNL A   1      44.051  32.126  29.517  1.00  0.00     0.029 A 
ATOM     45  N   UNL A   1      44.317  30.120  28.612  1.00  0.00    -0.354 N 
ATOM     46  C   UNL A   1      48.040  28.862  26.907  1.00  0.00     0.074 A 
ATOM     47  C   UNL A   1      48.945  29.971  26.727  1.00  0.00     0.031 C 
ATOM     48  C   UNL A   1      42.856  31.522  29.561  1.00  0.00     0.029 A 
ATOM     49  C   UNL A   1      42.978  30.222  28.929  1.00  0.00     0.049 A 
ATOM     50  H   UNL A   1      44.731  29.292  28.276  1.00  0.00     0.167 HD
ATOM     51  C   UNL A   1      48.337  27.585  26.571  1.00  0.00     0.031 A 
ATOM     52  C   UNL A   1      41.946  29.380  28.735  1.00  0.00     0.031 A 
ATOM     53  C   UNL A   1      47.388  26.507  26.614  1.00  0.00     0.049 A 
ATOM     54  C   UNL A   1      42.233  28.018  28.186  1.00  0.00     0.074 A 
ATOM     55  C   UNL A   1      47.575  25.175  26.292  1.00  0.00     0.029 A 
ATOM     56  N   UNL A   1      46.052  26.653  26.957  1.00  0.00    -0.354 N 
ATOM     57  N   UNL A   1      43.377  27.524  27.780  1.00  0.00    -0.248 NA
ATOM     58  C   UNL A   1      41.109  27.076  28.132  1.00  0.00     0.031 C 
ATOM     59  C   UNL A   1      46.336  24.530  26.375  1.00  0.00     0.029 A 
ATOM     60  C   UNL A   1      45.394  25.446  26.816  1.00  0.00     0.049 A 
ATOM     61  H   UNL A   1      45.635  27.494  27.255  1.00  0.00     0.167 HD
ATOM     62  C   UNL A   1      43.128  26.189  27.497  1.00  0.00     0.074 A 
ATOM     63  C   UNL A   1      41.721  25.960  27.761  1.00  0.00     0.031 C 
ATOM     64  C   UNL A   1      43.995  25.233  27.084  1.00  0.00     0.031 A 
BRANCH  51  65
ATOM     65  C   UNL A   1      49.749  27.300  26.128  1.00  0.00    -0.014 A 
ATOM     66  C   UNL A   1      50.076  27.322  24.758  1.00  0.00     0.010 A 
ATOM     67  C   UNL A   1      50.760  27.034  27.066  1.00  0.00     0.010 A 
ATOM     68  C   UNL A   1      51.379  27.053  24.333  1.00  0.00     0.020 A 
ATOM     69  C   UNL A   1      52.072  26.786  26.646  1.00  0.00     0.020 A 
ATOM     70  C   UNL A   1      52.369  26.784  25.280  1.00  0.00     0.054 A 
BRANCH  70  71
ATOM     71  S   UNL A   1      54.057  26.462  24.698  1.00  0.00     0.124 S 
ATOM     72  O   UNL A   1      54.854  26.810  25.871  1.00  0.00    -0.237 OA
ATOM     73  O   UNL A   1      54.014  25.040  24.368  1.00  0.00    -0.237 OA
ATOM     74  O   UNL A   1      54.209  27.360  23.556  1.00  0.00    -0.744 OA
ENDBRANCH  70  71
ENDBRANCH  51  65
BRANCH  52  75
ATOM     75  C   UNL A   1      40.564  29.775  29.129  1.00  0.00    -0.014 A 
ATOM     76  C   UNL A   1      39.553  29.876  28.159  1.00  0.00     0.010 A 
ATOM     77  C   UNL A   1      40.249  30.055  30.474  1.00  0.00     0.010 A 
ATOM     78  C   UNL A   1      38.267  30.292  28.512  1.00  0.00     0.020 A 
ATOM     79  C   UNL A   1      38.955  30.449  30.835  1.00  0.00     0.020 A 
ATOM     80  C   UNL A   1      37.977  30.582  29.847  1.00  0.00     0.054 A 
BRANCH  80  81
ATOM     81  S   UNL A   1      36.295  31.114  30.274  1.00  0.00     0.124 S 
ATOM     82  O   UNL A   1      36.508  32.498  30.684  1.00  0.00    -0.237 OA
ATOM     83  O   UNL A   1      35.579  30.930  29.013  1.00  0.00    -0.237 OA
ATOM     84  O   UNL A   1      35.905  30.197  31.343  1.00  0.00    -0.744 OA
ENDBRANCH  80  81
ENDBRANCH  52  75
BRANCH  64  85
ATOM     85  C   UNL A   1      43.461  23.835  26.949  1.00  0.00    -0.014 A 
ATOM     86  C   UNL A   1      43.310  22.996  28.065  1.00  0.00     0.010 A 
ATOM     87  C   UNL A   1      43.060  23.377  25.680  1.00  0.00     0.010 A 
ATOM     88  C   UNL A   1      42.792  21.710  27.910  1.00  0.00     0.020 A 
ATOM     89  C   UNL A   1      42.510  22.105  25.527  1.00  0.00     0.020 A 
ATOM     90  C   UNL A   1      42.391  21.274  26.642  1.00  0.00     0.054 A 
BRANCH  90  91
ATOM     91  S   UNL A   1      41.665  19.622  26.478  1.00  0.00     0.124 S 
ATOM     92  O   UNL A   1      42.042  18.998  27.743  1.00  0.00    -0.237 OA
ATOM     93  O   UNL A   1      40.242  19.913  26.320  1.00  0.00    -0.237 OA
ATOM     94  O   UNL A   1      42.317  19.073  25.292  1.00  0.00    -0.744 OA
ENDBRANCH  90  91
ENDBRANCH  64  85
ENDBRANCH  38  39
ENDBRANCH  31  33
ENDBRANCH  30  31
ENDBRANCH  29  30
ENDBRANCH   1  29
TORSDOF 21
ENDMDL
MODEL 2
REMARK VINA RESULT:      -9.9      5.395     14.351
REMARK SMILES CC(C)(C)OC(=O)N1CCC[C@H]1C(=O)N[C@@H](Cc1ccccc1)C(=O)OCCOC(=O)c1ccc(-c2c3nc(c(-c4ccc(S(=O)(=O)[O-])cc4)c4ccc([nH]4)c(-c4ccc(S(=O)(=O)[O-])cc4)c4nc(c(-c5ccc(S(=O)(=O)[O-])cc5)c5ccc2[nH]5)C=C4)C=C3)cc1
REMARK SMILES IDX 27 1 26 2 24 3 25 4 16 5 15 6 13 7 14 8 12 10 8 11 9 12
REMARK SMILES IDX 10 13 11 14 6 15 7 16 5 17 2 18 1 19 3 20 4 21 17 22 18 23
REMARK SMILES IDX 19 24 23 25 20 26 22 27 21 28 28 29 29 30 30 31 31 32 32 33
REMARK SMILES IDX 33 34 91 35 34 36 90 37 35 38 36 39 37 40 84 41 38 42 89 43
REMARK SMILES IDX 83 44 85 45 39 46 88 47 82 48 81 49 40 51 70 52 51 53 69 54
REMARK SMILES IDX 52 55 55 56 68 57 86 58 53 59 54 60 67 62 87 63 56 64 41 65
REMARK SMILES IDX 42 66 50 67 43 68 49 69 44 70 45 71 46 72 47 73 48 74 71 75
REMARK SMILES IDX 72 76 80 77 73 78 79 79 74 80 75 81 76 82 77 83 78 84 57 85
REMARK SMILES IDX 58 86 66 87 59 88 65 89 60 90 61 91 62 92 63 93 64 94
REMARK H PARENT 15 9 85 50 55 61
REMARK Flexibility Score: inf
ROOT
ATOM      1  C   UNL A   1      45.636  24.510  27.406  1.00  0.00     0.274 C 
ENDROOT
BRANCH   1   2
ATOM      2  O   UNL A   1      44.587  25.401  26.956  1.00  0.00    -0.461 OA
BRANCH   2   3
ATOM      3  C   UNL A   1      44.150  26.324  27.860  1.00  0.00     0.329 C 
ATOM      4  O   UNL A   1      44.857  27.205  28.342  1.00  0.00    -0.250 OA
BRANCH   3   5
ATOM      5  C   UNL A   1      42.695  26.070  28.353  1.00  0.00     0.196 C 
BRANCH   5   6
ATOM      6  N   UNL A   1      42.471  24.727  28.903  1.00  0.00    -0.341 N 
ATOM      7  C   UNL A   1      41.963  23.584  28.326  1.00  0.00     0.243 C 
ATOM      8  O   UNL A   1      42.072  22.547  28.991  1.00  0.00    -0.273 OA
ATOM      9  H   UNL A   1      42.725  24.626  29.848  1.00  0.00     0.164 HD
BRANCH   7  10
ATOM     10  C   UNL A   1      41.191  23.588  26.949  1.00  0.00     0.178 C 
ATOM     11  N   UNL A   1      41.727  22.650  25.899  1.00  0.00    -0.296 N 
ATOM     12  C   UNL A   1      41.083  21.361  26.120  1.00  0.00     0.124 C 
ATOM     13  C   UNL A   1      39.650  21.720  26.408  1.00  0.00     0.024 C 
ATOM     14  C   UNL A   1      39.774  22.984  27.255  1.00  0.00     0.037 C 
BRANCH  11  15
ATOM     15  C   UNL A   1      43.029  22.575  25.209  1.00  0.00     0.410 C 
ATOM     16  O   UNL A   1      43.267  23.731  24.758  1.00  0.00    -0.224 OA
BRANCH  15  17
ATOM     17  O   UNL A   1      44.183  21.090  25.007  1.00  0.00    -0.444 OA
BRANCH  17  18
ATOM     18  C   UNL A   1      44.821  19.472  24.879  1.00  0.00     0.106 C 
ATOM     19  C   UNL A   1      43.899  18.430  25.532  1.00  0.00     0.056 C 
ATOM     20  C   UNL A   1      46.267  19.212  25.386  1.00  0.00     0.056 C 
ATOM     21  C   UNL A   1      44.910  19.184  23.350  1.00  0.00     0.056 C 
ENDBRANCH  17  18
ENDBRANCH  15  17
ENDBRANCH  11  15
ENDBRANCH   7  10
ENDBRANCH   5   6
BRANCH   5  22
ATOM     22  C   UNL A   1      42.285  27.240  29.264  1.00  0.00     0.072 C 
BRANCH  22  23
ATOM     23  C   UNL A   1      41.132  28.046  28.726  1.00  0.00    -0.045 A 
ATOM     24  C   UNL A   1      41.161  28.521  27.415  1.00  0.00     0.004 A 
ATOM     25  C   UNL A   1      39.967  28.218  29.498  1.00  0.00     0.004 A 
ATOM     26  C   UNL A   1      40.032  29.128  26.871  1.00  0.00     0.000 A 
ATOM     27  C   UNL A   1      38.833  28.801  28.942  1.00  0.00     0.000 A 
ATOM     28  C   UNL A   1      38.865  29.253  27.627  1.00  0.00     0.000 A 
ENDBRANCH  22  23
ENDBRANCH   5  22
ENDBRANCH   3   5
ENDBRANCH   2   3
ENDBRANCH   1   2
BRANCH   1  29
ATOM     29  C   UNL A   1      46.564  24.104  26.258  1.00  0.00     0.275 C 
BRANCH  29  30
ATOM     30  O   UNL A   1      47.932  24.328  26.627  1.00  0.00    -0.458 OA
BRANCH  30  31
ATOM     31  C   UNL A   1      48.448  25.434  26.054  1.00  0.00     0.338 C 
ATOM     32  O   UNL A   1      49.287  25.488  25.168  1.00  0.00    -0.246 OA
BRANCH  31  33
ATOM     33  C   UNL A   1      47.741  26.616  26.512  1.00  0.00     0.060 A 
ATOM     34  C   UNL A   1      46.822  27.623  25.307  1.00  0.00     0.016 A 
ATOM     35  C   UNL A   1      48.187  27.324  28.126  1.00  0.00     0.016 A 
ATOM     36  C   UNL A   1      46.409  29.363  25.671  1.00  0.00     0.010 A 
ATOM     37  C   UNL A   1      47.794  29.069  28.467  1.00  0.00     0.010 A 
ATOM     38  C   UNL A   1      46.919  30.094  27.245  1.00  0.00    -0.014 A 
BRANCH  38  39
ATOM     39  C   UNL A   1      46.462  31.459  27.662  1.00  0.00     0.031 A 
ATOM     40  C   UNL A   1      47.421  32.623  27.651  1.00  0.00     0.074 A 
ATOM     41  C   UNL A   1      45.239  31.634  28.214  1.00  0.00     0.049 A 
ATOM     42  N   UNL A   1      47.228  33.854  28.058  1.00  0.00    -0.248 NA
ATOM     43  C   UNL A   1      48.756  32.394  27.084  1.00  0.00     0.031 C 
ATOM     44  C   UNL A   1      44.174  30.638  28.294  1.00  0.00     0.029 A 
ATOM     45  N   UNL A   1      44.718  32.692  28.924  1.00  0.00    -0.354 N 
ATOM     46  C   UNL A   1      48.386  34.551  27.725  1.00  0.00     0.074 A 
ATOM     47  C   UNL A   1      49.306  33.596  27.155  1.00  0.00     0.031 C 
ATOM     48  C   UNL A   1      43.207  31.056  29.121  1.00  0.00     0.029 A 
ATOM     49  C   UNL A   1      43.554  32.381  29.597  1.00  0.00     0.049 A 
ATOM     50  H   UNL A   1      45.134  33.585  28.949  1.00  0.00     0.167 HD
ATOM     51  C   UNL A   1      48.659  35.869  27.864  1.00  0.00     0.031 A 
ATOM     52  C   UNL A   1      42.835  33.066  30.505  1.00  0.00     0.031 A 
ATOM     53  C   UNL A   1      47.806  36.792  28.561  1.00  0.00     0.049 A 
ATOM     54  C   UNL A   1      43.236  34.475  30.813  1.00  0.00     0.074 A 
ATOM     55  C   UNL A   1      47.983  38.148  28.769  1.00  0.00     0.029 A 
ATOM     56  N   UNL A   1      46.633  36.436  29.210  1.00  0.00    -0.354 N 
ATOM     57  N   UNL A   1      44.268  35.148  30.366  1.00  0.00    -0.248 NA
ATOM     58  C   UNL A   1      42.342  35.240  31.690  1.00  0.00     0.031 C 
ATOM     59  C   UNL A   1      46.952  38.597  29.602  1.00  0.00     0.029 A 
ATOM     60  C   UNL A   1      46.097  37.537  29.853  1.00  0.00     0.049 A 
ATOM     61  H   UNL A   1      46.242  35.532  29.214  1.00  0.00     0.167 HD
ATOM     62  C   UNL A   1      44.105  36.441  30.844  1.00  0.00     0.074 A 
ATOM     63  C   UNL A   1      42.886  36.447  31.628  1.00  0.00     0.031 C 
ATOM     64  C   UNL A   1      44.882  37.529  30.627  1.00  0.00     0.031 A 
BRANCH  51  65
ATOM     65  C   UNL A   1      49.936  36.378  27.247  1.00  0.00    -0.014 A 
ATOM     66  C   UNL A   1      51.111  36.457  28.021  1.00  0.00     0.010 A 
ATOM     67  C   UNL A   1      49.985  36.753  25.893  1.00  0.00     0.010 A 
ATOM     68  C   UNL A   1      52.299  36.933  27.463  1.00  0.00     0.020 A 
ATOM     69  C   UNL A   1      51.179  37.209  25.324  1.00  0.00     0.020 A 
ATOM     70  C   UNL A   1      52.326  37.308  26.118  1.00  0.00     0.054 A 
BRANCH  70  71
ATOM     71  S   UNL A   1      53.892  37.898  25.416  1.00  0.00     0.124 S 
ATOM     72  O   UNL A   1      54.698  38.114  26.614  1.00  0.00    -0.237 OA
ATOM     73  O   UNL A   1      54.306  36.778  24.575  1.00  0.00    -0.237 OA
ATOM     74  O   UNL A   1      53.515  39.110  24.694  1.00  0.00    -0.744 OA
ENDBRANCH  70  71
ENDBRANCH  51  65
BRANCH  52  75
ATOM     75  C   UNL A   1      41.627  32.456  31.130  1.00  0.00    -0.014 A 
ATOM     76  C   UNL A   1      41.721  31.826  32.381  1.00  0.00     0.010 A 
ATOM     77  C   UNL A   1      40.379  32.498  30.478  1.00  0.00     0.010 A 
ATOM     78  C   UNL A   1      40.604  31.209  32.952  1.00  0.00     0.020 A 
ATOM     79  C   UNL A   1      39.252  31.902  31.058  1.00  0.00     0.020 A 
ATOM     80  C   UNL A   1      39.377  31.246  32.284  1.00  0.00     0.054 A 
BRANCH  80  81
ATOM     81  S   UNL A   1      37.945  30.441  33.055  1.00  0.00     0.124 S 
ATOM     82  O   UNL A   1      37.086  31.579  33.364  1.00  0.00    -0.237 OA
ATOM     83  O   UNL A   1      37.470  29.561  31.989  1.00  0.00    -0.237 OA
ATOM     84  O   UNL A   1      38.517  29.754  34.211  1.00  0.00    -0.744 OA
ENDBRANCH  80  81
ENDBRANCH  52  75
BRANCH  64  85
ATOM     85  C   UNL A   1      44.407  38.836  31.195  1.00  0.00    -0.014 A 
ATOM     86  C   UNL A   1      43.722  39.774  30.405  1.00  0.00     0.010 A 
ATOM     87  C   UNL A   1      44.611  39.101  32.561  1.00  0.00     0.010 A 
ATOM     88  C   UNL A   1      43.274  40.970  30.967  1.00  0.00     0.020 A 
ATOM     89  C   UNL A   1      44.134  40.280  33.134  1.00  0.00     0.020 A 
ATOM     90  C   UNL A   1      43.479  41.213  32.329  1.00  0.00     0.054 A 
BRANCH  90  91
ATOM     91  S   UNL A   1      42.835  42.747  33.047  1.00  0.00     0.124 S 
ATOM     92  O   UNL A   1      41.904  42.244  34.053  1.00  0.00    -0.237 OA
ATOM     93  O   UNL A   1      44.040  43.386  33.569  1.00  0.00    -0.237 OA
ATOM     94  O   UNL A   1      42.219  43.429  31.911  1.00  0.00    -0.744 OA
ENDBRANCH  90  91
ENDBRANCH  64  85
ENDBRANCH  38  39
ENDBRANCH  31  33
ENDBRANCH  30  31
ENDBRANCH  29  30
ENDBRANCH   1  29
TORSDOF 21
ENDMDL
MODEL 3
REMARK VINA RESULT:      -9.7      2.646      9.141
REMARK SMILES CC(C)(C)OC(=O)N1CCC[C@H]1C(=O)N[C@@H](Cc1ccccc1)C(=O)OCCOC(=O)c1ccc(-c2c3nc(c(-c4ccc(S(=O)(=O)[O-])cc4)c4ccc([nH]4)c(-c4ccc(S(=O)(=O)[O-])cc4)c4nc(c(-c5ccc(S(=O)(=O)[O-])cc5)c5ccc2[nH]5)C=C4)C=C3)cc1
REMARK SMILES IDX 27 1 26 2 24 3 25 4 16 5 15 6 13 7 14 8 12 10 8 11 9 12
REMARK SMILES IDX 10 13 11 14 6 15 7 16 5 17 2 18 1 19 3 20 4 21 17 22 18 23
REMARK SMILES IDX 19 24 23 25 20 26 22 27 21 28 28 29 29 30 30 31 31 32 32 33
REMARK SMILES IDX 33 34 91 35 34 36 90 37 35 38 36 39 37 40 84 41 38 42 89 43
REMARK SMILES IDX 83 44 85 45 39 46 88 47 82 48 81 49 40 51 70 52 51 53 69 54
REMARK SMILES IDX 52 55 55 56 68 57 86 58 53 59 54 60 67 62 87 63 56 64 41 65
REMARK SMILES IDX 42 66 50 67 43 68 49 69 44 70 45 71 46 72 47 73 48 74 71 75
REMARK SMILES IDX 72 76 80 77 73 78 79 79 74 80 75 81 76 82 77 83 78 84 57 85
REMARK SMILES IDX 58 86 66 87 59 88 65 89 60 90 61 91 62 92 63 93 64 94
REMARK H PARENT 15 9 85 50 55 61
REMARK Flexibility Score: inf
ROOT
ATOM      1  C   UNL A   1      47.998  38.940  27.059  1.00  0.00     0.274 C 
ENDROOT
BRANCH   1   2
ATOM      2  O   UNL A   1      47.830  40.268  26.509  1.00  0.00    -0.461 OA
BRANCH   2   3
ATOM      3  C   UNL A   1      46.824  40.423  25.601  1.00  0.00     0.329 C 
ATOM      4  O   UNL A   1      46.739  39.789  24.551  1.00  0.00    -0.250 OA
BRANCH   3   5
ATOM      5  C   UNL A   1      45.859  41.596  25.938  1.00  0.00     0.196 C 
BRANCH   5   6
ATOM      6  N   UNL A   1      44.454  41.341  25.591  1.00  0.00    -0.341 N 
ATOM      7  C   UNL A   1      43.475  40.626  26.244  1.00  0.00     0.243 C 
ATOM      8  O   UNL A   1      42.327  40.749  25.799  1.00  0.00    -0.273 OA
ATOM      9  H   UNL A   1      44.163  41.751  24.745  1.00  0.00     0.164 HD
BRANCH   7  10
ATOM     10  C   UNL A   1      43.787  39.623  27.422  1.00  0.00     0.178 C 
ATOM     11  N   UNL A   1      42.740  39.544  28.504  1.00  0.00    -0.296 N 
ATOM     12  C   UNL A   1      41.766  38.549  28.073  1.00  0.00     0.124 C 
ATOM     13  C   UNL A   1      42.611  37.439  27.509  1.00  0.00     0.024 C 
ATOM     14  C   UNL A   1      43.727  38.189  26.785  1.00  0.00     0.037 C 
BRANCH  11  15
ATOM     15  C   UNL A   1      42.215  40.548  29.451  1.00  0.00     0.410 C 
ATOM     16  O   UNL A   1      41.035  40.809  29.084  1.00  0.00    -0.224 OA
BRANCH  15  17
ATOM     17  O   UNL A   1      43.068  41.327  30.948  1.00  0.00    -0.444 OA
BRANCH  17  18
ATOM     18  C   UNL A   1      43.694  42.463  32.114  1.00  0.00     0.106 C 
ATOM     19  C   UNL A   1      45.213  42.656  31.980  1.00  0.00     0.056 C 
ATOM     20  C   UNL A   1      43.375  42.222  33.616  1.00  0.00     0.056 C 
ATOM     21  C   UNL A   1      42.981  43.812  31.798  1.00  0.00     0.056 C 
ENDBRANCH  17  18
ENDBRANCH  15  17
ENDBRANCH  11  15
ENDBRANCH   7  10
ENDBRANCH   5   6
BRANCH   5  22
ATOM     22  C   UNL A   1      46.118  42.030  27.391  1.00  0.00     0.072 C 
BRANCH  22  23
ATOM     23  C   UNL A   1      46.137  43.524  27.580  1.00  0.00    -0.045 A 
ATOM     24  C   UNL A   1      46.825  44.334  26.677  1.00  0.00     0.004 A 
ATOM     25  C   UNL A   1      45.361  44.121  28.591  1.00  0.00     0.004 A 
ATOM     26  C   UNL A   1      46.713  45.719  26.761  1.00  0.00     0.000 A 
ATOM     27  C   UNL A   1      45.229  45.504  28.655  1.00  0.00     0.000 A 
ATOM     28  C   UNL A   1      45.904  46.303  27.738  1.00  0.00     0.000 A 
ENDBRANCH  22  23
ENDBRANCH   5  22
ENDBRANCH   3   5
ENDBRANCH   2   3
ENDBRANCH   1   2
BRANCH   1  29
ATOM     29  C   UNL A   1      49.017  38.926  28.202  1.00  0.00     0.275 C 
BRANCH  29  30
ATOM     30  O   UNL A   1      49.098  37.613  28.775  1.00  0.00    -0.458 OA
BRANCH  30  31
ATOM     31  C   UNL A   1      48.251  37.447  29.810  1.00  0.00     0.338 C 
ATOM     32  O   UNL A   1      47.996  38.249  30.695  1.00  0.00    -0.246 OA
BRANCH  31  33
ATOM     33  C   UNL A   1      47.508  36.209  29.662  1.00  0.00     0.060 A 
ATOM     34  C   UNL A   1      48.061  34.729  30.564  1.00  0.00     0.016 A 
ATOM     35  C   UNL A   1      46.386  36.035  28.243  1.00  0.00     0.016 A 
ATOM     36  C   UNL A   1      47.562  33.063  30.011  1.00  0.00     0.010 A 
ATOM     37  C   UNL A   1      45.917  34.366  27.685  1.00  0.00     0.010 A 
ATOM     38  C   UNL A   1      46.508  32.881  28.553  1.00  0.00    -0.014 A 
BRANCH  38  39
ATOM     39  C   UNL A   1      45.935  31.554  28.159  1.00  0.00     0.031 A 
ATOM     40  C   UNL A   1      44.581  31.125  28.668  1.00  0.00     0.074 A 
ATOM     41  C   UNL A   1      46.688  30.653  27.487  1.00  0.00     0.049 A 
ATOM     42  N   UNL A   1      43.963  29.981  28.503  1.00  0.00    -0.248 NA
ATOM     43  C   UNL A   1      43.802  32.109  29.430  1.00  0.00     0.031 C 
ATOM     44  C   UNL A   1      48.004  30.889  26.901  1.00  0.00     0.029 A 
ATOM     45  N   UNL A   1      46.500  29.305  27.276  1.00  0.00    -0.354 N 
ATOM     46  C   UNL A   1      42.704  30.143  29.074  1.00  0.00     0.074 A 
ATOM     47  C   UNL A   1      42.670  31.462  29.657  1.00  0.00     0.031 C 
ATOM     48  C   UNL A   1      48.569  29.729  26.541  1.00  0.00     0.029 A 
ATOM     49  C   UNL A   1      47.631  28.658  26.821  1.00  0.00     0.049 A 
ATOM     50  H   UNL A   1      45.643  28.846  27.436  1.00  0.00     0.167 HD
ATOM     51  C   UNL A   1      41.661  29.281  29.099  1.00  0.00     0.031 A 
ATOM     52  C   UNL A   1      47.907  27.353  26.648  1.00  0.00     0.031 A 
ATOM     53  C   UNL A   1      41.739  27.919  28.650  1.00  0.00     0.049 A 
ATOM     54  C   UNL A   1      46.806  26.360  26.855  1.00  0.00     0.074 A 
ATOM     55  C   UNL A   1      40.749  26.953  28.633  1.00  0.00     0.029 A 
ATOM     56  N   UNL A   1      42.897  27.315  28.182  1.00  0.00    -0.354 N 
ATOM     57  N   UNL A   1      45.580  26.572  27.266  1.00  0.00    -0.248 NA
ATOM     58  C   UNL A   1      47.101  24.964  26.509  1.00  0.00     0.031 C 
ATOM     59  C   UNL A   1      41.326  25.747  28.220  1.00  0.00     0.029 A 
ATOM     60  C   UNL A   1      42.657  25.980  27.912  1.00  0.00     0.049 A 
ATOM     61  H   UNL A   1      43.762  27.770  28.062  1.00  0.00     0.167 HD
ATOM     62  C   UNL A   1      44.932  25.350  27.153  1.00  0.00     0.074 A 
ATOM     63  C   UNL A   1      45.909  24.403  26.653  1.00  0.00     0.031 C 
ATOM     64  C   UNL A   1      43.637  25.050  27.414  1.00  0.00     0.031 A 
BRANCH  51  65
ATOM     65  C   UNL A   1      40.351  29.799  29.637  1.00  0.00    -0.014 A 
ATOM     66  C   UNL A   1      39.413  30.386  28.765  1.00  0.00     0.010 A 
ATOM     67  C   UNL A   1      40.035  29.682  31.001  1.00  0.00     0.010 A 
ATOM     68  C   UNL A   1      38.199  30.877  29.252  1.00  0.00     0.020 A 
ATOM     69  C   UNL A   1      38.810  30.151  31.489  1.00  0.00     0.020 A 
ATOM     70  C   UNL A   1      37.905  30.758  30.612  1.00  0.00     0.054 A 
BRANCH  70  71
ATOM     71  S   UNL A   1      36.310  31.382  31.209  1.00  0.00     0.124 S 
ATOM     72  O   UNL A   1      35.482  31.294  30.009  1.00  0.00    -0.237 OA
ATOM     73  O   UNL A   1      35.976  30.437  32.272  1.00  0.00    -0.237 OA
ATOM     74  O   UNL A   1      36.612  32.739  31.658  1.00  0.00    -0.744 OA
ENDBRANCH  70  71
ENDBRANCH  51  65
BRANCH  52  75
ATOM     75  C   UNL A   1      49.258  26.919  26.190  1.00  0.00    -0.014 A 
ATOM     76  C   UNL A   1      49.656  27.135  24.860  1.00  0.00     0.010 A 
ATOM     77  C   UNL A   1      50.151  26.286  27.076  1.00  0.00     0.010 A 
ATOM     78  C   UNL A   1      50.901  26.689  24.410  1.00  0.00     0.020 A 
ATOM     79  C   UNL A   1      51.409  25.858  26.635  1.00  0.00     0.020 A 
ATOM     80  C   UNL A   1      51.768  26.048  25.298  1.00  0.00     0.054 A 
BRANCH  80  81
ATOM     81  S   UNL A   1      53.381  25.485  24.683  1.00  0.00     0.124 S 
ATOM     82  O   UNL A   1      53.453  24.128  25.215  1.00  0.00    -0.237 OA
ATOM     83  O   UNL A   1      53.217  25.589  23.235  1.00  0.00    -0.237 OA
ATOM     84  O   UNL A   1      54.323  26.438  25.267  1.00  0.00    -0.744 OA
ENDBRANCH  80  81
ENDBRANCH  52  75
BRANCH  64  85
ATOM     85  C   UNL A   1      43.182  23.652  27.105  1.00  0.00    -0.014 A 
ATOM     86  C   UNL A   1      42.862  23.256  25.796  1.00  0.00     0.010 A 
ATOM     87  C   UNL A   1      43.122  22.708  28.147  1.00  0.00     0.010 A 
ATOM     88  C   UNL A   1      42.462  21.944  25.539  1.00  0.00     0.020 A 
ATOM     89  C   UNL A   1      42.757  21.387  27.887  1.00  0.00     0.020 A 
ATOM     90  C   UNL A   1      42.416  21.017  26.586  1.00  0.00     0.054 A 
BRANCH  90  91
ATOM     91  S   UNL A   1      41.952  19.306  26.213  1.00  0.00     0.124 S 
ATOM     92  O   UNL A   1      42.323  18.616  27.446  1.00  0.00    -0.237 OA
ATOM     93  O   UNL A   1      40.517  19.412  25.960  1.00  0.00    -0.237 OA
ATOM     94  O   UNL A   1      42.762  18.974  25.044  1.00  0.00    -0.744 OA
ENDBRANCH  90  91
ENDBRANCH  64  85
ENDBRANCH  38  39
ENDBRANCH  31  33
ENDBRANCH  30  31
ENDBRANCH  29  30
ENDBRANCH   1  29
TORSDOF 21
ENDMDL
