MODEL 1
REMARK VINA RESULT:     -10.3      0.000      0.000
REMARK SMILES Cc1cccc(C(=O)[C@H](C)[C@@H](C)C(=O)OCCOC(=O)c2ccc(-c3c4nc(c(-c5ccc(S(=O)(=O)[O-])cc5)c5ccc([nH]5)c(-c5ccc(S(=O)(=O)[O-])cc5)c5nc(c(-c6ccc(S(=O)(=O)[O-])cc6)c6ccc3[nH]6)C=C5)C=C4)cc2)c1C
REMARK SMILES IDX 16 1 15 2 13 3 14 4 11 5 12 6 9 7 10 8 7 9 8 10 6 11 1 12
REMARK SMILES IDX 2 13 3 14 81 15 4 16 82 17 5 18 17 19 18 20 19 21 20 22
REMARK SMILES IDX 21 23 22 24 80 25 23 26 79 27 24 28 25 29 26 30 73 31 27 32
REMARK SMILES IDX 78 33 72 34 74 35 28 36 77 37 71 38 70 39 29 41 59 42 40 43
REMARK SMILES IDX 58 44 41 45 44 46 57 47 75 48 42 49 43 50 56 52 76 53 45 54
REMARK SMILES IDX 30 55 31 56 39 57 32 58 38 59 33 60 34 61 35 62 36 63 37 64
REMARK SMILES IDX 60 65 61 66 69 67 62 68 68 69 63 70 64 71 65 72 66 73 67 74
REMARK SMILES IDX 46 75 47 76 55 77 48 78 54 79 49 80 50 81 51 82 52 83 53 84
REMARK H PARENT 74 40 44 51
REMARK Flexibility Score: inf
ROOT
ATOM      1  C   UNL A   1      32.045  29.667  25.169  1.00  0.00     0.274 C 
ENDROOT
BRANCH   1   2
ATOM      2  O   UNL A   1      31.111  28.598  24.913  1.00  0.00    -0.462 OA
BRANCH   2   3
ATOM      3  C   UNL A   1      31.421  27.812  23.849  1.00  0.00     0.309 C 
ATOM      4  O   UNL A   1      31.311  28.162  22.678  1.00  0.00    -0.252 OA
BRANCH   3   5
ATOM      5  C   UNL A   1      31.837  26.397  24.229  1.00  0.00     0.106 C 
ATOM      6  C   UNL A   1      31.189  26.111  25.586  1.00  0.00     0.021 C 
BRANCH   5   7
ATOM      7  C   UNL A   1      33.365  26.129  24.219  1.00  0.00     0.072 C 
ATOM      8  C   UNL A   1      33.875  25.670  25.593  1.00  0.00     0.017 C 
BRANCH   7   9
ATOM      9  C   UNL A   1      33.685  24.994  23.232  1.00  0.00     0.166 C 
ATOM     10  O   UNL A   1      33.983  25.306  22.078  1.00  0.00    -0.294 OA
BRANCH   9  11
ATOM     11  C   UNL A   1      33.650  23.533  23.650  1.00  0.00     0.021 A 
ATOM     12  C   UNL A   1      35.967  20.760  24.996  1.00  0.00     0.044 C 
ATOM     13  C   UNL A   1      34.752  21.515  24.520  1.00  0.00    -0.047 A 
ATOM     14  C   UNL A   1      33.498  20.918  24.700  1.00  0.00     0.004 A 
ATOM     15  C   UNL A   1      34.844  22.813  23.944  1.00  0.00    -0.037 A 
ATOM     16  C   UNL A   1      32.341  21.589  24.338  1.00  0.00     0.001 A 
ATOM     17  C   UNL A   1      36.210  23.417  23.700  1.00  0.00     0.045 C 
ATOM     18  C   UNL A   1      32.415  22.884  23.828  1.00  0.00     0.012 A 
ENDBRANCH   9  11
ENDBRANCH   7   9
ENDBRANCH   5   7
ENDBRANCH   3   5
ENDBRANCH   2   3
ENDBRANCH   1   2
BRANCH   1  19
ATOM     19  C   UNL A   1      32.386  29.789  26.652  1.00  0.00     0.275 C 
BRANCH  19  20
ATOM     20  O   UNL A   1      33.793  29.587  26.856  1.00  0.00    -0.458 OA
BRANCH  20  21
ATOM     21  C   UNL A   1      34.380  30.465  27.699  1.00  0.00     0.338 C 
ATOM     22  O   UNL A   1      33.949  31.552  28.041  1.00  0.00    -0.246 OA
BRANCH  21  23
ATOM     23  C   UNL A   1      35.708  29.981  28.104  1.00  0.00     0.060 A 
ATOM     24  C   UNL A   1      35.976  29.583  29.416  1.00  0.00     0.016 A 
ATOM     25  C   UNL A   1      36.732  30.040  27.158  1.00  0.00     0.016 A 
ATOM     26  C   UNL A   1      37.284  29.275  29.791  1.00  0.00     0.010 A 
ATOM     27  C   UNL A   1      38.029  29.691  27.522  1.00  0.00     0.010 A 
ATOM     28  C   UNL A   1      38.318  29.324  28.846  1.00  0.00    -0.014 A 
BRANCH  28  29
ATOM     29  C   UNL A   1      39.709  28.974  29.213  1.00  0.00     0.031 A 
ATOM     30  C   UNL A   1      40.606  29.997  29.849  1.00  0.00     0.074 A 
ATOM     31  C   UNL A   1      40.176  27.748  28.914  1.00  0.00     0.049 A 
ATOM     32  N   UNL A   1      41.891  29.931  30.088  1.00  0.00    -0.248 NA
ATOM     33  C   UNL A   1      39.978  31.261  30.265  1.00  0.00     0.031 C 
ATOM     34  C   UNL A   1      39.387  26.667  28.317  1.00  0.00     0.029 A 
ATOM     35  N   UNL A   1      41.429  27.211  29.053  1.00  0.00    -0.354 N 
ATOM     36  C   UNL A   1      42.233  31.152  30.655  1.00  0.00     0.074 A 
ATOM     37  C   UNL A   1      41.022  31.942  30.722  1.00  0.00     0.031 C 
ATOM     38  C   UNL A   1      40.176  25.597  28.140  1.00  0.00     0.029 A 
ATOM     39  C   UNL A   1      41.533  25.932  28.560  1.00  0.00     0.049 A 
ATOM     40  H   UNL A   1      42.181  27.694  29.465  1.00  0.00     0.167 HD
ATOM     41  C   UNL A   1      43.451  31.574  31.076  1.00  0.00     0.031 A 
ATOM     42  C   UNL A   1      42.606  25.133  28.426  1.00  0.00     0.031 A 
ATOM     43  C   UNL A   1      44.649  30.779  31.003  1.00  0.00     0.049 A 
ATOM     44  C   UNL A   1      43.951  25.635  28.865  1.00  0.00     0.074 A 
ATOM     45  C   UNL A   1      45.931  31.111  31.406  1.00  0.00     0.029 A 
ATOM     46  N   UNL A   1      44.712  29.489  30.497  1.00  0.00    -0.354 N 
ATOM     47  N   UNL A   1      44.262  26.799  29.383  1.00  0.00    -0.248 NA
ATOM     48  C   UNL A   1      45.087  24.720  28.695  1.00  0.00     0.031 C 
ATOM     49  C   UNL A   1      46.776  30.034  31.111  1.00  0.00     0.029 A 
ATOM     50  C   UNL A   1      46.012  29.016  30.562  1.00  0.00     0.049 A 
ATOM     51  H   UNL A   1      43.945  28.984  30.142  1.00  0.00     0.167 HD
ATOM     52  C   UNL A   1      45.631  26.754  29.614  1.00  0.00     0.074 A 
ATOM     53  C   UNL A   1      46.084  25.442  29.190  1.00  0.00     0.031 C 
ATOM     54  C   UNL A   1      46.441  27.711  30.129  1.00  0.00     0.031 A 
BRANCH  41  55
ATOM     55  C   UNL A   1      43.553  32.976  31.615  1.00  0.00    -0.014 A 
ATOM     56  C   UNL A   1      43.327  33.252  32.975  1.00  0.00     0.010 A 
ATOM     57  C   UNL A   1      43.914  34.027  30.753  1.00  0.00     0.010 A 
ATOM     58  C   UNL A   1      43.425  34.562  33.457  1.00  0.00     0.020 A 
ATOM     59  C   UNL A   1      44.031  35.335  31.234  1.00  0.00     0.020 A 
ATOM     60  C   UNL A   1      43.768  35.596  32.581  1.00  0.00     0.054 A 
BRANCH  60  61
ATOM     61  S   UNL A   1      43.901  37.287  33.227  1.00  0.00     0.124 S 
ATOM     62  O   UNL A   1      43.832  38.083  32.005  1.00  0.00    -0.237 OA
ATOM     63  O   UNL A   1      42.740  37.391  34.108  1.00  0.00    -0.237 OA
ATOM     64  O   UNL A   1      45.195  37.298  33.905  1.00  0.00    -0.744 OA
ENDBRANCH  60  61
ENDBRANCH  41  55
BRANCH  42  65
ATOM     65  C   UNL A   1      42.441  23.784  27.825  1.00  0.00    -0.014 A 
ATOM     66  C   UNL A   1      42.758  23.563  26.475  1.00  0.00     0.010 A 
ATOM     67  C   UNL A   1      42.019  22.701  28.619  1.00  0.00     0.010 A 
ATOM     68  C   UNL A   1      42.659  22.280  25.927  1.00  0.00     0.020 A 
ATOM     69  C   UNL A   1      41.939  21.414  28.081  1.00  0.00     0.020 A 
ATOM     70  C   UNL A   1      42.253  21.213  26.735  1.00  0.00     0.054 A 
BRANCH  70  71
ATOM     71  S   UNL A   1      42.210  19.541  26.032  1.00  0.00     0.124 S 
ATOM     72  O   UNL A   1      40.794  19.381  25.719  1.00  0.00    -0.237 OA
ATOM     73  O   UNL A   1      43.103  19.654  24.881  1.00  0.00    -0.237 OA
ATOM     74  O   UNL A   1      42.713  18.703  27.118  1.00  0.00    -0.744 OA
ENDBRANCH  70  71
ENDBRANCH  42  65
BRANCH  54  75
ATOM     75  C   UNL A   1      47.894  27.363  30.284  1.00  0.00    -0.014 A 
ATOM     76  C   UNL A   1      48.806  27.592  29.240  1.00  0.00     0.010 A 
ATOM     77  C   UNL A   1      48.356  26.835  31.503  1.00  0.00     0.010 A 
ATOM     78  C   UNL A   1      50.157  27.275  29.404  1.00  0.00     0.020 A 
ATOM     79  C   UNL A   1      49.709  26.534  31.676  1.00  0.00     0.020 A 
ATOM     80  C   UNL A   1      50.599  26.743  30.620  1.00  0.00     0.054 A 
BRANCH  80  81
ATOM     81  S   UNL A   1      52.362  26.373  30.828  1.00  0.00     0.124 S 
ATOM     82  O   UNL A   1      52.818  26.285  29.443  1.00  0.00    -0.237 OA
ATOM     83  O   UNL A   1      52.851  27.528  31.578  1.00  0.00    -0.237 OA
ATOM     84  O   UNL A   1      52.365  25.112  31.567  1.00  0.00    -0.744 OA
ENDBRANCH  80  81
ENDBRANCH  54  75
ENDBRANCH  28  29
ENDBRANCH  21  23
ENDBRANCH  20  21
ENDBRANCH  19  20
ENDBRANCH   1  19
TORSDOF 17
ENDMDL
MODEL 2
REMARK VINA RESULT:     -10.1      2.768      3.821
REMARK SMILES Cc1cccc(C(=O)[C@H](C)[C@@H](C)C(=O)OCCOC(=O)c2ccc(-c3c4nc(c(-c5ccc(S(=O)(=O)[O-])cc5)c5ccc([nH]5)c(-c5ccc(S(=O)(=O)[O-])cc5)c5nc(c(-c6ccc(S(=O)(=O)[O-])cc6)c6ccc3[nH]6)C=C5)C=C4)cc2)c1C
REMARK SMILES IDX 16 1 15 2 13 3 14 4 11 5 12 6 9 7 10 8 7 9 8 10 6 11 1 12
REMARK SMILES IDX 2 13 3 14 81 15 4 16 82 17 5 18 17 19 18 20 19 21 20 22
REMARK SMILES IDX 21 23 22 24 80 25 23 26 79 27 24 28 25 29 26 30 73 31 27 32
REMARK SMILES IDX 78 33 72 34 74 35 28 36 77 37 71 38 70 39 29 41 59 42 40 43
REMARK SMILES IDX 58 44 41 45 44 46 57 47 75 48 42 49 43 50 56 52 76 53 45 54
REMARK SMILES IDX 30 55 31 56 39 57 32 58 38 59 33 60 34 61 35 62 36 63 37 64
REMARK SMILES IDX 60 65 61 66 69 67 62 68 68 69 63 70 64 71 65 72 66 73 67 74
REMARK SMILES IDX 46 75 47 76 55 77 48 78 54 79 49 80 50 81 51 82 52 83 53 84
REMARK H PARENT 74 40 44 51
REMARK Flexibility Score: inf
ROOT
ATOM      1  C   UNL A   1      34.068  32.328  28.006  1.00  0.00     0.274 C 
ENDROOT
BRANCH   1   2
ATOM      2  O   UNL A   1      33.927  31.203  27.115  1.00  0.00    -0.462 OA
BRANCH   2   3
ATOM      3  C   UNL A   1      32.648  30.782  26.927  1.00  0.00     0.309 C 
ATOM      4  O   UNL A   1      31.687  31.534  26.793  1.00  0.00    -0.252 OA
BRANCH   3   5
ATOM      5  C   UNL A   1      32.483  29.270  26.989  1.00  0.00     0.106 C 
ATOM      6  C   UNL A   1      33.890  28.693  27.163  1.00  0.00     0.021 C 
BRANCH   5   7
ATOM      7  C   UNL A   1      31.711  28.637  25.801  1.00  0.00     0.072 C 
ATOM      8  C   UNL A   1      32.557  28.609  24.519  1.00  0.00     0.017 C 
BRANCH   7   9
ATOM      9  C   UNL A   1      31.365  27.176  26.128  1.00  0.00     0.166 C 
ATOM     10  O   UNL A   1      31.033  26.912  27.285  1.00  0.00    -0.294 OA
BRANCH   9  11
ATOM     11  C   UNL A   1      31.414  26.083  25.073  1.00  0.00     0.021 A 
ATOM     12  C   UNL A   1      33.499  22.999  24.066  1.00  0.00     0.044 C 
ATOM     13  C   UNL A   1      32.433  24.065  24.108  1.00  0.00    -0.047 A 
ATOM     14  C   UNL A   1      31.309  23.899  23.288  1.00  0.00     0.004 A 
ATOM     15  C   UNL A   1      32.520  25.189  24.975  1.00  0.00    -0.037 A 
ATOM     16  C   UNL A   1      30.269  24.814  23.327  1.00  0.00     0.001 A 
ATOM     17  C   UNL A   1      33.769  25.386  25.807  1.00  0.00     0.045 C 
ATOM     18  C   UNL A   1      30.317  25.888  24.215  1.00  0.00     0.012 A 
ENDBRANCH   9  11
ENDBRANCH   7   9
ENDBRANCH   5   7
ENDBRANCH   3   5
ENDBRANCH   2   3
ENDBRANCH   1   2
BRANCH   1  19
ATOM     19  C   UNL A   1      34.867  31.973  29.257  1.00  0.00     0.275 C 
BRANCH  19  20
ATOM     20  O   UNL A   1      35.661  30.799  29.022  1.00  0.00    -0.458 OA
BRANCH  20  21
ATOM     21  C   UNL A   1      36.335  30.338  30.100  1.00  0.00     0.338 C 
ATOM     22  O   UNL A   1      35.908  30.225  31.236  1.00  0.00    -0.246 OA
BRANCH  21  23
ATOM     23  C   UNL A   1      37.737  30.066  29.754  1.00  0.00     0.060 A 
ATOM     24  C   UNL A   1      38.174  30.041  28.427  1.00  0.00     0.016 A 
ATOM     25  C   UNL A   1      38.601  29.716  30.792  1.00  0.00     0.016 A 
ATOM     26  C   UNL A   1      39.475  29.632  28.135  1.00  0.00     0.010 A 
ATOM     27  C   UNL A   1      39.913  29.349  30.503  1.00  0.00     0.010 A 
ATOM     28  C   UNL A   1      40.354  29.286  29.172  1.00  0.00    -0.014 A 
BRANCH  28  29
ATOM     29  C   UNL A   1      41.748  28.875  28.889  1.00  0.00     0.031 A 
ATOM     30  C   UNL A   1      42.859  29.885  28.928  1.00  0.00     0.074 A 
ATOM     31  C   UNL A   1      41.995  27.600  28.539  1.00  0.00     0.049 A 
ATOM     32  N   UNL A   1      44.105  29.754  28.552  1.00  0.00    -0.248 NA
ATOM     33  C   UNL A   1      42.523  31.219  29.451  1.00  0.00     0.031 C 
ATOM     34  C   UNL A   1      40.998  26.529  28.491  1.00  0.00     0.029 A 
ATOM     35  N   UNL A   1      43.158  26.993  28.140  1.00  0.00    -0.354 N 
ATOM     36  C   UNL A   1      44.698  30.991  28.765  1.00  0.00     0.074 A 
ATOM     37  C   UNL A   1      43.674  31.864  29.300  1.00  0.00     0.031 C 
ATOM     38  C   UNL A   1      41.591  25.397  28.084  1.00  0.00     0.029 A 
ATOM     39  C   UNL A   1      42.993  25.674  27.791  1.00  0.00     0.049 A 
ATOM     40  H   UNL A   1      44.025  27.458  28.105  1.00  0.00     0.167 HD
ATOM     41  C   UNL A   1      45.980  31.365  28.529  1.00  0.00     0.031 A 
ATOM     42  C   UNL A   1      43.864  24.796  27.262  1.00  0.00     0.031 A 
ATOM     43  C   UNL A   1      46.989  30.487  27.996  1.00  0.00     0.049 A 
ATOM     44  C   UNL A   1      45.268  25.241  26.975  1.00  0.00     0.074 A 
ATOM     45  C   UNL A   1      48.318  30.765  27.724  1.00  0.00     0.029 A 
ATOM     46  N   UNL A   1      46.782  29.158  27.656  1.00  0.00    -0.354 N 
ATOM     47  N   UNL A   1      45.809  26.421  27.165  1.00  0.00    -0.248 NA
ATOM     48  C   UNL A   1      46.175  24.242  26.398  1.00  0.00     0.031 C 
ATOM     49  C   UNL A   1      48.905  29.612  27.187  1.00  0.00     0.029 A 
ATOM     50  C   UNL A   1      47.953  28.606  27.163  1.00  0.00     0.049 A 
ATOM     51  H   UNL A   1      45.928  28.678  27.751  1.00  0.00     0.167 HD
ATOM     52  C   UNL A   1      47.127  26.303  26.741  1.00  0.00     0.074 A 
ATOM     53  C   UNL A   1      47.303  24.933  26.298  1.00  0.00     0.031 C 
ATOM     54  C   UNL A   1      48.103  27.243  26.721  1.00  0.00     0.031 A 
BRANCH  41  55
ATOM     55  C   UNL A   1      46.350  32.796  28.810  1.00  0.00    -0.014 A 
ATOM     56  C   UNL A   1      46.859  33.185  30.061  1.00  0.00     0.010 A 
ATOM     57  C   UNL A   1      46.219  33.760  27.794  1.00  0.00     0.010 A 
ATOM     58  C   UNL A   1      47.196  34.521  30.303  1.00  0.00     0.020 A 
ATOM     59  C   UNL A   1      46.572  35.092  28.025  1.00  0.00     0.020 A 
ATOM     60  C   UNL A   1      47.042  35.468  29.285  1.00  0.00     0.054 A 
BRANCH  60  61
ATOM     61  S   UNL A   1      47.495  37.194  29.616  1.00  0.00     0.124 S 
ATOM     62  O   UNL A   1      47.721  37.710  28.268  1.00  0.00    -0.237 OA
ATOM     63  O   UNL A   1      46.313  37.717  30.296  1.00  0.00    -0.237 OA
ATOM     64  O   UNL A   1      48.690  37.085  30.449  1.00  0.00    -0.744 OA
ENDBRANCH  60  61
ENDBRANCH  41  55
BRANCH  42  65
ATOM     65  C   UNL A   1      43.409  23.416  26.951  1.00  0.00    -0.014 A 
ATOM     66  C   UNL A   1      43.419  22.945  25.628  1.00  0.00     0.010 A 
ATOM     67  C   UNL A   1      43.019  22.548  27.988  1.00  0.00     0.010 A 
ATOM     68  C   UNL A   1      43.048  21.627  25.345  1.00  0.00     0.020 A 
ATOM     69  C   UNL A   1      42.667  21.224  27.711  1.00  0.00     0.020 A 
ATOM     70  C   UNL A   1      42.678  20.774  26.390  1.00  0.00     0.054 A 
BRANCH  70  71
ATOM     71  S   UNL A   1      42.280  19.043  26.016  1.00  0.00     0.124 S 
ATOM     72  O   UNL A   1      40.852  19.117  25.726  1.00  0.00    -0.237 OA
ATOM     73  O   UNL A   1      43.143  18.755  24.873  1.00  0.00    -0.237 OA
ATOM     74  O   UNL A   1      42.636  18.340  27.246  1.00  0.00    -0.744 OA
ENDBRANCH  70  71
ENDBRANCH  42  65
BRANCH  54  75
ATOM     75  C   UNL A   1      49.453  26.812  26.224  1.00  0.00    -0.014 A 
ATOM     76  C   UNL A   1      50.343  26.119  27.062  1.00  0.00     0.010 A 
ATOM     77  C   UNL A   1      49.819  27.073  24.892  1.00  0.00     0.010 A 
ATOM     78  C   UNL A   1      51.591  25.714  26.582  1.00  0.00     0.020 A 
ATOM     79  C   UNL A   1      51.059  26.654  24.403  1.00  0.00     0.020 A 
ATOM     80  C   UNL A   1      51.943  25.989  25.256  1.00  0.00     0.054 A 
BRANCH  80  81
ATOM     81  S   UNL A   1      53.551  25.422  24.638  1.00  0.00     0.124 S 
ATOM     82  O   UNL A   1      53.551  25.938  23.273  1.00  0.00    -0.237 OA
ATOM     83  O   UNL A   1      54.495  26.061  25.552  1.00  0.00    -0.237 OA
ATOM     84  O   UNL A   1      53.471  23.967  24.755  1.00  0.00    -0.744 OA
ENDBRANCH  80  81
ENDBRANCH  54  75
ENDBRANCH  28  29
ENDBRANCH  21  23
ENDBRANCH  20  21
ENDBRANCH  19  20
ENDBRANCH   1  19
TORSDOF 17
ENDMDL
MODEL 3
REMARK VINA RESULT:     -10.1      5.092     10.668
REMARK SMILES Cc1cccc(C(=O)[C@H](C)[C@@H](C)C(=O)OCCOC(=O)c2ccc(-c3c4nc(c(-c5ccc(S(=O)(=O)[O-])cc5)c5ccc([nH]5)c(-c5ccc(S(=O)(=O)[O-])cc5)c5nc(c(-c6ccc(S(=O)(=O)[O-])cc6)c6ccc3[nH]6)C=C5)C=C4)cc2)c1C
REMARK SMILES IDX 16 1 15 2 13 3 14 4 11 5 12 6 9 7 10 8 7 9 8 10 6 11 1 12
REMARK SMILES IDX 2 13 3 14 81 15 4 16 82 17 5 18 17 19 18 20 19 21 20 22
REMARK SMILES IDX 21 23 22 24 80 25 23 26 79 27 24 28 25 29 26 30 73 31 27 32
REMARK SMILES IDX 78 33 72 34 74 35 28 36 77 37 71 38 70 39 29 41 59 42 40 43
REMARK SMILES IDX 58 44 41 45 44 46 57 47 75 48 42 49 43 50 56 52 76 53 45 54
REMARK SMILES IDX 30 55 31 56 39 57 32 58 38 59 33 60 34 61 35 62 36 63 37 64
REMARK SMILES IDX 60 65 61 66 69 67 62 68 68 69 63 70 64 71 65 72 66 73 67 74
REMARK SMILES IDX 46 75 47 76 55 77 48 78 54 79 49 80 50 81 51 82 52 83 53 84
REMARK H PARENT 74 40 44 51
REMARK Flexibility Score: inf
ROOT
ATOM      1  C   UNL A   1      44.655  24.306  26.091  1.00  0.00     0.274 C 
ENDROOT
BRANCH   1   2
ATOM      2  O   UNL A   1      43.471  23.514  26.315  1.00  0.00    -0.462 OA
BRANCH   2   3
ATOM      3  C   UNL A   1      43.273  22.516  25.413  1.00  0.00     0.309 C 
ATOM      4  O   UNL A   1      43.108  22.696  24.210  1.00  0.00    -0.252 OA
BRANCH   3   5
ATOM      5  C   UNL A   1      43.178  21.131  26.038  1.00  0.00     0.106 C 
ATOM      6  C   UNL A   1      44.355  20.328  25.478  1.00  0.00     0.021 C 
BRANCH   5   7
ATOM      7  C   UNL A   1      41.815  20.413  25.859  1.00  0.00     0.072 C 
ATOM      8  C   UNL A   1      41.916  18.910  26.155  1.00  0.00     0.017 C 
BRANCH   7   9
ATOM      9  C   UNL A   1      40.793  20.987  26.854  1.00  0.00     0.166 C 
ATOM     10  O   UNL A   1      40.833  20.580  28.015  1.00  0.00    -0.294 OA
BRANCH   9  11
ATOM     11  C   UNL A   1      39.768  22.031  26.439  1.00  0.00     0.021 A 
ATOM     12  C   UNL A   1      36.260  22.304  24.861  1.00  0.00     0.044 C 
ATOM     13  C   UNL A   1      37.581  22.647  25.503  1.00  0.00    -0.047 A 
ATOM     14  C   UNL A   1      37.766  23.960  25.957  1.00  0.00     0.004 A 
ATOM     15  C   UNL A   1      38.604  21.679  25.696  1.00  0.00    -0.037 A 
ATOM     16  C   UNL A   1      38.934  24.320  26.610  1.00  0.00     0.001 A 
ATOM     17  C   UNL A   1      38.413  20.282  25.144  1.00  0.00     0.045 C 
ATOM     18  C   UNL A   1      39.920  23.365  26.856  1.00  0.00     0.012 A 
ENDBRANCH   9  11
ENDBRANCH   7   9
ENDBRANCH   5   7
ENDBRANCH   3   5
ENDBRANCH   2   3
ENDBRANCH   1   2
BRANCH   1  19
ATOM     19  C   UNL A   1      44.325  25.682  25.518  1.00  0.00     0.275 C 
BRANCH  19  20
ATOM     20  O   UNL A   1      42.906  25.900  25.536  1.00  0.00    -0.458 OA
BRANCH  20  21
ATOM     21  C   UNL A   1      42.525  27.197  25.497  1.00  0.00     0.338 C 
ATOM     22  O   UNL A   1      42.501  27.923  24.518  1.00  0.00    -0.246 OA
BRANCH  21  23
ATOM     23  C   UNL A   1      42.221  27.686  26.849  1.00  0.00     0.060 A 
ATOM     24  C   UNL A   1      41.404  26.965  27.723  1.00  0.00     0.016 A 
ATOM     25  C   UNL A   1      42.681  28.956  27.195  1.00  0.00     0.016 A 
ATOM     26  C   UNL A   1      41.018  27.534  28.937  1.00  0.00     0.010 A 
ATOM     27  C   UNL A   1      42.332  29.506  28.425  1.00  0.00     0.010 A 
ATOM     28  C   UNL A   1      41.482  28.807  29.297  1.00  0.00    -0.014 A 
BRANCH  28  29
ATOM     29  C   UNL A   1      41.110  29.421  30.593  1.00  0.00     0.031 A 
ATOM     30  C   UNL A   1      39.948  30.368  30.677  1.00  0.00     0.074 A 
ATOM     31  C   UNL A   1      41.864  29.165  31.677  1.00  0.00     0.049 A 
ATOM     32  N   UNL A   1      39.575  31.126  31.675  1.00  0.00    -0.248 NA
ATOM     33  C   UNL A   1      39.100  30.484  29.480  1.00  0.00     0.031 C 
ATOM     34  C   UNL A   1      43.002  28.244  31.717  1.00  0.00     0.029 A 
ATOM     35  N   UNL A   1      41.799  29.671  32.950  1.00  0.00    -0.354 N 
ATOM     36  C   UNL A   1      38.466  31.829  31.223  1.00  0.00     0.074 A 
ATOM     37  C   UNL A   1      38.229  31.412  29.857  1.00  0.00     0.031 C 
ATOM     38  C   UNL A   1      43.528  28.251  32.950  1.00  0.00     0.029 A 
ATOM     39  C   UNL A   1      42.801  29.214  33.771  1.00  0.00     0.049 A 
ATOM     40  H   UNL A   1      41.102  30.300  33.245  1.00  0.00     0.167 HD
ATOM     41  C   UNL A   1      37.719  32.745  31.888  1.00  0.00     0.031 A 
ATOM     42  C   UNL A   1      43.122  29.558  35.031  1.00  0.00     0.031 A 
ATOM     43  C   UNL A   1      37.966  33.153  33.246  1.00  0.00     0.049 A 
ATOM     44  C   UNL A   1      42.304  30.601  35.735  1.00  0.00     0.074 A 
ATOM     45  C   UNL A   1      37.266  34.069  34.012  1.00  0.00     0.029 A 
ATOM     46  N   UNL A   1      38.991  32.667  34.044  1.00  0.00    -0.354 N 
ATOM     47  N   UNL A   1      41.269  31.272  35.287  1.00  0.00    -0.248 NA
ATOM     48  C   UNL A   1      42.699  30.938  37.108  1.00  0.00     0.031 C 
ATOM     49  C   UNL A   1      37.890  34.162  35.263  1.00  0.00     0.029 A 
ATOM     50  C   UNL A   1      38.954  33.274  35.288  1.00  0.00     0.049 A 
ATOM     51  H   UNL A   1      39.650  31.990  33.766  1.00  0.00     0.167 HD
ATOM     52  C   UNL A   1      40.880  32.103  36.329  1.00  0.00     0.074 A 
ATOM     53  C   UNL A   1      41.783  31.841  37.434  1.00  0.00     0.031 C 
ATOM     54  C   UNL A   1      39.867  33.003  36.369  1.00  0.00     0.031 A 
BRANCH  41  55
ATOM     55  C   UNL A   1      36.589  33.397  31.137  1.00  0.00    -0.014 A 
ATOM     56  C   UNL A   1      35.309  33.518  31.708  1.00  0.00     0.010 A 
ATOM     57  C   UNL A   1      36.821  33.928  29.856  1.00  0.00     0.010 A 
ATOM     58  C   UNL A   1      34.271  34.126  30.993  1.00  0.00     0.020 A 
ATOM     59  C   UNL A   1      35.791  34.553  29.146  1.00  0.00     0.020 A 
ATOM     60  C   UNL A   1      34.517  34.632  29.713  1.00  0.00     0.054 A 
BRANCH  60  61
ATOM     61  S   UNL A   1      33.160  35.427  28.808  1.00  0.00     0.124 S 
ATOM     62  O   UNL A   1      33.875  36.402  27.988  1.00  0.00    -0.237 OA
ATOM     63  O   UNL A   1      32.560  34.314  28.077  1.00  0.00    -0.237 OA
ATOM     64  O   UNL A   1      32.325  35.995  29.864  1.00  0.00    -0.744 OA
ENDBRANCH  60  61
ENDBRANCH  41  55
BRANCH  42  65
ATOM     65  C   UNL A   1      44.292  28.919  35.686  1.00  0.00    -0.014 A 
ATOM     66  C   UNL A   1      45.566  29.502  35.594  1.00  0.00     0.010 A 
ATOM     67  C   UNL A   1      44.124  27.752  36.455  1.00  0.00     0.010 A 
ATOM     68  C   UNL A   1      46.654  28.931  36.261  1.00  0.00     0.020 A 
ATOM     69  C   UNL A   1      45.204  27.191  37.141  1.00  0.00     0.020 A 
ATOM     70  C   UNL A   1      46.465  27.780  37.034  1.00  0.00     0.054 A 
BRANCH  70  71
ATOM     71  S   UNL A   1      47.868  27.101  37.961  1.00  0.00     0.124 S 
ATOM     72  O   UNL A   1      49.007  27.634  37.221  1.00  0.00    -0.237 OA
ATOM     73  O   UNL A   1      47.669  27.654  39.298  1.00  0.00    -0.237 OA
ATOM     74  O   UNL A   1      47.675  25.656  37.859  1.00  0.00    -0.744 OA
ENDBRANCH  70  71
ENDBRANCH  42  65
BRANCH  54  75
ATOM     75  C   UNL A   1      39.670  33.750  37.657  1.00  0.00    -0.014 A 
ATOM     76  C   UNL A   1      38.840  33.238  38.669  1.00  0.00     0.010 A 
ATOM     77  C   UNL A   1      40.352  34.961  37.870  1.00  0.00     0.010 A 
ATOM     78  C   UNL A   1      38.677  33.938  39.867  1.00  0.00     0.020 A 
ATOM     79  C   UNL A   1      40.205  35.655  39.073  1.00  0.00     0.020 A 
ATOM     80  C   UNL A   1      39.356  35.146  40.059  1.00  0.00     0.054 A 
BRANCH  80  81
ATOM     81  S   UNL A   1      39.162  36.022  41.635  1.00  0.00     0.124 S 
ATOM     82  O   UNL A   1      39.131  37.417  41.204  1.00  0.00    -0.237 OA
ATOM     83  O   UNL A   1      37.899  35.495  42.147  1.00  0.00    -0.237 OA
ATOM     84  O   UNL A   1      40.347  35.631  42.395  1.00  0.00    -0.744 OA
ENDBRANCH  80  81
ENDBRANCH  54  75
ENDBRANCH  28  29
ENDBRANCH  21  23
ENDBRANCH  20  21
ENDBRANCH  19  20
ENDBRANCH   1  19
TORSDOF 17
ENDMDL
