MODEL 1
REMARK VINA RESULT:     -11.7      0.000      0.000
REMARK SMILES Nc1nccc(N2CCC[C@@](Cc3ccc(F)cc3F)(C(=O)OCCOC(=O)c3ccc(-c4c5nc(c(-c6ccc(S(=O)(=O)[O-])cc6)c6ccc([nH]6)c(-c6ccc(S(=O)(=O)[O-])cc6)c6nc(c(-c7ccc(S(=O)(=O)[O-])cc7)c7ccc4[nH]7)C=C6)C=C5)cc3)C2)n1
REMARK SMILES IDX 25 1 24 2 23 3 21 4 22 5 11 6 7 7 8 8 89 9 9 10 10 11 6 12
REMARK SMILES IDX 2 13 3 14 90 15 4 16 5 17 1 18 12 21 13 22 14 23 19 24 15 25
REMARK SMILES IDX 18 26 20 27 16 28 17 29 26 30 27 31 28 32 29 33 30 34 88 35
REMARK SMILES IDX 31 36 87 37 32 38 33 39 34 40 81 41 35 42 86 43 80 44 82 45
REMARK SMILES IDX 36 46 85 47 79 48 78 49 37 51 67 52 48 53 66 54 49 55 52 56
REMARK SMILES IDX 65 57 83 58 50 59 51 60 64 62 84 63 53 64 38 65 39 66 47 67
REMARK SMILES IDX 40 68 46 69 41 70 42 71 43 72 44 73 45 74 68 75 69 76 77 77
REMARK SMILES IDX 70 78 76 79 71 80 72 81 73 82 74 83 75 84 54 85 55 86 63 87
REMARK SMILES IDX 56 88 62 89 57 90 58 91 59 92 60 93 61 94
REMARK H PARENT 1 19 1 20 82 50 52 61
REMARK Flexibility Score: inf
ROOT
ATOM      1  C   UNL A   1      32.864  30.818  27.012  1.00  0.00     0.275 C 
ENDROOT
BRANCH   1   2
ATOM      2  C   UNL A   1      32.297  29.965  25.883  1.00  0.00     0.274 C 
BRANCH   2   3
ATOM      3  O   UNL A   1      32.789  28.609  25.965  1.00  0.00    -0.462 OA
BRANCH   3   4
ATOM      4  C   UNL A   1      32.786  27.905  24.799  1.00  0.00     0.314 C 
ATOM      5  O   UNL A   1      33.504  28.170  23.840  1.00  0.00    -0.252 OA
BRANCH   4   6
ATOM      6  C   UNL A   1      31.708  26.825  24.753  1.00  0.00     0.090 C 
ATOM      7  N   UNL A   1      31.480  24.383  24.779  1.00  0.00    -0.355 N 
ATOM      8  C   UNL A   1      30.601  24.309  25.942  1.00  0.00     0.118 C 
ATOM      9  C   UNL A   1      32.454  25.472  24.805  1.00  0.00     0.137 C 
ATOM     10  C   UNL A   1      29.837  25.631  26.066  1.00  0.00     0.023 C 
ATOM     11  C   UNL A   1      30.748  26.865  25.969  1.00  0.00     0.023 C 
BRANCH   7  12
ATOM     12  C   UNL A   1      31.997  23.163  24.336  1.00  0.00     0.134 A 
ATOM     13  C   UNL A   1      32.079  21.449  22.816  1.00  0.00     0.221 A 
ATOM     14  N   UNL A   1      32.864  20.696  23.594  1.00  0.00    -0.222 NA
ATOM     15  N   UNL A   1      31.618  22.662  23.146  1.00  0.00    -0.196 NA
ATOM     16  C   UNL A   1      33.217  21.221  24.775  1.00  0.00     0.119 A 
ATOM     17  C   UNL A   1      32.824  22.465  25.192  1.00  0.00     0.067 A 
BRANCH  13  18
ATOM     18  N   UNL A   1      31.731  20.929  21.607  1.00  0.00    -0.368 N 
ATOM     19  H   UNL A   1      30.787  20.916  21.329  1.00  0.00     0.159 HD
ATOM     20  H   UNL A   1      32.425  20.565  21.010  1.00  0.00     0.159 HD
ENDBRANCH  13  18
ENDBRANCH   7  12
BRANCH   6  21
ATOM     21  C   UNL A   1      30.994  26.943  23.375  1.00  0.00     0.059 C 
BRANCH  21  22
ATOM     22  C   UNL A   1      29.956  28.034  23.250  1.00  0.00    -0.011 A 
ATOM     23  C   UNL A   1      30.337  29.369  23.041  1.00  0.00     0.010 A 
ATOM     24  C   UNL A   1      28.591  27.735  23.327  1.00  0.00     0.129 A 
ATOM     25  C   UNL A   1      29.372  30.372  22.955  1.00  0.00     0.040 A 
ATOM     26  C   UNL A   1      27.623  28.725  23.229  1.00  0.00     0.078 A 
ATOM     27  F   UNL A   1      28.191  26.466  23.493  1.00  0.00    -0.207 F 
ATOM     28  C   UNL A   1      28.025  30.040  23.051  1.00  0.00     0.126 A 
ATOM     29  F   UNL A   1      27.102  31.006  22.965  1.00  0.00    -0.207 F 
ENDBRANCH  21  22
ENDBRANCH   6  21
ENDBRANCH   4   6
ENDBRANCH   3   4
ENDBRANCH   2   3
ENDBRANCH   1   2
BRANCH   1  30
ATOM     30  O   UNL A   1      33.891  30.078  27.690  1.00  0.00    -0.458 OA
BRANCH  30  31
ATOM     31  C   UNL A   1      34.704  30.803  28.492  1.00  0.00     0.338 C 
ATOM     32  O   UNL A   1      34.416  31.812  29.112  1.00  0.00    -0.246 OA
BRANCH  31  33
ATOM     33  C   UNL A   1      36.038  30.172  28.548  1.00  0.00     0.060 A 
ATOM     34  C   UNL A   1      36.527  29.668  29.750  1.00  0.00     0.016 A 
ATOM     35  C   UNL A   1      36.857  30.194  27.421  1.00  0.00     0.016 A 
ATOM     36  C   UNL A   1      37.866  29.299  29.867  1.00  0.00     0.010 A 
ATOM     37  C   UNL A   1      38.166  29.709  27.510  1.00  0.00     0.010 A 
ATOM     38  C   UNL A   1      38.704  29.300  28.744  1.00  0.00    -0.014 A 
BRANCH  38  39
ATOM     39  C   UNL A   1      40.147  28.931  28.856  1.00  0.00     0.031 A 
ATOM     40  C   UNL A   1      41.146  29.948  29.354  1.00  0.00     0.074 A 
ATOM     41  C   UNL A   1      40.580  27.700  28.519  1.00  0.00     0.049 A 
ATOM     42  N   UNL A   1      42.453  29.919  29.299  1.00  0.00    -0.248 NA
ATOM     43  C   UNL A   1      40.601  31.168  29.973  1.00  0.00     0.031 C 
ATOM     44  C   UNL A   1      39.738  26.587  28.075  1.00  0.00     0.029 A 
ATOM     45  N   UNL A   1      41.850  27.174  28.511  1.00  0.00    -0.354 N 
ATOM     46  C   UNL A   1      42.882  31.147  29.793  1.00  0.00     0.074 A 
ATOM     47  C   UNL A   1      41.696  31.892  30.159  1.00  0.00     0.031 C 
ATOM     48  C   UNL A   1      40.504  25.500  27.889  1.00  0.00     0.029 A 
ATOM     49  C   UNL A   1      41.901  25.862  28.100  1.00  0.00     0.049 A 
ATOM     50  H   UNL A   1      42.647  27.686  28.774  1.00  0.00     0.167 HD
ATOM     51  C   UNL A   1      44.147  31.617  29.918  1.00  0.00     0.031 A 
ATOM     52  C   UNL A   1      42.950  25.049  27.869  1.00  0.00     0.031 A 
ATOM     53  C   UNL A   1      45.328  30.851  29.623  1.00  0.00     0.049 A 
ATOM     54  C   UNL A   1      44.344  25.586  28.014  1.00  0.00     0.074 A 
ATOM     55  C   UNL A   1      46.654  31.234  29.731  1.00  0.00     0.029 A 
ATOM     56  N   UNL A   1      45.326  29.535  29.189  1.00  0.00    -0.354 N 
ATOM     57  N   UNL A   1      44.729  26.782  28.390  1.00  0.00    -0.248 NA
ATOM     58  C   UNL A   1      45.444  24.674  27.673  1.00  0.00     0.031 C 
ATOM     59  C   UNL A   1      47.455  30.156  29.337  1.00  0.00     0.029 A 
ATOM     60  C   UNL A   1      46.628  29.091  29.018  1.00  0.00     0.049 A 
ATOM     61  H   UNL A   1      44.520  28.996  29.025  1.00  0.00     0.167 HD
ATOM     62  C   UNL A   1      46.117  26.767  28.327  1.00  0.00     0.074 A 
ATOM     63  C   UNL A   1      46.504  25.437  27.901  1.00  0.00     0.031 C 
ATOM     64  C   UNL A   1      46.993  27.768  28.588  1.00  0.00     0.031 A 
BRANCH  51  65
ATOM     65  C   UNL A   1      44.313  33.052  30.342  1.00  0.00    -0.014 A 
ATOM     66  C   UNL A   1      44.314  34.104  29.410  1.00  0.00     0.010 A 
ATOM     67  C   UNL A   1      44.452  33.348  31.711  1.00  0.00     0.010 A 
ATOM     68  C   UNL A   1      44.496  35.424  29.837  1.00  0.00     0.020 A 
ATOM     69  C   UNL A   1      44.612  34.667  32.143  1.00  0.00     0.020 A 
ATOM     70  C   UNL A   1      44.655  35.696  31.200  1.00  0.00     0.054 A 
BRANCH  70  71
ATOM     71  S   UNL A   1      44.886  37.414  31.735  1.00  0.00     0.124 S 
ATOM     72  O   UNL A   1      45.495  37.237  33.052  1.00  0.00    -0.237 OA
ATOM     73  O   UNL A   1      45.767  37.959  30.706  1.00  0.00    -0.237 OA
ATOM     74  O   UNL A   1      43.531  37.958  31.743  1.00  0.00    -0.744 OA
ENDBRANCH  70  71
ENDBRANCH  51  65
BRANCH  52  75
ATOM     75  C   UNL A   1      42.715  23.650  27.423  1.00  0.00    -0.014 A 
ATOM     76  C   UNL A   1      42.607  23.352  26.054  1.00  0.00     0.010 A 
ATOM     77  C   UNL A   1      42.632  22.605  28.361  1.00  0.00     0.010 A 
ATOM     78  C   UNL A   1      42.422  22.032  25.630  1.00  0.00     0.020 A 
ATOM     79  C   UNL A   1      42.473  21.283  27.940  1.00  0.00     0.020 A 
ATOM     80  C   UNL A   1      42.361  21.005  26.576  1.00  0.00     0.054 A 
BRANCH  80  81
ATOM     81  S   UNL A   1      42.206  19.287  26.009  1.00  0.00     0.124 S 
ATOM     82  O   UNL A   1      40.775  19.187  25.737  1.00  0.00    -0.237 OA
ATOM     83  O   UNL A   1      43.076  19.255  24.837  1.00  0.00    -0.237 OA
ATOM     84  O   UNL A   1      42.685  18.511  27.151  1.00  0.00    -0.744 OA
ENDBRANCH  80  81
ENDBRANCH  52  75
BRANCH  64  85
ATOM     85  C   UNL A   1      48.454  27.454  28.434  1.00  0.00    -0.014 A 
ATOM     86  C   UNL A   1      49.144  27.798  27.260  1.00  0.00     0.010 A 
ATOM     87  C   UNL A   1      49.148  26.833  29.488  1.00  0.00     0.010 A 
ATOM     88  C   UNL A   1      50.503  27.499  27.129  1.00  0.00     0.020 A 
ATOM     89  C   UNL A   1      50.511  26.549  29.367  1.00  0.00     0.020 A 
ATOM     90  C   UNL A   1      51.176  26.870  28.182  1.00  0.00     0.054 A 
BRANCH  90  91
ATOM     91  S   UNL A   1      52.947  26.516  28.007  1.00  0.00     0.124 S 
ATOM     92  O   UNL A   1      53.339  26.246  29.387  1.00  0.00    -0.237 OA
ATOM     93  O   UNL A   1      52.960  25.360  27.113  1.00  0.00    -0.237 OA
ATOM     94  O   UNL A   1      53.489  27.744  27.431  1.00  0.00    -0.744 OA
ENDBRANCH  90  91
ENDBRANCH  64  85
ENDBRANCH  38  39
ENDBRANCH  31  33
ENDBRANCH  30  31
ENDBRANCH   1  30
TORSDOF 18
ENDMDL
MODEL 2
REMARK VINA RESULT:     -11.5      5.513     11.140
REMARK SMILES Nc1nccc(N2CCC[C@@](Cc3ccc(F)cc3F)(C(=O)OCCOC(=O)c3ccc(-c4c5nc(c(-c6ccc(S(=O)(=O)[O-])cc6)c6ccc([nH]6)c(-c6ccc(S(=O)(=O)[O-])cc6)c6nc(c(-c7ccc(S(=O)(=O)[O-])cc7)c7ccc4[nH]7)C=C6)C=C5)cc3)C2)n1
REMARK SMILES IDX 25 1 24 2 23 3 21 4 22 5 11 6 7 7 8 8 89 9 9 10 10 11 6 12
REMARK SMILES IDX 2 13 3 14 90 15 4 16 5 17 1 18 12 21 13 22 14 23 19 24 15 25
REMARK SMILES IDX 18 26 20 27 16 28 17 29 26 30 27 31 28 32 29 33 30 34 88 35
REMARK SMILES IDX 31 36 87 37 32 38 33 39 34 40 81 41 35 42 86 43 80 44 82 45
REMARK SMILES IDX 36 46 85 47 79 48 78 49 37 51 67 52 48 53 66 54 49 55 52 56
REMARK SMILES IDX 65 57 83 58 50 59 51 60 64 62 84 63 53 64 38 65 39 66 47 67
REMARK SMILES IDX 40 68 46 69 41 70 42 71 43 72 44 73 45 74 68 75 69 76 77 77
REMARK SMILES IDX 70 78 76 79 71 80 72 81 73 82 74 83 75 84 54 85 55 86 63 87
REMARK SMILES IDX 56 88 62 89 57 90 58 91 59 92 60 93 61 94
REMARK H PARENT 1 19 1 20 82 50 52 61
REMARK Flexibility Score: inf
ROOT
ATOM      1  C   UNL A   1      39.291  22.210  26.213  1.00  0.00     0.275 C 
ENDROOT
BRANCH   1   2
ATOM      2  C   UNL A   1      37.973  21.768  25.588  1.00  0.00     0.274 C 
BRANCH   2   3
ATOM      3  O   UNL A   1      37.079  22.889  25.422  1.00  0.00    -0.462 OA
BRANCH   3   4
ATOM      4  C   UNL A   1      35.823  22.728  25.924  1.00  0.00     0.314 C 
ATOM      5  O   UNL A   1      35.584  22.202  27.005  1.00  0.00    -0.252 OA
BRANCH   4   6
ATOM      6  C   UNL A   1      34.728  23.153  24.948  1.00  0.00     0.090 C 
ATOM      7  N   UNL A   1      33.429  25.135  24.316  1.00  0.00    -0.355 N 
ATOM      8  C   UNL A   1      33.798  25.132  22.903  1.00  0.00     0.118 C 
ATOM      9  C   UNL A   1      34.464  24.650  25.227  1.00  0.00     0.137 C 
ATOM     10  C   UNL A   1      34.164  23.702  22.493  1.00  0.00     0.023 C 
ATOM     11  C   UNL A   1      35.151  23.032  23.462  1.00  0.00     0.023 C 
BRANCH   7  12
ATOM     12  C   UNL A   1      32.762  26.279  24.762  1.00  0.00     0.134 A 
ATOM     13  C   UNL A   1      32.616  28.553  25.004  1.00  0.00     0.221 A 
ATOM     14  N   UNL A   1      31.555  28.475  25.813  1.00  0.00    -0.222 NA
ATOM     15  N   UNL A   1      33.250  27.499  24.475  1.00  0.00    -0.196 NA
ATOM     16  C   UNL A   1      31.098  27.244  26.085  1.00  0.00     0.119 A 
ATOM     17  C   UNL A   1      31.657  26.105  25.570  1.00  0.00     0.067 A 
BRANCH  13  18
ATOM     18  N   UNL A   1      33.074  29.801  24.710  1.00  0.00    -0.368 N 
ATOM     19  H   UNL A   1      32.619  30.592  25.080  1.00  0.00     0.159 HD
ATOM     20  H   UNL A   1      33.860  29.913  24.128  1.00  0.00     0.159 HD
ENDBRANCH  13  18
ENDBRANCH   7  12
BRANCH   6  21
ATOM     21  C   UNL A   1      33.447  22.349  25.313  1.00  0.00     0.059 C 
BRANCH  21  22
ATOM     22  C   UNL A   1      33.302  20.991  24.664  1.00  0.00    -0.011 A 
ATOM     23  C   UNL A   1      34.058  19.896  25.111  1.00  0.00     0.010 A 
ATOM     24  C   UNL A   1      32.400  20.794  23.612  1.00  0.00     0.129 A 
ATOM     25  C   UNL A   1      33.937  18.654  24.487  1.00  0.00     0.040 A 
ATOM     26  C   UNL A   1      32.262  19.558  22.995  1.00  0.00     0.078 A 
ATOM     27  F   UNL A   1      31.637  21.809  23.184  1.00  0.00    -0.207 F 
ATOM     28  C   UNL A   1      33.041  18.499  23.434  1.00  0.00     0.126 A 
ATOM     29  F   UNL A   1      32.925  17.304  22.841  1.00  0.00    -0.207 F 
ENDBRANCH  21  22
ENDBRANCH   6  21
ENDBRANCH   4   6
ENDBRANCH   3   4
ENDBRANCH   2   3
ENDBRANCH   1   2
BRANCH   1  30
ATOM     30  O   UNL A   1      39.222  23.613  26.510  1.00  0.00    -0.458 OA
BRANCH  30  31
ATOM     31  C   UNL A   1      40.410  24.229  26.709  1.00  0.00     0.338 C 
ATOM     32  O   UNL A   1      41.492  23.905  26.252  1.00  0.00    -0.246 OA
BRANCH  31  33
ATOM     33  C   UNL A   1      40.216  25.416  27.566  1.00  0.00     0.060 A 
ATOM     34  C   UNL A   1      40.938  26.583  27.324  1.00  0.00     0.016 A 
ATOM     35  C   UNL A   1      39.401  25.327  28.692  1.00  0.00     0.016 A 
ATOM     36  C   UNL A   1      40.947  27.613  28.264  1.00  0.00     0.010 A 
ATOM     37  C   UNL A   1      39.317  26.411  29.572  1.00  0.00     0.010 A 
ATOM     38  C   UNL A   1      40.124  27.550  29.396  1.00  0.00    -0.014 A 
BRANCH  38  39
ATOM     39  C   UNL A   1      40.140  28.633  30.424  1.00  0.00     0.031 A 
ATOM     40  C   UNL A   1      41.163  28.601  31.534  1.00  0.00     0.074 A 
ATOM     41  C   UNL A   1      39.253  29.647  30.382  1.00  0.00     0.049 A 
ATOM     42  N   UNL A   1      41.200  29.291  32.645  1.00  0.00    -0.248 NA
ATOM     43  C   UNL A   1      42.278  27.650  31.384  1.00  0.00     0.031 C 
ATOM     44  C   UNL A   1      38.238  29.855  29.347  1.00  0.00     0.029 A 
ATOM     45  N   UNL A   1      39.071  30.708  31.236  1.00  0.00    -0.354 N 
ATOM     46  C   UNL A   1      42.286  28.799  33.363  1.00  0.00     0.074 A 
ATOM     47  C   UNL A   1      42.891  27.763  32.554  1.00  0.00     0.031 C 
ATOM     48  C   UNL A   1      37.578  30.997  29.597  1.00  0.00     0.029 A 
ATOM     49  C   UNL A   1      38.050  31.550  30.861  1.00  0.00     0.049 A 
ATOM     50  H   UNL A   1      39.620  30.852  32.040  1.00  0.00     0.167 HD
ATOM     51  C   UNL A   1      42.729  29.167  34.590  1.00  0.00     0.031 A 
ATOM     52  C   UNL A   1      37.515  32.619  31.481  1.00  0.00     0.031 A 
ATOM     53  C   UNL A   1      42.173  30.245  35.362  1.00  0.00     0.049 A 
ATOM     54  C   UNL A   1      38.020  33.013  32.839  1.00  0.00     0.074 A 
ATOM     55  C   UNL A   1      42.562  30.703  36.609  1.00  0.00     0.029 A 
ATOM     56  N   UNL A   1      41.126  31.053  34.948  1.00  0.00    -0.354 N 
ATOM     57  N   UNL A   1      38.984  32.474  33.546  1.00  0.00    -0.248 NA
ATOM     58  C   UNL A   1      37.343  34.138  33.496  1.00  0.00     0.031 C 
ATOM     59  C   UNL A   1      41.732  31.773  36.962  1.00  0.00     0.029 A 
ATOM     60  C   UNL A   1      40.851  32.004  35.918  1.00  0.00     0.049 A 
ATOM     61  H   UNL A   1      40.648  30.964  34.093  1.00  0.00     0.167 HD
ATOM     62  C   UNL A   1      39.028  33.193  34.733  1.00  0.00     0.074 A 
ATOM     63  C   UNL A   1      38.010  34.221  34.640  1.00  0.00     0.031 C 
ATOM     64  C   UNL A   1      39.831  33.013  35.810  1.00  0.00     0.031 A 
BRANCH  51  65
ATOM     65  C   UNL A   1      43.841  28.352  35.196  1.00  0.00    -0.014 A 
ATOM     66  C   UNL A   1      45.192  28.660  34.970  1.00  0.00     0.010 A 
ATOM     67  C   UNL A   1      43.514  27.265  36.029  1.00  0.00     0.010 A 
ATOM     68  C   UNL A   1      46.200  27.865  35.529  1.00  0.00     0.020 A 
ATOM     69  C   UNL A   1      44.517  26.483  36.607  1.00  0.00     0.020 A 
ATOM     70  C   UNL A   1      45.855  26.776  36.335  1.00  0.00     0.054 A 
BRANCH  70  71
ATOM     71  S   UNL A   1      47.174  25.759  37.055  1.00  0.00     0.124 S 
ATOM     72  O   UNL A   1      48.028  25.512  35.894  1.00  0.00    -0.237 OA
ATOM     73  O   UNL A   1      47.741  26.636  38.075  1.00  0.00    -0.237 OA
ATOM     74  O   UNL A   1      46.467  24.589  37.569  1.00  0.00    -0.744 OA
ENDBRANCH  70  71
ENDBRANCH  51  65
BRANCH  52  75
ATOM     75  C   UNL A   1      36.397  33.361  30.839  1.00  0.00    -0.014 A 
ATOM     76  C   UNL A   1      35.138  33.422  31.460  1.00  0.00     0.010 A 
ATOM     77  C   UNL A   1      36.595  34.038  29.622  1.00  0.00     0.010 A 
ATOM     78  C   UNL A   1      34.096  34.150  30.876  1.00  0.00     0.020 A 
ATOM     79  C   UNL A   1      35.564  34.787  29.049  1.00  0.00     0.020 A 
ATOM     80  C   UNL A   1      34.317  34.831  29.677  1.00  0.00     0.054 A 
BRANCH  80  81
ATOM     81  S   UNL A   1      32.982  35.841  28.973  1.00  0.00     0.124 S 
ATOM     82  O   UNL A   1      32.225  36.212  30.164  1.00  0.00    -0.237 OA
ATOM     83  O   UNL A   1      33.709  36.926  28.321  1.00  0.00    -0.237 OA
ATOM     84  O   UNL A   1      32.308  34.919  28.061  1.00  0.00    -0.744 OA
ENDBRANCH  80  81
ENDBRANCH  52  75
BRANCH  64  85
ATOM     85  C   UNL A   1      39.648  33.958  36.963  1.00  0.00    -0.014 A 
ATOM     86  C   UNL A   1      38.802  33.630  38.036  1.00  0.00     0.010 A 
ATOM     87  C   UNL A   1      40.353  35.174  36.986  1.00  0.00     0.010 A 
ATOM     88  C   UNL A   1      38.641  34.518  39.103  1.00  0.00     0.020 A 
ATOM     89  C   UNL A   1      40.207  36.057  38.059  1.00  0.00     0.020 A 
ATOM     90  C   UNL A   1      39.340  35.730  39.104  1.00  0.00     0.054 A 
BRANCH  90  91
ATOM     91  S   UNL A   1      39.141  36.859  40.510  1.00  0.00     0.124 S 
ATOM     92  O   UNL A   1      40.522  37.236  40.793  1.00  0.00    -0.237 OA
ATOM     93  O   UNL A   1      38.300  37.919  39.958  1.00  0.00    -0.237 OA
ATOM     94  O   UNL A   1      38.497  36.031  41.528  1.00  0.00    -0.744 OA
ENDBRANCH  90  91
ENDBRANCH  64  85
ENDBRANCH  38  39
ENDBRANCH  31  33
ENDBRANCH  30  31
ENDBRANCH   1  30
TORSDOF 18
ENDMDL
MODEL 3
REMARK VINA RESULT:     -11.4      1.999      2.652
REMARK SMILES Nc1nccc(N2CCC[C@@](Cc3ccc(F)cc3F)(C(=O)OCCOC(=O)c3ccc(-c4c5nc(c(-c6ccc(S(=O)(=O)[O-])cc6)c6ccc([nH]6)c(-c6ccc(S(=O)(=O)[O-])cc6)c6nc(c(-c7ccc(S(=O)(=O)[O-])cc7)c7ccc4[nH]7)C=C6)C=C5)cc3)C2)n1
REMARK SMILES IDX 25 1 24 2 23 3 21 4 22 5 11 6 7 7 8 8 89 9 9 10 10 11 6 12
REMARK SMILES IDX 2 13 3 14 90 15 4 16 5 17 1 18 12 21 13 22 14 23 19 24 15 25
REMARK SMILES IDX 18 26 20 27 16 28 17 29 26 30 27 31 28 32 29 33 30 34 88 35
REMARK SMILES IDX 31 36 87 37 32 38 33 39 34 40 81 41 35 42 86 43 80 44 82 45
REMARK SMILES IDX 36 46 85 47 79 48 78 49 37 51 67 52 48 53 66 54 49 55 52 56
REMARK SMILES IDX 65 57 83 58 50 59 51 60 64 62 84 63 53 64 38 65 39 66 47 67
REMARK SMILES IDX 40 68 46 69 41 70 42 71 43 72 44 73 45 74 68 75 69 76 77 77
REMARK SMILES IDX 70 78 76 79 71 80 72 81 73 82 74 83 75 84 54 85 55 86 63 87
REMARK SMILES IDX 56 88 62 89 57 90 58 91 59 92 60 93 61 94
REMARK H PARENT 1 19 1 20 82 50 52 61
REMARK Flexibility Score: inf
ROOT
ATOM      1  C   UNL A   1      34.605  30.766  27.623  1.00  0.00     0.275 C 
ENDROOT
BRANCH   1   2
ATOM      2  C   UNL A   1      33.237  30.192  27.271  1.00  0.00     0.274 C 
BRANCH   2   3
ATOM      3  O   UNL A   1      33.351  28.819  26.837  1.00  0.00    -0.462 OA
BRANCH   3   4
ATOM      4  C   UNL A   1      32.232  28.056  26.981  1.00  0.00     0.314 C 
ATOM      5  O   UNL A   1      31.482  28.120  27.949  1.00  0.00    -0.252 OA
BRANCH   4   6
ATOM      6  C   UNL A   1      32.069  27.017  25.874  1.00  0.00     0.090 C 
ATOM      7  N   UNL A   1      33.076  24.923  25.087  1.00  0.00    -0.355 N 
ATOM      8  C   UNL A   1      31.856  24.122  25.139  1.00  0.00     0.118 C 
ATOM      9  C   UNL A   1      33.177  25.964  26.107  1.00  0.00     0.137 C 
ATOM     10  C   UNL A   1      30.649  25.053  24.992  1.00  0.00     0.023 C 
ATOM     11  C   UNL A   1      30.711  26.271  25.927  1.00  0.00     0.023 C 
BRANCH   7  12
ATOM     12  C   UNL A   1      34.258  24.209  24.878  1.00  0.00     0.134 A 
ATOM     13  C   UNL A   1      36.356  23.562  25.534  1.00  0.00     0.221 A 
ATOM     14  N   UNL A   1      36.626  22.979  24.361  1.00  0.00    -0.222 NA
ATOM     15  N   UNL A   1      35.211  24.190  25.827  1.00  0.00    -0.196 NA
ATOM     16  C   UNL A   1      35.658  23.021  23.435  1.00  0.00     0.119 A 
ATOM     17  C   UNL A   1      34.441  23.612  23.647  1.00  0.00     0.067 A 
BRANCH  13  18
ATOM     18  N   UNL A   1      37.329  23.507  26.485  1.00  0.00    -0.368 N 
ATOM     19  H   UNL A   1      37.658  24.335  26.903  1.00  0.00     0.159 HD
ATOM     20  H   UNL A   1      37.704  22.637  26.756  1.00  0.00     0.159 HD
ENDBRANCH  13  18
ENDBRANCH   7  12
BRANCH   6  21
ATOM     21  C   UNL A   1      32.347  27.735  24.522  1.00  0.00     0.059 C 
BRANCH  21  22
ATOM     22  C   UNL A   1      31.226  28.588  23.974  1.00  0.00    -0.011 A 
ATOM     23  C   UNL A   1      30.922  29.833  24.551  1.00  0.00     0.010 A 
ATOM     24  C   UNL A   1      30.475  28.163  22.872  1.00  0.00     0.129 A 
ATOM     25  C   UNL A   1      29.867  30.599  24.055  1.00  0.00     0.040 A 
ATOM     26  C   UNL A   1      29.433  28.927  22.364  1.00  0.00     0.078 A 
ATOM     27  F   UNL A   1      30.761  26.997  22.277  1.00  0.00    -0.207 F 
ATOM     28  C   UNL A   1      29.133  30.138  22.968  1.00  0.00     0.126 A 
ATOM     29  F   UNL A   1      28.123  30.879  22.494  1.00  0.00    -0.207 F 
ENDBRANCH  21  22
ENDBRANCH   6  21
ENDBRANCH   4   6
ENDBRANCH   3   4
ENDBRANCH   2   3
ENDBRANCH   1   2
BRANCH   1  30
ATOM     30  O   UNL A   1      35.357  29.779  28.343  1.00  0.00    -0.458 OA
BRANCH  30  31
ATOM     31  C   UNL A   1      36.051  30.234  29.412  1.00  0.00     0.338 C 
ATOM     32  O   UNL A   1      35.594  30.708  30.437  1.00  0.00    -0.246 OA
BRANCH  31  33
ATOM     33  C   UNL A   1      37.498  30.050  29.180  1.00  0.00     0.060 A 
ATOM     34  C   UNL A   1      37.996  29.965  27.883  1.00  0.00     0.016 A 
ATOM     35  C   UNL A   1      38.347  29.839  30.264  1.00  0.00     0.016 A 
ATOM     36  C   UNL A   1      39.308  29.548  27.658  1.00  0.00     0.010 A 
ATOM     37  C   UNL A   1      39.695  29.540  30.038  1.00  0.00     0.010 A 
ATOM     38  C   UNL A   1      40.183  29.343  28.733  1.00  0.00    -0.014 A 
BRANCH  38  39
ATOM     39  C   UNL A   1      41.582  28.873  28.511  1.00  0.00     0.031 A 
ATOM     40  C   UNL A   1      42.733  29.840  28.659  1.00  0.00     0.074 A 
ATOM     41  C   UNL A   1      41.844  27.593  28.178  1.00  0.00     0.049 A 
ATOM     42  N   UNL A   1      43.979  29.707  28.282  1.00  0.00    -0.248 NA
ATOM     43  C   UNL A   1      42.436  31.135  29.293  1.00  0.00     0.031 C 
ATOM     44  C   UNL A   1      40.853  26.522  28.050  1.00  0.00     0.029 A 
ATOM     45  N   UNL A   1      43.036  26.971  27.895  1.00  0.00    -0.354 N 
ATOM     46  C   UNL A   1      44.590  30.928  28.552  1.00  0.00     0.074 A 
ATOM     47  C   UNL A   1      43.582  31.783  29.140  1.00  0.00     0.031 C 
ATOM     48  C   UNL A   1      41.481  25.370  27.768  1.00  0.00     0.029 A 
ATOM     49  C   UNL A   1      42.904  25.636  27.593  1.00  0.00     0.049 A 
ATOM     50  H   UNL A   1      43.903  27.437  27.909  1.00  0.00     0.167 HD
ATOM     51  C   UNL A   1      45.870  31.306  28.318  1.00  0.00     0.031 A 
ATOM     52  C   UNL A   1      43.811  24.731  27.175  1.00  0.00     0.031 A 
ATOM     53  C   UNL A   1      46.890  30.434  27.801  1.00  0.00     0.049 A 
ATOM     54  C   UNL A   1      45.224  25.168  26.922  1.00  0.00     0.074 A 
ATOM     55  C   UNL A   1      48.220  30.720  27.543  1.00  0.00     0.029 A 
ATOM     56  N   UNL A   1      46.702  29.097  27.489  1.00  0.00    -0.354 N 
ATOM     57  N   UNL A   1      45.762  26.352  27.091  1.00  0.00    -0.248 NA
ATOM     58  C   UNL A   1      46.146  24.154  26.392  1.00  0.00     0.031 C 
ATOM     59  C   UNL A   1      48.831  29.561  27.050  1.00  0.00     0.029 A 
ATOM     60  C   UNL A   1      47.889  28.545  27.036  1.00  0.00     0.049 A 
ATOM     61  H   UNL A   1      45.850  28.612  27.577  1.00  0.00     0.167 HD
ATOM     62  C   UNL A   1      47.084  26.227  26.686  1.00  0.00     0.074 A 
ATOM     63  C   UNL A   1      47.273  24.846  26.286  1.00  0.00     0.031 C 
ATOM     64  C   UNL A   1      48.055  27.172  26.637  1.00  0.00     0.031 A 
BRANCH  51  65
ATOM     65  C   UNL A   1      46.222  32.748  28.568  1.00  0.00    -0.014 A 
ATOM     66  C   UNL A   1      46.092  33.726  27.569  1.00  0.00     0.010 A 
ATOM     67  C   UNL A   1      46.675  33.128  29.846  1.00  0.00     0.010 A 
ATOM     68  C   UNL A   1      46.452  35.053  27.829  1.00  0.00     0.020 A 
ATOM     69  C   UNL A   1      47.015  34.456  30.117  1.00  0.00     0.020 A 
ATOM     70  C   UNL A   1      46.922  35.407  29.098  1.00  0.00     0.054 A 
BRANCH  70  71
ATOM     71  S   UNL A   1      47.381  37.133  29.419  1.00  0.00     0.124 S 
ATOM     72  O   UNL A   1      48.758  37.171  28.932  1.00  0.00    -0.237 OA
ATOM     73  O   UNL A   1      46.413  37.881  28.621  1.00  0.00    -0.237 OA
ATOM     74  O   UNL A   1      47.226  37.268  30.865  1.00  0.00    -0.744 OA
ENDBRANCH  70  71
ENDBRANCH  51  65
BRANCH  52  75
ATOM     75  C   UNL A   1      43.389  23.329  26.916  1.00  0.00    -0.014 A 
ATOM     76  C   UNL A   1      43.456  22.796  25.617  1.00  0.00     0.010 A 
ATOM     77  C   UNL A   1      42.951  22.509  27.972  1.00  0.00     0.010 A 
ATOM     78  C   UNL A   1      43.094  21.467  25.379  1.00  0.00     0.020 A 
ATOM     79  C   UNL A   1      42.612  21.173  27.741  1.00  0.00     0.020 A 
ATOM     80  C   UNL A   1      42.679  20.662  26.443  1.00  0.00     0.054 A 
BRANCH  80  81
ATOM     81  S   UNL A   1      42.293  18.915  26.135  1.00  0.00     0.124 S 
ATOM     82  O   UNL A   1      43.222  18.587  25.057  1.00  0.00    -0.237 OA
ATOM     83  O   UNL A   1      42.574  18.291  27.424  1.00  0.00    -0.237 OA
ATOM     84  O   UNL A   1      40.881  18.943  25.761  1.00  0.00    -0.744 OA
ENDBRANCH  80  81
ENDBRANCH  52  75
BRANCH  64  85
ATOM     85  C   UNL A   1      49.407  26.737  26.149  1.00  0.00    -0.014 A 
ATOM     86  C   UNL A   1      50.283  26.030  26.989  1.00  0.00     0.010 A 
ATOM     87  C   UNL A   1      49.792  27.015  24.825  1.00  0.00     0.010 A 
ATOM     88  C   UNL A   1      51.539  25.632  26.523  1.00  0.00     0.020 A 
ATOM     89  C   UNL A   1      51.040  26.603  24.350  1.00  0.00     0.020 A 
ATOM     90  C   UNL A   1      51.912  25.927  25.207  1.00  0.00     0.054 A 
BRANCH  90  91
ATOM     91  S   UNL A   1      53.534  25.378  24.609  1.00  0.00     0.124 S 
ATOM     92  O   UNL A   1      54.443  26.217  25.384  1.00  0.00    -0.237 OA
ATOM     93  O   UNL A   1      53.543  23.958  24.953  1.00  0.00    -0.237 OA
ATOM     94  O   UNL A   1      53.487  25.663  23.177  1.00  0.00    -0.744 OA
ENDBRANCH  90  91
ENDBRANCH  64  85
ENDBRANCH  38  39
ENDBRANCH  31  33
ENDBRANCH  30  31
ENDBRANCH   1  30
TORSDOF 18
ENDMDL
