MODEL 1
REMARK VINA RESULT:      -9.7      0.000      0.000
REMARK SMILES CC[C@H](C(=O)OCCOC(=O)c1ccc(-c2c3nc(c(-c4ccc(S(=O)(=O)[O-])cc4)c4ccc([nH]4)c(-c4ccc(S(=O)(=O)[O-])cc4)c4nc(c(-c5ccc(S(=O)(=O)[O-])cc5)c5ccc2[nH]5)C=C4)C=C3)cc1)[N@@H+](C)[C@H]1CC[C@@H]([NH2+]C)CC1
REMARK SMILES IDX 7 1 6 2 4 3 5 4 3 5 2 6 1 7 72 8 73 9 74 11 81 12 75 13
REMARK SMILES IDX 80 14 76 15 77 16 78 17 79 18 8 21 9 22 10 23 11 24 12 25
REMARK SMILES IDX 13 26 71 27 14 28 70 29 15 30 16 31 17 32 64 33 18 34 69 35
REMARK SMILES IDX 63 36 65 37 19 38 68 39 62 40 61 41 20 43 50 44 31 45 49 46
REMARK SMILES IDX 32 47 35 48 48 49 66 50 33 51 34 52 47 54 67 55 36 56 21 57
REMARK SMILES IDX 22 58 30 59 23 60 29 61 24 62 25 63 26 64 27 65 28 66 51 67
REMARK SMILES IDX 52 68 60 69 53 70 59 71 54 72 55 73 56 74 57 75 58 76 37 77
REMARK SMILES IDX 38 78 46 79 39 80 45 81 40 82 41 83 42 84 43 85 44 86
REMARK H PARENT 72 10 78 19 78 20 65 42 35 53
REMARK Flexibility Score: inf
ROOT
ATOM      1  C   UNL A   1      34.405  30.472  27.408  1.00  0.00     0.274 C 
ENDROOT
BRANCH   1   2
ATOM      2  O   UNL A   1      33.631  30.359  26.199  1.00  0.00    -0.458 OA
BRANCH   2   3
ATOM      3  C   UNL A   1      32.361  29.904  26.360  1.00  0.00     0.365 C 
ATOM      4  O   UNL A   1      31.555  30.461  27.103  1.00  0.00    -0.245 OA
BRANCH   3   5
ATOM      5  C   UNL A   1      32.000  28.726  25.403  1.00  0.00     0.294 C 
BRANCH   5   6
ATOM      6  C   UNL A   1      31.186  27.491  25.866  1.00  0.00     0.074 C 
ATOM      7  C   UNL A   1      31.418  26.168  25.166  1.00  0.00     0.011 C 
ENDBRANCH   5   6
BRANCH   5   8
ATOM      8  N   UNL A   1      31.519  29.261  24.087  1.00  0.00    -0.323 N 
ATOM      9  C   UNL A   1      32.250  28.742  22.940  1.00  0.00     0.333 C 
ATOM     10  H   UNL A   1      31.800  30.242  24.123  1.00  0.00     0.348 HD
BRANCH   8  11
ATOM     11  C   UNL A   1      30.060  29.500  23.923  1.00  0.00     0.184 C 
ATOM     12  C   UNL A   1      29.676  30.992  23.745  1.00  0.00     0.071 C 
ATOM     13  C   UNL A   1      29.360  28.606  22.869  1.00  0.00     0.071 C 
ATOM     14  C   UNL A   1      28.172  31.206  23.560  1.00  0.00     0.071 C 
ATOM     15  C   UNL A   1      27.866  28.895  22.719  1.00  0.00     0.071 C 
ATOM     16  C   UNL A   1      27.594  30.372  22.407  1.00  0.00     0.182 C 
BRANCH  16  17
ATOM     17  N   UNL A   1      28.157  30.679  21.081  1.00  0.00    -0.346 N 
ATOM     18  C   UNL A   1      27.972  32.063  20.675  1.00  0.00     0.331 C 
ATOM     19  H   UNL A   1      27.706  30.078  20.392  1.00  0.00     0.346 HD
ATOM     20  H   UNL A   1      29.162  30.517  21.139  1.00  0.00     0.346 HD
ENDBRANCH  16  17
ENDBRANCH   8  11
ENDBRANCH   5   8
ENDBRANCH   3   5
ENDBRANCH   2   3
ENDBRANCH   1   2
BRANCH   1  21
ATOM     21  C   UNL A   1      35.351  29.278  27.585  1.00  0.00     0.275 C 
BRANCH  21  22
ATOM     22  O   UNL A   1      36.736  29.667  27.642  1.00  0.00    -0.458 OA
BRANCH  22  23
ATOM     23  C   UNL A   1      37.388  29.314  28.773  1.00  0.00     0.338 C 
ATOM     24  O   UNL A   1      36.880  28.951  29.829  1.00  0.00    -0.246 OA
BRANCH  23  25
ATOM     25  C   UNL A   1      38.843  29.305  28.551  1.00  0.00     0.060 A 
ATOM     26  C   UNL A   1      39.310  29.279  27.234  1.00  0.00     0.016 A 
ATOM     27  C   UNL A   1      39.740  29.226  29.616  1.00  0.00     0.016 A 
ATOM     28  C   UNL A   1      40.667  29.150  26.967  1.00  0.00     0.010 A 
ATOM     29  C   UNL A   1      41.109  29.102  29.350  1.00  0.00     0.010 A 
ATOM     30  C   UNL A   1      41.576  29.045  28.024  1.00  0.00    -0.014 A 
BRANCH  30  31
ATOM     31  C   UNL A   1      43.006  28.808  27.729  1.00  0.00     0.031 A 
ATOM     32  C   UNL A   1      44.001  29.910  27.956  1.00  0.00     0.074 A 
ATOM     33  C   UNL A   1      43.412  27.597  27.303  1.00  0.00     0.049 A 
ATOM     34  N   UNL A   1      45.280  29.934  27.689  1.00  0.00    -0.248 NA
ATOM     35  C   UNL A   1      43.487  31.147  28.567  1.00  0.00     0.031 C 
ATOM     36  C   UNL A   1      42.546  26.430  27.121  1.00  0.00     0.029 A 
ATOM     37  N   UNL A   1      44.658  27.147  26.950  1.00  0.00    -0.354 N 
ATOM     38  C   UNL A   1      45.722  31.193  28.079  1.00  0.00     0.074 A 
ATOM     39  C   UNL A   1      44.572  31.909  28.589  1.00  0.00     0.031 C 
ATOM     40  C   UNL A   1      43.289  25.399  26.687  1.00  0.00     0.029 A 
ATOM     41  C   UNL A   1      44.669  25.844  26.514  1.00  0.00     0.049 A 
ATOM     42  H   UNL A   1      45.468  27.705  27.003  1.00  0.00     0.167 HD
ATOM     43  C   UNL A   1      46.975  31.704  28.016  1.00  0.00     0.031 A 
ATOM     44  C   UNL A   1      45.671  25.105  26.002  1.00  0.00     0.031 A 
ATOM     45  C   UNL A   1      48.111  30.984  27.504  1.00  0.00     0.049 A 
ATOM     46  C   UNL A   1      47.036  25.724  25.864  1.00  0.00     0.074 A 
ATOM     47  C   UNL A   1      49.421  31.414  27.386  1.00  0.00     0.029 A 
ATOM     48  N   UNL A   1      48.072  29.682  27.027  1.00  0.00    -0.354 N 
ATOM     49  N   UNL A   1      47.435  26.924  26.215  1.00  0.00    -0.248 NA
ATOM     50  C   UNL A   1      48.084  24.890  25.261  1.00  0.00     0.031 C 
ATOM     51  C   UNL A   1      50.165  30.387  26.794  1.00  0.00     0.029 A 
ATOM     52  C   UNL A   1      49.330  29.299  26.595  1.00  0.00     0.049 A 
ATOM     53  H   UNL A   1      47.269  29.114  27.001  1.00  0.00     0.167 HD
ATOM     54  C   UNL A   1      48.787  26.981  25.892  1.00  0.00     0.074 A 
ATOM     55  C   UNL A   1      49.139  25.691  25.335  1.00  0.00     0.031 C 
ATOM     56  C   UNL A   1      49.659  28.008  26.044  1.00  0.00     0.031 A 
BRANCH  43  57
ATOM     57  C   UNL A   1      47.170  33.124  28.472  1.00  0.00    -0.014 A 
ATOM     58  C   UNL A   1      46.956  34.207  27.602  1.00  0.00     0.010 A 
ATOM     59  C   UNL A   1      47.544  33.378  29.804  1.00  0.00     0.010 A 
ATOM     60  C   UNL A   1      47.146  35.519  28.047  1.00  0.00     0.020 A 
ATOM     61  C   UNL A   1      47.712  34.690  30.259  1.00  0.00     0.020 A 
ATOM     62  C   UNL A   1      47.528  35.751  29.372  1.00  0.00     0.054 A 
BRANCH  62  63
ATOM     63  S   UNL A   1      47.749  37.464  29.929  1.00  0.00     0.124 S 
ATOM     64  O   UNL A   1      47.119  37.436  31.246  1.00  0.00    -0.237 OA
ATOM     65  O   UNL A   1      49.202  37.617  29.932  1.00  0.00    -0.237 OA
ATOM     66  O   UNL A   1      47.045  38.250  28.918  1.00  0.00    -0.744 OA
ENDBRANCH  62  63
ENDBRANCH  43  57
BRANCH  44  67
ATOM     67  C   UNL A   1      45.412  23.713  25.544  1.00  0.00    -0.014 A 
ATOM     68  C   UNL A   1      45.588  22.625  26.415  1.00  0.00     0.010 A 
ATOM     69  C   UNL A   1      44.989  23.470  24.223  1.00  0.00     0.010 A 
ATOM     70  C   UNL A   1      45.365  21.318  25.969  1.00  0.00     0.020 A 
ATOM     71  C   UNL A   1      44.739  22.169  23.782  1.00  0.00     0.020 A 
ATOM     72  C   UNL A   1      44.943  21.098  24.655  1.00  0.00     0.054 A 
BRANCH  72  73
ATOM     73  S   UNL A   1      44.619  19.399  24.109  1.00  0.00     0.124 S 
ATOM     74  O   UNL A   1      44.561  19.554  22.659  1.00  0.00    -0.237 OA
ATOM     75  O   UNL A   1      45.779  18.674  24.623  1.00  0.00    -0.237 OA
ATOM     76  O   UNL A   1      43.351  19.068  24.755  1.00  0.00    -0.744 OA
ENDBRANCH  72  73
ENDBRANCH  44  67
BRANCH  56  77
ATOM     77  C   UNL A   1      51.086  27.767  25.633  1.00  0.00    -0.014 A 
ATOM     78  C   UNL A   1      51.990  27.118  26.490  1.00  0.00     0.010 A 
ATOM     79  C   UNL A   1      51.510  28.151  24.347  1.00  0.00     0.010 A 
ATOM     80  C   UNL A   1      53.306  26.884  26.080  1.00  0.00     0.020 A 
ATOM     81  C   UNL A   1      52.816  27.894  23.924  1.00  0.00     0.020 A 
ATOM     82  C   UNL A   1      53.710  27.275  24.800  1.00  0.00     0.054 A 
BRANCH  82  83
ATOM     83  S   UNL A   1      55.409  26.919  24.272  1.00  0.00     0.124 S 
ATOM     84  O   UNL A   1      56.132  28.087  24.770  1.00  0.00    -0.237 OA
ATOM     85  O   UNL A   1      55.702  25.661  24.954  1.00  0.00    -0.237 OA
ATOM     86  O   UNL A   1      55.307  26.823  22.818  1.00  0.00    -0.744 OA
ENDBRANCH  82  83
ENDBRANCH  56  77
ENDBRANCH  30  31
ENDBRANCH  23  25
ENDBRANCH  22  23
ENDBRANCH  21  22
ENDBRANCH   1  21
TORSDOF 18
ENDMDL
MODEL 2
REMARK VINA RESULT:      -9.5      1.510      3.170
REMARK SMILES CC[C@H](C(=O)OCCOC(=O)c1ccc(-c2c3nc(c(-c4ccc(S(=O)(=O)[O-])cc4)c4ccc([nH]4)c(-c4ccc(S(=O)(=O)[O-])cc4)c4nc(c(-c5ccc(S(=O)(=O)[O-])cc5)c5ccc2[nH]5)C=C4)C=C3)cc1)[N@@H+](C)[C@H]1CC[C@@H]([NH2+]C)CC1
REMARK SMILES IDX 7 1 6 2 4 3 5 4 3 5 2 6 1 7 72 8 73 9 74 11 81 12 75 13
REMARK SMILES IDX 80 14 76 15 77 16 78 17 79 18 8 21 9 22 10 23 11 24 12 25
REMARK SMILES IDX 13 26 71 27 14 28 70 29 15 30 16 31 17 32 64 33 18 34 69 35
REMARK SMILES IDX 63 36 65 37 19 38 68 39 62 40 61 41 20 43 50 44 31 45 49 46
REMARK SMILES IDX 32 47 35 48 48 49 66 50 33 51 34 52 47 54 67 55 36 56 21 57
REMARK SMILES IDX 22 58 30 59 23 60 29 61 24 62 25 63 26 64 27 65 28 66 51 67
REMARK SMILES IDX 52 68 60 69 53 70 59 71 54 72 55 73 56 74 57 75 58 76 37 77
REMARK SMILES IDX 38 78 46 79 39 80 45 81 40 82 41 83 42 84 43 85 44 86
REMARK H PARENT 72 10 78 19 78 20 65 42 35 53
REMARK Flexibility Score: inf
ROOT
ATOM      1  C   UNL A   1      33.943  30.228  27.167  1.00  0.00     0.274 C 
ENDROOT
BRANCH   1   2
ATOM      2  O   UNL A   1      33.087  29.785  26.098  1.00  0.00    -0.458 OA
BRANCH   2   3
ATOM      3  C   UNL A   1      32.153  28.860  26.443  1.00  0.00     0.365 C 
ATOM      4  O   UNL A   1      31.805  28.683  27.608  1.00  0.00    -0.245 OA
BRANCH   3   5
ATOM      5  C   UNL A   1      31.475  28.178  25.214  1.00  0.00     0.294 C 
BRANCH   5   6
ATOM      6  C   UNL A   1      31.687  28.672  23.761  1.00  0.00     0.074 C 
ATOM      7  C   UNL A   1      30.487  28.750  22.840  1.00  0.00     0.011 C 
ENDBRANCH   5   6
BRANCH   5   8
ATOM      8  N   UNL A   1      31.585  26.687  25.328  1.00  0.00    -0.323 N 
ATOM      9  C   UNL A   1      30.300  26.003  25.334  1.00  0.00     0.333 C 
ATOM     10  H   UNL A   1      31.927  26.556  26.281  1.00  0.00     0.348 HD
BRANCH   8  11
ATOM     11  C   UNL A   1      32.719  26.017  24.637  1.00  0.00     0.184 C 
ATOM     12  C   UNL A   1      33.719  25.315  25.591  1.00  0.00     0.071 C 
ATOM     13  C   UNL A   1      32.320  25.095  23.458  1.00  0.00     0.071 C 
ATOM     14  C   UNL A   1      34.864  24.619  24.853  1.00  0.00     0.071 C 
ATOM     15  C   UNL A   1      33.512  24.412  22.787  1.00  0.00     0.071 C 
ATOM     16  C   UNL A   1      34.366  23.628  23.791  1.00  0.00     0.182 C 
BRANCH  16  17
ATOM     17  N   UNL A   1      33.560  22.513  24.317  1.00  0.00    -0.346 N 
ATOM     18  C   UNL A   1      34.344  21.338  24.660  1.00  0.00     0.331 C 
ATOM     19  H   UNL A   1      32.875  22.248  23.610  1.00  0.00     0.346 HD
ATOM     20  H   UNL A   1      33.123  22.842  25.179  1.00  0.00     0.346 HD
ENDBRANCH  16  17
ENDBRANCH   8  11
ENDBRANCH   5   8
ENDBRANCH   3   5
ENDBRANCH   2   3
ENDBRANCH   1   2
BRANCH   1  21
ATOM     21  C   UNL A   1      35.168  29.320  27.322  1.00  0.00     0.275 C 
BRANCH  21  22
ATOM     22  O   UNL A   1      36.343  30.036  27.749  1.00  0.00    -0.458 OA
BRANCH  22  23
ATOM     23  C   UNL A   1      36.985  29.507  28.816  1.00  0.00     0.338 C 
ATOM     24  O   UNL A   1      36.497  29.255  29.913  1.00  0.00    -0.246 OA
BRANCH  23  25
ATOM     25  C   UNL A   1      38.367  29.148  28.462  1.00  0.00     0.060 A 
ATOM     26  C   UNL A   1      39.218  28.710  29.481  1.00  0.00     0.016 A 
ATOM     27  C   UNL A   1      38.856  29.327  27.167  1.00  0.00     0.016 A 
ATOM     28  C   UNL A   1      40.562  28.472  29.225  1.00  0.00     0.010 A 
ATOM     29  C   UNL A   1      40.208  29.082  26.907  1.00  0.00     0.010 A 
ATOM     30  C   UNL A   1      41.071  28.671  27.939  1.00  0.00    -0.014 A 
BRANCH  30  31
ATOM     31  C   UNL A   1      42.523  28.510  27.702  1.00  0.00     0.031 A 
ATOM     32  C   UNL A   1      43.452  29.653  27.996  1.00  0.00     0.074 A 
ATOM     33  C   UNL A   1      43.006  27.331  27.267  1.00  0.00     0.049 A 
ATOM     34  N   UNL A   1      44.739  29.746  27.786  1.00  0.00    -0.248 NA
ATOM     35  C   UNL A   1      42.852  30.849  28.612  1.00  0.00     0.031 C 
ATOM     36  C   UNL A   1      42.207  26.129  27.021  1.00  0.00     0.029 A 
ATOM     37  N   UNL A   1      44.286  26.951  26.958  1.00  0.00    -0.354 N 
ATOM     38  C   UNL A   1      45.100  31.014  28.223  1.00  0.00     0.074 A 
ATOM     39  C   UNL A   1      43.896  31.661  28.698  1.00  0.00     0.031 C 
ATOM     40  C   UNL A   1      43.018  25.145  26.597  1.00  0.00     0.029 A 
ATOM     41  C   UNL A   1      44.380  25.661  26.494  1.00  0.00     0.049 A 
ATOM     42  H   UNL A   1      45.064  27.546  27.059  1.00  0.00     0.167 HD
ATOM     43  C   UNL A   1      46.328  31.586  28.226  1.00  0.00     0.031 A 
ATOM     44  C   UNL A   1      45.438  24.984  26.010  1.00  0.00     0.031 A 
ATOM     45  C   UNL A   1      47.520  30.935  27.748  1.00  0.00     0.049 A 
ATOM     46  C   UNL A   1      46.775  25.671  25.945  1.00  0.00     0.074 A 
ATOM     47  C   UNL A   1      48.811  31.431  27.697  1.00  0.00     0.029 A 
ATOM     48  N   UNL A   1      47.565  29.645  27.241  1.00  0.00    -0.354 N 
ATOM     49  N   UNL A   1      47.100  26.880  26.340  1.00  0.00    -0.248 NA
ATOM     50  C   UNL A   1      47.888  24.904  25.370  1.00  0.00     0.031 C 
ATOM     51  C   UNL A   1      49.628  30.456  27.115  1.00  0.00     0.029 A 
ATOM     52  C   UNL A   1      48.858  29.333  26.856  1.00  0.00     0.049 A 
ATOM     53  H   UNL A   1      46.792  29.039  27.167  1.00  0.00     0.167 HD
ATOM     54  C   UNL A   1      48.459  27.010  26.078  1.00  0.00     0.074 A 
ATOM     55  C   UNL A   1      48.898  25.752  25.508  1.00  0.00     0.031 C 
ATOM     56  C   UNL A   1      49.272  28.074  26.290  1.00  0.00     0.031 A 
BRANCH  43  57
ATOM     57  C   UNL A   1      46.434  33.002  28.722  1.00  0.00    -0.014 A 
ATOM     58  C   UNL A   1      46.744  33.285  30.064  1.00  0.00     0.010 A 
ATOM     59  C   UNL A   1      46.249  34.068  27.823  1.00  0.00     0.010 A 
ATOM     60  C   UNL A   1      46.834  34.609  30.505  1.00  0.00     0.020 A 
ATOM     61  C   UNL A   1      46.361  35.393  28.254  1.00  0.00     0.020 A 
ATOM     62  C   UNL A   1      46.637  35.655  29.597  1.00  0.00     0.054 A 
BRANCH  62  63
ATOM     63  S   UNL A   1      46.778  37.363  30.191  1.00  0.00     0.124 S 
ATOM     64  O   UNL A   1      46.082  38.105  29.143  1.00  0.00    -0.237 OA
ATOM     65  O   UNL A   1      46.098  37.313  31.482  1.00  0.00    -0.237 OA
ATOM     66  O   UNL A   1      48.220  37.588  30.259  1.00  0.00    -0.744 OA
ENDBRANCH  62  63
ENDBRANCH  43  57
BRANCH  44  67
ATOM     67  C   UNL A   1      45.268  23.592  25.509  1.00  0.00    -0.014 A 
ATOM     68  C   UNL A   1      44.945  23.346  24.164  1.00  0.00     0.010 A 
ATOM     69  C   UNL A   1      45.427  22.502  26.385  1.00  0.00     0.010 A 
ATOM     70  C   UNL A   1      44.764  22.036  23.709  1.00  0.00     0.020 A 
ATOM     71  C   UNL A   1      45.275  21.192  25.928  1.00  0.00     0.020 A 
ATOM     72  C   UNL A   1      44.930  20.967  24.593  1.00  0.00     0.054 A 
BRANCH  72  73
ATOM     73  S   UNL A   1      44.732  19.273  23.973  1.00  0.00     0.124 S 
ATOM     74  O   UNL A   1      45.984  18.651  24.390  1.00  0.00    -0.237 OA
ATOM     75  O   UNL A   1      43.533  18.818  24.672  1.00  0.00    -0.237 OA
ATOM     76  O   UNL A   1      44.571  19.455  22.532  1.00  0.00    -0.744 OA
ENDBRANCH  72  73
ENDBRANCH  44  67
BRANCH  56  77
ATOM     77  C   UNL A   1      50.725  27.913  25.936  1.00  0.00    -0.014 A 
ATOM     78  C   UNL A   1      51.199  28.219  24.649  1.00  0.00     0.010 A 
ATOM     79  C   UNL A   1      51.637  27.498  26.925  1.00  0.00     0.010 A 
ATOM     80  C   UNL A   1      52.558  28.084  24.347  1.00  0.00     0.020 A 
ATOM     81  C   UNL A   1      52.999  27.387  26.634  1.00  0.00     0.020 A 
ATOM     82  C   UNL A   1      53.448  27.667  25.342  1.00  0.00     0.054 A 
BRANCH  82  83
ATOM     83  S   UNL A   1      55.212  27.544  24.940  1.00  0.00     0.124 S 
ATOM     84  O   UNL A   1      55.508  28.890  24.457  1.00  0.00    -0.237 OA
ATOM     85  O   UNL A   1      55.812  27.191  26.224  1.00  0.00    -0.237 OA
ATOM     86  O   UNL A   1      55.264  26.494  23.925  1.00  0.00    -0.744 OA
ENDBRANCH  82  83
ENDBRANCH  56  77
ENDBRANCH  30  31
ENDBRANCH  23  25
ENDBRANCH  22  23
ENDBRANCH  21  22
ENDBRANCH   1  21
TORSDOF 18
ENDMDL
MODEL 3
REMARK VINA RESULT:      -9.4      5.070     10.783
REMARK SMILES CC[C@H](C(=O)OCCOC(=O)c1ccc(-c2c3nc(c(-c4ccc(S(=O)(=O)[O-])cc4)c4ccc([nH]4)c(-c4ccc(S(=O)(=O)[O-])cc4)c4nc(c(-c5ccc(S(=O)(=O)[O-])cc5)c5ccc2[nH]5)C=C4)C=C3)cc1)[N@@H+](C)[C@H]1CC[C@@H]([NH2+]C)CC1
REMARK SMILES IDX 7 1 6 2 4 3 5 4 3 5 2 6 1 7 72 8 73 9 74 11 81 12 75 13
REMARK SMILES IDX 80 14 76 15 77 16 78 17 79 18 8 21 9 22 10 23 11 24 12 25
REMARK SMILES IDX 13 26 71 27 14 28 70 29 15 30 16 31 17 32 64 33 18 34 69 35
REMARK SMILES IDX 63 36 65 37 19 38 68 39 62 40 61 41 20 43 50 44 31 45 49 46
REMARK SMILES IDX 32 47 35 48 48 49 66 50 33 51 34 52 47 54 67 55 36 56 21 57
REMARK SMILES IDX 22 58 30 59 23 60 29 61 24 62 25 63 26 64 27 65 28 66 51 67
REMARK SMILES IDX 52 68 60 69 53 70 59 71 54 72 55 73 56 74 57 75 58 76 37 77
REMARK SMILES IDX 38 78 46 79 39 80 45 81 40 82 41 83 42 84 43 85 44 86
REMARK H PARENT 72 10 78 19 78 20 65 42 35 53
REMARK Flexibility Score: inf
ROOT
ATOM      1  C   UNL A   1      36.479  21.884  24.164  1.00  0.00     0.274 C 
ENDROOT
BRANCH   1   2
ATOM      2  O   UNL A   1      35.042  21.892  24.243  1.00  0.00    -0.458 OA
BRANCH   2   3
ATOM      3  C   UNL A   1      34.433  22.985  23.713  1.00  0.00     0.365 C 
ATOM      4  O   UNL A   1      34.690  23.394  22.582  1.00  0.00    -0.245 OA
BRANCH   3   5
ATOM      5  C   UNL A   1      33.290  23.553  24.611  1.00  0.00     0.294 C 
BRANCH   5   6
ATOM      6  C   UNL A   1      33.529  24.034  26.063  1.00  0.00     0.074 C 
ATOM      7  C   UNL A   1      33.364  23.037  27.192  1.00  0.00     0.011 C 
ENDBRANCH   5   6
BRANCH   5   8
ATOM      8  N   UNL A   1      32.451  24.516  23.825  1.00  0.00    -0.323 N 
ATOM      9  C   UNL A   1      31.189  23.953  23.365  1.00  0.00     0.333 C 
ATOM     10  H   UNL A   1      32.985  24.634  22.963  1.00  0.00     0.348 HD
BRANCH   8  11
ATOM     11  C   UNL A   1      32.457  25.944  24.238  1.00  0.00     0.184 C 
ATOM     12  C   UNL A   1      33.566  26.795  23.565  1.00  0.00     0.071 C 
ATOM     13  C   UNL A   1      31.083  26.655  24.174  1.00  0.00     0.071 C 
ATOM     14  C   UNL A   1      33.538  28.264  23.994  1.00  0.00     0.071 C 
ATOM     15  C   UNL A   1      31.136  28.126  24.589  1.00  0.00     0.071 C 
ATOM     16  C   UNL A   1      32.166  28.917  23.772  1.00  0.00     0.182 C 
BRANCH  16  17
ATOM     17  N   UNL A   1      31.719  28.953  22.369  1.00  0.00    -0.346 N 
ATOM     18  C   UNL A   1      30.403  29.544  22.191  1.00  0.00     0.331 C 
ATOM     19  H   UNL A   1      31.695  27.998  22.013  1.00  0.00     0.346 HD
ATOM     20  H   UNL A   1      32.381  29.541  21.861  1.00  0.00     0.346 HD
ENDBRANCH  16  17
ENDBRANCH   8  11
ENDBRANCH   5   8
ENDBRANCH   3   5
ENDBRANCH   2   3
ENDBRANCH   1   2
BRANCH   1  21
ATOM     21  C   UNL A   1      37.091  23.079  24.905  1.00  0.00     0.275 C 
BRANCH  21  22
ATOM     22  O   UNL A   1      37.669  22.712  26.172  1.00  0.00    -0.458 OA
BRANCH  22  23
ATOM     23  C   UNL A   1      38.998  22.938  26.286  1.00  0.00     0.338 C 
ATOM     24  O   UNL A   1      39.901  22.244  25.829  1.00  0.00    -0.246 OA
BRANCH  23  25
ATOM     25  C   UNL A   1      39.249  24.225  26.953  1.00  0.00     0.060 A 
ATOM     26  C   UNL A   1      40.012  25.182  26.278  1.00  0.00     0.016 A 
ATOM     27  C   UNL A   1      38.823  24.461  28.261  1.00  0.00     0.016 A 
ATOM     28  C   UNL A   1      40.379  26.365  26.906  1.00  0.00     0.010 A 
ATOM     29  C   UNL A   1      39.187  25.656  28.893  1.00  0.00     0.010 A 
ATOM     30  C   UNL A   1      39.982  26.605  28.224  1.00  0.00    -0.014 A 
BRANCH  30  31
ATOM     31  C   UNL A   1      40.461  27.822  28.915  1.00  0.00     0.031 A 
ATOM     32  C   UNL A   1      41.857  27.858  29.468  1.00  0.00     0.074 A 
ATOM     33  C   UNL A   1      39.662  28.902  29.005  1.00  0.00     0.049 A 
ATOM     34  N   UNL A   1      42.441  28.791  30.173  1.00  0.00    -0.248 NA
ATOM     35  C   UNL A   1      42.707  26.688  29.189  1.00  0.00     0.031 C 
ATOM     36  C   UNL A   1      38.316  29.008  28.437  1.00  0.00     0.029 A 
ATOM     37  N   UNL A   1      39.868  30.117  29.605  1.00  0.00    -0.354 N 
ATOM     38  C   UNL A   1      43.719  28.315  30.439  1.00  0.00     0.074 A 
ATOM     39  C   UNL A   1      43.822  27.005  29.832  1.00  0.00     0.031 C 
ATOM     40  C   UNL A   1      37.818  30.223  28.720  1.00  0.00     0.029 A 
ATOM     41  C   UNL A   1      38.785  30.959  29.527  1.00  0.00     0.049 A 
ATOM     42  H   UNL A   1      40.712  30.362  30.050  1.00  0.00     0.167 HD
ATOM     43  C   UNL A   1      44.717  28.919  31.129  1.00  0.00     0.031 A 
ATOM     44  C   UNL A   1      38.585  32.173  30.074  1.00  0.00     0.031 A 
ATOM     45  C   UNL A   1      44.604  30.222  31.731  1.00  0.00     0.049 A 
ATOM     46  C   UNL A   1      39.679  32.787  30.907  1.00  0.00     0.074 A 
ATOM     47  C   UNL A   1      45.550  30.919  32.461  1.00  0.00     0.029 A 
ATOM     48  N   UNL A   1      43.474  31.024  31.671  1.00  0.00    -0.354 N 
ATOM     49  N   UNL A   1      40.875  32.317  31.171  1.00  0.00    -0.248 NA
ATOM     50  C   UNL A   1      39.395  34.094  31.516  1.00  0.00     0.031 C 
ATOM     51  C   UNL A   1      44.976  32.123  32.881  1.00  0.00     0.029 A 
ATOM     52  C   UNL A   1      43.692  32.201  32.366  1.00  0.00     0.049 A 
ATOM     53  H   UNL A   1      42.640  30.791  31.202  1.00  0.00     0.167 HD
ATOM     54  C   UNL A   1      41.493  33.280  31.961  1.00  0.00     0.074 A 
ATOM     55  C   UNL A   1      40.545  34.365  32.116  1.00  0.00     0.031 C 
ATOM     56  C   UNL A   1      42.733  33.268  32.508  1.00  0.00     0.031 A 
BRANCH  43  57
ATOM     57  C   UNL A   1      46.001  28.156  31.305  1.00  0.00    -0.014 A 
ATOM     58  C   UNL A   1      47.065  28.296  30.396  1.00  0.00     0.010 A 
ATOM     59  C   UNL A   1      46.156  27.307  32.416  1.00  0.00     0.010 A 
ATOM     60  C   UNL A   1      48.249  27.574  30.577  1.00  0.00     0.020 A 
ATOM     61  C   UNL A   1      47.347  26.602  32.613  1.00  0.00     0.020 A 
ATOM     62  C   UNL A   1      48.380  26.728  31.683  1.00  0.00     0.054 A 
BRANCH  62  63
ATOM     63  S   UNL A   1      49.934  25.818  31.905  1.00  0.00     0.124 S 
ATOM     64  O   UNL A   1      50.269  25.455  30.530  1.00  0.00    -0.237 OA
ATOM     65  O   UNL A   1      50.805  26.814  32.521  1.00  0.00    -0.237 OA
ATOM     66  O   UNL A   1      49.560  24.701  32.769  1.00  0.00    -0.744 OA
ENDBRANCH  62  63
ENDBRANCH  43  57
BRANCH  44  67
ATOM     67  C   UNL A   1      37.284  32.871  29.886  1.00  0.00    -0.014 A 
ATOM     68  C   UNL A   1      36.304  32.850  30.893  1.00  0.00     0.010 A 
ATOM     69  C   UNL A   1      37.019  33.561  28.688  1.00  0.00     0.010 A 
ATOM     70  C   UNL A   1      35.075  33.488  30.698  1.00  0.00     0.020 A 
ATOM     71  C   UNL A   1      35.803  34.223  28.501  1.00  0.00     0.020 A 
ATOM     72  C   UNL A   1      34.832  34.171  29.503  1.00  0.00     0.054 A 
BRANCH  72  73
ATOM     73  S   UNL A   1      33.248  35.028  29.287  1.00  0.00     0.124 S 
ATOM     74  O   UNL A   1      33.676  36.340  28.816  1.00  0.00    -0.237 OA
ATOM     75  O   UNL A   1      32.567  34.191  28.302  1.00  0.00    -0.237 OA
ATOM     76  O   UNL A   1      32.661  35.002  30.625  1.00  0.00    -0.744 OA
ENDBRANCH  72  73
ENDBRANCH  44  67
BRANCH  56  77
ATOM     77  C   UNL A   1      43.150  34.479  33.297  1.00  0.00    -0.014 A 
ATOM     78  C   UNL A   1      43.028  34.513  34.697  1.00  0.00     0.010 A 
ATOM     79  C   UNL A   1      43.720  35.579  32.629  1.00  0.00     0.010 A 
ATOM     80  C   UNL A   1      43.442  35.640  35.414  1.00  0.00     0.020 A 
ATOM     81  C   UNL A   1      44.158  36.695  33.345  1.00  0.00     0.020 A 
ATOM     82  C   UNL A   1      44.003  36.724  34.732  1.00  0.00     0.054 A 
BRANCH  82  83
ATOM     83  S   UNL A   1      44.576  38.156  35.687  1.00  0.00     0.124 S 
ATOM     84  O   UNL A   1      44.086  39.272  34.883  1.00  0.00    -0.237 OA
ATOM     85  O   UNL A   1      43.913  37.971  36.975  1.00  0.00    -0.237 OA
ATOM     86  O   UNL A   1      46.028  37.997  35.712  1.00  0.00    -0.744 OA
ENDBRANCH  82  83
ENDBRANCH  56  77
ENDBRANCH  30  31
ENDBRANCH  23  25
ENDBRANCH  22  23
ENDBRANCH  21  22
ENDBRANCH   1  21
TORSDOF 18
ENDMDL
