MODEL 1
REMARK VINA RESULT:     -11.0      0.000      0.000
REMARK SMILES C[C@H](Cc1cccc2c1OC(C)(C)C2)C(=O)OCCOC(=O)c1ccc(-c2c3nc(c(-c4ccc(S(=O)(=O)[O-])cc4)c4ccc([nH]4)c(-c4ccc(S(=O)(=O)[O-])cc4)c4nc(c(-c5ccc(S(=O)(=O)[O-])cc5)c5ccc2[nH]5)C=C4)C=C3)cc1
REMARK SMILES IDX 19 1 18 2 17 3 15 4 16 5 2 6 1 7 3 8 4 9 5 10 9 11 6 12 8 13
REMARK SMILES IDX 10 14 7 15 14 16 11 17 12 18 13 19 20 20 21 21 22 22 23 23
REMARK SMILES IDX 24 24 82 25 25 26 81 27 26 28 27 29 28 30 75 31 29 32 80 33
REMARK SMILES IDX 74 34 76 35 30 36 79 37 73 38 72 39 31 41 61 42 42 43 60 44
REMARK SMILES IDX 43 45 46 46 59 47 77 48 44 49 45 50 58 52 78 53 47 54 32 55
REMARK SMILES IDX 33 56 41 57 34 58 40 59 35 60 36 61 37 62 38 63 39 64 62 65
REMARK SMILES IDX 63 66 71 67 64 68 70 69 65 70 66 71 67 72 68 73 69 74 48 75
REMARK SMILES IDX 49 76 57 77 50 78 56 79 51 80 52 81 53 82 54 83 55 84
REMARK H PARENT 76 40 46 51
REMARK Flexibility Score: inf
ROOT
ATOM      1  C   UNL A   1      34.636  32.356  29.021  1.00  0.00     0.275 C 
ENDROOT
BRANCH   1   2
ATOM      2  C   UNL A   1      33.644  32.188  27.872  1.00  0.00     0.274 C 
BRANCH   2   3
ATOM      3  O   UNL A   1      33.406  30.794  27.607  1.00  0.00    -0.462 OA
BRANCH   3   4
ATOM      4  C   UNL A   1      32.456  30.487  26.683  1.00  0.00     0.309 C 
ATOM      5  O   UNL A   1      31.510  31.216  26.401  1.00  0.00    -0.252 OA
BRANCH   4   6
ATOM      6  C   UNL A   1      32.734  29.171  25.953  1.00  0.00     0.100 C 
ATOM      7  C   UNL A   1      34.188  28.710  26.117  1.00  0.00     0.020 C 
BRANCH   6   8
ATOM      8  C   UNL A   1      32.209  29.074  24.511  1.00  0.00     0.054 C 
BRANCH   8   9
ATOM      9  C   UNL A   1      30.941  28.315  24.202  1.00  0.00    -0.005 A 
ATOM     10  C   UNL A   1      30.897  26.945  24.517  1.00  0.00     0.007 A 
ATOM     11  C   UNL A   1      29.787  28.862  23.663  1.00  0.00     0.126 A 
ATOM     12  C   UNL A   1      29.746  26.178  24.281  1.00  0.00     0.001 A 
ATOM     13  C   UNL A   1      28.647  28.112  23.426  1.00  0.00    -0.002 A 
ATOM     14  O   UNL A   1      29.642  30.176  23.318  1.00  0.00    -0.487 OA
ATOM     15  C   UNL A   1      28.607  26.764  23.730  1.00  0.00     0.008 A 
ATOM     16  C   UNL A   1      27.577  28.975  22.868  1.00  0.00     0.087 C 
ATOM     17  C   UNL A   1      28.329  30.316  22.732  1.00  0.00     0.108 C 
ATOM     18  C   UNL A   1      28.539  30.716  21.269  1.00  0.00     0.057 C 
ATOM     19  C   UNL A   1      27.620  31.443  23.485  1.00  0.00     0.057 C 
ENDBRANCH   8   9
ENDBRANCH   6   8
ENDBRANCH   4   6
ENDBRANCH   3   4
ENDBRANCH   2   3
ENDBRANCH   1   2
BRANCH   1  20
ATOM     20  O   UNL A   1      35.529  31.232  29.086  1.00  0.00    -0.458 OA
BRANCH  20  21
ATOM     21  C   UNL A   1      36.320  31.208  30.181  1.00  0.00     0.338 C 
ATOM     22  O   UNL A   1      36.041  31.549  31.317  1.00  0.00    -0.246 OA
BRANCH  21  23
ATOM     23  C   UNL A   1      37.583  30.551  29.835  1.00  0.00     0.060 A 
ATOM     24  C   UNL A   1      38.489  30.300  30.866  1.00  0.00     0.016 A 
ATOM     25  C   UNL A   1      37.911  30.271  28.512  1.00  0.00     0.016 A 
ATOM     26  C   UNL A   1      39.756  29.818  30.585  1.00  0.00     0.010 A 
ATOM     27  C   UNL A   1      39.174  29.751  28.229  1.00  0.00     0.010 A 
ATOM     28  C   UNL A   1      40.110  29.547  29.262  1.00  0.00    -0.014 A 
BRANCH  28  29
ATOM     29  C   UNL A   1      41.485  29.111  28.949  1.00  0.00     0.031 A 
ATOM     30  C   UNL A   1      42.594  30.121  28.974  1.00  0.00     0.074 A 
ATOM     31  C   UNL A   1      41.728  27.822  28.649  1.00  0.00     0.049 A 
ATOM     32  N   UNL A   1      43.827  30.003  28.562  1.00  0.00    -0.248 NA
ATOM     33  C   UNL A   1      42.264  31.446  29.529  1.00  0.00     0.031 C 
ATOM     34  C   UNL A   1      40.733  26.747  28.664  1.00  0.00     0.029 A 
ATOM     35  N   UNL A   1      42.886  27.203  28.258  1.00  0.00    -0.354 N 
ATOM     36  C   UNL A   1      44.408  31.250  28.759  1.00  0.00     0.074 A 
ATOM     37  C   UNL A   1      43.394  32.109  29.329  1.00  0.00     0.031 C 
ATOM     38  C   UNL A   1      41.323  25.600  28.292  1.00  0.00     0.029 A 
ATOM     39  C   UNL A   1      42.714  25.874  27.949  1.00  0.00     0.049 A 
ATOM     40  H   UNL A   1      43.754  27.662  28.205  1.00  0.00     0.167 HD
ATOM     41  C   UNL A   1      45.673  31.638  28.473  1.00  0.00     0.031 A 
ATOM     42  C   UNL A   1      43.570  24.993  27.401  1.00  0.00     0.031 A 
ATOM     43  C   UNL A   1      46.667  30.760  27.918  1.00  0.00     0.049 A 
ATOM     44  C   UNL A   1      44.956  25.456  27.052  1.00  0.00     0.074 A 
ATOM     45  C   UNL A   1      47.982  31.041  27.592  1.00  0.00     0.029 A 
ATOM     46  N   UNL A   1      46.454  29.424  27.610  1.00  0.00    -0.354 N 
ATOM     47  N   UNL A   1      45.487  26.646  27.209  1.00  0.00    -0.248 NA
ATOM     48  C   UNL A   1      45.853  24.466  26.445  1.00  0.00     0.031 C 
ATOM     49  C   UNL A   1      48.551  29.883  27.050  1.00  0.00     0.029 A 
ATOM     50  C   UNL A   1      47.606  28.869  27.083  1.00  0.00     0.049 A 
ATOM     51  H   UNL A   1      45.606  28.942  27.747  1.00  0.00     0.167 HD
ATOM     52  C   UNL A   1      46.788  26.545  26.732  1.00  0.00     0.074 A 
ATOM     53  C   UNL A   1      46.967  25.174  26.295  1.00  0.00     0.031 C 
ATOM     54  C   UNL A   1      47.749  27.500  26.658  1.00  0.00     0.031 A 
BRANCH  41  55
ATOM     55  C   UNL A   1      46.021  33.084  28.703  1.00  0.00    -0.014 A 
ATOM     56  C   UNL A   1      45.826  34.056  27.706  1.00  0.00     0.010 A 
ATOM     57  C   UNL A   1      46.556  33.475  29.944  1.00  0.00     0.010 A 
ATOM     58  C   UNL A   1      46.200  35.385  27.931  1.00  0.00     0.020 A 
ATOM     59  C   UNL A   1      46.909  34.806  30.182  1.00  0.00     0.020 A 
ATOM     60  C   UNL A   1      46.748  35.750  29.165  1.00  0.00     0.054 A 
BRANCH  60  61
ATOM     61  S   UNL A   1      47.226  37.479  29.435  1.00  0.00     0.124 S 
ATOM     62  O   UNL A   1      48.359  37.337  30.347  1.00  0.00    -0.237 OA
ATOM     63  O   UNL A   1      47.558  37.935  28.089  1.00  0.00    -0.237 OA
ATOM     64  O   UNL A   1      46.030  38.082  30.018  1.00  0.00    -0.744 OA
ENDBRANCH  60  61
ENDBRANCH  41  55
BRANCH  42  65
ATOM     65  C   UNL A   1      43.112  23.609  27.105  1.00  0.00    -0.014 A 
ATOM     66  C   UNL A   1      42.754  23.234  25.799  1.00  0.00     0.010 A 
ATOM     67  C   UNL A   1      43.079  22.642  28.128  1.00  0.00     0.010 A 
ATOM     68  C   UNL A   1      42.368  21.918  25.522  1.00  0.00     0.020 A 
ATOM     69  C   UNL A   1      42.718  21.321  27.849  1.00  0.00     0.020 A 
ATOM     70  C   UNL A   1      42.357  20.970  26.548  1.00  0.00     0.054 A 
BRANCH  70  71
ATOM     71  S   UNL A   1      41.924  19.252  26.153  1.00  0.00     0.124 S 
ATOM     72  O   UNL A   1      42.300  18.555  27.379  1.00  0.00    -0.237 OA
ATOM     73  O   UNL A   1      40.489  19.337  25.889  1.00  0.00    -0.237 OA
ATOM     74  O   UNL A   1      42.747  18.952  24.983  1.00  0.00    -0.744 OA
ENDBRANCH  70  71
ENDBRANCH  42  65
BRANCH  54  75
ATOM     75  C   UNL A   1      49.085  27.083  26.111  1.00  0.00    -0.014 A 
ATOM     76  C   UNL A   1      49.405  27.276  24.756  1.00  0.00     0.010 A 
ATOM     77  C   UNL A   1      50.053  26.550  26.981  1.00  0.00     0.010 A 
ATOM     78  C   UNL A   1      50.668  26.922  24.275  1.00  0.00     0.020 A 
ATOM     79  C   UNL A   1      51.324  26.216  26.509  1.00  0.00     0.020 A 
ATOM     80  C   UNL A   1      51.619  26.394  25.155  1.00  0.00     0.054 A 
BRANCH  80  81
ATOM     81  S   UNL A   1      53.270  25.995  24.521  1.00  0.00     0.124 S 
ATOM     82  O   UNL A   1      53.105  26.213  23.087  1.00  0.00    -0.237 OA
ATOM     83  O   UNL A   1      54.123  26.960  25.210  1.00  0.00    -0.237 OA
ATOM     84  O   UNL A   1      53.466  24.603  24.921  1.00  0.00    -0.744 OA
ENDBRANCH  80  81
ENDBRANCH  54  75
ENDBRANCH  28  29
ENDBRANCH  21  23
ENDBRANCH  20  21
ENDBRANCH   1  20
TORSDOF 16
ENDMDL
MODEL 2
REMARK VINA RESULT:     -10.9      3.597      6.436
REMARK SMILES C[C@H](Cc1cccc2c1OC(C)(C)C2)C(=O)OCCOC(=O)c1ccc(-c2c3nc(c(-c4ccc(S(=O)(=O)[O-])cc4)c4ccc([nH]4)c(-c4ccc(S(=O)(=O)[O-])cc4)c4nc(c(-c5ccc(S(=O)(=O)[O-])cc5)c5ccc2[nH]5)C=C4)C=C3)cc1
REMARK SMILES IDX 19 1 18 2 17 3 15 4 16 5 2 6 1 7 3 8 4 9 5 10 9 11 6 12 8 13
REMARK SMILES IDX 10 14 7 15 14 16 11 17 12 18 13 19 20 20 21 21 22 22 23 23
REMARK SMILES IDX 24 24 82 25 25 26 81 27 26 28 27 29 28 30 75 31 29 32 80 33
REMARK SMILES IDX 74 34 76 35 30 36 79 37 73 38 72 39 31 41 61 42 42 43 60 44
REMARK SMILES IDX 43 45 46 46 59 47 77 48 44 49 45 50 58 52 78 53 47 54 32 55
REMARK SMILES IDX 33 56 41 57 34 58 40 59 35 60 36 61 37 62 38 63 39 64 62 65
REMARK SMILES IDX 63 66 71 67 64 68 70 69 65 70 66 71 67 72 68 73 69 74 48 75
REMARK SMILES IDX 49 76 57 77 50 78 56 79 51 80 52 81 53 82 54 83 55 84
REMARK H PARENT 76 40 46 51
REMARK Flexibility Score: inf
ROOT
ATOM      1  C   UNL A   1      34.684  33.139  28.678  1.00  0.00     0.275 C 
ENDROOT
BRANCH   1   2
ATOM      2  C   UNL A   1      33.673  34.194  29.124  1.00  0.00     0.274 C 
BRANCH   2   3
ATOM      3  O   UNL A   1      34.232  35.029  30.153  1.00  0.00    -0.462 OA
BRANCH   3   4
ATOM      4  C   UNL A   1      33.438  35.325  31.216  1.00  0.00     0.309 C 
ATOM      5  O   UNL A   1      32.215  35.401  31.161  1.00  0.00    -0.252 OA
BRANCH   4   6
ATOM      6  C   UNL A   1      34.218  35.467  32.526  1.00  0.00     0.100 C 
ATOM      7  C   UNL A   1      33.795  36.706  33.325  1.00  0.00     0.020 C 
BRANCH   6   8
ATOM      8  C   UNL A   1      35.740  35.278  32.429  1.00  0.00     0.054 C 
BRANCH   8   9
ATOM      9  C   UNL A   1      36.382  33.969  32.822  1.00  0.00    -0.005 A 
ATOM     10  C   UNL A   1      35.714  32.778  32.484  1.00  0.00     0.007 A 
ATOM     11  C   UNL A   1      37.605  33.832  33.460  1.00  0.00     0.126 A 
ATOM     12  C   UNL A   1      36.258  31.523  32.794  1.00  0.00     0.001 A 
ATOM     13  C   UNL A   1      38.149  32.597  33.770  1.00  0.00    -0.002 A 
ATOM     14  O   UNL A   1      38.400  34.875  33.841  1.00  0.00    -0.487 OA
ATOM     15  C   UNL A   1      37.488  31.426  33.443  1.00  0.00     0.008 A 
ATOM     16  C   UNL A   1      39.467  32.771  34.426  1.00  0.00     0.087 C 
ATOM     17  C   UNL A   1      39.537  34.309  34.530  1.00  0.00     0.108 C 
ATOM     18  C   UNL A   1      39.461  34.796  35.980  1.00  0.00     0.057 C 
ATOM     19  C   UNL A   1      40.792  34.868  33.856  1.00  0.00     0.057 C 
ENDBRANCH   8   9
ENDBRANCH   6   8
ENDBRANCH   4   6
ENDBRANCH   3   4
ENDBRANCH   2   3
ENDBRANCH   1   2
BRANCH   1  20
ATOM     20  O   UNL A   1      34.347  31.853  29.223  1.00  0.00    -0.458 OA
BRANCH  20  21
ATOM     21  C   UNL A   1      34.461  30.828  28.350  1.00  0.00     0.338 C 
ATOM     22  O   UNL A   1      33.660  30.469  27.505  1.00  0.00    -0.246 OA
BRANCH  21  23
ATOM     23  C   UNL A   1      35.807  30.261  28.464  1.00  0.00     0.060 A 
ATOM     24  C   UNL A   1      36.232  29.845  29.726  1.00  0.00     0.016 A 
ATOM     25  C   UNL A   1      36.668  30.224  27.372  1.00  0.00     0.016 A 
ATOM     26  C   UNL A   1      37.541  29.439  29.927  1.00  0.00     0.010 A 
ATOM     27  C   UNL A   1      37.977  29.781  27.563  1.00  0.00     0.010 A 
ATOM     28  C   UNL A   1      38.425  29.411  28.846  1.00  0.00    -0.014 A 
BRANCH  28  29
ATOM     29  C   UNL A   1      39.841  29.058  29.071  1.00  0.00     0.031 A 
ATOM     30  C   UNL A   1      40.781  30.107  29.586  1.00  0.00     0.074 A 
ATOM     31  C   UNL A   1      40.268  27.808  28.816  1.00  0.00     0.049 A 
ATOM     32  N   UNL A   1      42.083  30.072  29.682  1.00  0.00    -0.248 NA
ATOM     33  C   UNL A   1      40.173  31.369  30.043  1.00  0.00     0.031 C 
ATOM     34  C   UNL A   1      39.421  26.696  28.380  1.00  0.00     0.029 A 
ATOM     35  N   UNL A   1      41.526  27.269  28.873  1.00  0.00    -0.354 N 
ATOM     36  C   UNL A   1      42.456  31.322  30.161  1.00  0.00     0.074 A 
ATOM     37  C   UNL A   1      41.244  32.091  30.339  1.00  0.00     0.031 C 
ATOM     38  C   UNL A   1      40.186  25.607  28.202  1.00  0.00     0.029 A 
ATOM     39  C   UNL A   1      41.579  25.964  28.446  1.00  0.00     0.049 A 
ATOM     40  H   UNL A   1      42.315  27.767  29.190  1.00  0.00     0.167 HD
ATOM     41  C   UNL A   1      43.703  31.783  30.415  1.00  0.00     0.031 A 
ATOM     42  C   UNL A   1      42.639  25.164  28.225  1.00  0.00     0.031 A 
ATOM     43  C   UNL A   1      44.892  30.993  30.242  1.00  0.00     0.049 A 
ATOM     44  C   UNL A   1      44.016  25.710  28.473  1.00  0.00     0.074 A 
ATOM     45  C   UNL A   1      46.208  31.352  30.473  1.00  0.00     0.029 A 
ATOM     46  N   UNL A   1      44.907  29.678  29.799  1.00  0.00    -0.354 N 
ATOM     47  N   UNL A   1      44.363  26.904  28.893  1.00  0.00    -0.248 NA
ATOM     48  C   UNL A   1      45.144  24.809  28.209  1.00  0.00     0.031 C 
ATOM     49  C   UNL A   1      47.020  30.265  30.130  1.00  0.00     0.029 A 
ATOM     50  C   UNL A   1      46.208  29.215  29.733  1.00  0.00     0.049 A 
ATOM     51  H   UNL A   1      44.107  29.153  29.567  1.00  0.00     0.167 HD
ATOM     52  C   UNL A   1      45.751  26.895  28.957  1.00  0.00     0.074 A 
ATOM     53  C   UNL A   1      46.177  25.571  28.547  1.00  0.00     0.031 C 
ATOM     54  C   UNL A   1      46.597  27.890  29.319  1.00  0.00     0.031 A 
BRANCH  41  55
ATOM     55  C   UNL A   1      43.836  33.219  30.845  1.00  0.00    -0.014 A 
ATOM     56  C   UNL A   1      43.808  34.273  29.915  1.00  0.00     0.010 A 
ATOM     57  C   UNL A   1      43.991  33.517  32.211  1.00  0.00     0.010 A 
ATOM     58  C   UNL A   1      43.978  35.594  30.338  1.00  0.00     0.020 A 
ATOM     59  C   UNL A   1      44.138  34.838  32.642  1.00  0.00     0.020 A 
ATOM     60  C   UNL A   1      44.151  35.868  31.699  1.00  0.00     0.054 A 
BRANCH  60  61
ATOM     61  S   UNL A   1      44.370  37.590  32.226  1.00  0.00     0.124 S 
ATOM     62  O   UNL A   1      43.431  37.685  33.341  1.00  0.00    -0.237 OA
ATOM     63  O   UNL A   1      45.784  37.639  32.589  1.00  0.00    -0.237 OA
ATOM     64  O   UNL A   1      44.009  38.364  31.040  1.00  0.00    -0.744 OA
ENDBRANCH  60  61
ENDBRANCH  41  55
BRANCH  42  65
ATOM     65  C   UNL A   1      42.427  23.791  27.696  1.00  0.00    -0.014 A 
ATOM     66  C   UNL A   1      42.445  23.544  26.312  1.00  0.00     0.010 A 
ATOM     67  C   UNL A   1      42.253  22.710  28.582  1.00  0.00     0.010 A 
ATOM     68  C   UNL A   1      42.290  22.242  25.825  1.00  0.00     0.020 A 
ATOM     69  C   UNL A   1      42.122  21.406  28.098  1.00  0.00     0.020 A 
ATOM     70  C   UNL A   1      42.134  21.181  26.721  1.00  0.00     0.054 A 
BRANCH  70  71
ATOM     71  S   UNL A   1      42.008  19.491  26.071  1.00  0.00     0.124 S 
ATOM     72  O   UNL A   1      42.894  19.546  24.912  1.00  0.00    -0.237 OA
ATOM     73  O   UNL A   1      42.482  18.683  27.192  1.00  0.00    -0.237 OA
ATOM     74  O   UNL A   1      40.586  19.347  25.768  1.00  0.00    -0.744 OA
ENDBRANCH  70  71
ENDBRANCH  42  65
BRANCH  54  75
ATOM     75  C   UNL A   1      48.067  27.573  29.315  1.00  0.00    -0.014 A 
ATOM     76  C   UNL A   1      48.876  27.909  28.217  1.00  0.00     0.010 A 
ATOM     77  C   UNL A   1      48.651  26.989  30.452  1.00  0.00     0.010 A 
ATOM     78  C   UNL A   1      50.248  27.646  28.248  1.00  0.00     0.020 A 
ATOM     79  C   UNL A   1      50.025  26.744  30.496  1.00  0.00     0.020 A 
ATOM     80  C   UNL A   1      50.813  27.065  29.388  1.00  0.00     0.054 A 
BRANCH  80  81
ATOM     81  S   UNL A   1      52.604  26.783  29.430  1.00  0.00     0.124 S 
ATOM     82  O   UNL A   1      52.832  26.095  28.163  1.00  0.00    -0.237 OA
ATOM     83  O   UNL A   1      53.142  28.139  29.515  1.00  0.00    -0.237 OA
ATOM     84  O   UNL A   1      52.797  25.967  30.627  1.00  0.00    -0.744 OA
ENDBRANCH  80  81
ENDBRANCH  54  75
ENDBRANCH  28  29
ENDBRANCH  21  23
ENDBRANCH  20  21
ENDBRANCH   1  20
TORSDOF 16
ENDMDL
MODEL 3
REMARK VINA RESULT:     -10.8      3.152      4.516
REMARK SMILES C[C@H](Cc1cccc2c1OC(C)(C)C2)C(=O)OCCOC(=O)c1ccc(-c2c3nc(c(-c4ccc(S(=O)(=O)[O-])cc4)c4ccc([nH]4)c(-c4ccc(S(=O)(=O)[O-])cc4)c4nc(c(-c5ccc(S(=O)(=O)[O-])cc5)c5ccc2[nH]5)C=C4)C=C3)cc1
REMARK SMILES IDX 19 1 18 2 17 3 15 4 16 5 2 6 1 7 3 8 4 9 5 10 9 11 6 12 8 13
REMARK SMILES IDX 10 14 7 15 14 16 11 17 12 18 13 19 20 20 21 21 22 22 23 23
REMARK SMILES IDX 24 24 82 25 25 26 81 27 26 28 27 29 28 30 75 31 29 32 80 33
REMARK SMILES IDX 74 34 76 35 30 36 79 37 73 38 72 39 31 41 61 42 42 43 60 44
REMARK SMILES IDX 43 45 46 46 59 47 77 48 44 49 45 50 58 52 78 53 47 54 32 55
REMARK SMILES IDX 33 56 41 57 34 58 40 59 35 60 36 61 37 62 38 63 39 64 62 65
REMARK SMILES IDX 63 66 71 67 64 68 70 69 65 70 66 71 67 72 68 73 69 74 48 75
REMARK SMILES IDX 49 76 57 77 50 78 56 79 51 80 52 81 53 82 54 83 55 84
REMARK H PARENT 76 40 46 51
REMARK Flexibility Score: inf
ROOT
ATOM      1  C   UNL A   1      32.395  30.221  27.172  1.00  0.00     0.275 C 
ENDROOT
BRANCH   1   2
ATOM      2  C   UNL A   1      31.917  30.098  25.727  1.00  0.00     0.274 C 
BRANCH   2   3
ATOM      3  O   UNL A   1      31.998  28.732  25.280  1.00  0.00    -0.462 OA
BRANCH   3   4
ATOM      4  C   UNL A   1      32.882  28.452  24.286  1.00  0.00     0.309 C 
ATOM      5  O   UNL A   1      33.244  29.262  23.439  1.00  0.00    -0.252 OA
BRANCH   4   6
ATOM      6  C   UNL A   1      33.459  27.038  24.379  1.00  0.00     0.100 C 
ATOM      7  C   UNL A   1      32.800  26.072  23.386  1.00  0.00     0.020 C 
BRANCH   6   8
ATOM      8  C   UNL A   1      33.614  26.463  25.796  1.00  0.00     0.054 C 
BRANCH   8   9
ATOM      9  C   UNL A   1      33.520  24.976  26.040  1.00  0.00    -0.005 A 
ATOM     10  C   UNL A   1      32.357  24.480  26.656  1.00  0.00     0.007 A 
ATOM     11  C   UNL A   1      34.472  24.038  25.672  1.00  0.00     0.126 A 
ATOM     12  C   UNL A   1      32.186  23.107  26.895  1.00  0.00     0.001 A 
ATOM     13  C   UNL A   1      34.312  22.682  25.904  1.00  0.00    -0.002 A 
ATOM     14  O   UNL A   1      35.649  24.335  25.045  1.00  0.00    -0.487 OA
ATOM     15  C   UNL A   1      33.170  22.196  26.516  1.00  0.00     0.008 A 
ATOM     16  C   UNL A   1      35.481  21.934  25.383  1.00  0.00     0.087 C 
ATOM     17  C   UNL A   1      36.379  23.096  24.908  1.00  0.00     0.108 C 
ATOM     18  C   UNL A   1      37.646  23.234  25.757  1.00  0.00     0.057 C 
ATOM     19  C   UNL A   1      36.752  22.959  23.431  1.00  0.00     0.057 C 
ENDBRANCH   8   9
ENDBRANCH   6   8
ENDBRANCH   4   6
ENDBRANCH   3   4
ENDBRANCH   2   3
ENDBRANCH   1   2
BRANCH   1  20
ATOM     20  O   UNL A   1      33.783  29.865  27.278  1.00  0.00    -0.458 OA
BRANCH  20  21
ATOM     21  C   UNL A   1      34.530  30.731  27.998  1.00  0.00     0.338 C 
ATOM     22  O   UNL A   1      34.176  31.774  28.519  1.00  0.00    -0.246 OA
BRANCH  21  23
ATOM     23  C   UNL A   1      35.859  30.150  28.201  1.00  0.00     0.060 A 
ATOM     24  C   UNL A   1      36.174  29.681  29.476  1.00  0.00     0.016 A 
ATOM     25  C   UNL A   1      36.808  30.150  27.185  1.00  0.00     0.016 A 
ATOM     26  C   UNL A   1      37.460  29.256  29.770  1.00  0.00     0.010 A 
ATOM     27  C   UNL A   1      38.095  29.690  27.467  1.00  0.00     0.010 A 
ATOM     28  C   UNL A   1      38.432  29.266  28.767  1.00  0.00    -0.014 A 
BRANCH  28  29
ATOM     29  C   UNL A   1      39.822  28.893  29.096  1.00  0.00     0.031 A 
ATOM     30  C   UNL A   1      40.723  29.916  29.719  1.00  0.00     0.074 A 
ATOM     31  C   UNL A   1      40.261  27.648  28.836  1.00  0.00     0.049 A 
ATOM     32  N   UNL A   1      42.012  29.867  29.921  1.00  0.00    -0.248 NA
ATOM     33  C   UNL A   1      40.087  31.168  30.166  1.00  0.00     0.031 C 
ATOM     34  C   UNL A   1      39.445  26.557  28.297  1.00  0.00     0.029 A 
ATOM     35  N   UNL A   1      41.507  27.096  28.980  1.00  0.00    -0.354 N 
ATOM     36  C   UNL A   1      42.353  31.098  30.469  1.00  0.00     0.074 A 
ATOM     37  C   UNL A   1      41.135  31.871  30.572  1.00  0.00     0.031 C 
ATOM     38  C   UNL A   1      40.215  25.468  28.147  1.00  0.00     0.029 A 
ATOM     39  C   UNL A   1      41.586  25.805  28.516  1.00  0.00     0.049 A 
ATOM     40  H   UNL A   1      42.269  27.577  29.375  1.00  0.00     0.167 HD
ATOM     41  C   UNL A   1      43.577  31.540  30.839  1.00  0.00     0.031 A 
ATOM     42  C   UNL A   1      42.655  25.003  28.357  1.00  0.00     0.031 A 
ATOM     43  C   UNL A   1      44.772  30.745  30.739  1.00  0.00     0.049 A 
ATOM     44  C   UNL A   1      44.011  25.528  28.734  1.00  0.00     0.074 A 
ATOM     45  C   UNL A   1      46.067  31.085  31.088  1.00  0.00     0.029 A 
ATOM     46  N   UNL A   1      44.814  29.445  30.256  1.00  0.00    -0.354 N 
ATOM     47  N   UNL A   1      44.330  26.706  29.220  1.00  0.00    -0.248 NA
ATOM     48  C   UNL A   1      45.151  24.626  28.535  1.00  0.00     0.031 C 
ATOM     49  C   UNL A   1      46.898  30.002  30.778  1.00  0.00     0.029 A 
ATOM     50  C   UNL A   1      46.114  28.972  30.281  1.00  0.00     0.049 A 
ATOM     51  H   UNL A   1      44.033  28.934  29.942  1.00  0.00     0.167 HD
ATOM     52  C   UNL A   1      45.707  26.682  29.397  1.00  0.00     0.074 A 
ATOM     53  C   UNL A   1      46.158  25.368  28.980  1.00  0.00     0.031 C 
ATOM     54  C   UNL A   1      46.528  27.658  29.859  1.00  0.00     0.031 A 
BRANCH  41  55
ATOM     55  C   UNL A   1      43.683  32.960  31.325  1.00  0.00    -0.014 A 
ATOM     56  C   UNL A   1      44.234  33.974  30.521  1.00  0.00     0.010 A 
ATOM     57  C   UNL A   1      43.221  33.283  32.613  1.00  0.00     0.010 A 
ATOM     58  C   UNL A   1      44.361  35.276  31.015  1.00  0.00     0.020 A 
ATOM     59  C   UNL A   1      43.324  34.588  33.102  1.00  0.00     0.020 A 
ATOM     60  C   UNL A   1      43.913  35.574  32.306  1.00  0.00     0.054 A 
BRANCH  60  61
ATOM     61  S   UNL A   1      44.088  37.269  32.926  1.00  0.00     0.124 S 
ATOM     62  O   UNL A   1      43.090  37.303  33.994  1.00  0.00    -0.237 OA
ATOM     63  O   UNL A   1      45.479  37.310  33.367  1.00  0.00    -0.237 OA
ATOM     64  O   UNL A   1      43.782  38.097  31.762  1.00  0.00    -0.744 OA
ENDBRANCH  60  61
ENDBRANCH  41  55
BRANCH  42  65
ATOM     65  C   UNL A   1      42.479  23.649  27.768  1.00  0.00    -0.014 A 
ATOM     66  C   UNL A   1      42.723  23.423  26.402  1.00  0.00     0.010 A 
ATOM     67  C   UNL A   1      42.111  22.564  28.587  1.00  0.00     0.010 A 
ATOM     68  C   UNL A   1      42.598  22.137  25.866  1.00  0.00     0.020 A 
ATOM     69  C   UNL A   1      42.010  21.275  28.058  1.00  0.00     0.020 A 
ATOM     70  C   UNL A   1      42.246  21.070  26.698  1.00  0.00     0.054 A 
BRANCH  70  71
ATOM     71  S   UNL A   1      42.162  19.398  25.998  1.00  0.00     0.124 S 
ATOM     72  O   UNL A   1      40.733  19.249  25.742  1.00  0.00    -0.237 OA
ATOM     73  O   UNL A   1      43.008  19.507  24.811  1.00  0.00    -0.237 OA
ATOM     74  O   UNL A   1      42.702  18.554  27.062  1.00  0.00    -0.744 OA
ENDBRANCH  70  71
ENDBRANCH  42  65
BRANCH  54  75
ATOM     75  C   UNL A   1      47.990  27.327  29.965  1.00  0.00    -0.014 A 
ATOM     76  C   UNL A   1      48.874  27.611  28.909  1.00  0.00     0.010 A 
ATOM     77  C   UNL A   1      48.492  26.786  31.161  1.00  0.00     0.010 A 
ATOM     78  C   UNL A   1      50.237  27.337  29.043  1.00  0.00     0.020 A 
ATOM     79  C   UNL A   1      49.858  26.532  31.306  1.00  0.00     0.020 A 
ATOM     80  C   UNL A   1      50.719  26.799  30.240  1.00  0.00     0.054 A 
BRANCH  80  81
ATOM     81  S   UNL A   1      52.501  26.504  30.412  1.00  0.00     0.124 S 
ATOM     82  O   UNL A   1      52.958  27.754  31.012  1.00  0.00    -0.237 OA
ATOM     83  O   UNL A   1      52.552  25.332  31.282  1.00  0.00    -0.237 OA
ATOM     84  O   UNL A   1      52.946  26.272  29.039  1.00  0.00    -0.744 OA
ENDBRANCH  80  81
ENDBRANCH  54  75
ENDBRANCH  28  29
ENDBRANCH  21  23
ENDBRANCH  20  21
ENDBRANCH   1  20
TORSDOF 16
ENDMDL
