MODEL 1
REMARK VINA RESULT:     -12.0      0.000      0.000
REMARK SMILES Cc1ccc(NS(=O)(=O)c2cc(C(=O)Nc3ccccc3C(=O)OCCOC(=O)c3ccc(-c4c5nc(c(-c6ccc(S(=O)(=O)[O-])cc6)c6ccc([nH]6)c(-c6ccc(S(=O)(=O)[O-])cc6)c6nc(c(-c7ccc(S(=O)(=O)[O-])cc7)c7ccc4[nH]7)C=C6)C=C5)cc3)ccc2Br)cc1
REMARK SMILES IDX 25 1 24 2 22 3 23 4 21 5 16 6 17 7 18 8 20 9 19 10 15 11
REMARK SMILES IDX 13 12 14 13 12 15 10 16 11 17 92 18 91 19 93 20 90 21 7 22
REMARK SMILES IDX 8 23 9 24 6 25 5 27 1 28 2 29 3 30 95 31 4 32 94 33 26 34
REMARK SMILES IDX 27 35 28 36 29 37 30 38 31 39 89 40 32 41 88 42 33 43 34 44
REMARK SMILES IDX 35 45 82 46 36 47 87 48 81 49 83 50 37 51 86 52 80 53 79 54
REMARK SMILES IDX 38 56 68 57 49 58 67 59 50 60 53 61 66 62 84 63 51 64 52 65
REMARK SMILES IDX 65 67 85 68 54 69 39 70 40 71 48 72 41 73 47 74 42 75 43 76
REMARK SMILES IDX 44 77 45 78 46 79 69 80 70 81 78 82 71 83 77 84 72 85 73 86
REMARK SMILES IDX 74 87 75 88 76 89 55 90 56 91 64 92 57 93 63 94 58 95 59 96
REMARK SMILES IDX 60 97 61 98 62 99
REMARK H PARENT 15 14 6 26 83 55 53 66
REMARK Flexibility Score: inf
ROOT
ATOM      1  C   UNL A   1      42.662  27.594  24.970  1.00  0.00     0.275 C 
ENDROOT
BRANCH   1   2
ATOM      2  O   UNL A   1      43.542  28.407  25.767  1.00  0.00    -0.458 OA
BRANCH   2   3
ATOM      3  C   UNL A   1      44.743  27.778  26.512  1.00  0.00     0.340 C 
ATOM      4  O   UNL A   1      45.548  28.732  26.345  1.00  0.00    -0.246 OA
BRANCH   3   5
ATOM      5  C   UNL A   1      44.758  25.875  27.574  1.00  0.00     0.083 A 
ATOM      6  C   UNL A   1      44.427  24.110  26.957  1.00  0.00     0.056 A 
ATOM      7  C   UNL A   1      43.845  22.658  28.289  1.00  0.00     0.027 A 
ATOM      8  C   UNL A   1      43.853  22.952  30.043  1.00  0.00     0.002 A 
ATOM      9  C   UNL A   1      44.793  25.811  29.438  1.00  0.00     0.018 A 
ATOM     10  C   UNL A   1      44.326  24.500  30.577  1.00  0.00     0.001 A 
BRANCH   6  11
ATOM     11  N   UNL A   1      44.894  23.790  25.449  1.00  0.00    -0.321 N 
ATOM     12  C   UNL A   1      44.606  22.732  24.508  1.00  0.00     0.255 C 
ATOM     13  O   UNL A   1      44.443  23.012  23.317  1.00  0.00    -0.269 OA
ATOM     14  H   UNL A   1      45.514  24.465  25.088  1.00  0.00     0.170 HD
BRANCH  12  15
ATOM     15  C   UNL A   1      44.337  21.312  24.893  1.00  0.00     0.041 A 
ATOM     16  C   UNL A   1      42.540  19.954  25.914  1.00  0.00     0.102 A 
ATOM     17  C   UNL A   1      43.094  21.075  25.388  1.00  0.00     0.037 A 
ATOM     18  C   UNL A   1      43.418  18.920  26.130  1.00  0.00     0.038 A 
ATOM     19  C   UNL A   1      44.740  19.045  25.613  1.00  0.00     0.018 A 
ATOM     20  Br  UNL A   1      43.020  17.490  27.299  1.00  0.00    -0.049 Br
ATOM     21  C   UNL A   1      45.183  20.223  24.930  1.00  0.00     0.015 A 
BRANCH  16  22
ATOM     22  S   UNL A   1      40.862  20.169  26.387  1.00  0.00     0.263 S 
ATOM     23  O   UNL A   1      40.808  20.317  27.827  1.00  0.00    -0.201 OA
ATOM     24  O   UNL A   1      40.117  19.095  25.762  1.00  0.00    -0.201 OA
BRANCH  22  25
ATOM     25  N   UNL A   1      40.141  21.643  25.745  1.00  0.00    -0.280 N 
ATOM     26  H   UNL A   1      40.786  22.293  25.383  1.00  0.00     0.180 HD
BRANCH  25  27
ATOM     27  C   UNL A   1      38.629  22.094  25.654  1.00  0.00     0.049 A 
ATOM     28  C   UNL A   1      33.555  22.352  24.946  1.00  0.00     0.044 C 
ATOM     29  C   UNL A   1      34.996  22.211  25.353  1.00  0.00    -0.051 A 
ATOM     30  C   UNL A   1      35.903  20.718  24.994  1.00  0.00     0.005 A 
ATOM     31  C   UNL A   1      35.733  23.669  25.962  1.00  0.00     0.005 A 
ATOM     32  C   UNL A   1      37.676  20.616  25.141  1.00  0.00     0.027 A 
ATOM     33  C   UNL A   1      37.515  23.710  26.162  1.00  0.00     0.027 A 
ENDBRANCH  25  27
ENDBRANCH  22  25
ENDBRANCH  16  22
ENDBRANCH  12  15
ENDBRANCH   6  11
ENDBRANCH   3   5
ENDBRANCH   2   3
ENDBRANCH   1   2
BRANCH   1  34
ATOM     34  C   UNL A   1      41.489  27.100  25.811  1.00  0.00     0.275 C 
BRANCH  34  35
ATOM     35  O   UNL A   1      40.558  28.100  26.222  1.00  0.00    -0.458 OA
BRANCH  35  36
ATOM     36  C   UNL A   1      40.004  28.319  27.423  1.00  0.00     0.338 C 
ATOM     37  O   UNL A   1      39.324  29.324  27.554  1.00  0.00    -0.246 OA
BRANCH  36  38
ATOM     38  C   UNL A   1      40.336  27.527  28.665  1.00  0.00     0.060 A 
ATOM     39  C   UNL A   1      38.858  27.661  29.700  1.00  0.00     0.016 A 
ATOM     40  C   UNL A   1      41.955  27.607  29.457  1.00  0.00     0.016 A 
ATOM     41  C   UNL A   1      38.972  28.017  31.473  1.00  0.00     0.010 A 
ATOM     42  C   UNL A   1      42.059  28.078  31.244  1.00  0.00     0.010 A 
ATOM     43  C   UNL A   1      40.547  28.315  32.203  1.00  0.00    -0.014 A 
BRANCH  43  44
ATOM     44  C   UNL A   1      40.697  29.457  33.129  1.00  0.00     0.031 A 
ATOM     45  C   UNL A   1      41.235  28.999  34.426  1.00  0.00     0.074 A 
ATOM     46  C   UNL A   1      40.692  30.711  32.564  1.00  0.00     0.049 A 
ATOM     47  N   UNL A   1      41.323  29.693  35.490  1.00  0.00    -0.248 NA
ATOM     48  C   UNL A   1      41.650  27.611  34.710  1.00  0.00     0.031 C 
ATOM     49  C   UNL A   1      41.406  31.960  32.863  1.00  0.00     0.029 A 
ATOM     50  N   UNL A   1      39.844  31.138  31.525  1.00  0.00    -0.354 N 
ATOM     51  C   UNL A   1      42.298  29.074  36.251  1.00  0.00     0.074 A 
ATOM     52  C   UNL A   1      42.279  27.701  35.879  1.00  0.00     0.031 C 
ATOM     53  C   UNL A   1      40.790  33.010  32.270  1.00  0.00     0.029 A 
ATOM     54  C   UNL A   1      39.616  32.519  31.566  1.00  0.00     0.049 A 
ATOM     55  H   UNL A   1      39.457  30.537  30.848  1.00  0.00     0.167 HD
ATOM     56  C   UNL A   1      43.182  29.876  36.897  1.00  0.00     0.031 A 
ATOM     57  C   UNL A   1      38.341  32.948  31.802  1.00  0.00     0.031 A 
ATOM     58  C   UNL A   1      42.769  31.269  36.704  1.00  0.00     0.049 A 
ATOM     59  C   UNL A   1      38.170  33.150  33.288  1.00  0.00     0.074 A 
ATOM     60  C   UNL A   1      43.210  32.293  35.888  1.00  0.00     0.029 A 
ATOM     61  N   UNL A   1      41.462  31.588  37.047  1.00  0.00    -0.354 N 
ATOM     62  N   UNL A   1      38.986  32.637  34.174  1.00  0.00    -0.248 NA
ATOM     63  C   UNL A   1      37.212  34.078  33.876  1.00  0.00     0.031 C 
ATOM     64  C   UNL A   1      42.096  33.177  35.675  1.00  0.00     0.029 A 
ATOM     65  C   UNL A   1      40.980  32.659  36.319  1.00  0.00     0.049 A 
ATOM     66  H   UNL A   1      40.940  31.107  37.729  1.00  0.00     0.167 HD
ATOM     67  C   UNL A   1      38.789  33.234  35.377  1.00  0.00     0.074 A 
ATOM     68  C   UNL A   1      37.650  34.114  35.147  1.00  0.00     0.031 C 
ATOM     69  C   UNL A   1      39.573  33.033  36.479  1.00  0.00     0.031 A 
BRANCH  56  70
ATOM     70  C   UNL A   1      44.494  29.462  37.503  1.00  0.00    -0.014 A 
ATOM     71  C   UNL A   1      44.905  30.164  38.651  1.00  0.00     0.010 A 
ATOM     72  C   UNL A   1      45.365  28.449  37.043  1.00  0.00     0.010 A 
ATOM     73  C   UNL A   1      46.087  29.862  39.329  1.00  0.00     0.020 A 
ATOM     74  C   UNL A   1      46.557  28.127  37.721  1.00  0.00     0.020 A 
ATOM     75  C   UNL A   1      46.901  28.833  38.870  1.00  0.00     0.054 A 
BRANCH  75  76
ATOM     76  S   UNL A   1      48.378  28.428  39.834  1.00  0.00     0.124 S 
ATOM     77  O   UNL A   1      48.428  29.520  40.802  1.00  0.00    -0.237 OA
ATOM     78  O   UNL A   1      48.042  27.116  40.381  1.00  0.00    -0.237 OA
ATOM     79  O   UNL A   1      49.453  28.429  38.842  1.00  0.00    -0.744 OA
ENDBRANCH  75  76
ENDBRANCH  56  70
BRANCH  57  80
ATOM     80  C   UNL A   1      37.377  32.429  30.778  1.00  0.00    -0.014 A 
ATOM     81  C   UNL A   1      36.050  32.240  31.234  1.00  0.00     0.010 A 
ATOM     82  C   UNL A   1      37.572  32.689  29.411  1.00  0.00     0.010 A 
ATOM     83  C   UNL A   1      34.957  32.549  30.418  1.00  0.00     0.020 A 
ATOM     84  C   UNL A   1      36.471  33.005  28.588  1.00  0.00     0.020 A 
ATOM     85  C   UNL A   1      35.177  32.989  29.117  1.00  0.00     0.054 A 
BRANCH  85  86
ATOM     86  S   UNL A   1      33.763  33.692  28.218  1.00  0.00     0.124 S 
ATOM     87  O   UNL A   1      34.411  34.606  27.283  1.00  0.00    -0.237 OA
ATOM     88  O   UNL A   1      33.156  32.508  27.618  1.00  0.00    -0.237 OA
ATOM     89  O   UNL A   1      32.996  34.331  29.277  1.00  0.00    -0.744 OA
ENDBRANCH  85  86
ENDBRANCH  57  80
BRANCH  69  90
ATOM     90  C   UNL A   1      39.016  33.201  37.869  1.00  0.00    -0.014 A 
ATOM     91  C   UNL A   1      39.408  34.238  38.726  1.00  0.00     0.010 A 
ATOM     92  C   UNL A   1      37.958  32.375  38.312  1.00  0.00     0.010 A 
ATOM     93  C   UNL A   1      38.918  34.323  40.023  1.00  0.00     0.020 A 
ATOM     94  C   UNL A   1      37.366  32.533  39.557  1.00  0.00     0.020 A 
ATOM     95  C   UNL A   1      37.907  33.460  40.432  1.00  0.00     0.054 A 
BRANCH  95  96
ATOM     96  S   UNL A   1      37.328  33.554  42.128  1.00  0.00     0.124 S 
ATOM     97  O   UNL A   1      36.269  32.549  42.130  1.00  0.00    -0.237 OA
ATOM     98  O   UNL A   1      38.527  33.206  42.889  1.00  0.00    -0.237 OA
ATOM     99  O   UNL A   1      36.883  34.937  42.266  1.00  0.00    -0.744 OA
ENDBRANCH  95  96
ENDBRANCH  69  90
ENDBRANCH  43  44
ENDBRANCH  36  38
ENDBRANCH  35  36
ENDBRANCH  34  35
ENDBRANCH   1  34
TORSDOF 19
ENDMDL
MODEL 2
REMARK VINA RESULT:     -12.0      5.617     12.702
REMARK SMILES Cc1ccc(NS(=O)(=O)c2cc(C(=O)Nc3ccccc3C(=O)OCCOC(=O)c3ccc(-c4c5nc(c(-c6ccc(S(=O)(=O)[O-])cc6)c6ccc([nH]6)c(-c6ccc(S(=O)(=O)[O-])cc6)c6nc(c(-c7ccc(S(=O)(=O)[O-])cc7)c7ccc4[nH]7)C=C6)C=C5)cc3)ccc2Br)cc1
REMARK SMILES IDX 25 1 24 2 22 3 23 4 21 5 16 6 17 7 18 8 20 9 19 10 15 11
REMARK SMILES IDX 13 12 14 13 12 15 10 16 11 17 92 18 91 19 93 20 90 21 7 22
REMARK SMILES IDX 8 23 9 24 6 25 5 27 1 28 2 29 3 30 95 31 4 32 94 33 26 34
REMARK SMILES IDX 27 35 28 36 29 37 30 38 31 39 89 40 32 41 88 42 33 43 34 44
REMARK SMILES IDX 35 45 82 46 36 47 87 48 81 49 83 50 37 51 86 52 80 53 79 54
REMARK SMILES IDX 38 56 68 57 49 58 67 59 50 60 53 61 66 62 84 63 51 64 52 65
REMARK SMILES IDX 65 67 85 68 54 69 39 70 40 71 48 72 41 73 47 74 42 75 43 76
REMARK SMILES IDX 44 77 45 78 46 79 69 80 70 81 78 82 71 83 77 84 72 85 73 86
REMARK SMILES IDX 74 87 75 88 76 89 55 90 56 91 64 92 57 93 63 94 58 95 59 96
REMARK SMILES IDX 60 97 61 98 62 99
REMARK H PARENT 15 14 6 26 83 55 53 66
REMARK Flexibility Score: inf
ROOT
ATOM      1  C   UNL A   1      37.365  32.443  33.907  1.00  0.00     0.275 C 
ENDROOT
BRANCH   1   2
ATOM      2  O   UNL A   1      37.241  31.049  33.568  1.00  0.00    -0.458 OA
BRANCH   2   3
ATOM      3  C   UNL A   1      36.461  30.608  32.308  1.00  0.00     0.340 C 
ATOM      4  O   UNL A   1      36.704  29.376  32.397  1.00  0.00    -0.246 OA
BRANCH   3   5
ATOM      5  C   UNL A   1      35.259  31.885  31.014  1.00  0.00     0.083 A 
ATOM      6  C   UNL A   1      35.008  31.854  29.132  1.00  0.00     0.056 A 
ATOM      7  C   UNL A   1      34.396  33.557  28.158  1.00  0.00     0.027 A 
ATOM      8  C   UNL A   1      33.881  35.004  29.055  1.00  0.00     0.002 A 
ATOM      9  C   UNL A   1      34.530  33.483  31.642  1.00  0.00     0.018 A 
ATOM     10  C   UNL A   1      33.952  34.938  30.757  1.00  0.00     0.001 A 
BRANCH   6  11
ATOM     11  N   UNL A   1      35.028  30.399  28.441  1.00  0.00    -0.321 N 
ATOM     12  C   UNL A   1      34.393  29.830  27.275  1.00  0.00     0.255 C 
ATOM     13  O   UNL A   1      35.034  29.060  26.554  1.00  0.00    -0.269 OA
ATOM     14  H   UNL A   1      35.599  29.755  28.919  1.00  0.00     0.170 HD
BRANCH  12  15
ATOM     15  C   UNL A   1      33.038  30.221  26.777  1.00  0.00     0.041 A 
ATOM     16  C   UNL A   1      31.470  29.642  24.954  1.00  0.00     0.102 A 
ATOM     17  C   UNL A   1      32.587  29.508  25.712  1.00  0.00     0.037 A 
ATOM     18  C   UNL A   1      30.739  30.780  25.196  1.00  0.00     0.038 A 
ATOM     19  C   UNL A   1      31.098  31.582  26.319  1.00  0.00     0.018 A 
ATOM     20  Br  UNL A   1      29.476  31.447  23.958  1.00  0.00    -0.049 Br
ATOM     21  C   UNL A   1      32.216  31.262  27.155  1.00  0.00     0.015 A 
BRANCH  16  22
ATOM     22  S   UNL A   1      31.339  28.425  23.695  1.00  0.00     0.263 S 
ATOM     23  O   UNL A   1      31.196  29.099  22.421  1.00  0.00    -0.201 OA
ATOM     24  O   UNL A   1      30.308  27.501  24.121  1.00  0.00    -0.201 OA
BRANCH  22  25
ATOM     25  N   UNL A   1      32.785  27.433  23.532  1.00  0.00    -0.280 N 
ATOM     26  H   UNL A   1      33.613  27.937  23.358  1.00  0.00     0.180 HD
BRANCH  25  27
ATOM     27  C   UNL A   1      32.974  25.866  23.618  1.00  0.00     0.049 A 
ATOM     28  C   UNL A   1      34.464  21.098  24.783  1.00  0.00     0.044 C 
ATOM     29  C   UNL A   1      33.883  22.473  24.599  1.00  0.00    -0.051 A 
ATOM     30  C   UNL A   1      34.623  23.890  25.390  1.00  0.00     0.005 A 
ATOM     31  C   UNL A   1      32.622  22.581  23.399  1.00  0.00     0.005 A 
ATOM     32  C   UNL A   1      34.197  25.563  24.949  1.00  0.00     0.027 A 
ATOM     33  C   UNL A   1      32.091  24.207  22.858  1.00  0.00     0.027 A 
ENDBRANCH  25  27
ENDBRANCH  22  25
ENDBRANCH  16  22
ENDBRANCH  12  15
ENDBRANCH   6  11
ENDBRANCH   3   5
ENDBRANCH   2   3
ENDBRANCH   1   2
BRANCH   1  34
ATOM     34  C   UNL A   1      38.709  32.986  33.432  1.00  0.00     0.275 C 
BRANCH  34  35
ATOM     35  O   UNL A   1      38.904  33.006  32.019  1.00  0.00    -0.458 OA
BRANCH  35  36
ATOM     36  C   UNL A   1      39.767  32.315  31.259  1.00  0.00     0.338 C 
ATOM     37  O   UNL A   1      40.260  32.891  30.303  1.00  0.00    -0.246 OA
BRANCH  36  38
ATOM     38  C   UNL A   1      40.001  30.829  31.384  1.00  0.00     0.060 A 
ATOM     39  C   UNL A   1      41.625  30.688  32.170  1.00  0.00     0.016 A 
ATOM     40  C   UNL A   1      39.576  29.670  30.068  1.00  0.00     0.016 A 
ATOM     41  C   UNL A   1      42.872  29.518  31.569  1.00  0.00     0.010 A 
ATOM     42  C   UNL A   1      40.890  28.556  29.392  1.00  0.00     0.010 A 
ATOM     43  C   UNL A   1      42.534  28.542  30.143  1.00  0.00    -0.014 A 
BRANCH  43  44
ATOM     44  C   UNL A   1      43.575  28.420  29.102  1.00  0.00     0.031 A 
ATOM     45  C   UNL A   1      44.090  27.037  29.049  1.00  0.00     0.074 A 
ATOM     46  C   UNL A   1      43.620  29.419  28.158  1.00  0.00     0.049 A 
ATOM     47  N   UNL A   1      45.102  26.637  28.388  1.00  0.00    -0.248 NA
ATOM     48  C   UNL A   1      43.561  25.922  29.860  1.00  0.00     0.031 C 
ATOM     49  C   UNL A   1      43.924  29.443  26.720  1.00  0.00     0.029 A 
ATOM     50  N   UNL A   1      43.456  30.794  28.411  1.00  0.00    -0.354 N 
ATOM     51  C   UNL A   1      44.916  25.276  28.221  1.00  0.00     0.074 A 
ATOM     52  C   UNL A   1      44.134  24.844  29.329  1.00  0.00     0.031 C 
ATOM     53  C   UNL A   1      44.202  30.705  26.316  1.00  0.00     0.029 A 
ATOM     54  C   UNL A   1      44.126  31.586  27.470  1.00  0.00     0.049 A 
ATOM     55  H   UNL A   1      42.932  31.157  29.162  1.00  0.00     0.167 HD
ATOM     56  C   UNL A   1      45.222  24.752  27.008  1.00  0.00     0.031 A 
ATOM     57  C   UNL A   1      45.154  32.369  27.912  1.00  0.00     0.031 A 
ATOM     58  C   UNL A   1      45.820  25.809  26.186  1.00  0.00     0.049 A 
ATOM     59  C   UNL A   1      46.441  31.593  27.772  1.00  0.00     0.074 A 
ATOM     60  C   UNL A   1      45.348  26.605  25.160  1.00  0.00     0.029 A 
ATOM     61  N   UNL A   1      46.905  26.484  26.727  1.00  0.00    -0.354 N 
ATOM     62  N   UNL A   1      46.476  30.294  27.613  1.00  0.00    -0.248 NA
ATOM     63  C   UNL A   1      47.750  32.214  27.605  1.00  0.00     0.031 C 
ATOM     64  C   UNL A   1      46.121  27.817  25.173  1.00  0.00     0.029 A 
ATOM     65  C   UNL A   1      47.017  27.769  26.232  1.00  0.00     0.049 A 
ATOM     66  H   UNL A   1      47.523  26.093  27.387  1.00  0.00     0.167 HD
ATOM     67  C   UNL A   1      47.711  29.915  27.197  1.00  0.00     0.074 A 
ATOM     68  C   UNL A   1      48.482  31.151  27.229  1.00  0.00     0.031 C 
ATOM     69  C   UNL A   1      48.040  28.648  26.803  1.00  0.00     0.031 A 
BRANCH  56  70
ATOM     70  C   UNL A   1      44.813  23.404  26.481  1.00  0.00    -0.014 A 
ATOM     71  C   UNL A   1      45.758  22.726  25.691  1.00  0.00     0.010 A 
ATOM     72  C   UNL A   1      43.580  22.747  26.688  1.00  0.00     0.010 A 
ATOM     73  C   UNL A   1      45.518  21.456  25.164  1.00  0.00     0.020 A 
ATOM     74  C   UNL A   1      43.326  21.462  26.169  1.00  0.00     0.020 A 
ATOM     75  C   UNL A   1      44.307  20.821  25.420  1.00  0.00     0.054 A 
BRANCH  75  76
ATOM     76  S   UNL A   1      44.081  19.142  24.783  1.00  0.00     0.124 S 
ATOM     77  O   UNL A   1      42.665  18.899  25.041  1.00  0.00    -0.237 OA
ATOM     78  O   UNL A   1      44.449  19.291  23.377  1.00  0.00    -0.237 OA
ATOM     79  O   UNL A   1      45.004  18.339  25.583  1.00  0.00    -0.744 OA
ENDBRANCH  75  76
ENDBRANCH  56  70
BRANCH  57  80
ATOM     80  C   UNL A   1      44.713  33.327  28.977  1.00  0.00    -0.014 A 
ATOM     81  C   UNL A   1      45.755  33.967  29.688  1.00  0.00     0.010 A 
ATOM     82  C   UNL A   1      43.478  33.992  28.877  1.00  0.00     0.010 A 
ATOM     83  C   UNL A   1      45.653  35.312  30.060  1.00  0.00     0.020 A 
ATOM     84  C   UNL A   1      43.375  35.349  29.248  1.00  0.00     0.020 A 
ATOM     85  C   UNL A   1      44.485  36.012  29.782  1.00  0.00     0.054 A 
BRANCH  85  86
ATOM     86  S   UNL A   1      44.522  37.818  29.975  1.00  0.00     0.124 S 
ATOM     87  O   UNL A   1      43.454  38.250  29.079  1.00  0.00    -0.237 OA
ATOM     88  O   UNL A   1      44.251  37.985  31.399  1.00  0.00    -0.237 OA
ATOM     89  O   UNL A   1      45.869  38.159  29.541  1.00  0.00    -0.744 OA
ENDBRANCH  85  86
ENDBRANCH  57  80
BRANCH  69  90
ATOM     90  C   UNL A   1      49.452  28.138  26.934  1.00  0.00    -0.014 A 
ATOM     91  C   UNL A   1      50.159  27.571  25.865  1.00  0.00     0.010 A 
ATOM     92  C   UNL A   1      50.168  28.340  28.135  1.00  0.00     0.010 A 
ATOM     93  C   UNL A   1      51.437  27.055  26.041  1.00  0.00     0.020 A 
ATOM     94  C   UNL A   1      51.491  27.948  28.284  1.00  0.00     0.020 A 
ATOM     95  C   UNL A   1      52.088  27.238  27.256  1.00  0.00     0.054 A 
BRANCH  95  96
ATOM     96  S   UNL A   1      53.716  26.515  27.477  1.00  0.00     0.124 S 
ATOM     97  O   UNL A   1      53.796  26.419  28.932  1.00  0.00    -0.237 OA
ATOM     98  O   UNL A   1      53.594  25.242  26.768  1.00  0.00    -0.237 OA
ATOM     99  O   UNL A   1      54.614  27.487  26.860  1.00  0.00    -0.744 OA
ENDBRANCH  95  96
ENDBRANCH  69  90
ENDBRANCH  43  44
ENDBRANCH  36  38
ENDBRANCH  35  36
ENDBRANCH  34  35
ENDBRANCH   1  34
TORSDOF 19
ENDMDL
MODEL 3
REMARK VINA RESULT:     -11.8      3.971      6.820
REMARK SMILES Cc1ccc(NS(=O)(=O)c2cc(C(=O)Nc3ccccc3C(=O)OCCOC(=O)c3ccc(-c4c5nc(c(-c6ccc(S(=O)(=O)[O-])cc6)c6ccc([nH]6)c(-c6ccc(S(=O)(=O)[O-])cc6)c6nc(c(-c7ccc(S(=O)(=O)[O-])cc7)c7ccc4[nH]7)C=C6)C=C5)cc3)ccc2Br)cc1
REMARK SMILES IDX 25 1 24 2 22 3 23 4 21 5 16 6 17 7 18 8 20 9 19 10 15 11
REMARK SMILES IDX 13 12 14 13 12 15 10 16 11 17 92 18 91 19 93 20 90 21 7 22
REMARK SMILES IDX 8 23 9 24 6 25 5 27 1 28 2 29 3 30 95 31 4 32 94 33 26 34
REMARK SMILES IDX 27 35 28 36 29 37 30 38 31 39 89 40 32 41 88 42 33 43 34 44
REMARK SMILES IDX 35 45 82 46 36 47 87 48 81 49 83 50 37 51 86 52 80 53 79 54
REMARK SMILES IDX 38 56 68 57 49 58 67 59 50 60 53 61 66 62 84 63 51 64 52 65
REMARK SMILES IDX 65 67 85 68 54 69 39 70 40 71 48 72 41 73 47 74 42 75 43 76
REMARK SMILES IDX 44 77 45 78 46 79 69 80 70 81 78 82 71 83 77 84 72 85 73 86
REMARK SMILES IDX 74 87 75 88 76 89 55 90 56 91 64 92 57 93 63 94 58 95 59 96
REMARK SMILES IDX 60 97 61 98 62 99
REMARK H PARENT 15 14 6 26 83 55 53 66
REMARK Flexibility Score: inf
ROOT
ATOM      1  C   UNL A   1      40.812  26.602  26.149  1.00  0.00     0.275 C 
ENDROOT
BRANCH   1   2
ATOM      2  O   UNL A   1      41.697  27.693  25.834  1.00  0.00    -0.458 OA
BRANCH   2   3
ATOM      3  C   UNL A   1      43.106  27.775  26.466  1.00  0.00     0.340 C 
ATOM      4  O   UNL A   1      43.463  28.848  25.912  1.00  0.00    -0.246 OA
BRANCH   3   5
ATOM      5  C   UNL A   1      43.944  26.415  27.949  1.00  0.00     0.083 A 
ATOM      6  C   UNL A   1      44.763  24.714  27.745  1.00  0.00     0.056 A 
ATOM      7  C   UNL A   1      44.816  23.413  29.335  1.00  0.00     0.027 A 
ATOM      8  C   UNL A   1      44.309  23.917  30.964  1.00  0.00     0.002 A 
ATOM      9  C   UNL A   1      43.633  26.664  29.771  1.00  0.00     0.018 A 
ATOM     10  C   UNL A   1      43.740  25.514  31.149  1.00  0.00     0.001 A 
BRANCH   6  11
ATOM     11  N   UNL A   1      45.621  24.501  26.399  1.00  0.00    -0.321 N 
ATOM     12  C   UNL A   1      45.431  23.722  25.197  1.00  0.00     0.255 C 
ATOM     13  O   UNL A   1      45.743  24.210  24.107  1.00  0.00    -0.269 OA
ATOM     14  H   UNL A   1      46.461  25.014  26.395  1.00  0.00     0.170 HD
BRANCH  12  15
ATOM     15  C   UNL A   1      44.735  22.400  25.150  1.00  0.00     0.041 A 
ATOM     16  C   UNL A   1      42.678  21.332  26.013  1.00  0.00     0.102 A 
ATOM     17  C   UNL A   1      43.530  22.360  25.776  1.00  0.00     0.037 A 
ATOM     18  C   UNL A   1      43.173  20.087  25.708  1.00  0.00     0.038 A 
ATOM     19  C   UNL A   1      44.413  20.012  25.009  1.00  0.00     0.018 A 
ATOM     20  Br  UNL A   1      42.418  18.504  26.410  1.00  0.00    -0.049 Br
ATOM     21  C   UNL A   1      45.166  21.181  24.668  1.00  0.00     0.015 A 
BRANCH  16  22
ATOM     22  S   UNL A   1      41.214  21.825  26.850  1.00  0.00     0.263 S 
ATOM     23  O   UNL A   1      41.103  23.267  26.766  1.00  0.00    -0.201 OA
ATOM     24  O   UNL A   1      41.256  21.198  28.155  1.00  0.00    -0.201 OA
BRANCH  22  25
ATOM     25  N   UNL A   1      39.743  21.205  26.105  1.00  0.00    -0.280 N 
ATOM     26  H   UNL A   1      39.766  20.244  25.886  1.00  0.00     0.180 HD
BRANCH  25  27
ATOM     27  C   UNL A   1      38.393  21.934  25.729  1.00  0.00     0.049 A 
ATOM     28  C   UNL A   1      33.663  23.120  24.138  1.00  0.00     0.044 C 
ATOM     29  C   UNL A   1      34.959  22.735  24.796  1.00  0.00    -0.051 A 
ATOM     30  C   UNL A   1      35.581  21.068  24.678  1.00  0.00     0.005 A 
ATOM     31  C   UNL A   1      35.876  24.068  25.447  1.00  0.00     0.005 A 
ATOM     32  C   UNL A   1      37.247  20.633  25.136  1.00  0.00     0.027 A 
ATOM     33  C   UNL A   1      37.573  23.775  25.950  1.00  0.00     0.027 A 
ENDBRANCH  25  27
ENDBRANCH  22  25
ENDBRANCH  16  22
ENDBRANCH  12  15
ENDBRANCH   6  11
ENDBRANCH   3   5
ENDBRANCH   2   3
ENDBRANCH   1   2
BRANCH   1  34
ATOM     34  C   UNL A   1      40.259  26.758  27.562  1.00  0.00     0.275 C 
BRANCH  34  35
ATOM     35  O   UNL A   1      39.848  28.075  27.924  1.00  0.00    -0.458 OA
BRANCH  35  36
ATOM     36  C   UNL A   1      40.230  28.844  28.954  1.00  0.00     0.338 C 
ATOM     37  O   UNL A   1      41.414  29.129  29.035  1.00  0.00    -0.246 OA
BRANCH  36  38
ATOM     38  C   UNL A   1      39.338  29.197  30.120  1.00  0.00     0.060 A 
ATOM     39  C   UNL A   1      38.933  30.943  29.871  1.00  0.00     0.016 A 
ATOM     40  C   UNL A   1      39.667  28.619  31.798  1.00  0.00     0.016 A 
ATOM     41  C   UNL A   1      38.995  32.135  31.234  1.00  0.00     0.010 A 
ATOM     42  C   UNL A   1      39.834  29.860  33.160  1.00  0.00     0.010 A 
ATOM     43  C   UNL A   1      39.531  31.610  32.827  1.00  0.00    -0.014 A 
BRANCH  43  44
ATOM     44  C   UNL A   1      40.498  32.450  33.564  1.00  0.00     0.031 A 
ATOM     45  C   UNL A   1      39.789  33.378  34.467  1.00  0.00     0.074 A 
ATOM     46  C   UNL A   1      41.800  32.007  33.593  1.00  0.00     0.049 A 
ATOM     47  N   UNL A   1      40.310  34.345  35.111  1.00  0.00    -0.248 NA
ATOM     48  C   UNL A   1      38.326  33.388  34.666  1.00  0.00     0.031 C 
ATOM     49  C   UNL A   1      42.863  32.049  34.607  1.00  0.00     0.029 A 
ATOM     50  N   UNL A   1      42.497  31.439  32.510  1.00  0.00    -0.354 N 
ATOM     51  C   UNL A   1      39.443  34.596  36.159  1.00  0.00     0.074 A 
ATOM     52  C   UNL A   1      38.154  34.193  35.712  1.00  0.00     0.031 C 
ATOM     53  C   UNL A   1      44.070  31.823  34.036  1.00  0.00     0.029 A 
ATOM     54  C   UNL A   1      43.879  31.647  32.606  1.00  0.00     0.049 A 
ATOM     55  H   UNL A   1      42.064  30.954  31.771  1.00  0.00     0.167 HD
ATOM     56  C   UNL A   1      39.994  34.859  37.371  1.00  0.00     0.031 A 
ATOM     57  C   UNL A   1      44.476  32.414  31.647  1.00  0.00     0.031 A 
ATOM     58  C   UNL A   1      41.449  34.931  37.211  1.00  0.00     0.049 A 
ATOM     59  C   UNL A   1      44.503  33.845  32.126  1.00  0.00     0.074 A 
ATOM     60  C   UNL A   1      42.486  34.062  37.492  1.00  0.00     0.029 A 
ATOM     61  N   UNL A   1      41.930  35.803  36.245  1.00  0.00    -0.354 N 
ATOM     62  N   UNL A   1      43.749  34.283  33.103  1.00  0.00    -0.248 NA
ATOM     63  C   UNL A   1      45.489  34.828  31.695  1.00  0.00     0.031 C 
ATOM     64  C   UNL A   1      43.562  34.380  36.593  1.00  0.00     0.029 A 
ATOM     65  C   UNL A   1      43.153  35.400  35.744  1.00  0.00     0.049 A 
ATOM     66  H   UNL A   1      41.455  36.614  35.950  1.00  0.00     0.167 HD
ATOM     67  C   UNL A   1      44.203  35.489  33.529  1.00  0.00     0.074 A 
ATOM     68  C   UNL A   1      45.281  35.801  32.599  1.00  0.00     0.031 C 
ATOM     69  C   UNL A   1      43.730  36.151  34.626  1.00  0.00     0.031 A 
BRANCH  56  70
ATOM     70  C   UNL A   1      39.292  34.841  38.701  1.00  0.00    -0.014 A 
ATOM     71  C   UNL A   1      38.648  33.641  39.054  1.00  0.00     0.010 A 
ATOM     72  C   UNL A   1      39.202  35.899  39.632  1.00  0.00     0.010 A 
ATOM     73  C   UNL A   1      37.984  33.480  40.272  1.00  0.00     0.020 A 
ATOM     74  C   UNL A   1      38.542  35.749  40.868  1.00  0.00     0.020 A 
ATOM     75  C   UNL A   1      37.948  34.530  41.181  1.00  0.00     0.054 A 
BRANCH  75  76
ATOM     76  S   UNL A   1      37.147  34.240  42.778  1.00  0.00     0.124 S 
ATOM     77  O   UNL A   1      37.446  35.470  43.505  1.00  0.00    -0.237 OA
ATOM     78  O   UNL A   1      35.749  34.057  42.396  1.00  0.00    -0.237 OA
ATOM     79  O   UNL A   1      37.811  33.041  43.288  1.00  0.00    -0.744 OA
ENDBRANCH  75  76
ENDBRANCH  56  70
BRANCH  57  80
ATOM     80  C   UNL A   1      44.266  31.858  30.271  1.00  0.00    -0.014 A 
ATOM     81  C   UNL A   1      43.720  32.761  29.328  1.00  0.00     0.010 A 
ATOM     82  C   UNL A   1      45.067  30.809  29.790  1.00  0.00     0.010 A 
ATOM     83  C   UNL A   1      44.161  32.769  28.000  1.00  0.00     0.020 A 
ATOM     84  C   UNL A   1      45.515  30.818  28.453  1.00  0.00     0.020 A 
ATOM     85  C   UNL A   1      45.103  31.835  27.586  1.00  0.00     0.054 A 
BRANCH  85  86
ATOM     86  S   UNL A   1      45.886  32.093  25.967  1.00  0.00     0.124 S 
ATOM     87  O   UNL A   1      46.226  30.732  25.565  1.00  0.00    -0.237 OA
ATOM     88  O   UNL A   1      44.817  32.724  25.201  1.00  0.00    -0.237 OA
ATOM     89  O   UNL A   1      47.022  32.943  26.293  1.00  0.00    -0.744 OA
ENDBRANCH  85  86
ENDBRANCH  57  80
BRANCH  69  90
ATOM     90  C   UNL A   1      43.800  37.654  34.715  1.00  0.00    -0.014 A 
ATOM     91  C   UNL A   1      44.529  38.325  35.706  1.00  0.00     0.010 A 
ATOM     92  C   UNL A   1      43.226  38.451  33.699  1.00  0.00     0.010 A 
ATOM     93  C   UNL A   1      44.519  39.712  35.792  1.00  0.00     0.020 A 
ATOM     94  C   UNL A   1      43.320  39.835  33.699  1.00  0.00     0.020 A 
ATOM     95  C   UNL A   1      43.903  40.456  34.792  1.00  0.00     0.054 A 
BRANCH  95  96
ATOM     96  S   UNL A   1      43.855  42.242  34.954  1.00  0.00     0.124 S 
ATOM     97  O   UNL A   1      44.930  42.645  34.051  1.00  0.00    -0.237 OA
ATOM     98  O   UNL A   1      42.502  42.563  34.504  1.00  0.00    -0.237 OA
ATOM     99  O   UNL A   1      44.109  42.469  36.373  1.00  0.00    -0.744 OA
ENDBRANCH  95  96
ENDBRANCH  69  90
ENDBRANCH  43  44
ENDBRANCH  36  38
ENDBRANCH  35  36
ENDBRANCH  34  35
ENDBRANCH   1  34
TORSDOF 19
ENDMDL
