MODEL 1
REMARK VINA RESULT:      -8.1      0.000      0.000
REMARK SMILES COc1ccccc1C(=O)N/C(=C/c1ccc2c(c1)OCO2)C(=O)Nc1ccc(C(=O)OCCOC(=O)c2ccc(-c3c4nc(c(-c5ccc(S(=O)(=O)[O-])cc5)c5ccc([nH]5)c(-c5ccc(S(=O)(=O)[O-])cc5)c5nc(c(-c6ccc(S(=O)(=O)[O-])cc6)c6ccc3[nH]6)C=C5)C=C4)cc2)cc1
REMARK SMILES IDX 33 1 32 2 30 3 31 4 29 5 26 6 27 7 99 8 28 9 98 10 25 11
REMARK SMILES IDX 23 12 24 13 12 15 13 16 11 17 9 18 10 19 8 21 3 22 4 23 5 24
REMARK SMILES IDX 7 25 6 26 2 27 1 28 14 29 15 30 19 31 16 32 18 33 17 34
REMARK SMILES IDX 20 35 22 36 21 37 34 38 35 39 36 40 37 41 38 42 39 43 97 44
REMARK SMILES IDX 40 45 96 46 41 47 42 48 43 49 90 50 44 51 95 52 89 53 91 54
REMARK SMILES IDX 45 55 94 56 88 57 87 58 46 60 76 61 57 62 75 63 58 64 61 65
REMARK SMILES IDX 74 66 92 67 59 68 60 69 73 71 93 72 62 73 47 74 48 75 56 76
REMARK SMILES IDX 49 77 55 78 50 79 51 80 52 81 53 82 54 83 77 84 78 85 86 86
REMARK SMILES IDX 79 87 85 88 80 89 81 90 82 91 83 92 84 93 63 94 64 95 72 96
REMARK SMILES IDX 65 97 71 98 66 99 67 100 68 101 69 102 70 103
REMARK H PARENT 25 14 11 20 91 59 61 70
REMARK Flexibility Score: inf
ROOT
ATOM      1  C   UNL A   1      43.777  22.966  25.162  1.00  0.00     0.275 C 
ENDROOT
BRANCH   1   2
ATOM      2  O   UNL A   1      44.020  23.035  26.581  1.00  0.00    -0.458 OA
BRANCH   2   3
ATOM      3  C   UNL A   1      42.929  22.850  27.360  1.00  0.00     0.338 C 
ATOM      4  O   UNL A   1      42.508  21.790  27.792  1.00  0.00    -0.246 OA
BRANCH   3   5
ATOM      5  C   UNL A   1      42.315  24.137  27.710  1.00  0.00     0.060 A 
ATOM      6  C   UNL A   1      40.708  27.373  28.614  1.00  0.00     0.041 A 
ATOM      7  C   UNL A   1      39.907  26.333  27.430  1.00  0.00     0.027 A 
ATOM      8  C   UNL A   1      42.197  26.806  29.360  1.00  0.00     0.027 A 
ATOM      9  C   UNL A   1      40.786  24.601  26.878  1.00  0.00     0.018 A 
ATOM     10  C   UNL A   1      42.965  25.245  28.931  1.00  0.00     0.018 A 
BRANCH   6  11
ATOM     11  N   UNL A   1      40.499  28.730  28.305  1.00  0.00    -0.321 N 
ATOM     12  C   UNL A   1      40.484  29.646  29.359  1.00  0.00     0.272 C 
ATOM     13  O   UNL A   1      41.387  30.466  29.518  1.00  0.00    -0.267 OA
ATOM     14  H   UNL A   1      40.370  29.024  27.375  1.00  0.00     0.170 HD
BRANCH  12  15
ATOM     15  C   UNL A   1      39.230  29.702  30.246  1.00  0.00     0.108 C 
ATOM     16  C   UNL A   1      39.218  29.841  31.606  1.00  0.00     0.040 C 
BRANCH  15  17
ATOM     17  N   UNL A   1      37.995  29.613  29.611  1.00  0.00    -0.317 N 
ATOM     18  C   UNL A   1      36.866  30.410  29.552  1.00  0.00     0.259 C 
ATOM     19  O   UNL A   1      35.958  30.068  28.789  1.00  0.00    -0.269 OA
ATOM     20  H   UNL A   1      37.904  28.791  29.078  1.00  0.00     0.170 HD
BRANCH  18  21
ATOM     21  C   UNL A   1      36.618  31.590  30.405  1.00  0.00     0.082 A 
ATOM     22  C   UNL A   1      37.047  32.901  30.162  1.00  0.00     0.131 A 
ATOM     23  C   UNL A   1      36.862  33.866  31.169  1.00  0.00     0.047 A 
ATOM     24  C   UNL A   1      36.152  33.574  32.334  1.00  0.00     0.004 A 
ATOM     25  C   UNL A   1      35.843  31.321  31.551  1.00  0.00     0.018 A 
ATOM     26  C   UNL A   1      35.602  32.311  32.506  1.00  0.00     0.001 A 
BRANCH  22  27
ATOM     27  O   UNL A   1      37.705  33.411  29.077  1.00  0.00    -0.496 OA
ATOM     28  C   UNL A   1      38.750  34.345  29.301  1.00  0.00     0.278 C 
ENDBRANCH  22  27
ENDBRANCH  18  21
ENDBRANCH  15  17
BRANCH  16  29
ATOM     29  C   UNL A   1      40.408  29.774  32.511  1.00  0.00    -0.019 A 
ATOM     30  C   UNL A   1      40.127  30.833  33.937  1.00  0.00     0.012 A 
ATOM     31  C   UNL A   1      41.245  28.228  32.773  1.00  0.00     0.058 A 
ATOM     32  C   UNL A   1      40.618  30.134  35.772  1.00  0.00     0.051 A 
ATOM     33  C   UNL A   1      41.706  27.668  34.392  1.00  0.00     0.166 A 
ATOM     34  C   UNL A   1      41.405  28.532  35.852  1.00  0.00     0.165 A 
ATOM     35  O   UNL A   1      41.848  26.352  34.755  1.00  0.00    -0.454 OA
ATOM     36  O   UNL A   1      41.354  27.637  36.876  1.00  0.00    -0.454 OA
ATOM     37  C   UNL A   1      41.365  26.360  36.145  1.00  0.00     0.468 C 
ENDBRANCH  16  29
ENDBRANCH  12  15
ENDBRANCH   6  11
ENDBRANCH   3   5
ENDBRANCH   2   3
ENDBRANCH   1   2
BRANCH   1  38
ATOM     38  C   UNL A   1      45.082  23.084  24.371  1.00  0.00     0.275 C 
BRANCH  38  39
ATOM     39  O   UNL A   1      46.178  23.494  25.213  1.00  0.00    -0.458 OA
BRANCH  39  40
ATOM     40  C   UNL A   1      46.801  24.632  24.824  1.00  0.00     0.338 C 
ATOM     41  O   UNL A   1      47.437  24.807  23.798  1.00  0.00    -0.246 OA
BRANCH  40  42
ATOM     42  C   UNL A   1      46.568  25.711  25.798  1.00  0.00     0.060 A 
ATOM     43  C   UNL A   1      47.593  26.027  26.671  1.00  0.00     0.016 A 
ATOM     44  C   UNL A   1      45.296  26.251  26.000  1.00  0.00     0.016 A 
ATOM     45  C   UNL A   1      47.310  26.769  27.820  1.00  0.00     0.010 A 
ATOM     46  C   UNL A   1      45.047  27.067  27.123  1.00  0.00     0.010 A 
ATOM     47  C   UNL A   1      46.031  27.278  28.103  1.00  0.00    -0.014 A 
BRANCH  47  48
ATOM     48  C   UNL A   1      45.745  27.922  29.442  1.00  0.00     0.031 A 
ATOM     49  C   UNL A   1      45.264  29.364  29.544  1.00  0.00     0.074 A 
ATOM     50  C   UNL A   1      45.810  27.211  30.593  1.00  0.00     0.049 A 
ATOM     51  N   UNL A   1      45.078  30.103  30.615  1.00  0.00    -0.248 NA
ATOM     52  C   UNL A   1      44.959  30.069  28.289  1.00  0.00     0.031 C 
ATOM     53  C   UNL A   1      46.191  25.802  30.706  1.00  0.00     0.029 A 
ATOM     54  N   UNL A   1      45.512  27.566  31.893  1.00  0.00    -0.354 N 
ATOM     55  C   UNL A   1      44.719  31.371  30.160  1.00  0.00     0.074 A 
ATOM     56  C   UNL A   1      44.706  31.300  28.715  1.00  0.00     0.031 C 
ATOM     57  C   UNL A   1      46.005  25.389  31.968  1.00  0.00     0.029 A 
ATOM     58  C   UNL A   1      45.629  26.530  32.793  1.00  0.00     0.049 A 
ATOM     59  H   UNL A   1      45.241  28.477  32.152  1.00  0.00     0.167 HD
ATOM     60  C   UNL A   1      44.427  32.494  30.867  1.00  0.00     0.031 A 
ATOM     61  C   UNL A   1      45.504  26.485  34.135  1.00  0.00     0.031 A 
ATOM     62  C   UNL A   1      44.363  32.571  32.307  1.00  0.00     0.049 A 
ATOM     63  C   UNL A   1      45.210  27.743  34.901  1.00  0.00     0.074 A 
ATOM     64  C   UNL A   1      44.074  33.673  33.097  1.00  0.00     0.029 A 
ATOM     65  N   UNL A   1      44.562  31.508  33.172  1.00  0.00    -0.354 N 
ATOM     66  N   UNL A   1      44.975  28.950  34.446  1.00  0.00    -0.248 NA
ATOM     67  C   UNL A   1      45.187  27.635  36.368  1.00  0.00     0.031 C 
ATOM     68  C   UNL A   1      44.140  33.286  34.441  1.00  0.00     0.029 A 
ATOM     69  C   UNL A   1      44.413  31.930  34.486  1.00  0.00     0.049 A 
ATOM     70  H   UNL A   1      44.777  30.589  32.896  1.00  0.00     0.167 HD
ATOM     71  C   UNL A   1      44.773  29.743  35.572  1.00  0.00     0.074 A 
ATOM     72  C   UNL A   1      44.879  28.874  36.725  1.00  0.00     0.031 C 
ATOM     73  C   UNL A   1      44.530  31.074  35.638  1.00  0.00     0.031 A 
BRANCH  60  74
ATOM     74  C   UNL A   1      44.198  33.773  30.095  1.00  0.00    -0.014 A 
ATOM     75  C   UNL A   1      45.257  34.622  29.729  1.00  0.00     0.010 A 
ATOM     76  C   UNL A   1      42.892  34.096  29.677  1.00  0.00     0.010 A 
ATOM     77  C   UNL A   1      45.008  35.792  29.000  1.00  0.00     0.020 A 
ATOM     78  C   UNL A   1      42.642  35.246  28.924  1.00  0.00     0.020 A 
ATOM     79  C   UNL A   1      43.700  36.099  28.607  1.00  0.00     0.054 A 
BRANCH  79  80
ATOM     80  S   UNL A   1      43.404  37.614  27.652  1.00  0.00     0.124 S 
ATOM     81  O   UNL A   1      42.773  38.479  28.647  1.00  0.00    -0.237 OA
ATOM     82  O   UNL A   1      44.751  38.006  27.245  1.00  0.00    -0.237 OA
ATOM     83  O   UNL A   1      42.532  37.177  26.566  1.00  0.00    -0.744 OA
ENDBRANCH  79  80
ENDBRANCH  60  74
BRANCH  61  84
ATOM     84  C   UNL A   1      45.735  25.202  34.860  1.00  0.00    -0.014 A 
ATOM     85  C   UNL A   1      47.027  24.822  35.262  1.00  0.00     0.010 A 
ATOM     86  C   UNL A   1      44.651  24.353  35.155  1.00  0.00     0.010 A 
ATOM     87  C   UNL A   1      47.230  23.615  35.940  1.00  0.00     0.020 A 
ATOM     88  C   UNL A   1      44.845  23.167  35.865  1.00  0.00     0.020 A 
ATOM     89  C   UNL A   1      46.137  22.798  36.243  1.00  0.00     0.054 A 
BRANCH  89  90
ATOM     90  S   UNL A   1      46.408  21.271  37.183  1.00  0.00     0.124 S 
ATOM     91  O   UNL A   1      45.871  21.623  38.494  1.00  0.00    -0.237 OA
ATOM     92  O   UNL A   1      45.637  20.289  36.425  1.00  0.00    -0.237 OA
ATOM     93  O   UNL A   1      47.856  21.090  37.128  1.00  0.00    -0.744 OA
ENDBRANCH  89  90
ENDBRANCH  61  84
BRANCH  73  94
ATOM     94  C   UNL A   1      44.329  31.669  37.008  1.00  0.00    -0.014 A 
ATOM     95  C   UNL A   1      45.403  32.221  37.732  1.00  0.00     0.010 A 
ATOM     96  C   UNL A   1      43.047  31.668  37.586  1.00  0.00     0.010 A 
ATOM     97  C   UNL A   1      45.209  32.706  39.029  1.00  0.00     0.020 A 
ATOM     98  C   UNL A   1      42.843  32.178  38.871  1.00  0.00     0.020 A 
ATOM     99  C   UNL A   1      43.930  32.673  39.595  1.00  0.00     0.054 A 
BRANCH  99 100
ATOM    100  S   UNL A   1      43.702  33.299  41.282  1.00  0.00     0.124 S 
ATOM    101  O   UNL A   1      42.778  32.320  41.847  1.00  0.00    -0.237 OA
ATOM    102  O   UNL A   1      45.057  33.270  41.824  1.00  0.00    -0.237 OA
ATOM    103  O   UNL A   1      43.147  34.636  41.082  1.00  0.00    -0.744 OA
ENDBRANCH  99 100
ENDBRANCH  73  94
ENDBRANCH  47  48
ENDBRANCH  40  42
ENDBRANCH  39  40
ENDBRANCH  38  39
ENDBRANCH   1  38
TORSDOF 20
ENDMDL
MODEL 2
REMARK VINA RESULT:      -8.0      5.150     11.684
REMARK SMILES COc1ccccc1C(=O)N/C(=C/c1ccc2c(c1)OCO2)C(=O)Nc1ccc(C(=O)OCCOC(=O)c2ccc(-c3c4nc(c(-c5ccc(S(=O)(=O)[O-])cc5)c5ccc([nH]5)c(-c5ccc(S(=O)(=O)[O-])cc5)c5nc(c(-c6ccc(S(=O)(=O)[O-])cc6)c6ccc3[nH]6)C=C5)C=C4)cc2)cc1
REMARK SMILES IDX 33 1 32 2 30 3 31 4 29 5 26 6 27 7 99 8 28 9 98 10 25 11
REMARK SMILES IDX 23 12 24 13 12 15 13 16 11 17 9 18 10 19 8 21 3 22 4 23 5 24
REMARK SMILES IDX 7 25 6 26 2 27 1 28 14 29 15 30 19 31 16 32 18 33 17 34
REMARK SMILES IDX 20 35 22 36 21 37 34 38 35 39 36 40 37 41 38 42 39 43 97 44
REMARK SMILES IDX 40 45 96 46 41 47 42 48 43 49 90 50 44 51 95 52 89 53 91 54
REMARK SMILES IDX 45 55 94 56 88 57 87 58 46 60 76 61 57 62 75 63 58 64 61 65
REMARK SMILES IDX 74 66 92 67 59 68 60 69 73 71 93 72 62 73 47 74 48 75 56 76
REMARK SMILES IDX 49 77 55 78 50 79 51 80 52 81 53 82 54 83 77 84 78 85 86 86
REMARK SMILES IDX 79 87 85 88 80 89 81 90 82 91 83 92 84 93 63 94 64 95 72 96
REMARK SMILES IDX 65 97 71 98 66 99 67 100 68 101 69 102 70 103
REMARK H PARENT 25 14 11 20 91 59 61 70
REMARK Flexibility Score: inf
ROOT
ATOM      1  C   UNL A   1      49.534  37.976  33.556  1.00  0.00     0.275 C 
ENDROOT
BRANCH   1   2
ATOM      2  O   UNL A   1      48.487  36.994  33.688  1.00  0.00    -0.458 OA
BRANCH   2   3
ATOM      3  C   UNL A   1      47.267  37.493  33.992  1.00  0.00     0.338 C 
ATOM      4  O   UNL A   1      46.961  38.125  34.989  1.00  0.00    -0.246 OA
BRANCH   3   5
ATOM      5  C   UNL A   1      46.317  37.245  32.901  1.00  0.00     0.060 A 
ATOM      6  C   UNL A   1      43.948  36.636  30.092  1.00  0.00     0.041 A 
ATOM      7  C   UNL A   1      44.581  38.270  30.325  1.00  0.00     0.027 A 
ATOM      8  C   UNL A   1      44.512  35.355  31.159  1.00  0.00     0.027 A 
ATOM      9  C   UNL A   1      45.821  38.640  31.875  1.00  0.00     0.018 A 
ATOM     10  C   UNL A   1      45.659  35.648  32.504  1.00  0.00     0.018 A 
BRANCH   6  11
ATOM     11  N   UNL A   1      42.624  36.679  29.616  1.00  0.00    -0.321 N 
ATOM     12  C   UNL A   1      42.393  36.304  28.291  1.00  0.00     0.272 C 
ATOM     13  O   UNL A   1      41.801  35.264  28.005  1.00  0.00    -0.267 OA
ATOM     14  H   UNL A   1      41.884  36.963  30.199  1.00  0.00     0.170 HD
BRANCH  12  15
ATOM     15  C   UNL A   1      42.775  37.299  27.184  1.00  0.00     0.108 C 
ATOM     16  C   UNL A   1      44.000  37.395  26.583  1.00  0.00     0.040 C 
BRANCH  15  17
ATOM     17  N   UNL A   1      41.788  38.176  26.745  1.00  0.00    -0.317 N 
ATOM     18  C   UNL A   1      41.686  39.550  26.619  1.00  0.00     0.259 C 
ATOM     19  O   UNL A   1      40.672  40.006  26.084  1.00  0.00    -0.269 OA
ATOM     20  H   UNL A   1      40.971  37.709  26.457  1.00  0.00     0.170 HD
BRANCH  18  21
ATOM     21  C   UNL A   1      42.654  40.523  27.162  1.00  0.00     0.082 A 
ATOM     22  C   UNL A   1      43.594  41.264  26.432  1.00  0.00     0.131 A 
ATOM     23  C   UNL A   1      44.548  42.020  27.137  1.00  0.00     0.047 A 
ATOM     24  C   UNL A   1      44.495  42.146  28.526  1.00  0.00     0.004 A 
ATOM     25  C   UNL A   1      42.564  40.710  28.557  1.00  0.00     0.018 A 
ATOM     26  C   UNL A   1      43.473  41.526  29.233  1.00  0.00     0.001 A 
BRANCH  22  27
ATOM     27  O   UNL A   1      43.784  41.329  25.079  1.00  0.00    -0.496 OA
ATOM     28  C   UNL A   1      42.845  42.057  24.302  1.00  0.00     0.278 C 
ENDBRANCH  22  27
ENDBRANCH  18  21
ENDBRANCH  15  17
BRANCH  16  29
ATOM     29  C   UNL A   1      45.250  36.692  27.009  1.00  0.00    -0.019 A 
ATOM     30  C   UNL A   1      45.171  34.974  26.481  1.00  0.00     0.012 A 
ATOM     31  C   UNL A   1      46.819  37.521  26.914  1.00  0.00     0.058 A 
ATOM     32  C   UNL A   1      46.819  34.141  25.652  1.00  0.00     0.051 A 
ATOM     33  C   UNL A   1      48.256  36.743  26.225  1.00  0.00     0.166 A 
ATOM     34  C   UNL A   1      48.296  35.143  25.589  1.00  0.00     0.165 A 
ATOM     35  O   UNL A   1      49.302  37.410  25.636  1.00  0.00    -0.454 OA
ATOM     36  O   UNL A   1      49.306  35.070  24.679  1.00  0.00    -0.454 OA
ATOM     37  C   UNL A   1      49.693  36.484  24.560  1.00  0.00     0.468 C 
ENDBRANCH  16  29
ENDBRANCH  12  15
ENDBRANCH   6  11
ENDBRANCH   3   5
ENDBRANCH   2   3
ENDBRANCH   1   2
BRANCH   1  38
ATOM     38  C   UNL A   1      50.121  37.973  32.143  1.00  0.00     0.275 C 
BRANCH  38  39
ATOM     39  O   UNL A   1      49.326  37.180  31.240  1.00  0.00    -0.458 OA
BRANCH  39  40
ATOM     40  C   UNL A   1      49.894  36.012  30.856  1.00  0.00     0.338 C 
ATOM     41  O   UNL A   1      51.086  35.769  30.766  1.00  0.00    -0.246 OA
BRANCH  40  42
ATOM     42  C   UNL A   1      48.863  34.992  30.598  1.00  0.00     0.060 A 
ATOM     43  C   UNL A   1      48.743  33.951  31.500  1.00  0.00     0.016 A 
ATOM     44  C   UNL A   1      48.181  34.935  29.381  1.00  0.00     0.016 A 
ATOM     45  C   UNL A   1      48.052  32.797  31.127  1.00  0.00     0.010 A 
ATOM     46  C   UNL A   1      47.420  33.794  29.053  1.00  0.00     0.010 A 
ATOM     47  C   UNL A   1      47.405  32.663  29.886  1.00  0.00    -0.014 A 
BRANCH  47  48
ATOM     48  C   UNL A   1      46.824  31.330  29.468  1.00  0.00     0.031 A 
ATOM     49  C   UNL A   1      45.334  31.039  29.591  1.00  0.00     0.074 A 
ATOM     50  C   UNL A   1      47.590  30.384  28.876  1.00  0.00     0.049 A 
ATOM     51  N   UNL A   1      44.688  29.913  29.382  1.00  0.00    -0.248 NA
ATOM     52  C   UNL A   1      44.457  32.145  30.007  1.00  0.00     0.031 C 
ATOM     53  C   UNL A   1      49.026  30.489  28.612  1.00  0.00     0.029 A 
ATOM     54  N   UNL A   1      47.258  29.153  28.346  1.00  0.00    -0.354 N 
ATOM     55  C   UNL A   1      43.357  30.154  29.718  1.00  0.00     0.074 A 
ATOM     56  C   UNL A   1      43.285  31.537  30.140  1.00  0.00     0.031 C 
ATOM     57  C   UNL A   1      49.426  29.435  27.886  1.00  0.00     0.029 A 
ATOM     58  C   UNL A   1      48.315  28.501  27.750  1.00  0.00     0.049 A 
ATOM     59  H   UNL A   1      46.349  28.778  28.390  1.00  0.00     0.167 HD
ATOM     60  C   UNL A   1      42.290  29.315  29.686  1.00  0.00     0.031 A 
ATOM     61  C   UNL A   1      48.420  27.276  27.197  1.00  0.00     0.031 A 
ATOM     62  C   UNL A   1      42.322  27.955  29.203  1.00  0.00     0.049 A 
ATOM     63  C   UNL A   1      47.237  26.351  27.197  1.00  0.00     0.074 A 
ATOM     64  C   UNL A   1      41.282  27.041  29.137  1.00  0.00     0.029 A 
ATOM     65  N   UNL A   1      43.435  27.321  28.678  1.00  0.00    -0.354 N 
ATOM     66  N   UNL A   1      46.016  26.575  27.617  1.00  0.00    -0.248 NA
ATOM     67  C   UNL A   1      47.456  24.997  26.667  1.00  0.00     0.031 C 
ATOM     68  C   UNL A   1      41.777  25.841  28.614  1.00  0.00     0.029 A 
ATOM     69  C   UNL A   1      43.111  26.026  28.298  1.00  0.00     0.049 A 
ATOM     70  H   UNL A   1      44.326  27.729  28.588  1.00  0.00     0.167 HD
ATOM     71  C   UNL A   1      45.320  25.390  27.397  1.00  0.00     0.074 A 
ATOM     72  C   UNL A   1      46.245  24.466  26.778  1.00  0.00     0.031 C 
ATOM     73  C   UNL A   1      44.030  25.097  27.694  1.00  0.00     0.031 A 
BRANCH  60  74
ATOM     74  C   UNL A   1      40.978  29.821  30.241  1.00  0.00    -0.014 A 
ATOM     75  C   UNL A   1      40.711  29.844  31.621  1.00  0.00     0.010 A 
ATOM     76  C   UNL A   1      40.014  30.340  29.353  1.00  0.00     0.010 A 
ATOM     77  C   UNL A   1      39.490  30.335  32.098  1.00  0.00     0.020 A 
ATOM     78  C   UNL A   1      38.806  30.859  29.828  1.00  0.00     0.020 A 
ATOM     79  C   UNL A   1      38.542  30.834  31.197  1.00  0.00     0.054 A 
BRANCH  79  80
ATOM     80  S   UNL A   1      36.971  31.476  31.842  1.00  0.00     0.124 S 
ATOM     81  O   UNL A   1      37.425  32.377  32.899  1.00  0.00    -0.237 OA
ATOM     82  O   UNL A   1      36.385  32.126  30.672  1.00  0.00    -0.237 OA
ATOM     83  O   UNL A   1      36.270  30.280  32.301  1.00  0.00    -0.744 OA
ENDBRANCH  79  80
ENDBRANCH  60  74
BRANCH  61  84
ATOM     84  C   UNL A   1      49.733  26.814  26.658  1.00  0.00    -0.014 A 
ATOM     85  C   UNL A   1      50.606  26.043  27.444  1.00  0.00     0.010 A 
ATOM     86  C   UNL A   1      50.112  27.146  25.343  1.00  0.00     0.010 A 
ATOM     87  C   UNL A   1      51.835  25.618  26.927  1.00  0.00     0.020 A 
ATOM     88  C   UNL A   1      51.319  26.692  24.810  1.00  0.00     0.020 A 
ATOM     89  C   UNL A   1      52.181  25.940  25.611  1.00  0.00     0.054 A 
BRANCH  89  90
ATOM     90  S   UNL A   1      53.746  25.323  24.932  1.00  0.00     0.124 S 
ATOM     91  O   UNL A   1      54.699  25.715  25.965  1.00  0.00    -0.237 OA
ATOM     92  O   UNL A   1      53.496  23.889  24.811  1.00  0.00    -0.237 OA
ATOM     93  O   UNL A   1      53.869  26.035  23.662  1.00  0.00    -0.744 OA
ENDBRANCH  89  90
ENDBRANCH  61  84
BRANCH  73  94
ATOM     94  C   UNL A   1      43.534  23.724  27.319  1.00  0.00    -0.014 A 
ATOM     95  C   UNL A   1      43.246  23.389  25.982  1.00  0.00     0.010 A 
ATOM     96  C   UNL A   1      43.345  22.755  28.320  1.00  0.00     0.010 A 
ATOM     97  C   UNL A   1      42.723  22.132  25.663  1.00  0.00     0.020 A 
ATOM     98  C   UNL A   1      42.849  21.488  28.002  1.00  0.00     0.020 A 
ATOM     99  C   UNL A   1      42.518  21.192  26.678  1.00  0.00     0.054 A 
BRANCH  99 100
ATOM    100  S   UNL A   1      41.830  19.570  26.244  1.00  0.00     0.124 S 
ATOM    101  O   UNL A   1      42.485  19.293  24.968  1.00  0.00    -0.237 OA
ATOM    102  O   UNL A   1      42.253  18.730  27.362  1.00  0.00    -0.237 OA
ATOM    103  O   UNL A   1      40.392  19.814  26.167  1.00  0.00    -0.744 OA
ENDBRANCH  99 100
ENDBRANCH  73  94
ENDBRANCH  47  48
ENDBRANCH  40  42
ENDBRANCH  39  40
ENDBRANCH  38  39
ENDBRANCH   1  38
TORSDOF 20
ENDMDL
MODEL 3
REMARK VINA RESULT:      -7.9      4.814     12.127
REMARK SMILES COc1ccccc1C(=O)N/C(=C/c1ccc2c(c1)OCO2)C(=O)Nc1ccc(C(=O)OCCOC(=O)c2ccc(-c3c4nc(c(-c5ccc(S(=O)(=O)[O-])cc5)c5ccc([nH]5)c(-c5ccc(S(=O)(=O)[O-])cc5)c5nc(c(-c6ccc(S(=O)(=O)[O-])cc6)c6ccc3[nH]6)C=C5)C=C4)cc2)cc1
REMARK SMILES IDX 33 1 32 2 30 3 31 4 29 5 26 6 27 7 99 8 28 9 98 10 25 11
REMARK SMILES IDX 23 12 24 13 12 15 13 16 11 17 9 18 10 19 8 21 3 22 4 23 5 24
REMARK SMILES IDX 7 25 6 26 2 27 1 28 14 29 15 30 19 31 16 32 18 33 17 34
REMARK SMILES IDX 20 35 22 36 21 37 34 38 35 39 36 40 37 41 38 42 39 43 97 44
REMARK SMILES IDX 40 45 96 46 41 47 42 48 43 49 90 50 44 51 95 52 89 53 91 54
REMARK SMILES IDX 45 55 94 56 88 57 87 58 46 60 76 61 57 62 75 63 58 64 61 65
REMARK SMILES IDX 74 66 92 67 59 68 60 69 73 71 93 72 62 73 47 74 48 75 56 76
REMARK SMILES IDX 49 77 55 78 50 79 51 80 52 81 53 82 54 83 77 84 78 85 86 86
REMARK SMILES IDX 79 87 85 88 80 89 81 90 82 91 83 92 84 93 63 94 64 95 72 96
REMARK SMILES IDX 65 97 71 98 66 99 67 100 68 101 69 102 70 103
REMARK H PARENT 25 14 11 20 91 59 61 70
REMARK Flexibility Score: inf
ROOT
ATOM      1  C   UNL A   1      45.355  41.017  36.774  1.00  0.00     0.275 C 
ENDROOT
BRANCH   1   2
ATOM      2  O   UNL A   1      45.137  40.913  35.353  1.00  0.00    -0.458 OA
BRANCH   2   3
ATOM      3  C   UNL A   1      44.700  42.045  34.754  1.00  0.00     0.338 C 
ATOM      4  O   UNL A   1      44.653  43.161  35.243  1.00  0.00    -0.246 OA
BRANCH   3   5
ATOM      5  C   UNL A   1      44.339  41.787  33.354  1.00  0.00     0.060 A 
ATOM      6  C   UNL A   1      43.465  41.086  29.802  1.00  0.00     0.041 A 
ATOM      7  C   UNL A   1      45.156  41.400  30.211  1.00  0.00     0.027 A 
ATOM      8  C   UNL A   1      42.278  41.057  31.101  1.00  0.00     0.027 A 
ATOM      9  C   UNL A   1      45.649  41.841  32.118  1.00  0.00     0.018 A 
ATOM     10  C   UNL A   1      42.701  41.386  32.810  1.00  0.00     0.018 A 
BRANCH   6  11
ATOM     11  N   UNL A   1      43.160  41.593  28.526  1.00  0.00    -0.321 N 
ATOM     12  C   UNL A   1      42.720  40.694  27.552  1.00  0.00     0.272 C 
ATOM     13  O   UNL A   1      41.560  40.695  27.145  1.00  0.00    -0.267 OA
ATOM     14  H   UNL A   1      43.252  42.552  28.325  1.00  0.00     0.170 HD
BRANCH  12  15
ATOM     15  C   UNL A   1      43.765  39.782  26.890  1.00  0.00     0.108 C 
ATOM     16  C   UNL A   1      44.112  38.527  27.309  1.00  0.00     0.040 C 
BRANCH  15  17
ATOM     17  N   UNL A   1      44.413  40.270  25.759  1.00  0.00    -0.317 N 
ATOM     18  C   UNL A   1      45.592  40.954  25.527  1.00  0.00     0.259 C 
ATOM     19  O   UNL A   1      45.924  41.150  24.355  1.00  0.00    -0.269 OA
ATOM     20  H   UNL A   1      43.916  40.083  24.931  1.00  0.00     0.170 HD
BRANCH  18  21
ATOM     21  C   UNL A   1      46.441  41.558  26.574  1.00  0.00     0.082 A 
ATOM     22  C   UNL A   1      46.354  42.867  27.068  1.00  0.00     0.131 A 
ATOM     23  C   UNL A   1      47.355  43.320  27.947  1.00  0.00     0.047 A 
ATOM     24  C   UNL A   1      48.344  42.462  28.428  1.00  0.00     0.004 A 
ATOM     25  C   UNL A   1      47.400  40.679  27.117  1.00  0.00     0.018 A 
ATOM     26  C   UNL A   1      48.340  41.127  28.048  1.00  0.00     0.001 A 
BRANCH  22  27
ATOM     27  O   UNL A   1      45.444  43.845  26.776  1.00  0.00    -0.496 OA
ATOM     28  C   UNL A   1      45.785  45.191  27.072  1.00  0.00     0.278 C 
ENDBRANCH  22  27
ENDBRANCH  18  21
ENDBRANCH  15  17
BRANCH  16  29
ATOM     29  C   UNL A   1      43.689  37.875  28.587  1.00  0.00    -0.019 A 
ATOM     30  C   UNL A   1      42.200  36.908  28.294  1.00  0.00     0.012 A 
ATOM     31  C   UNL A   1      44.908  37.211  29.698  1.00  0.00     0.058 A 
ATOM     32  C   UNL A   1      42.075  35.056  29.100  1.00  0.00     0.051 A 
ATOM     33  C   UNL A   1      44.742  35.601  30.426  1.00  0.00     0.166 A 
ATOM     34  C   UNL A   1      43.421  34.530  30.150  1.00  0.00     0.165 A 
ATOM     35  O   UNL A   1      45.790  34.812  30.828  1.00  0.00    -0.454 OA
ATOM     36  O   UNL A   1      43.851  33.257  30.367  1.00  0.00    -0.454 OA
ATOM     37  C   UNL A   1      45.301  33.461  30.510  1.00  0.00     0.468 C 
ENDBRANCH  16  29
ENDBRANCH  12  15
ENDBRANCH   6  11
ENDBRANCH   3   5
ENDBRANCH   2   3
ENDBRANCH   1   2
BRANCH   1  38
ATOM     38  C   UNL A   1      44.856  39.768  37.504  1.00  0.00     0.275 C 
BRANCH  38  39
ATOM     39  O   UNL A   1      44.172  38.868  36.609  1.00  0.00    -0.458 OA
BRANCH  39  40
ATOM     40  C   UNL A   1      43.838  37.672  37.150  1.00  0.00     0.338 C 
ATOM     41  O   UNL A   1      43.989  37.322  38.309  1.00  0.00    -0.246 OA
BRANCH  40  42
ATOM     42  C   UNL A   1      43.187  36.812  36.148  1.00  0.00     0.060 A 
ATOM     43  C   UNL A   1      42.409  35.763  36.603  1.00  0.00     0.016 A 
ATOM     44  C   UNL A   1      43.512  36.894  34.793  1.00  0.00     0.016 A 
ATOM     45  C   UNL A   1      42.075  34.728  35.727  1.00  0.00     0.010 A 
ATOM     46  C   UNL A   1      43.097  35.880  33.905  1.00  0.00     0.010 A 
ATOM     47  C   UNL A   1      42.436  34.731  34.369  1.00  0.00    -0.014 A 
BRANCH  47  48
ATOM     48  C   UNL A   1      42.199  33.506  33.514  1.00  0.00     0.031 A 
ATOM     49  C   UNL A   1      40.986  33.399  32.598  1.00  0.00     0.074 A 
ATOM     50  C   UNL A   1      43.107  32.503  33.455  1.00  0.00     0.049 A 
ATOM     51  N   UNL A   1      40.575  32.376  31.882  1.00  0.00    -0.248 NA
ATOM     52  C   UNL A   1      40.122  34.583  32.473  1.00  0.00     0.031 C 
ATOM     53  C   UNL A   1      44.362  32.440  34.206  1.00  0.00     0.029 A 
ATOM     54  N   UNL A   1      43.136  31.354  32.690  1.00  0.00    -0.354 N 
ATOM     55  C   UNL A   1      39.372  32.765  31.295  1.00  0.00     0.074 A 
ATOM     56  C   UNL A   1      39.121  34.121  31.733  1.00  0.00     0.031 C 
ATOM     57  C   UNL A   1      45.077  31.384  33.795  1.00  0.00     0.029 A 
ATOM     58  C   UNL A   1      44.281  30.606  32.854  1.00  0.00     0.049 A 
ATOM     59  H   UNL A   1      42.405  31.094  32.084  1.00  0.00     0.167 HD
ATOM     60  C   UNL A   1      38.546  32.070  30.471  1.00  0.00     0.031 A 
ATOM     61  C   UNL A   1      44.652  29.408  32.358  1.00  0.00     0.031 A 
ATOM     62  C   UNL A   1      38.808  30.744  29.964  1.00  0.00     0.049 A 
ATOM     63  C   UNL A   1      43.713  28.641  31.472  1.00  0.00     0.074 A 
ATOM     64  C   UNL A   1      38.019  29.973  29.123  1.00  0.00     0.029 A 
ATOM     65  N   UNL A   1      39.950  30.003  30.219  1.00  0.00    -0.354 N 
ATOM     66  N   UNL A   1      42.536  28.995  31.017  1.00  0.00    -0.248 NA
ATOM     67  C   UNL A   1      44.146  27.300  31.052  1.00  0.00     0.031 C 
ATOM     68  C   UNL A   1      38.664  28.750  28.907  1.00  0.00     0.029 A 
ATOM     69  C   UNL A   1      39.881  28.782  29.565  1.00  0.00     0.049 A 
ATOM     70  H   UNL A   1      40.700  30.300  30.783  1.00  0.00     0.167 HD
ATOM     71  C   UNL A   1      42.090  27.921  30.253  1.00  0.00     0.074 A 
ATOM     72  C   UNL A   1      43.136  26.921  30.280  1.00  0.00     0.031 C 
ATOM     73  C   UNL A   1      40.913  27.777  29.597  1.00  0.00     0.031 A 
BRANCH  60  74
ATOM     74  C   UNL A   1      37.229  32.707  30.092  1.00  0.00    -0.014 A 
ATOM     75  C   UNL A   1      36.067  32.535  30.865  1.00  0.00     0.010 A 
ATOM     76  C   UNL A   1      37.175  33.547  28.963  1.00  0.00     0.010 A 
ATOM     77  C   UNL A   1      34.868  33.154  30.491  1.00  0.00     0.020 A 
ATOM     78  C   UNL A   1      35.988  34.192  28.602  1.00  0.00     0.020 A 
ATOM     79  C   UNL A   1      34.835  33.975  29.358  1.00  0.00     0.054 A 
BRANCH  79  80
ATOM     80  S   UNL A   1      33.272  34.776  28.900  1.00  0.00     0.124 S 
ATOM     81  O   UNL A   1      32.718  33.827  27.936  1.00  0.00    -0.237 OA
ATOM     82  O   UNL A   1      32.566  34.857  30.176  1.00  0.00    -0.237 OA
ATOM     83  O   UNL A   1      33.689  36.059  28.341  1.00  0.00    -0.744 OA
ENDBRANCH  79  80
ENDBRANCH  60  74
BRANCH  61  84
ATOM     84  C   UNL A   1      45.963  28.814  32.755  1.00  0.00    -0.014 A 
ATOM     85  C   UNL A   1      47.120  29.040  31.990  1.00  0.00     0.010 A 
ATOM     86  C   UNL A   1      46.055  28.018  33.913  1.00  0.00     0.010 A 
ATOM     87  C   UNL A   1      48.342  28.476  32.373  1.00  0.00     0.020 A 
ATOM     88  C   UNL A   1      47.279  27.486  34.319  1.00  0.00     0.020 A 
ATOM     89  C   UNL A   1      48.415  27.707  33.538  1.00  0.00     0.054 A 
BRANCH  89  90
ATOM     90  S   UNL A   1      50.020  27.041  34.058  1.00  0.00     0.124 S 
ATOM     91  O   UNL A   1      49.639  26.156  35.155  1.00  0.00    -0.237 OA
ATOM     92  O   UNL A   1      50.498  26.380  32.847  1.00  0.00    -0.237 OA
ATOM     93  O   UNL A   1      50.772  28.232  34.446  1.00  0.00    -0.744 OA
ENDBRANCH  89  90
ENDBRANCH  61  84
BRANCH  73  94
ATOM     94  C   UNL A   1      40.708  26.500  28.825  1.00  0.00    -0.014 A 
ATOM     95  C   UNL A   1      39.524  25.748  28.952  1.00  0.00     0.010 A 
ATOM     96  C   UNL A   1      41.719  26.038  27.963  1.00  0.00     0.010 A 
ATOM     97  C   UNL A   1      39.381  24.532  28.278  1.00  0.00     0.020 A 
ATOM     98  C   UNL A   1      41.568  24.836  27.265  1.00  0.00     0.020 A 
ATOM     99  C   UNL A   1      40.409  24.078  27.446  1.00  0.00     0.054 A 
BRANCH  99 100
ATOM    100  S   UNL A   1      40.207  22.492  26.588  1.00  0.00     0.124 S 
ATOM    101  O   UNL A   1      40.249  21.540  27.694  1.00  0.00    -0.237 OA
ATOM    102  O   UNL A   1      38.908  22.640  25.936  1.00  0.00    -0.237 OA
ATOM    103  O   UNL A   1      41.350  22.443  25.679  1.00  0.00    -0.744 OA
ENDBRANCH  99 100
ENDBRANCH  73  94
ENDBRANCH  47  48
ENDBRANCH  40  42
ENDBRANCH  39  40
ENDBRANCH  38  39
ENDBRANCH   1  38
TORSDOF 20
ENDMDL
