MODEL 1
REMARK VINA RESULT:     -13.4      0.000      0.000
REMARK SMILES Cc1cccc(-c2ncc(C[NH+]3CCC4(CC3)NC(=O)C[C@H]4C(=O)OCCOC(=O)c3ccc(-c4c5nc(c(-c6ccc(S(=O)(=O)[O-])cc6)c6ccc([nH]6)c(-c6ccc(S(=O)(=O)[O-])cc6)c6nc(c(-c7ccc(S(=O)(=O)[O-])cc7)c7ccc4[nH]7)C=C6)C=C5)cc3)cn2)c1
REMARK SMILES IDX 26 1 25 2 23 3 24 4 22 5 12 6 13 7 17 8 14 10 16 11 15 12
REMARK SMILES IDX 18 13 19 14 21 16 20 17 11 18 10 19 7 20 8 21 92 22 9 23
REMARK SMILES IDX 91 24 6 25 1 26 2 27 3 28 93 29 4 30 5 31 27 32 28 33 29 34
REMARK SMILES IDX 30 35 31 36 32 37 90 38 33 39 89 40 34 41 35 42 36 43 83 44
REMARK SMILES IDX 37 45 88 46 82 47 84 48 38 49 87 50 81 51 80 52 39 54 69 55
REMARK SMILES IDX 50 56 68 57 51 58 54 59 67 60 85 61 52 62 53 63 66 65 86 66
REMARK SMILES IDX 55 67 40 68 41 69 49 70 42 71 48 72 43 73 44 74 45 75 46 76
REMARK SMILES IDX 47 77 70 78 71 79 79 80 72 81 78 82 73 83 74 84 75 85 76 86
REMARK SMILES IDX 77 87 56 88 57 89 65 90 58 91 64 92 59 93 60 94 61 95 62 96
REMARK SMILES IDX 63 97
REMARK H PARENT 12 9 18 15 84 53 54 64
REMARK Flexibility Score: inf
ROOT
ATOM      1  C   UNL A   1      31.938  29.299  23.957  1.00  0.00     0.274 C 
ENDROOT
BRANCH   1   2
ATOM      2  O   UNL A   1      32.619  28.065  23.489  1.00  0.00    -0.462 OA
BRANCH   2   3
ATOM      3  C   UNL A   1      31.788  27.062  23.197  1.00  0.00     0.311 C 
ATOM      4  O   UNL A   1      31.398  27.033  22.040  1.00  0.00    -0.252 OA
BRANCH   3   5
ATOM      5  C   UNL A   1      31.275  26.025  24.252  1.00  0.00     0.134 C 
ATOM      6  N   UNL A   1      34.095  23.313  23.070  1.00  0.00    -0.331 N 
ATOM      7  C   UNL A   1      33.189  22.711  24.057  1.00  0.00     0.264 C 
ATOM      8  C   UNL A   1      33.607  24.628  22.779  1.00  0.00     0.264 C 
ATOM      9  H   UNL A   1      34.033  22.593  22.349  1.00  0.00     0.348 HD
ATOM     10  C   UNL A   1      32.319  23.633  25.033  1.00  0.00     0.091 C 
ATOM     11  C   UNL A   1      33.669  25.412  24.116  1.00  0.00     0.091 C 
ATOM     12  C   UNL A   1      32.419  25.192  24.885  1.00  0.00     0.064 C 
ATOM     13  N   UNL A   1      32.530  25.780  26.207  1.00  0.00    -0.349 N 
ATOM     14  C   UNL A   1      31.473  26.574  26.557  1.00  0.00     0.221 C 
ATOM     15  H   UNL A   1      33.301  25.622  26.800  1.00  0.00     0.164 HD
ATOM     16  C   UNL A   1      30.483  26.554  25.440  1.00  0.00     0.117 C 
ATOM     17  O   UNL A   1      31.356  27.149  27.625  1.00  0.00    -0.275 OA
BRANCH   6  18
ATOM     18  C   UNL A   1      35.577  23.265  23.083  1.00  0.00     0.302 C 
BRANCH  18  19
ATOM     19  C   UNL A   1      36.264  22.823  24.380  1.00  0.00     0.043 A 
ATOM     20  C   UNL A   1      38.388  22.199  25.997  1.00  0.00     0.159 A 
ATOM     21  N   UNL A   1      37.952  23.479  25.981  1.00  0.00    -0.236 NA
ATOM     22  N   UNL A   1      37.721  21.174  25.428  1.00  0.00    -0.236 NA
ATOM     23  C   UNL A   1      36.879  23.753  25.194  1.00  0.00     0.124 A 
ATOM     24  C   UNL A   1      36.669  21.509  24.628  1.00  0.00     0.124 A 
BRANCH  20  25
ATOM     25  C   UNL A   1      39.706  21.938  26.621  1.00  0.00     0.019 A 
ATOM     26  C   UNL A   1      42.664  19.439  26.510  1.00  0.00     0.044 C 
ATOM     27  C   UNL A   1      41.801  20.628  26.842  1.00  0.00    -0.050 A 
ATOM     28  C   UNL A   1      42.318  21.613  27.681  1.00  0.00     0.003 A 
ATOM     29  C   UNL A   1      40.494  20.794  26.332  1.00  0.00     0.015 A 
ATOM     30  C   UNL A   1      41.545  22.723  28.020  1.00  0.00     0.001 A 
ATOM     31  C   UNL A   1      40.254  22.877  27.502  1.00  0.00     0.012 A 
ENDBRANCH  20  25
ENDBRANCH  18  19
ENDBRANCH   6  18
ENDBRANCH   3   5
ENDBRANCH   2   3
ENDBRANCH   1   2
BRANCH   1  32
ATOM     32  C   UNL A   1      32.014  29.876  25.460  1.00  0.00     0.275 C 
BRANCH  32  33
ATOM     33  O   UNL A   1      33.209  29.918  26.313  1.00  0.00    -0.458 OA
BRANCH  33  34
ATOM     34  C   UNL A   1      33.503  30.956  27.154  1.00  0.00     0.338 C 
ATOM     35  O   UNL A   1      32.660  31.681  27.673  1.00  0.00    -0.246 OA
BRANCH  34  36
ATOM     36  C   UNL A   1      34.964  30.994  27.393  1.00  0.00     0.060 A 
ATOM     37  C   UNL A   1      35.703  32.171  27.604  1.00  0.00     0.016 A 
ATOM     38  C   UNL A   1      35.472  29.776  27.796  1.00  0.00     0.016 A 
ATOM     39  C   UNL A   1      36.867  32.124  28.385  1.00  0.00     0.010 A 
ATOM     40  C   UNL A   1      36.353  29.789  28.826  1.00  0.00     0.010 A 
ATOM     41  C   UNL A   1      37.129  30.930  29.056  1.00  0.00    -0.014 A 
BRANCH  41  42
ATOM     42  C   UNL A   1      38.396  30.471  29.599  1.00  0.00     0.031 A 
ATOM     43  C   UNL A   1      38.966  29.168  29.168  1.00  0.00     0.074 A 
ATOM     44  C   UNL A   1      39.019  31.583  30.080  1.00  0.00     0.049 A 
ATOM     45  N   UNL A   1      39.482  28.269  29.942  1.00  0.00    -0.248 NA
ATOM     46  C   UNL A   1      38.911  28.714  27.762  1.00  0.00     0.031 C 
ATOM     47  C   UNL A   1      40.400  31.940  30.299  1.00  0.00     0.029 A 
ATOM     48  N   UNL A   1      38.390  32.809  30.393  1.00  0.00    -0.354 N 
ATOM     49  C   UNL A   1      40.198  27.433  29.090  1.00  0.00     0.074 A 
ATOM     50  C   UNL A   1      39.559  27.542  27.803  1.00  0.00     0.031 C 
ATOM     51  C   UNL A   1      40.431  33.039  31.092  1.00  0.00     0.029 A 
ATOM     52  C   UNL A   1      39.053  33.401  31.437  1.00  0.00     0.049 A 
ATOM     53  H   UNL A   1      37.603  33.179  29.934  1.00  0.00     0.167 HD
ATOM     54  C   UNL A   1      41.535  27.222  29.294  1.00  0.00     0.031 A 
ATOM     55  C   UNL A   1      38.426  33.347  32.652  1.00  0.00     0.031 A 
ATOM     56  C   UNL A   1      42.027  28.178  30.282  1.00  0.00     0.049 A 
ATOM     57  C   UNL A   1      39.131  32.278  33.454  1.00  0.00     0.074 A 
ATOM     58  C   UNL A   1      42.756  29.346  30.134  1.00  0.00     0.029 A 
ATOM     59  N   UNL A   1      41.486  28.202  31.557  1.00  0.00    -0.354 N 
ATOM     60  N   UNL A   1      39.632  31.185  32.938  1.00  0.00    -0.248 NA
ATOM     61  C   UNL A   1      39.476  32.458  34.856  1.00  0.00     0.031 C 
ATOM     62  C   UNL A   1      42.632  30.084  31.340  1.00  0.00     0.029 A 
ATOM     63  C   UNL A   1      41.770  29.399  32.182  1.00  0.00     0.049 A 
ATOM     64  H   UNL A   1      40.970  27.467  31.960  1.00  0.00     0.167 HD
ATOM     65  C   UNL A   1      40.493  30.627  33.841  1.00  0.00     0.074 A 
ATOM     66  C   UNL A   1      40.318  31.430  35.044  1.00  0.00     0.031 C 
ATOM     67  C   UNL A   1      41.357  29.609  33.557  1.00  0.00     0.031 A 
BRANCH  54  68
ATOM     68  C   UNL A   1      42.483  26.474  28.369  1.00  0.00    -0.014 A 
ATOM     69  C   UNL A   1      43.619  25.840  28.923  1.00  0.00     0.010 A 
ATOM     70  C   UNL A   1      42.274  26.274  26.989  1.00  0.00     0.010 A 
ATOM     71  C   UNL A   1      44.517  25.088  28.156  1.00  0.00     0.020 A 
ATOM     72  C   UNL A   1      43.178  25.525  26.201  1.00  0.00     0.020 A 
ATOM     73  C   UNL A   1      44.293  24.934  26.795  1.00  0.00     0.054 A 
BRANCH  73  74
ATOM     74  S   UNL A   1      45.455  23.912  25.847  1.00  0.00     0.124 S 
ATOM     75  O   UNL A   1      45.312  22.604  26.483  1.00  0.00    -0.237 OA
ATOM     76  O   UNL A   1      44.927  24.010  24.489  1.00  0.00    -0.237 OA
ATOM     77  O   UNL A   1      46.746  24.563  26.059  1.00  0.00    -0.744 OA
ENDBRANCH  73  74
ENDBRANCH  54  68
BRANCH  55  78
ATOM     78  C   UNL A   1      36.930  33.603  32.608  1.00  0.00    -0.014 A 
ATOM     79  C   UNL A   1      36.457  34.807  33.197  1.00  0.00     0.010 A 
ATOM     80  C   UNL A   1      36.025  32.898  31.792  1.00  0.00     0.010 A 
ATOM     81  C   UNL A   1      35.189  35.335  32.906  1.00  0.00     0.020 A 
ATOM     82  C   UNL A   1      34.733  33.413  31.516  1.00  0.00     0.020 A 
ATOM     83  C   UNL A   1      34.333  34.640  32.056  1.00  0.00     0.054 A 
BRANCH  83  84
ATOM     84  S   UNL A   1      32.790  35.458  31.507  1.00  0.00     0.124 S 
ATOM     85  O   UNL A   1      32.630  34.938  30.154  1.00  0.00    -0.237 OA
ATOM     86  O   UNL A   1      31.820  34.973  32.484  1.00  0.00    -0.237 OA
ATOM     87  O   UNL A   1      33.120  36.879  31.598  1.00  0.00    -0.744 OA
ENDBRANCH  83  84
ENDBRANCH  55  78
BRANCH  67  88
ATOM     88  C   UNL A   1      41.996  28.737  34.599  1.00  0.00    -0.014 A 
ATOM     89  C   UNL A   1      41.530  27.451  34.895  1.00  0.00     0.010 A 
ATOM     90  C   UNL A   1      43.216  29.140  35.197  1.00  0.00     0.010 A 
ATOM     91  C   UNL A   1      42.182  26.649  35.826  1.00  0.00     0.020 A 
ATOM     92  C   UNL A   1      43.920  28.314  36.066  1.00  0.00     0.020 A 
ATOM     93  C   UNL A   1      43.369  27.089  36.409  1.00  0.00     0.054 A 
BRANCH  93  94
ATOM     94  S   UNL A   1      44.196  26.017  37.596  1.00  0.00     0.124 S 
ATOM     95  O   UNL A   1      43.741  26.581  38.864  1.00  0.00    -0.237 OA
ATOM     96  O   UNL A   1      43.658  24.698  37.266  1.00  0.00    -0.237 OA
ATOM     97  O   UNL A   1      45.613  26.199  37.298  1.00  0.00    -0.744 OA
ENDBRANCH  93  94
ENDBRANCH  67  88
ENDBRANCH  41  42
ENDBRANCH  34  36
ENDBRANCH  33  34
ENDBRANCH  32  33
ENDBRANCH   1  32
TORSDOF 17
ENDMDL
MODEL 2
REMARK VINA RESULT:     -13.4      4.110     11.206
REMARK SMILES Cc1cccc(-c2ncc(C[NH+]3CCC4(CC3)NC(=O)C[C@H]4C(=O)OCCOC(=O)c3ccc(-c4c5nc(c(-c6ccc(S(=O)(=O)[O-])cc6)c6ccc([nH]6)c(-c6ccc(S(=O)(=O)[O-])cc6)c6nc(c(-c7ccc(S(=O)(=O)[O-])cc7)c7ccc4[nH]7)C=C6)C=C5)cc3)cn2)c1
REMARK SMILES IDX 26 1 25 2 23 3 24 4 22 5 12 6 13 7 17 8 14 10 16 11 15 12
REMARK SMILES IDX 18 13 19 14 21 16 20 17 11 18 10 19 7 20 8 21 92 22 9 23
REMARK SMILES IDX 91 24 6 25 1 26 2 27 3 28 93 29 4 30 5 31 27 32 28 33 29 34
REMARK SMILES IDX 30 35 31 36 32 37 90 38 33 39 89 40 34 41 35 42 36 43 83 44
REMARK SMILES IDX 37 45 88 46 82 47 84 48 38 49 87 50 81 51 80 52 39 54 69 55
REMARK SMILES IDX 50 56 68 57 51 58 54 59 67 60 85 61 52 62 53 63 66 65 86 66
REMARK SMILES IDX 55 67 40 68 41 69 49 70 42 71 48 72 43 73 44 74 45 75 46 76
REMARK SMILES IDX 47 77 70 78 71 79 79 80 72 81 78 82 73 83 74 84 75 85 76 86
REMARK SMILES IDX 77 87 56 88 57 89 65 90 58 91 64 92 59 93 60 94 61 95 62 96
REMARK SMILES IDX 63 97
REMARK H PARENT 12 9 18 15 84 53 54 64
REMARK Flexibility Score: inf
ROOT
ATOM      1  C   UNL A   1      35.578  23.549  23.422  1.00  0.00     0.274 C 
ENDROOT
BRANCH   1   2
ATOM      2  O   UNL A   1      34.536  23.056  22.485  1.00  0.00    -0.462 OA
BRANCH   2   3
ATOM      3  C   UNL A   1      33.575  22.337  23.069  1.00  0.00     0.311 C 
ATOM      4  O   UNL A   1      32.577  22.157  22.389  1.00  0.00    -0.252 OA
BRANCH   3   5
ATOM      5  C   UNL A   1      33.658  21.810  24.541  1.00  0.00     0.134 C 
ATOM      6  N   UNL A   1      31.672  25.108  25.916  1.00  0.00    -0.331 N 
ATOM      7  C   UNL A   1      32.125  24.278  27.040  1.00  0.00     0.264 C 
ATOM      8  C   UNL A   1      32.182  24.522  24.712  1.00  0.00     0.264 C 
ATOM      9  H   UNL A   1      32.050  26.003  26.227  1.00  0.00     0.348 HD
ATOM     10  C   UNL A   1      32.487  22.735  26.820  1.00  0.00     0.091 C 
ATOM     11  C   UNL A   1      31.552  23.106  24.626  1.00  0.00     0.091 C 
ATOM     12  C   UNL A   1      32.391  22.137  25.372  1.00  0.00     0.064 C 
ATOM     13  N   UNL A   1      31.730  20.847  25.443  1.00  0.00    -0.349 N 
ATOM     14  C   UNL A   1      32.522  19.793  25.080  1.00  0.00     0.221 C 
ATOM     15  H   UNL A   1      30.793  20.741  25.726  1.00  0.00     0.164 HD
ATOM     16  C   UNL A   1      33.880  20.318  24.750  1.00  0.00     0.117 C 
ATOM     17  O   UNL A   1      32.173  18.624  25.084  1.00  0.00    -0.275 OA
BRANCH   6  18
ATOM     18  C   UNL A   1      30.315  25.673  25.722  1.00  0.00     0.302 C 
BRANCH  18  19
ATOM     19  C   UNL A   1      30.064  26.507  24.460  1.00  0.00     0.043 A 
ATOM     20  C   UNL A   1      29.319  28.731  23.041  1.00  0.00     0.159 A 
ATOM     21  N   UNL A   1      30.616  28.612  23.407  1.00  0.00    -0.236 NA
ATOM     22  N   UNL A   1      28.416  27.736  23.151  1.00  0.00    -0.236 NA
ATOM     23  C   UNL A   1      30.963  27.486  24.083  1.00  0.00     0.124 A 
ATOM     24  C   UNL A   1      28.809  26.641  23.862  1.00  0.00     0.124 A 
BRANCH  20  25
ATOM     25  C   UNL A   1      28.870  30.057  22.556  1.00  0.00     0.019 A 
ATOM     26  C   UNL A   1      29.138  33.831  23.389  1.00  0.00     0.044 C 
ATOM     27  C   UNL A   1      28.816  32.533  22.695  1.00  0.00    -0.050 A 
ATOM     28  C   UNL A   1      28.174  32.580  21.459  1.00  0.00     0.003 A 
ATOM     29  C   UNL A   1      29.145  31.271  23.238  1.00  0.00     0.015 A 
ATOM     30  C   UNL A   1      27.850  31.399  20.793  1.00  0.00     0.001 A 
ATOM     31  C   UNL A   1      28.187  30.156  21.340  1.00  0.00     0.012 A 
ENDBRANCH  20  25
ENDBRANCH  18  19
ENDBRANCH   6  18
ENDBRANCH   3   5
ENDBRANCH   2   3
ENDBRANCH   1   2
BRANCH   1  32
ATOM     32  C   UNL A   1      36.833  22.680  23.938  1.00  0.00     0.275 C 
BRANCH  32  33
ATOM     33  O   UNL A   1      37.255  22.512  25.335  1.00  0.00    -0.458 OA
BRANCH  33  34
ATOM     34  C   UNL A   1      38.447  21.950  25.704  1.00  0.00     0.338 C 
ATOM     35  O   UNL A   1      38.914  20.934  25.200  1.00  0.00    -0.246 OA
BRANCH  34  36
ATOM     36  C   UNL A   1      39.097  22.808  26.722  1.00  0.00     0.060 A 
ATOM     37  C   UNL A   1      40.123  22.379  27.582  1.00  0.00     0.016 A 
ATOM     38  C   UNL A   1      38.909  24.154  26.487  1.00  0.00     0.016 A 
ATOM     39  C   UNL A   1      41.063  23.308  28.052  1.00  0.00     0.010 A 
ATOM     40  C   UNL A   1      39.991  24.959  26.625  1.00  0.00     0.010 A 
ATOM     41  C   UNL A   1      41.023  24.584  27.491  1.00  0.00    -0.014 A 
BRANCH  41  42
ATOM     42  C   UNL A   1      41.585  25.812  28.027  1.00  0.00     0.031 A 
ATOM     43  C   UNL A   1      40.711  26.985  28.281  1.00  0.00     0.074 A 
ATOM     44  C   UNL A   1      42.766  25.458  28.608  1.00  0.00     0.049 A 
ATOM     45  N   UNL A   1      40.973  28.212  27.968  1.00  0.00    -0.248 NA
ATOM     46  C   UNL A   1      39.356  26.845  28.858  1.00  0.00     0.031 C 
ATOM     47  C   UNL A   1      43.564  26.016  29.672  1.00  0.00     0.029 A 
ATOM     48  N   UNL A   1      43.489  24.272  28.347  1.00  0.00    -0.354 N 
ATOM     49  C   UNL A   1      40.076  28.971  28.716  1.00  0.00     0.074 A 
ATOM     50  C   UNL A   1      38.942  28.115  28.957  1.00  0.00     0.031 C 
ATOM     51  C   UNL A   1      44.794  25.447  29.619  1.00  0.00     0.029 A 
ATOM     52  C   UNL A   1      44.830  24.524  28.482  1.00  0.00     0.049 A 
ATOM     53  H   UNL A   1      43.093  23.404  28.107  1.00  0.00     0.167 HD
ATOM     54  C   UNL A   1      40.535  29.936  29.572  1.00  0.00     0.031 A 
ATOM     55  C   UNL A   1      45.543  24.617  27.318  1.00  0.00     0.031 A 
ATOM     56  C   UNL A   1      41.981  29.796  29.723  1.00  0.00     0.049 A 
ATOM     57  C   UNL A   1      45.791  26.088  27.081  1.00  0.00     0.074 A 
ATOM     58  C   UNL A   1      42.739  29.252  30.746  1.00  0.00     0.029 A 
ATOM     59  N   UNL A   1      42.809  29.896  28.618  1.00  0.00    -0.354 N 
ATOM     60  N   UNL A   1      44.946  27.034  27.396  1.00  0.00    -0.248 NA
ATOM     61  C   UNL A   1      47.083  26.597  26.643  1.00  0.00     0.031 C 
ATOM     62  C   UNL A   1      44.040  29.011  30.232  1.00  0.00     0.029 A 
ATOM     63  C   UNL A   1      44.043  29.337  28.885  1.00  0.00     0.049 A 
ATOM     64  H   UNL A   1      42.554  30.308  27.761  1.00  0.00     0.167 HD
ATOM     65  C   UNL A   1      45.604  28.232  27.390  1.00  0.00     0.074 A 
ATOM     66  C   UNL A   1      46.922  27.913  26.860  1.00  0.00     0.031 C 
ATOM     67  C   UNL A   1      45.092  29.398  27.884  1.00  0.00     0.031 A 
BRANCH  54  68
ATOM     68  C   UNL A   1      39.704  30.731  30.567  1.00  0.00    -0.014 A 
ATOM     69  C   UNL A   1      39.188  31.987  30.176  1.00  0.00     0.010 A 
ATOM     70  C   UNL A   1      39.314  30.272  31.842  1.00  0.00     0.010 A 
ATOM     71  C   UNL A   1      38.371  32.764  31.007  1.00  0.00     0.020 A 
ATOM     72  C   UNL A   1      38.498  31.049  32.695  1.00  0.00     0.020 A 
ATOM     73  C   UNL A   1      38.030  32.292  32.267  1.00  0.00     0.054 A 
BRANCH  73  74
ATOM     74  S   UNL A   1      36.931  33.307  33.293  1.00  0.00     0.124 S 
ATOM     75  O   UNL A   1      35.994  33.847  32.310  1.00  0.00    -0.237 OA
ATOM     76  O   UNL A   1      36.371  32.329  34.221  1.00  0.00    -0.237 OA
ATOM     77  O   UNL A   1      37.827  34.292  33.896  1.00  0.00    -0.744 OA
ENDBRANCH  73  74
ENDBRANCH  54  68
BRANCH  55  78
ATOM     78  C   UNL A   1      45.183  23.581  26.267  1.00  0.00    -0.014 A 
ATOM     79  C   UNL A   1      46.249  22.837  25.694  1.00  0.00     0.010 A 
ATOM     80  C   UNL A   1      43.879  23.107  26.031  1.00  0.00     0.010 A 
ATOM     81  C   UNL A   1      46.035  21.629  25.011  1.00  0.00     0.020 A 
ATOM     82  C   UNL A   1      43.656  21.902  25.319  1.00  0.00     0.020 A 
ATOM     83  C   UNL A   1      44.737  21.158  24.834  1.00  0.00     0.054 A 
BRANCH  83  84
ATOM     84  S   UNL A   1      44.501  19.475  24.155  1.00  0.00     0.124 S 
ATOM     85  O   UNL A   1      45.686  18.777  24.641  1.00  0.00    -0.237 OA
ATOM     86  O   UNL A   1      43.238  19.070  24.767  1.00  0.00    -0.237 OA
ATOM     87  O   UNL A   1      44.455  19.705  22.713  1.00  0.00    -0.744 OA
ENDBRANCH  83  84
ENDBRANCH  55  78
BRANCH  67  88
ATOM     88  C   UNL A   1      45.615  30.760  27.529  1.00  0.00    -0.014 A 
ATOM     89  C   UNL A   1      46.787  31.285  28.084  1.00  0.00     0.010 A 
ATOM     90  C   UNL A   1      45.011  31.488  26.473  1.00  0.00     0.010 A 
ATOM     91  C   UNL A   1      47.272  32.528  27.690  1.00  0.00     0.020 A 
ATOM     92  C   UNL A   1      45.535  32.691  26.014  1.00  0.00     0.020 A 
ATOM     93  C   UNL A   1      46.640  33.224  26.661  1.00  0.00     0.054 A 
BRANCH  93  94
ATOM     94  S   UNL A   1      47.306  34.821  26.163  1.00  0.00     0.124 S 
ATOM     95  O   UNL A   1      48.088  35.190  27.339  1.00  0.00    -0.237 OA
ATOM     96  O   UNL A   1      48.084  34.486  24.972  1.00  0.00    -0.237 OA
ATOM     97  O   UNL A   1      46.117  35.631  25.917  1.00  0.00    -0.744 OA
ENDBRANCH  93  94
ENDBRANCH  67  88
ENDBRANCH  41  42
ENDBRANCH  34  36
ENDBRANCH  33  34
ENDBRANCH  32  33
ENDBRANCH   1  32
TORSDOF 17
ENDMDL
MODEL 3
REMARK VINA RESULT:     -13.3      3.825     10.713
REMARK SMILES Cc1cccc(-c2ncc(C[NH+]3CCC4(CC3)NC(=O)C[C@H]4C(=O)OCCOC(=O)c3ccc(-c4c5nc(c(-c6ccc(S(=O)(=O)[O-])cc6)c6ccc([nH]6)c(-c6ccc(S(=O)(=O)[O-])cc6)c6nc(c(-c7ccc(S(=O)(=O)[O-])cc7)c7ccc4[nH]7)C=C6)C=C5)cc3)cn2)c1
REMARK SMILES IDX 26 1 25 2 23 3 24 4 22 5 12 6 13 7 17 8 14 10 16 11 15 12
REMARK SMILES IDX 18 13 19 14 21 16 20 17 11 18 10 19 7 20 8 21 92 22 9 23
REMARK SMILES IDX 91 24 6 25 1 26 2 27 3 28 93 29 4 30 5 31 27 32 28 33 29 34
REMARK SMILES IDX 30 35 31 36 32 37 90 38 33 39 89 40 34 41 35 42 36 43 83 44
REMARK SMILES IDX 37 45 88 46 82 47 84 48 38 49 87 50 81 51 80 52 39 54 69 55
REMARK SMILES IDX 50 56 68 57 51 58 54 59 67 60 85 61 52 62 53 63 66 65 86 66
REMARK SMILES IDX 55 67 40 68 41 69 49 70 42 71 48 72 43 73 44 74 45 75 46 76
REMARK SMILES IDX 47 77 70 78 71 79 79 80 72 81 78 82 73 83 74 84 75 85 76 86
REMARK SMILES IDX 77 87 56 88 57 89 65 90 58 91 64 92 59 93 60 94 61 95 62 96
REMARK SMILES IDX 63 97
REMARK H PARENT 12 9 18 15 84 53 54 64
REMARK Flexibility Score: inf
ROOT
ATOM      1  C   UNL A   1      34.758  21.041  26.067  1.00  0.00     0.274 C 
ENDROOT
BRANCH   1   2
ATOM      2  O   UNL A   1      33.830  22.179  26.284  1.00  0.00    -0.462 OA
BRANCH   2   3
ATOM      3  C   UNL A   1      32.840  22.253  25.392  1.00  0.00     0.311 C 
ATOM      4  O   UNL A   1      31.875  21.542  25.628  1.00  0.00    -0.252 OA
BRANCH   3   5
ATOM      5  C   UNL A   1      32.908  23.120  24.090  1.00  0.00     0.134 C 
ATOM      6  N   UNL A   1      31.338  26.339  26.062  1.00  0.00    -0.331 N 
ATOM      7  C   UNL A   1      31.478  26.634  24.630  1.00  0.00     0.264 C 
ATOM      8  C   UNL A   1      31.706  24.968  26.259  1.00  0.00     0.264 C 
ATOM      9  H   UNL A   1      30.361  26.608  26.177  1.00  0.00     0.348 HD
ATOM     10  C   UNL A   1      32.480  25.784  23.716  1.00  0.00     0.091 C 
ATOM     11  C   UNL A   1      33.193  24.859  25.828  1.00  0.00     0.091 C 
ATOM     12  C   UNL A   1      33.275  24.600  24.369  1.00  0.00     0.064 C 
ATOM     13  N   UNL A   1      34.655  24.662  23.924  1.00  0.00    -0.349 N 
ATOM     14  C   UNL A   1      35.046  23.594  23.165  1.00  0.00     0.221 C 
ATOM     15  H   UNL A   1      35.257  25.408  24.149  1.00  0.00     0.164 HD
ATOM     16  C   UNL A   1      33.874  22.685  22.996  1.00  0.00     0.117 C 
ATOM     17  O   UNL A   1      36.154  23.454  22.675  1.00  0.00    -0.275 OA
BRANCH   6  18
ATOM     18  C   UNL A   1      31.776  27.194  27.190  1.00  0.00     0.302 C 
BRANCH  18  19
ATOM     19  C   UNL A   1      32.568  28.463  26.856  1.00  0.00     0.043 A 
ATOM     20  C   UNL A   1      33.987  30.743  27.408  1.00  0.00     0.159 A 
ATOM     21  N   UNL A   1      34.670  29.584  27.274  1.00  0.00    -0.236 NA
ATOM     22  N   UNL A   1      32.685  30.887  27.089  1.00  0.00    -0.236 NA
ATOM     23  C   UNL A   1      33.945  28.475  26.970  1.00  0.00     0.124 A 
ATOM     24  C   UNL A   1      32.000  29.739  26.819  1.00  0.00     0.124 A 
BRANCH  20  25
ATOM     25  C   UNL A   1      34.710  31.891  28.004  1.00  0.00     0.019 A 
ATOM     26  C   UNL A   1      34.104  35.079  30.120  1.00  0.00     0.044 C 
ATOM     27  C   UNL A   1      34.778  33.970  29.355  1.00  0.00    -0.050 A 
ATOM     28  C   UNL A   1      36.171  33.941  29.314  1.00  0.00     0.003 A 
ATOM     29  C   UNL A   1      34.062  32.952  28.687  1.00  0.00     0.015 A 
ATOM     30  C   UNL A   1      36.831  32.937  28.607  1.00  0.00     0.001 A 
ATOM     31  C   UNL A   1      36.108  31.931  27.955  1.00  0.00     0.012 A 
ENDBRANCH  20  25
ENDBRANCH  18  19
ENDBRANCH   6  18
ENDBRANCH   3   5
ENDBRANCH   2   3
ENDBRANCH   1   2
BRANCH   1  32
ATOM     32  C   UNL A   1      36.122  21.118  25.212  1.00  0.00     0.275 C 
BRANCH  32  33
ATOM     33  O   UNL A   1      37.249  22.027  25.458  1.00  0.00    -0.458 OA
BRANCH  33  34
ATOM     34  C   UNL A   1      38.516  21.600  25.750  1.00  0.00     0.338 C 
ATOM     35  O   UNL A   1      39.070  20.656  25.195  1.00  0.00    -0.246 OA
BRANCH  34  36
ATOM     36  C   UNL A   1      39.117  22.506  26.756  1.00  0.00     0.060 A 
ATOM     37  C   UNL A   1      40.205  22.166  27.580  1.00  0.00     0.016 A 
ATOM     38  C   UNL A   1      38.800  23.831  26.540  1.00  0.00     0.016 A 
ATOM     39  C   UNL A   1      41.070  23.173  28.030  1.00  0.00     0.010 A 
ATOM     40  C   UNL A   1      39.809  24.730  26.653  1.00  0.00     0.010 A 
ATOM     41  C   UNL A   1      40.897  24.444  27.484  1.00  0.00    -0.014 A 
BRANCH  41  42
ATOM     42  C   UNL A   1      41.362  25.715  28.014  1.00  0.00     0.031 A 
ATOM     43  C   UNL A   1      40.402  26.824  28.244  1.00  0.00     0.074 A 
ATOM     44  C   UNL A   1      42.557  25.452  28.615  1.00  0.00     0.049 A 
ATOM     45  N   UNL A   1      40.581  28.065  27.922  1.00  0.00    -0.248 NA
ATOM     46  C   UNL A   1      39.053  26.593  28.802  1.00  0.00     0.031 C 
ATOM     47  C   UNL A   1      43.297  26.076  29.685  1.00  0.00     0.029 A 
ATOM     48  N   UNL A   1      43.366  24.319  28.378  1.00  0.00    -0.354 N 
ATOM     49  C   UNL A   1      39.620  28.764  28.648  1.00  0.00     0.074 A 
ATOM     50  C   UNL A   1      38.548  27.831  28.883  1.00  0.00     0.031 C 
ATOM     51  C   UNL A   1      44.565  25.596  29.656  1.00  0.00     0.029 A 
ATOM     52  C   UNL A   1      44.684  24.667  28.529  1.00  0.00     0.049 A 
ATOM     53  H   UNL A   1      43.037  23.422  28.141  1.00  0.00     0.167 HD
ATOM     54  C   UNL A   1      39.997  29.768  29.500  1.00  0.00     0.031 A 
ATOM     55  C   UNL A   1      45.406  24.800  27.375  1.00  0.00     0.031 A 
ATOM     56  C   UNL A   1      41.446  29.733  29.674  1.00  0.00     0.049 A 
ATOM     57  C   UNL A   1      45.551  26.282  27.125  1.00  0.00     0.074 A 
ATOM     58  C   UNL A   1      42.227  29.255  30.713  1.00  0.00     0.029 A 
ATOM     59  N   UNL A   1      42.282  29.881  28.580  1.00  0.00    -0.354 N 
ATOM     60  N   UNL A   1      44.635  27.169  27.419  1.00  0.00    -0.248 NA
ATOM     61  C   UNL A   1      46.809  26.879  26.700  1.00  0.00     0.031 C 
ATOM     62  C   UNL A   1      43.548  29.103  30.220  1.00  0.00     0.029 A 
ATOM     63  C   UNL A   1      43.548  29.415  28.870  1.00  0.00     0.049 A 
ATOM     64  H   UNL A   1      42.010  30.266  27.715  1.00  0.00     0.167 HD
ATOM     65  C   UNL A   1      45.207  28.411  27.409  1.00  0.00     0.074 A 
ATOM     66  C   UNL A   1      46.552  28.182  26.901  1.00  0.00     0.031 C 
ATOM     67  C   UNL A   1      44.605  29.541  27.883  1.00  0.00     0.031 A 
BRANCH  54  68
ATOM     68  C   UNL A   1      39.096  30.510  30.475  1.00  0.00    -0.014 A 
ATOM     69  C   UNL A   1      39.490  31.788  30.932  1.00  0.00     0.010 A 
ATOM     70  C   UNL A   1      37.826  30.066  30.900  1.00  0.00     0.010 A 
ATOM     71  C   UNL A   1      38.701  32.564  31.789  1.00  0.00     0.020 A 
ATOM     72  C   UNL A   1      37.024  30.835  31.773  1.00  0.00     0.020 A 
ATOM     73  C   UNL A   1      37.468  32.083  32.208  1.00  0.00     0.054 A 
BRANCH  73  74
ATOM     74  S   UNL A   1      36.456  33.141  33.280  1.00  0.00     0.124 S 
ATOM     75  O   UNL A   1      36.998  34.471  33.009  1.00  0.00    -0.237 OA
ATOM     76  O   UNL A   1      35.107  32.901  32.778  1.00  0.00    -0.237 OA
ATOM     77  O   UNL A   1      36.718  32.630  34.624  1.00  0.00    -0.744 OA
ENDBRANCH  73  74
ENDBRANCH  54  68
BRANCH  55  78
ATOM     78  C   UNL A   1      45.136  23.731  26.330  1.00  0.00    -0.014 A 
ATOM     79  C   UNL A   1      46.171  22.791  26.077  1.00  0.00     0.010 A 
ATOM     80  C   UNL A   1      43.863  23.428  25.811  1.00  0.00     0.010 A 
ATOM     81  C   UNL A   1      45.930  21.566  25.434  1.00  0.00     0.020 A 
ATOM     82  C   UNL A   1      43.619  22.204  25.137  1.00  0.00     0.020 A 
ATOM     83  C   UNL A   1      44.649  21.271  24.974  1.00  0.00     0.054 A 
BRANCH  83  84
ATOM     84  S   UNL A   1      44.308  19.582  24.357  1.00  0.00     0.124 S 
ATOM     85  O   UNL A   1      45.348  18.798  25.015  1.00  0.00    -0.237 OA
ATOM     86  O   UNL A   1      42.948  19.348  24.836  1.00  0.00    -0.237 OA
ATOM     87  O   UNL A   1      44.450  19.725  22.910  1.00  0.00    -0.744 OA
ENDBRANCH  83  84
ENDBRANCH  55  78
BRANCH  67  88
ATOM     88  C   UNL A   1      45.034  30.934  27.521  1.00  0.00    -0.014 A 
ATOM     89  C   UNL A   1      44.514  31.620  26.418  1.00  0.00     0.010 A 
ATOM     90  C   UNL A   1      45.866  31.662  28.408  1.00  0.00     0.010 A 
ATOM     91  C   UNL A   1      44.893  32.930  26.146  1.00  0.00     0.020 A 
ATOM     92  C   UNL A   1      46.185  32.998  28.189  1.00  0.00     0.020 A 
ATOM     93  C   UNL A   1      45.729  33.608  27.031  1.00  0.00     0.054 A 
BRANCH  93  94
ATOM     94  S   UNL A   1      46.183  35.310  26.657  1.00  0.00     0.124 S 
ATOM     95  O   UNL A   1      46.792  35.166  25.337  1.00  0.00    -0.237 OA
ATOM     96  O   UNL A   1      44.895  35.999  26.682  1.00  0.00    -0.237 OA
ATOM     97  O   UNL A   1      47.098  35.669  27.736  1.00  0.00    -0.744 OA
ENDBRANCH  93  94
ENDBRANCH  67  88
ENDBRANCH  41  42
ENDBRANCH  34  36
ENDBRANCH  33  34
ENDBRANCH  32  33
ENDBRANCH   1  32
TORSDOF 17
ENDMDL
