MODEL 1
REMARK VINA RESULT:      -8.5      0.000      0.000
REMARK SMILES C#CCN(CC(=O)OCCOC(=O)c1ccc(-c2c3nc(c(-c4ccc(S(=O)(=O)[O-])cc4)c4ccc([nH]4)c(-c4ccc(S(=O)(=O)[O-])cc4)c4nc(c(-c5ccc(S(=O)(=O)[O-])cc5)c5ccc2[nH]5)C=C4)C=C3)cc1)C(=O)C(C)(C)[NH2+]CC
REMARK SMILES IDX 9 1 8 2 6 3 7 4 5 5 4 6 3 7 2 8 1 9 74 10 75 11 76 12 77 13
REMARK SMILES IDX 78 14 79 15 80 18 81 19 10 20 11 21 12 22 13 23 14 24 15 25
REMARK SMILES IDX 73 26 16 27 72 28 17 29 18 30 19 31 66 32 20 33 71 34 65 35
REMARK SMILES IDX 67 36 21 37 70 38 64 39 63 40 22 42 52 43 33 44 51 45 34 46
REMARK SMILES IDX 37 47 50 48 68 49 35 50 36 51 49 53 69 54 38 55 23 56 24 57
REMARK SMILES IDX 32 58 25 59 31 60 26 61 27 62 28 63 29 64 30 65 53 66 54 67
REMARK SMILES IDX 62 68 55 69 61 70 56 71 57 72 58 73 59 74 60 75 39 76 40 77
REMARK SMILES IDX 48 78 41 79 47 80 42 81 43 82 44 83 45 84 46 85
REMARK H PARENT 79 16 79 17 67 41 37 52
REMARK Flexibility Score: inf
ROOT
ATOM      1  C   UNL A   1      33.634  29.243  26.751  1.00  0.00     0.274 C 
ENDROOT
BRANCH   1   2
ATOM      2  O   UNL A   1      32.856  28.301  25.992  1.00  0.00    -0.461 OA
BRANCH   2   3
ATOM      3  C   UNL A   1      31.878  27.643  26.672  1.00  0.00     0.325 C 
ATOM      4  O   UNL A   1      31.637  27.781  27.865  1.00  0.00    -0.250 OA
BRANCH   3   5
ATOM      5  C   UNL A   1      30.960  26.895  25.699  1.00  0.00     0.243 C 
BRANCH   5   6
ATOM      6  N   UNL A   1      31.284  25.483  25.438  1.00  0.00    -0.315 N 
BRANCH   6   7
ATOM      7  C   UNL A   1      30.631  24.961  24.254  1.00  0.00     0.210 C 
BRANCH   7   8
ATOM      8  C   UNL A   1      31.253  25.571  23.009  1.00  0.00    -0.085 C 
ATOM      9  C   UNL A   1      31.787  26.094  21.941  1.00  0.00     0.006 C 
ENDBRANCH   7   8
ENDBRANCH   6   7
BRANCH   6  10
ATOM     10  C   UNL A   1      31.958  24.531  26.221  1.00  0.00     0.284 C 
ATOM     11  O   UNL A   1      31.403  24.114  27.251  1.00  0.00    -0.268 OA
BRANCH  10  12
ATOM     12  C   UNL A   1      33.388  23.994  25.853  1.00  0.00     0.170 C 
ATOM     13  C   UNL A   1      34.360  25.081  25.428  1.00  0.00     0.090 C 
ATOM     14  C   UNL A   1      33.880  23.217  27.070  1.00  0.00     0.090 C 
BRANCH  12  15
ATOM     15  N   UNL A   1      33.350  22.948  24.791  1.00  0.00    -0.334 N 
ATOM     16  H   UNL A   1      33.615  23.399  23.915  1.00  0.00     0.347 HD
ATOM     17  H   UNL A   1      32.399  22.580  24.836  1.00  0.00     0.347 HD
BRANCH  15  18
ATOM     18  C   UNL A   1      34.196  21.769  24.943  1.00  0.00     0.257 C 
ATOM     19  C   UNL A   1      35.578  21.881  24.302  1.00  0.00     0.071 C 
ENDBRANCH  15  18
ENDBRANCH  12  15
ENDBRANCH  10  12
ENDBRANCH   6  10
ENDBRANCH   5   6
ENDBRANCH   3   5
ENDBRANCH   2   3
ENDBRANCH   1   2
BRANCH   1  20
ATOM     20  C   UNL A   1      34.967  28.589  27.171  1.00  0.00     0.275 C 
BRANCH  20  21
ATOM     21  O   UNL A   1      36.095  29.451  27.493  1.00  0.00    -0.458 OA
BRANCH  21  22
ATOM     22  C   UNL A   1      36.731  29.332  28.677  1.00  0.00     0.338 C 
ATOM     23  O   UNL A   1      36.291  29.666  29.766  1.00  0.00    -0.246 OA
BRANCH  22  24
ATOM     24  C   UNL A   1      38.144  28.899  28.506  1.00  0.00     0.060 A 
ATOM     25  C   UNL A   1      38.785  29.311  27.330  1.00  0.00     0.016 A 
ATOM     26  C   UNL A   1      38.840  28.103  29.423  1.00  0.00     0.016 A 
ATOM     27  C   UNL A   1      40.096  28.920  27.060  1.00  0.00     0.010 A 
ATOM     28  C   UNL A   1      40.196  27.804  29.201  1.00  0.00     0.010 A 
ATOM     29  C   UNL A   1      40.842  28.247  28.035  1.00  0.00    -0.014 A 
BRANCH  29  30
ATOM     30  C   UNL A   1      42.327  28.243  27.928  1.00  0.00     0.031 A 
ATOM     31  C   UNL A   1      43.164  29.448  28.244  1.00  0.00     0.074 A 
ATOM     32  C   UNL A   1      42.906  27.104  27.490  1.00  0.00     0.049 A 
ATOM     33  N   UNL A   1      44.445  29.630  28.046  1.00  0.00    -0.248 NA
ATOM     34  C   UNL A   1      42.483  30.593  28.866  1.00  0.00     0.031 C 
ATOM     35  C   UNL A   1      42.190  25.855  27.193  1.00  0.00     0.029 A 
ATOM     36  N   UNL A   1      44.214  26.798  27.214  1.00  0.00    -0.354 N 
ATOM     37  C   UNL A   1      44.724  30.917  28.491  1.00  0.00     0.074 A 
ATOM     38  C   UNL A   1      43.476  31.471  28.976  1.00  0.00     0.031 C 
ATOM     39  C   UNL A   1      43.062  24.921  26.801  1.00  0.00     0.029 A 
ATOM     40  C   UNL A   1      44.379  25.529  26.708  1.00  0.00     0.049 A 
ATOM     41  H   UNL A   1      44.960  27.422  27.362  1.00  0.00     0.167 HD
ATOM     42  C   UNL A   1      45.912  31.572  28.475  1.00  0.00     0.031 A 
ATOM     43  C   UNL A   1      45.449  24.928  26.158  1.00  0.00     0.031 A 
ATOM     44  C   UNL A   1      47.134  30.998  27.962  1.00  0.00     0.049 A 
ATOM     45  C   UNL A   1      46.725  25.702  26.065  1.00  0.00     0.074 A 
ATOM     46  C   UNL A   1      48.392  31.571  27.886  1.00  0.00     0.029 A 
ATOM     47  N   UNL A   1      47.247  29.720  27.427  1.00  0.00    -0.354 N 
ATOM     48  N   UNL A   1      46.964  26.929  26.464  1.00  0.00    -0.248 NA
ATOM     49  C   UNL A   1      47.870  25.025  25.448  1.00  0.00     0.031 C 
ATOM     50  C   UNL A   1      49.248  30.665  27.252  1.00  0.00     0.029 A 
ATOM     51  C   UNL A   1      48.545  29.498  26.998  1.00  0.00     0.049 A 
ATOM     52  H   UNL A   1      46.512  29.068  27.364  1.00  0.00     0.167 HD
ATOM     53  C   UNL A   1      48.300  27.163  26.177  1.00  0.00     0.074 A 
ATOM     54  C   UNL A   1      48.815  25.950  25.569  1.00  0.00     0.031 C 
ATOM     55  C   UNL A   1      49.034  28.278  26.404  1.00  0.00     0.031 A 
BRANCH  42  56
ATOM     56  C   UNL A   1      45.944  33.000  28.963  1.00  0.00    -0.014 A 
ATOM     57  C   UNL A   1      45.605  34.076  28.124  1.00  0.00     0.010 A 
ATOM     58  C   UNL A   1      46.269  33.264  30.308  1.00  0.00     0.010 A 
ATOM     59  C   UNL A   1      45.633  35.390  28.609  1.00  0.00     0.020 A 
ATOM     60  C   UNL A   1      46.273  34.571  30.804  1.00  0.00     0.020 A 
ATOM     61  C   UNL A   1      45.972  35.629  29.945  1.00  0.00     0.054 A 
BRANCH  61  62
ATOM     62  S   UNL A   1      45.993  37.341  30.549  1.00  0.00     0.124 S 
ATOM     63  O   UNL A   1      45.158  37.248  31.744  1.00  0.00    -0.237 OA
ATOM     64  O   UNL A   1      47.414  37.577  30.794  1.00  0.00    -0.237 OA
ATOM     65  O   UNL A   1      45.418  38.108  29.446  1.00  0.00    -0.744 OA
ENDBRANCH  61  62
ENDBRANCH  42  56
BRANCH  43  66
ATOM     66  C   UNL A   1      45.314  23.551  25.610  1.00  0.00    -0.014 A 
ATOM     67  C   UNL A   1      45.632  22.430  26.394  1.00  0.00     0.010 A 
ATOM     68  C   UNL A   1      44.779  23.354  24.320  1.00  0.00     0.010 A 
ATOM     69  C   UNL A   1      45.420  21.140  25.899  1.00  0.00     0.020 A 
ATOM     70  C   UNL A   1      44.535  22.067  23.835  1.00  0.00     0.020 A 
ATOM     71  C   UNL A   1      44.866  20.967  24.626  1.00  0.00     0.054 A 
BRANCH  71  72
ATOM     72  S   UNL A   1      44.531  19.284  24.039  1.00  0.00     0.124 S 
ATOM     73  O   UNL A   1      45.658  18.540  24.591  1.00  0.00    -0.237 OA
ATOM     74  O   UNL A   1      43.228  18.995  24.632  1.00  0.00    -0.237 OA
ATOM     75  O   UNL A   1      44.526  19.424  22.584  1.00  0.00    -0.744 OA
ENDBRANCH  71  72
ENDBRANCH  43  66
BRANCH  55  76
ATOM     76  C   UNL A   1      50.493  28.218  26.052  1.00  0.00    -0.014 A 
ATOM     77  C   UNL A   1      50.955  28.581  24.775  1.00  0.00     0.010 A 
ATOM     78  C   UNL A   1      51.420  27.862  27.049  1.00  0.00     0.010 A 
ATOM     79  C   UNL A   1      52.323  28.578  24.499  1.00  0.00     0.020 A 
ATOM     80  C   UNL A   1      52.789  27.886  26.784  1.00  0.00     0.020 A 
ATOM     81  C   UNL A   1      53.232  28.239  25.508  1.00  0.00     0.054 A 
BRANCH  81  82
ATOM     82  S   UNL A   1      55.007  28.327  25.148  1.00  0.00     0.124 S 
ATOM     83  O   UNL A   1      55.560  27.388  26.119  1.00  0.00    -0.237 OA
ATOM     84  O   UNL A   1      55.070  27.900  23.752  1.00  0.00    -0.237 OA
ATOM     85  O   UNL A   1      55.338  29.732  25.379  1.00  0.00    -0.744 OA
ENDBRANCH  81  82
ENDBRANCH  55  76
ENDBRANCH  29  30
ENDBRANCH  22  24
ENDBRANCH  21  22
ENDBRANCH  20  21
ENDBRANCH   1  20
TORSDOF 21
ENDMDL
MODEL 2
REMARK VINA RESULT:      -8.4      5.847     10.423
REMARK SMILES C#CCN(CC(=O)OCCOC(=O)c1ccc(-c2c3nc(c(-c4ccc(S(=O)(=O)[O-])cc4)c4ccc([nH]4)c(-c4ccc(S(=O)(=O)[O-])cc4)c4nc(c(-c5ccc(S(=O)(=O)[O-])cc5)c5ccc2[nH]5)C=C4)C=C3)cc1)C(=O)C(C)(C)[NH2+]CC
REMARK SMILES IDX 9 1 8 2 6 3 7 4 5 5 4 6 3 7 2 8 1 9 74 10 75 11 76 12 77 13
REMARK SMILES IDX 78 14 79 15 80 18 81 19 10 20 11 21 12 22 13 23 14 24 15 25
REMARK SMILES IDX 73 26 16 27 72 28 17 29 18 30 19 31 66 32 20 33 71 34 65 35
REMARK SMILES IDX 67 36 21 37 70 38 64 39 63 40 22 42 52 43 33 44 51 45 34 46
REMARK SMILES IDX 37 47 50 48 68 49 35 50 36 51 49 53 69 54 38 55 23 56 24 57
REMARK SMILES IDX 32 58 25 59 31 60 26 61 27 62 28 63 29 64 30 65 53 66 54 67
REMARK SMILES IDX 62 68 55 69 61 70 56 71 57 72 58 73 59 74 60 75 39 76 40 77
REMARK SMILES IDX 48 78 41 79 47 80 42 81 43 82 44 83 45 84 46 85
REMARK H PARENT 79 16 79 17 67 41 37 52
REMARK Flexibility Score: inf
ROOT
ATOM      1  C   UNL A   1      32.629  28.863  25.628  1.00  0.00     0.274 C 
ENDROOT
BRANCH   1   2
ATOM      2  O   UNL A   1      32.875  27.827  26.595  1.00  0.00    -0.461 OA
BRANCH   2   3
ATOM      3  C   UNL A   1      32.088  26.720  26.501  1.00  0.00     0.325 C 
ATOM      4  O   UNL A   1      30.879  26.731  26.308  1.00  0.00    -0.250 OA
BRANCH   3   5
ATOM      5  C   UNL A   1      32.952  25.456  26.422  1.00  0.00     0.243 C 
BRANCH   5   6
ATOM      6  N   UNL A   1      32.433  24.352  25.598  1.00  0.00    -0.315 N 
BRANCH   6   7
ATOM      7  C   UNL A   1      32.218  23.134  26.353  1.00  0.00     0.210 C 
BRANCH   7   8
ATOM      8  C   UNL A   1      30.758  23.032  26.764  1.00  0.00    -0.085 C 
ATOM      9  C   UNL A   1      29.505  22.944  27.115  1.00  0.00     0.006 C 
ENDBRANCH   7   8
ENDBRANCH   6   7
BRANCH   6  10
ATOM     10  C   UNL A   1      32.285  24.229  24.207  1.00  0.00     0.284 C 
ATOM     11  O   UNL A   1      31.197  23.830  23.761  1.00  0.00    -0.268 OA
BRANCH  10  12
ATOM     12  C   UNL A   1      33.447  24.558  23.201  1.00  0.00     0.170 C 
ATOM     13  C   UNL A   1      34.701  23.731  23.424  1.00  0.00     0.090 C 
ATOM     14  C   UNL A   1      32.868  24.373  21.803  1.00  0.00     0.090 C 
BRANCH  12  15
ATOM     15  N   UNL A   1      33.821  26.001  23.212  1.00  0.00    -0.334 N 
ATOM     16  H   UNL A   1      34.840  26.048  23.244  1.00  0.00     0.347 HD
ATOM     17  H   UNL A   1      33.329  26.381  24.021  1.00  0.00     0.347 HD
BRANCH  15  18
ATOM     18  C   UNL A   1      33.385  26.843  22.102  1.00  0.00     0.257 C 
ATOM     19  C   UNL A   1      33.840  28.299  22.181  1.00  0.00     0.071 C 
ENDBRANCH  15  18
ENDBRANCH  12  15
ENDBRANCH  10  12
ENDBRANCH   6  10
ENDBRANCH   5   6
ENDBRANCH   3   5
ENDBRANCH   2   3
ENDBRANCH   1   2
BRANCH   1  20
ATOM     20  C   UNL A   1      32.487  30.219  26.352  1.00  0.00     0.275 C 
BRANCH  20  21
ATOM     21  O   UNL A   1      33.234  30.433  27.583  1.00  0.00    -0.458 OA
BRANCH  21  22
ATOM     22  C   UNL A   1      34.210  31.362  27.639  1.00  0.00     0.338 C 
ATOM     23  O   UNL A   1      34.120  32.522  27.270  1.00  0.00    -0.246 OA
BRANCH  22  24
ATOM     24  C   UNL A   1      35.513  30.772  28.046  1.00  0.00     0.060 A 
ATOM     25  C   UNL A   1      36.556  31.675  28.298  1.00  0.00     0.016 A 
ATOM     26  C   UNL A   1      35.754  29.398  28.163  1.00  0.00     0.016 A 
ATOM     27  C   UNL A   1      37.826  31.217  28.645  1.00  0.00     0.010 A 
ATOM     28  C   UNL A   1      37.003  28.944  28.621  1.00  0.00     0.010 A 
ATOM     29  C   UNL A   1      38.034  29.856  28.903  1.00  0.00    -0.014 A 
BRANCH  29  30
ATOM     30  C   UNL A   1      39.228  29.450  29.695  1.00  0.00     0.031 A 
ATOM     31  C   UNL A   1      40.259  28.495  29.170  1.00  0.00     0.074 A 
ATOM     32  C   UNL A   1      39.334  29.954  30.944  1.00  0.00     0.049 A 
ATOM     33  N   UNL A   1      41.258  27.939  29.807  1.00  0.00    -0.248 NA
ATOM     34  C   UNL A   1      40.164  28.116  27.753  1.00  0.00     0.031 C 
ATOM     35  C   UNL A   1      38.408  30.926  31.541  1.00  0.00     0.029 A 
ATOM     36  N   UNL A   1      40.250  29.728  31.939  1.00  0.00    -0.354 N 
ATOM     37  C   UNL A   1      41.899  27.123  28.881  1.00  0.00     0.074 A 
ATOM     38  C   UNL A   1      41.176  27.261  27.633  1.00  0.00     0.031 C 
ATOM     39  C   UNL A   1      38.812  31.228  32.779  1.00  0.00     0.029 A 
ATOM     40  C   UNL A   1      39.954  30.391  33.109  1.00  0.00     0.049 A 
ATOM     41  H   UNL A   1      41.039  29.151  31.829  1.00  0.00     0.167 HD
ATOM     42  C   UNL A   1      42.978  26.324  29.071  1.00  0.00     0.031 A 
ATOM     43  C   UNL A   1      40.488  30.293  34.339  1.00  0.00     0.031 A 
ATOM     44  C   UNL A   1      43.662  26.191  30.335  1.00  0.00     0.049 A 
ATOM     45  C   UNL A   1      41.617  29.336  34.547  1.00  0.00     0.074 A 
ATOM     46  C   UNL A   1      44.759  25.405  30.646  1.00  0.00     0.029 A 
ATOM     47  N   UNL A   1      43.307  26.856  31.503  1.00  0.00    -0.354 N 
ATOM     48  N   UNL A   1      42.192  28.551  33.667  1.00  0.00    -0.248 NA
ATOM     49  C   UNL A   1      42.169  29.242  35.903  1.00  0.00     0.031 C 
ATOM     50  C   UNL A   1      45.027  25.548  32.011  1.00  0.00     0.029 A 
ATOM     51  C   UNL A   1      44.145  26.479  32.538  1.00  0.00     0.049 A 
ATOM     52  H   UNL A   1      42.568  27.501  31.582  1.00  0.00     0.167 HD
ATOM     53  C   UNL A   1      43.198  27.889  34.355  1.00  0.00     0.074 A 
ATOM     54  C   UNL A   1      43.151  28.368  35.724  1.00  0.00     0.031 C 
ATOM     55  C   UNL A   1      44.084  26.976  33.891  1.00  0.00     0.031 A 
BRANCH  42  56
ATOM     56  C   UNL A   1      43.452  25.480  27.912  1.00  0.00    -0.014 A 
ATOM     57  C   UNL A   1      44.393  25.959  26.983  1.00  0.00     0.010 A 
ATOM     58  C   UNL A   1      42.983  24.158  27.782  1.00  0.00     0.010 A 
ATOM     59  C   UNL A   1      44.822  25.148  25.925  1.00  0.00     0.020 A 
ATOM     60  C   UNL A   1      43.428  23.335  26.742  1.00  0.00     0.020 A 
ATOM     61  C   UNL A   1      44.332  23.843  25.808  1.00  0.00     0.054 A 
BRANCH  61  62
ATOM     62  S   UNL A   1      44.910  22.811  24.431  1.00  0.00     0.124 S 
ATOM     63  O   UNL A   1      43.681  22.617  23.665  1.00  0.00    -0.237 OA
ATOM     64  O   UNL A   1      45.917  23.658  23.796  1.00  0.00    -0.237 OA
ATOM     65  O   UNL A   1      45.430  21.613  25.086  1.00  0.00    -0.744 OA
ENDBRANCH  61  62
ENDBRANCH  42  56
BRANCH  43  66
ATOM     66  C   UNL A   1      39.903  31.086  35.455  1.00  0.00    -0.014 A 
ATOM     67  C   UNL A   1      38.660  30.741  36.009  1.00  0.00     0.010 A 
ATOM     68  C   UNL A   1      40.636  32.146  36.027  1.00  0.00     0.010 A 
ATOM     69  C   UNL A   1      38.160  31.439  37.111  1.00  0.00     0.020 A 
ATOM     70  C   UNL A   1      40.155  32.825  37.149  1.00  0.00     0.020 A 
ATOM     71  C   UNL A   1      38.914  32.472  37.679  1.00  0.00     0.054 A 
BRANCH  71  72
ATOM     72  S   UNL A   1      38.278  33.312  39.155  1.00  0.00     0.124 S 
ATOM     73  O   UNL A   1      38.977  32.613  40.227  1.00  0.00    -0.237 OA
ATOM     74  O   UNL A   1      38.683  34.697  38.931  1.00  0.00    -0.237 OA
ATOM     75  O   UNL A   1      36.837  33.075  39.089  1.00  0.00    -0.744 OA
ENDBRANCH  71  72
ENDBRANCH  43  66
BRANCH  55  76
ATOM     76  C   UNL A   1      45.120  26.479  34.858  1.00  0.00    -0.014 A 
ATOM     77  C   UNL A   1      44.895  25.343  35.653  1.00  0.00     0.010 A 
ATOM     78  C   UNL A   1      46.369  27.124  34.908  1.00  0.00     0.010 A 
ATOM     79  C   UNL A   1      45.904  24.867  36.494  1.00  0.00     0.020 A 
ATOM     80  C   UNL A   1      47.388  26.634  35.725  1.00  0.00     0.020 A 
ATOM     81  C   UNL A   1      47.146  25.510  36.518  1.00  0.00     0.054 A 
BRANCH  81  82
ATOM     82  S   UNL A   1      48.465  24.820  37.553  1.00  0.00     0.124 S 
ATOM     83  O   UNL A   1      48.453  23.413  37.163  1.00  0.00    -0.237 OA
ATOM     84  O   UNL A   1      49.636  25.582  37.125  1.00  0.00    -0.237 OA
ATOM     85  O   UNL A   1      48.015  25.094  38.916  1.00  0.00    -0.744 OA
ENDBRANCH  81  82
ENDBRANCH  55  76
ENDBRANCH  29  30
ENDBRANCH  22  24
ENDBRANCH  21  22
ENDBRANCH  20  21
ENDBRANCH   1  20
TORSDOF 21
ENDMDL
MODEL 3
REMARK VINA RESULT:      -8.3      2.812      7.006
REMARK SMILES C#CCN(CC(=O)OCCOC(=O)c1ccc(-c2c3nc(c(-c4ccc(S(=O)(=O)[O-])cc4)c4ccc([nH]4)c(-c4ccc(S(=O)(=O)[O-])cc4)c4nc(c(-c5ccc(S(=O)(=O)[O-])cc5)c5ccc2[nH]5)C=C4)C=C3)cc1)C(=O)C(C)(C)[NH2+]CC
REMARK SMILES IDX 9 1 8 2 6 3 7 4 5 5 4 6 3 7 2 8 1 9 74 10 75 11 76 12 77 13
REMARK SMILES IDX 78 14 79 15 80 18 81 19 10 20 11 21 12 22 13 23 14 24 15 25
REMARK SMILES IDX 73 26 16 27 72 28 17 29 18 30 19 31 66 32 20 33 71 34 65 35
REMARK SMILES IDX 67 36 21 37 70 38 64 39 63 40 22 42 52 43 33 44 51 45 34 46
REMARK SMILES IDX 37 47 50 48 68 49 35 50 36 51 49 53 69 54 38 55 23 56 24 57
REMARK SMILES IDX 32 58 25 59 31 60 26 61 27 62 28 63 29 64 30 65 53 66 54 67
REMARK SMILES IDX 62 68 55 69 61 70 56 71 57 72 58 73 59 74 60 75 39 76 40 77
REMARK SMILES IDX 48 78 41 79 47 80 42 81 43 82 44 83 45 84 46 85
REMARK H PARENT 79 16 79 17 67 41 37 52
REMARK Flexibility Score: inf
ROOT
ATOM      1  C   UNL A   1      36.820  21.148  24.893  1.00  0.00     0.274 C 
ENDROOT
BRANCH   1   2
ATOM      2  O   UNL A   1      36.980  22.222  23.950  1.00  0.00    -0.461 OA
BRANCH   2   3
ATOM      3  C   UNL A   1      35.932  23.083  23.836  1.00  0.00     0.325 C 
ATOM      4  O   UNL A   1      35.392  23.397  22.782  1.00  0.00    -0.250 OA
BRANCH   3   5
ATOM      5  C   UNL A   1      35.359  23.413  25.219  1.00  0.00     0.243 C 
BRANCH   5   6
ATOM      6  N   UNL A   1      34.000  23.974  25.254  1.00  0.00    -0.315 N 
BRANCH   6   7
ATOM      7  C   UNL A   1      33.972  25.371  25.638  1.00  0.00     0.210 C 
BRANCH   7   8
ATOM      8  C   UNL A   1      33.802  26.243  24.404  1.00  0.00    -0.085 C 
ATOM      9  C   UNL A   1      33.657  26.991  23.346  1.00  0.00     0.006 C 
ENDBRANCH   7   8
ENDBRANCH   6   7
BRANCH   6  10
ATOM     10  C   UNL A   1      32.743  23.355  25.155  1.00  0.00     0.284 C 
ATOM     11  O   UNL A   1      32.085  23.515  24.114  1.00  0.00    -0.268 OA
BRANCH  10  12
ATOM     12  C   UNL A   1      32.134  22.488  26.316  1.00  0.00     0.170 C 
ATOM     13  C   UNL A   1      32.922  22.561  27.612  1.00  0.00     0.090 C 
ATOM     14  C   UNL A   1      30.691  22.951  26.486  1.00  0.00     0.090 C 
BRANCH  12  15
ATOM     15  N   UNL A   1      31.975  21.055  25.936  1.00  0.00    -0.334 N 
ATOM     16  H   UNL A   1      31.446  21.031  25.064  1.00  0.00     0.347 HD
ATOM     17  H   UNL A   1      31.524  20.630  26.747  1.00  0.00     0.347 HD
BRANCH  15  18
ATOM     18  C   UNL A   1      33.176  20.250  25.735  1.00  0.00     0.257 C 
ATOM     19  C   UNL A   1      33.355  19.703  24.320  1.00  0.00     0.071 C 
ENDBRANCH  15  18
ENDBRANCH  12  15
ENDBRANCH  10  12
ENDBRANCH   6  10
ENDBRANCH   5   6
ENDBRANCH   3   5
ENDBRANCH   2   3
ENDBRANCH   1   2
BRANCH   1  20
ATOM     20  C   UNL A   1      38.198  20.528  25.206  1.00  0.00     0.275 C 
BRANCH  20  21
ATOM     21  O   UNL A   1      39.184  21.337  25.907  1.00  0.00    -0.458 OA
BRANCH  21  22
ATOM     22  C   UNL A   1      40.350  20.795  26.314  1.00  0.00     0.338 C 
ATOM     23  O   UNL A   1      40.572  19.606  26.476  1.00  0.00    -0.246 OA
BRANCH  22  24
ATOM     24  C   UNL A   1      41.328  21.835  26.733  1.00  0.00     0.060 A 
ATOM     25  C   UNL A   1      41.640  22.818  25.784  1.00  0.00     0.016 A 
ATOM     26  C   UNL A   1      41.955  21.867  27.984  1.00  0.00     0.016 A 
ATOM     27  C   UNL A   1      42.577  23.810  26.069  1.00  0.00     0.010 A 
ATOM     28  C   UNL A   1      42.815  22.931  28.308  1.00  0.00     0.010 A 
ATOM     29  C   UNL A   1      43.099  23.932  27.363  1.00  0.00    -0.014 A 
BRANCH  29  30
ATOM     30  C   UNL A   1      43.717  25.223  27.770  1.00  0.00     0.031 A 
ATOM     31  C   UNL A   1      42.924  26.345  28.373  1.00  0.00     0.074 A 
ATOM     32  C   UNL A   1      45.040  25.368  27.538  1.00  0.00     0.049 A 
ATOM     33  N   UNL A   1      43.304  27.571  28.628  1.00  0.00    -0.248 NA
ATOM     34  C   UNL A   1      41.531  26.059  28.744  1.00  0.00     0.031 C 
ATOM     35  C   UNL A   1      45.919  24.324  26.992  1.00  0.00     0.029 A 
ATOM     36  N   UNL A   1      45.883  26.434  27.720  1.00  0.00    -0.354 N 
ATOM     37  C   UNL A   1      42.194  28.215  29.163  1.00  0.00     0.074 A 
ATOM     38  C   UNL A   1      41.124  27.239  29.201  1.00  0.00     0.031 C 
ATOM     39  C   UNL A   1      47.169  24.790  26.906  1.00  0.00     0.029 A 
ATOM     40  C   UNL A   1      47.164  26.194  27.279  1.00  0.00     0.049 A 
ATOM     41  H   UNL A   1      45.600  27.285  28.124  1.00  0.00     0.167 HD
ATOM     42  C   UNL A   1      42.085  29.506  29.564  1.00  0.00     0.031 A 
ATOM     43  C   UNL A   1      48.213  27.021  27.118  1.00  0.00     0.031 A 
ATOM     44  C   UNL A   1      43.165  30.461  29.490  1.00  0.00     0.049 A 
ATOM     45  C   UNL A   1      48.041  28.462  27.480  1.00  0.00     0.074 A 
ATOM     46  C   UNL A   1      43.166  31.795  29.859  1.00  0.00     0.029 A 
ATOM     47  N   UNL A   1      44.438  30.182  29.005  1.00  0.00    -0.354 N 
ATOM     48  N   UNL A   1      46.976  29.060  27.957  1.00  0.00    -0.248 NA
ATOM     49  C   UNL A   1      49.198  29.340  27.281  1.00  0.00     0.031 C 
ATOM     50  C   UNL A   1      44.416  32.337  29.541  1.00  0.00     0.029 A 
ATOM     51  C   UNL A   1      45.221  31.324  29.042  1.00  0.00     0.049 A 
ATOM     52  H   UNL A   1      44.739  29.302  28.684  1.00  0.00     0.167 HD
ATOM     53  C   UNL A   1      47.342  30.383  28.148  1.00  0.00     0.074 A 
ATOM     54  C   UNL A   1      48.728  30.496  27.732  1.00  0.00     0.031 C 
ATOM     55  C   UNL A   1      46.601  31.408  28.630  1.00  0.00     0.031 A 
BRANCH  42  56
ATOM     56  C   UNL A   1      40.741  29.987  30.058  1.00  0.00    -0.014 A 
ATOM     57  C   UNL A   1      40.467  30.140  31.428  1.00  0.00     0.010 A 
ATOM     58  C   UNL A   1      39.749  30.344  29.123  1.00  0.00     0.010 A 
ATOM     59  C   UNL A   1      39.215  30.600  31.855  1.00  0.00     0.020 A 
ATOM     60  C   UNL A   1      38.506  30.828  29.544  1.00  0.00     0.020 A 
ATOM     61  C   UNL A   1      38.240  30.936  30.909  1.00  0.00     0.054 A 
BRANCH  61  62
ATOM     62  S   UNL A   1      36.628  31.534  31.489  1.00  0.00     0.124 S 
ATOM     63  O   UNL A   1      36.434  30.745  32.704  1.00  0.00    -0.237 OA
ATOM     64  O   UNL A   1      36.871  32.959  31.700  1.00  0.00    -0.237 OA
ATOM     65  O   UNL A   1      35.721  31.216  30.389  1.00  0.00    -0.744 OA
ENDBRANCH  61  62
ENDBRANCH  42  56
BRANCH  43  66
ATOM     66  C   UNL A   1      49.477  26.494  26.534  1.00  0.00    -0.014 A 
ATOM     67  C   UNL A   1      49.821  26.766  25.201  1.00  0.00     0.010 A 
ATOM     68  C   UNL A   1      50.387  25.784  27.345  1.00  0.00     0.010 A 
ATOM     69  C   UNL A   1      51.049  26.339  24.688  1.00  0.00     0.020 A 
ATOM     70  C   UNL A   1      51.628  25.384  26.846  1.00  0.00     0.020 A 
ATOM     71  C   UNL A   1      51.948  25.657  25.516  1.00  0.00     0.054 A 
BRANCH  71  72
ATOM     72  S   UNL A   1      53.566  25.180  24.847  1.00  0.00     0.124 S 
ATOM     73  O   UNL A   1      53.484  25.672  23.477  1.00  0.00    -0.237 OA
ATOM     74  O   UNL A   1      54.492  25.893  25.723  1.00  0.00    -0.237 OA
ATOM     75  O   UNL A   1      53.580  23.726  24.991  1.00  0.00    -0.744 OA
ENDBRANCH  71  72
ENDBRANCH  43  66
BRANCH  55  76
ATOM     76  C   UNL A   1      47.292  32.731  28.797  1.00  0.00    -0.014 A 
ATOM     77  C   UNL A   1      48.033  33.031  29.952  1.00  0.00     0.010 A 
ATOM     78  C   UNL A   1      47.254  33.657  27.738  1.00  0.00     0.010 A 
ATOM     79  C   UNL A   1      48.719  34.243  30.049  1.00  0.00     0.020 A 
ATOM     80  C   UNL A   1      47.961  34.856  27.820  1.00  0.00     0.020 A 
ATOM     81  C   UNL A   1      48.685  35.144  28.979  1.00  0.00     0.054 A 
BRANCH  81  82
ATOM     82  S   UNL A   1      49.654  36.673  29.096  1.00  0.00     0.124 S 
ATOM     83  O   UNL A   1      48.840  37.479  30.000  1.00  0.00    -0.237 OA
ATOM     84  O   UNL A   1      50.925  36.203  29.641  1.00  0.00    -0.237 OA
ATOM     85  O   UNL A   1      49.714  37.151  27.716  1.00  0.00    -0.744 OA
ENDBRANCH  81  82
ENDBRANCH  55  76
ENDBRANCH  29  30
ENDBRANCH  22  24
ENDBRANCH  21  22
ENDBRANCH  20  21
ENDBRANCH   1  20
TORSDOF 21
ENDMDL
