MODEL 1
REMARK VINA RESULT:     -10.8      0.000      0.000
REMARK SMILES C[C@@H](C(=O)OCCOC(=O)c1ccc(-c2c3nc(c(-c4ccc(S(=O)(=O)[O-])cc4)c4ccc([nH]4)c(-c4ccc(S(=O)(=O)[O-])cc4)c4nc(c(-c5ccc(S(=O)(=O)[O-])cc5)c5ccc2[nH]5)C=C4)C=C3)cc1)S(=O)(=O)N[C@@]12C[C@@H]3C[C@@](C)(C[C@@](C)(C3)C1)C2
REMARK SMILES IDX 6 1 5 2 3 3 4 4 2 5 1 6 71 7 72 8 73 9 74 10 75 12 76 13
REMARK SMILES IDX 85 14 86 15 77 16 82 17 79 18 84 19 78 20 81 21 83 22 80 23
REMARK SMILES IDX 7 24 8 25 9 26 10 27 11 28 12 29 70 30 13 31 69 32 14 33
REMARK SMILES IDX 15 34 16 35 63 36 17 37 68 38 62 39 64 40 18 41 67 42 61 43
REMARK SMILES IDX 60 44 19 46 49 47 30 48 48 49 31 50 34 51 47 52 65 53 32 54
REMARK SMILES IDX 33 55 46 57 66 58 35 59 20 60 21 61 29 62 22 63 28 64 23 65
REMARK SMILES IDX 24 66 25 67 26 68 27 69 50 70 51 71 59 72 52 73 58 74 53 75
REMARK SMILES IDX 54 76 55 77 56 78 57 79 36 80 37 81 45 82 38 83 44 84 39 85
REMARK SMILES IDX 40 86 41 87 42 88 43 89
REMARK H PARENT 74 11 64 45 34 56
REMARK Flexibility Score: inf
ROOT
ATOM      1  C   UNL A   1      31.909  27.761  26.241  1.00  0.00     0.274 C 
ENDROOT
BRANCH   1   2
ATOM      2  O   UNL A   1      31.694  28.423  24.972  1.00  0.00    -0.461 OA
BRANCH   2   3
ATOM      3  C   UNL A   1      32.678  28.233  24.041  1.00  0.00     0.325 C 
ATOM      4  O   UNL A   1      33.843  28.568  24.222  1.00  0.00    -0.251 OA
BRANCH   3   5
ATOM      5  C   UNL A   1      32.161  27.738  22.721  1.00  0.00     0.230 C 
ATOM      6  C   UNL A   1      30.712  28.055  22.388  1.00  0.00     0.039 C 
BRANCH   5   7
ATOM      7  S   UNL A   1      32.690  26.068  22.376  1.00  0.00     0.225 S 
ATOM      8  O   UNL A   1      31.565  25.185  22.615  1.00  0.00    -0.212 OA
ATOM      9  O   UNL A   1      33.296  26.058  21.065  1.00  0.00    -0.212 OA
BRANCH   7  10
ATOM     10  N   UNL A   1      33.944  25.646  23.392  1.00  0.00    -0.208 NA
ATOM     11  H   UNL A   1      33.974  26.395  24.083  1.00  0.00     0.141 HD
BRANCH  10  12
ATOM     12  C   UNL A   1      34.122  24.404  24.185  1.00  0.00     0.034 C 
ATOM     13  C   UNL A   1      33.905  23.170  23.261  1.00  0.00     0.027 C 
ATOM     14  C   UNL A   1      35.584  24.322  24.647  1.00  0.00     0.030 C 
ATOM     15  C   UNL A   1      33.139  24.281  25.356  1.00  0.00     0.030 C 
ATOM     16  C   UNL A   1      34.164  21.858  24.035  1.00  0.00    -0.008 C 
ATOM     17  C   UNL A   1      35.830  23.062  25.499  1.00  0.00    -0.030 C 
ATOM     18  C   UNL A   1      33.366  22.981  26.149  1.00  0.00    -0.030 C 
ATOM     19  C   UNL A   1      35.600  21.837  24.589  1.00  0.00     0.010 C 
ATOM     20  C   UNL A   1      33.184  21.769  25.211  1.00  0.00     0.010 C 
ATOM     21  C   UNL A   1      34.820  23.014  26.671  1.00  0.00     0.013 C 
ATOM     22  C   UNL A   1      37.262  23.089  26.041  1.00  0.00     0.011 C 
ATOM     23  C   UNL A   1      32.366  22.902  27.306  1.00  0.00     0.011 C 
ENDBRANCH  10  12
ENDBRANCH   7  10
ENDBRANCH   5   7
ENDBRANCH   3   5
ENDBRANCH   2   3
ENDBRANCH   1   2
BRANCH   1  24
ATOM     24  C   UNL A   1      32.279  28.747  27.347  1.00  0.00     0.275 C 
BRANCH  24  25
ATOM     25  O   UNL A   1      33.705  28.799  27.482  1.00  0.00    -0.458 OA
BRANCH  25  26
ATOM     26  C   UNL A   1      34.227  30.003  27.808  1.00  0.00     0.338 C 
ATOM     27  O   UNL A   1      33.618  31.063  27.878  1.00  0.00    -0.246 OA
BRANCH  26  28
ATOM     28  C   UNL A   1      35.668  29.872  28.123  1.00  0.00     0.060 A 
ATOM     29  C   UNL A   1      36.642  30.096  27.152  1.00  0.00     0.016 A 
ATOM     30  C   UNL A   1      36.055  29.414  29.383  1.00  0.00     0.016 A 
ATOM     31  C   UNL A   1      37.973  29.755  27.400  1.00  0.00     0.010 A 
ATOM     32  C   UNL A   1      37.409  29.184  29.664  1.00  0.00     0.010 A 
ATOM     33  C   UNL A   1      38.388  29.311  28.663  1.00  0.00    -0.014 A 
BRANCH  33  34
ATOM     34  C   UNL A   1      39.822  28.975  28.933  1.00  0.00     0.031 A 
ATOM     35  C   UNL A   1      40.754  29.994  29.552  1.00  0.00     0.074 A 
ATOM     36  C   UNL A   1      40.312  27.754  28.628  1.00  0.00     0.049 A 
ATOM     37  N   UNL A   1      42.059  29.962  29.662  1.00  0.00    -0.248 NA
ATOM     38  C   UNL A   1      40.143  31.213  30.108  1.00  0.00     0.031 C 
ATOM     39  C   UNL A   1      39.542  26.636  28.075  1.00  0.00     0.029 A 
ATOM     40  N   UNL A   1      41.583  27.242  28.751  1.00  0.00    -0.354 N 
ATOM     41  C   UNL A   1      42.428  31.175  30.235  1.00  0.00     0.074 A 
ATOM     42  C   UNL A   1      41.209  31.921  30.460  1.00  0.00     0.031 C 
ATOM     43  C   UNL A   1      40.333  25.561  27.968  1.00  0.00     0.029 A 
ATOM     44  C   UNL A   1      41.695  25.939  28.323  1.00  0.00     0.049 A 
ATOM     45  H   UNL A   1      42.339  27.758  29.112  1.00  0.00     0.167 HD
ATOM     46  C   UNL A   1      43.669  31.635  30.531  1.00  0.00     0.031 A 
ATOM     47  C   UNL A   1      42.771  25.143  28.165  1.00  0.00     0.031 A 
ATOM     48  C   UNL A   1      44.882  30.879  30.348  1.00  0.00     0.049 A 
ATOM     49  C   UNL A   1      44.138  25.688  28.452  1.00  0.00     0.074 A 
ATOM     50  C   UNL A   1      46.183  31.263  30.627  1.00  0.00     0.029 A 
ATOM     51  N   UNL A   1      44.946  29.585  29.857  1.00  0.00    -0.354 N 
ATOM     52  N   UNL A   1      44.473  26.870  28.908  1.00  0.00    -0.248 NA
ATOM     53  C   UNL A   1      45.275  24.802  28.169  1.00  0.00     0.031 C 
ATOM     54  C   UNL A   1      47.038  30.217  30.263  1.00  0.00     0.029 A 
ATOM     55  C   UNL A   1      46.265  29.164  29.807  1.00  0.00     0.049 A 
ATOM     56  H   UNL A   1      44.169  29.045  29.586  1.00  0.00     0.167 HD
ATOM     57  C   UNL A   1      45.861  26.869  28.969  1.00  0.00     0.074 A 
ATOM     58  C   UNL A   1      46.301  25.562  28.526  1.00  0.00     0.031 C 
ATOM     59  C   UNL A   1      46.695  27.867  29.350  1.00  0.00     0.031 A 
BRANCH  46  60
ATOM     60  C   UNL A   1      43.794  33.048  31.039  1.00  0.00    -0.014 A 
ATOM     61  C   UNL A   1      43.989  34.132  30.167  1.00  0.00     0.010 A 
ATOM     62  C   UNL A   1      43.643  33.295  32.417  1.00  0.00     0.010 A 
ATOM     63  C   UNL A   1      44.062  35.436  30.669  1.00  0.00     0.020 A 
ATOM     64  C   UNL A   1      43.692  34.598  32.919  1.00  0.00     0.020 A 
ATOM     65  C   UNL A   1      43.916  35.661  32.042  1.00  0.00     0.054 A 
BRANCH  65  66
ATOM     66  S   UNL A   1      43.984  37.364  32.665  1.00  0.00     0.124 S 
ATOM     67  O   UNL A   1      43.674  38.135  31.464  1.00  0.00    -0.237 OA
ATOM     68  O   UNL A   1      42.951  37.370  33.698  1.00  0.00    -0.237 OA
ATOM     69  O   UNL A   1      45.352  37.499  33.157  1.00  0.00    -0.744 OA
ENDBRANCH  65  66
ENDBRANCH  46  60
BRANCH  47  70
ATOM     70  C   UNL A   1      42.593  23.766  27.627  1.00  0.00    -0.014 A 
ATOM     71  C   UNL A   1      43.013  23.446  26.325  1.00  0.00     0.010 A 
ATOM     72  C   UNL A   1      42.033  22.759  28.434  1.00  0.00     0.010 A 
ATOM     73  C   UNL A   1      42.880  22.140  25.842  1.00  0.00     0.020 A 
ATOM     74  C   UNL A   1      41.928  21.447  27.967  1.00  0.00     0.020 A 
ATOM     75  C   UNL A   1      42.344  21.148  26.669  1.00  0.00     0.054 A 
BRANCH  75  76
ATOM     76  S   UNL A   1      42.253  19.441  26.059  1.00  0.00     0.124 S 
ATOM     77  O   UNL A   1      40.833  19.304  25.753  1.00  0.00    -0.237 OA
ATOM     78  O   UNL A   1      43.150  19.464  24.906  1.00  0.00    -0.237 OA
ATOM     79  O   UNL A   1      42.731  18.651  27.193  1.00  0.00    -0.744 OA
ENDBRANCH  75  76
ENDBRANCH  47  70
BRANCH  59  80
ATOM     80  C   UNL A   1      48.169  27.576  29.324  1.00  0.00    -0.014 A 
ATOM     81  C   UNL A   1      48.815  27.015  30.439  1.00  0.00     0.010 A 
ATOM     82  C   UNL A   1      48.911  27.843  28.159  1.00  0.00     0.010 A 
ATOM     83  C   UNL A   1      50.188  26.757  30.402  1.00  0.00     0.020 A 
ATOM     84  C   UNL A   1      50.279  27.566  28.111  1.00  0.00     0.020 A 
ATOM     85  C   UNL A   1      50.913  27.039  29.238  1.00  0.00     0.054 A 
BRANCH  85  86
ATOM     86  S   UNL A   1      52.689  26.673  29.202  1.00  0.00     0.124 S 
ATOM     87  O   UNL A   1      52.866  25.906  30.433  1.00  0.00    -0.237 OA
ATOM     88  O   UNL A   1      52.837  25.914  27.963  1.00  0.00    -0.237 OA
ATOM     89  O   UNL A   1      53.313  27.994  29.195  1.00  0.00    -0.744 OA
ENDBRANCH  85  86
ENDBRANCH  59  80
ENDBRANCH  33  34
ENDBRANCH  26  28
ENDBRANCH  25  26
ENDBRANCH  24  25
ENDBRANCH   1  24
TORSDOF 17
ENDMDL
MODEL 2
REMARK VINA RESULT:     -10.6      3.669      8.839
REMARK SMILES C[C@@H](C(=O)OCCOC(=O)c1ccc(-c2c3nc(c(-c4ccc(S(=O)(=O)[O-])cc4)c4ccc([nH]4)c(-c4ccc(S(=O)(=O)[O-])cc4)c4nc(c(-c5ccc(S(=O)(=O)[O-])cc5)c5ccc2[nH]5)C=C4)C=C3)cc1)S(=O)(=O)N[C@@]12C[C@@H]3C[C@@](C)(C[C@@](C)(C3)C1)C2
REMARK SMILES IDX 6 1 5 2 3 3 4 4 2 5 1 6 71 7 72 8 73 9 74 10 75 12 76 13
REMARK SMILES IDX 85 14 86 15 77 16 82 17 79 18 84 19 78 20 81 21 83 22 80 23
REMARK SMILES IDX 7 24 8 25 9 26 10 27 11 28 12 29 70 30 13 31 69 32 14 33
REMARK SMILES IDX 15 34 16 35 63 36 17 37 68 38 62 39 64 40 18 41 67 42 61 43
REMARK SMILES IDX 60 44 19 46 49 47 30 48 48 49 31 50 34 51 47 52 65 53 32 54
REMARK SMILES IDX 33 55 46 57 66 58 35 59 20 60 21 61 29 62 22 63 28 64 23 65
REMARK SMILES IDX 24 66 25 67 26 68 27 69 50 70 51 71 59 72 52 73 58 74 53 75
REMARK SMILES IDX 54 76 55 77 56 78 57 79 36 80 37 81 45 82 38 83 44 84 39 85
REMARK SMILES IDX 40 86 41 87 42 88 43 89
REMARK H PARENT 74 11 64 45 34 56
REMARK Flexibility Score: inf
ROOT
ATOM      1  C   UNL A   1      31.896  28.568  26.408  1.00  0.00     0.274 C 
ENDROOT
BRANCH   1   2
ATOM      2  O   UNL A   1      31.538  28.480  25.009  1.00  0.00    -0.461 OA
BRANCH   2   3
ATOM      3  C   UNL A   1      32.474  27.895  24.202  1.00  0.00     0.325 C 
ATOM      4  O   UNL A   1      33.675  27.925  24.441  1.00  0.00    -0.251 OA
BRANCH   3   5
ATOM      5  C   UNL A   1      31.905  27.365  22.917  1.00  0.00     0.230 C 
ATOM      6  C   UNL A   1      30.395  27.439  22.753  1.00  0.00     0.039 C 
BRANCH   5   7
ATOM      7  S   UNL A   1      32.665  25.826  22.429  1.00  0.00     0.225 S 
ATOM      8  O   UNL A   1      31.609  24.890  22.099  1.00  0.00    -0.212 OA
ATOM      9  O   UNL A   1      33.653  26.122  21.417  1.00  0.00    -0.212 OA
BRANCH   7  10
ATOM     10  N   UNL A   1      33.567  25.210  23.691  1.00  0.00    -0.208 NA
ATOM     11  H   UNL A   1      33.649  25.987  24.348  1.00  0.00     0.141 HD
BRANCH  10  12
ATOM     12  C   UNL A   1      33.288  24.030  24.546  1.00  0.00     0.034 C 
ATOM     13  C   UNL A   1      34.405  23.901  25.623  1.00  0.00     0.027 C 
ATOM     14  C   UNL A   1      31.990  24.285  25.326  1.00  0.00     0.030 C 
ATOM     15  C   UNL A   1      33.243  22.709  23.768  1.00  0.00     0.030 C 
ATOM     16  C   UNL A   1      34.103  22.730  26.583  1.00  0.00    -0.008 C 
ATOM     17  C   UNL A   1      31.630  23.082  26.219  1.00  0.00    -0.030 C 
ATOM     18  C   UNL A   1      32.947  21.518  24.696  1.00  0.00    -0.030 C 
ATOM     19  C   UNL A   1      32.745  22.942  27.278  1.00  0.00     0.010 C 
ATOM     20  C   UNL A   1      34.042  21.425  25.779  1.00  0.00     0.010 C 
ATOM     21  C   UNL A   1      31.581  21.791  25.367  1.00  0.00     0.013 C 
ATOM     22  C   UNL A   1      30.270  23.328  26.876  1.00  0.00     0.011 C 
ATOM     23  C   UNL A   1      32.910  20.223  23.878  1.00  0.00     0.011 C 
ENDBRANCH  10  12
ENDBRANCH   7  10
ENDBRANCH   5   7
ENDBRANCH   3   5
ENDBRANCH   2   3
ENDBRANCH   1   2
BRANCH   1  24
ATOM     24  C   UNL A   1      32.104  30.013  26.858  1.00  0.00     0.275 C 
BRANCH  24  25
ATOM     25  O   UNL A   1      33.460  30.401  26.606  1.00  0.00    -0.458 OA
BRANCH  25  26
ATOM     26  C   UNL A   1      33.953  31.385  27.391  1.00  0.00     0.338 C 
ATOM     27  O   UNL A   1      33.404  32.447  27.653  1.00  0.00    -0.246 OA
BRANCH  26  28
ATOM     28  C   UNL A   1      35.265  30.990  27.951  1.00  0.00     0.060 A 
ATOM     29  C   UNL A   1      35.485  29.703  28.436  1.00  0.00     0.016 A 
ATOM     30  C   UNL A   1      36.267  31.952  28.093  1.00  0.00     0.016 A 
ATOM     31  C   UNL A   1      36.645  29.412  29.159  1.00  0.00     0.010 A 
ATOM     32  C   UNL A   1      37.478  31.621  28.717  1.00  0.00     0.010 A 
ATOM     33  C   UNL A   1      37.672  30.356  29.298  1.00  0.00    -0.014 A 
BRANCH  33  34
ATOM     34  C   UNL A   1      38.926  30.030  30.047  1.00  0.00     0.031 A 
ATOM     35  C   UNL A   1      39.871  28.957  29.548  1.00  0.00     0.074 A 
ATOM     36  C   UNL A   1      39.239  30.687  31.185  1.00  0.00     0.049 A 
ATOM     37  N   UNL A   1      40.880  28.393  30.164  1.00  0.00    -0.248 NA
ATOM     38  C   UNL A   1      39.645  28.442  28.187  1.00  0.00     0.031 C 
ATOM     39  C   UNL A   1      38.470  31.783  31.779  1.00  0.00     0.029 A 
ATOM     40  N   UNL A   1      40.301  30.533  32.045  1.00  0.00    -0.354 N 
ATOM     41  C   UNL A   1      41.365  27.418  29.298  1.00  0.00     0.074 A 
ATOM     42  C   UNL A   1      40.546  27.471  28.106  1.00  0.00     0.031 C 
ATOM     43  C   UNL A   1      39.112  32.242  32.861  1.00  0.00     0.029 A 
ATOM     44  C   UNL A   1      40.272  31.397  33.115  1.00  0.00     0.049 A 
ATOM     45  H   UNL A   1      41.015  29.870  31.908  1.00  0.00     0.167 HD
ATOM     46  C   UNL A   1      42.387  26.546  29.482  1.00  0.00     0.031 A 
ATOM     47  C   UNL A   1      41.043  31.477  34.218  1.00  0.00     0.031 A 
ATOM     48  C   UNL A   1      43.233  26.518  30.648  1.00  0.00     0.049 A 
ATOM     49  C   UNL A   1      42.136  30.471  34.425  1.00  0.00     0.074 A 
ATOM     50  C   UNL A   1      44.296  25.673  30.918  1.00  0.00     0.029 A 
ATOM     51  N   UNL A   1      43.124  27.378  31.729  1.00  0.00    -0.354 N 
ATOM     52  N   UNL A   1      42.521  29.500  33.634  1.00  0.00    -0.248 NA
ATOM     53  C   UNL A   1      42.878  30.553  35.690  1.00  0.00     0.031 C 
ATOM     54  C   UNL A   1      44.803  25.993  32.181  1.00  0.00     0.029 A 
ATOM     55  C   UNL A   1      44.088  27.071  32.675  1.00  0.00     0.049 A 
ATOM     56  H   UNL A   1      42.461  28.101  31.812  1.00  0.00     0.167 HD
ATOM     57  C   UNL A   1      43.551  28.854  34.306  1.00  0.00     0.074 A 
ATOM     58  C   UNL A   1      43.745  29.560  35.556  1.00  0.00     0.031 C 
ATOM     59  C   UNL A   1      44.265  27.768  33.923  1.00  0.00     0.031 A 
BRANCH  46  60
ATOM     60  C   UNL A   1      42.624  25.505  28.419  1.00  0.00    -0.014 A 
ATOM     61  C   UNL A   1      43.521  25.719  27.360  1.00  0.00     0.010 A 
ATOM     62  C   UNL A   1      41.978  24.258  28.528  1.00  0.00     0.010 A 
ATOM     63  C   UNL A   1      43.746  24.716  26.412  1.00  0.00     0.020 A 
ATOM     64  C   UNL A   1      42.217  23.245  27.595  1.00  0.00     0.020 A 
ATOM     65  C   UNL A   1      43.090  23.486  26.533  1.00  0.00     0.054 A 
BRANCH  65  66
ATOM     66  S   UNL A   1      43.421  22.190  25.308  1.00  0.00     0.124 S 
ATOM     67  O   UNL A   1      43.441  22.953  24.062  1.00  0.00    -0.237 OA
ATOM     68  O   UNL A   1      44.712  21.660  25.739  1.00  0.00    -0.237 OA
ATOM     69  O   UNL A   1      42.294  21.272  25.459  1.00  0.00    -0.744 OA
ENDBRANCH  65  66
ENDBRANCH  46  60
BRANCH  47  70
ATOM     70  C   UNL A   1      40.741  32.504  35.253  1.00  0.00    -0.014 A 
ATOM     71  C   UNL A   1      39.820  32.239  36.279  1.00  0.00     0.010 A 
ATOM     72  C   UNL A   1      41.409  33.743  35.233  1.00  0.00     0.010 A 
ATOM     73  C   UNL A   1      39.573  33.195  37.270  1.00  0.00     0.020 A 
ATOM     74  C   UNL A   1      41.189  34.687  36.239  1.00  0.00     0.020 A 
ATOM     75  C   UNL A   1      40.265  34.410  37.247  1.00  0.00     0.054 A 
BRANCH  75  76
ATOM     76  S   UNL A   1      39.997  35.606  38.584  1.00  0.00     0.124 S 
ATOM     77  O   UNL A   1      41.296  35.611  39.250  1.00  0.00    -0.237 OA
ATOM     78  O   UNL A   1      39.653  36.827  37.860  1.00  0.00    -0.237 OA
ATOM     79  O   UNL A   1      38.901  35.018  39.351  1.00  0.00    -0.744 OA
ENDBRANCH  75  76
ENDBRANCH  47  70
BRANCH  59  80
ATOM     80  C   UNL A   1      45.338  27.289  34.859  1.00  0.00    -0.014 A 
ATOM     81  C   UNL A   1      45.064  26.315  35.835  1.00  0.00     0.010 A 
ATOM     82  C   UNL A   1      46.643  27.801  34.745  1.00  0.00     0.010 A 
ATOM     83  C   UNL A   1      46.070  25.885  36.705  1.00  0.00     0.020 A 
ATOM     84  C   UNL A   1      47.656  27.358  35.597  1.00  0.00     0.020 A 
ATOM     85  C   UNL A   1      47.360  26.413  36.583  1.00  0.00     0.054 A 
BRANCH  85  86
ATOM     86  S   UNL A   1      48.658  25.823  37.705  1.00  0.00     0.124 S 
ATOM     87  O   UNL A   1      48.910  24.478  37.196  1.00  0.00    -0.237 OA
ATOM     88  O   UNL A   1      49.733  26.788  37.490  1.00  0.00    -0.237 OA
ATOM     89  O   UNL A   1      48.029  25.885  39.022  1.00  0.00    -0.744 OA
ENDBRANCH  85  86
ENDBRANCH  59  80
ENDBRANCH  33  34
ENDBRANCH  26  28
ENDBRANCH  25  26
ENDBRANCH  24  25
ENDBRANCH   1  24
TORSDOF 17
ENDMDL
MODEL 3
REMARK VINA RESULT:     -10.5      2.161      3.073
REMARK SMILES C[C@@H](C(=O)OCCOC(=O)c1ccc(-c2c3nc(c(-c4ccc(S(=O)(=O)[O-])cc4)c4ccc([nH]4)c(-c4ccc(S(=O)(=O)[O-])cc4)c4nc(c(-c5ccc(S(=O)(=O)[O-])cc5)c5ccc2[nH]5)C=C4)C=C3)cc1)S(=O)(=O)N[C@@]12C[C@@H]3C[C@@](C)(C[C@@](C)(C3)C1)C2
REMARK SMILES IDX 6 1 5 2 3 3 4 4 2 5 1 6 71 7 72 8 73 9 74 10 75 12 76 13
REMARK SMILES IDX 85 14 86 15 77 16 82 17 79 18 84 19 78 20 81 21 83 22 80 23
REMARK SMILES IDX 7 24 8 25 9 26 10 27 11 28 12 29 70 30 13 31 69 32 14 33
REMARK SMILES IDX 15 34 16 35 63 36 17 37 68 38 62 39 64 40 18 41 67 42 61 43
REMARK SMILES IDX 60 44 19 46 49 47 30 48 48 49 31 50 34 51 47 52 65 53 32 54
REMARK SMILES IDX 33 55 46 57 66 58 35 59 20 60 21 61 29 62 22 63 28 64 23 65
REMARK SMILES IDX 24 66 25 67 26 68 27 69 50 70 51 71 59 72 52 73 58 74 53 75
REMARK SMILES IDX 54 76 55 77 56 78 57 79 36 80 37 81 45 82 38 83 44 84 39 85
REMARK SMILES IDX 40 86 41 87 42 88 43 89
REMARK H PARENT 74 11 64 45 34 56
REMARK Flexibility Score: inf
ROOT
ATOM      1  C   UNL A   1      33.242  29.474  26.924  1.00  0.00     0.274 C 
ENDROOT
BRANCH   1   2
ATOM      2  O   UNL A   1      33.197  29.144  25.516  1.00  0.00    -0.461 OA
BRANCH   2   3
ATOM      3  C   UNL A   1      33.658  27.897  25.193  1.00  0.00     0.325 C 
ATOM      4  O   UNL A   1      34.057  27.095  26.029  1.00  0.00    -0.251 OA
BRANCH   3   5
ATOM      5  C   UNL A   1      33.787  27.676  23.713  1.00  0.00     0.230 C 
ATOM      6  C   UNL A   1      33.217  28.753  22.805  1.00  0.00     0.039 C 
BRANCH   5   7
ATOM      7  S   UNL A   1      33.415  25.992  23.251  1.00  0.00     0.225 S 
ATOM      8  O   UNL A   1      31.989  25.790  23.409  1.00  0.00    -0.212 OA
ATOM      9  O   UNL A   1      33.997  25.752  21.950  1.00  0.00    -0.212 OA
BRANCH   7  10
ATOM     10  N   UNL A   1      34.233  24.933  24.248  1.00  0.00    -0.208 NA
ATOM     11  H   UNL A   1      34.574  25.516  25.012  1.00  0.00     0.141 HD
BRANCH  10  12
ATOM     12  C   UNL A   1      33.731  23.706  24.914  1.00  0.00     0.034 C 
ATOM     13  C   UNL A   1      34.747  23.264  26.008  1.00  0.00     0.027 C 
ATOM     14  C   UNL A   1      32.438  24.050  25.667  1.00  0.00     0.030 C 
ATOM     15  C   UNL A   1      33.542  22.524  23.955  1.00  0.00     0.030 C 
ATOM     16  C   UNL A   1      34.216  22.035  26.779  1.00  0.00    -0.008 C 
ATOM     17  C   UNL A   1      31.850  22.808  26.365  1.00  0.00    -0.030 C 
ATOM     18  C   UNL A   1      33.017  21.278  24.691  1.00  0.00    -0.030 C 
ATOM     19  C   UNL A   1      32.863  22.358  27.438  1.00  0.00     0.010 C 
ATOM     20  C   UNL A   1      34.017  20.875  25.795  1.00  0.00     0.010 C 
ATOM     21  C   UNL A   1      31.666  21.665  25.336  1.00  0.00     0.013 C 
ATOM     22  C   UNL A   1      30.501  23.170  26.992  1.00  0.00     0.011 C 
ATOM     23  C   UNL A   1      32.843  20.127  23.696  1.00  0.00     0.011 C 
ENDBRANCH  10  12
ENDBRANCH   7  10
ENDBRANCH   5   7
ENDBRANCH   3   5
ENDBRANCH   2   3
ENDBRANCH   1   2
BRANCH   1  24
ATOM     24  C   UNL A   1      34.487  30.281  27.285  1.00  0.00     0.275 C 
BRANCH  24  25
ATOM     25  O   UNL A   1      35.369  29.472  28.073  1.00  0.00    -0.458 OA
BRANCH  25  26
ATOM     26  C   UNL A   1      36.062  30.116  29.040  1.00  0.00     0.338 C 
ATOM     27  O   UNL A   1      35.587  30.775  29.955  1.00  0.00    -0.246 OA
BRANCH  26  28
ATOM     28  C   UNL A   1      37.515  29.883  28.875  1.00  0.00     0.060 A 
ATOM     29  C   UNL A   1      38.092  29.785  27.611  1.00  0.00     0.016 A 
ATOM     30  C   UNL A   1      38.303  29.652  30.004  1.00  0.00     0.016 A 
ATOM     31  C   UNL A   1      39.411  29.348  27.471  1.00  0.00     0.010 A 
ATOM     32  C   UNL A   1      39.659  29.326  29.860  1.00  0.00     0.010 A 
ATOM     33  C   UNL A   1      40.227  29.128  28.589  1.00  0.00    -0.014 A 
BRANCH  33  34
ATOM     34  C   UNL A   1      41.649  28.687  28.435  1.00  0.00     0.031 A 
ATOM     35  C   UNL A   1      42.788  29.668  28.613  1.00  0.00     0.074 A 
ATOM     36  C   UNL A   1      41.943  27.404  28.132  1.00  0.00     0.049 A 
ATOM     37  N   UNL A   1      44.056  29.527  28.313  1.00  0.00    -0.248 NA
ATOM     38  C   UNL A   1      42.460  30.982  29.191  1.00  0.00     0.031 C 
ATOM     39  C   UNL A   1      40.973  26.317  27.976  1.00  0.00     0.029 A 
ATOM     40  N   UNL A   1      43.155  26.792  27.909  1.00  0.00    -0.354 N 
ATOM     41  C   UNL A   1      44.659  30.746  28.602  1.00  0.00     0.074 A 
ATOM     42  C   UNL A   1      43.622  31.617  29.111  1.00  0.00     0.031 C 
ATOM     43  C   UNL A   1      41.624  25.169  27.749  1.00  0.00     0.029 A 
ATOM     44  C   UNL A   1      43.048  25.451  27.616  1.00  0.00     0.049 A 
ATOM     45  H   UNL A   1      44.015  27.266  27.955  1.00  0.00     0.167 HD
ATOM     46  C   UNL A   1      45.955  31.115  28.442  1.00  0.00     0.031 A 
ATOM     47  C   UNL A   1      43.968  24.549  27.221  1.00  0.00     0.031 A 
ATOM     48  C   UNL A   1      46.999  30.239  27.976  1.00  0.00     0.049 A 
ATOM     49  C   UNL A   1      45.385  24.990  27.003  1.00  0.00     0.074 A 
ATOM     50  C   UNL A   1      48.341  30.526  27.790  1.00  0.00     0.029 A 
ATOM     51  N   UNL A   1      46.826  28.906  27.639  1.00  0.00    -0.354 N 
ATOM     52  N   UNL A   1      45.916  26.172  27.197  1.00  0.00    -0.248 NA
ATOM     53  C   UNL A   1      46.318  23.983  26.482  1.00  0.00     0.031 C 
ATOM     54  C   UNL A   1      48.971  29.378  27.298  1.00  0.00     0.029 A 
ATOM     55  C   UNL A   1      48.032  28.363  27.227  1.00  0.00     0.049 A 
ATOM     56  H   UNL A   1      45.973  28.418  27.686  1.00  0.00     0.167 HD
ATOM     57  C   UNL A   1      47.249  26.050  26.821  1.00  0.00     0.074 A 
ATOM     58  C   UNL A   1      47.446  24.675  26.412  1.00  0.00     0.031 C 
ATOM     59  C   UNL A   1      48.217  26.998  26.808  1.00  0.00     0.031 A 
BRANCH  46  60
ATOM     60  C   UNL A   1      46.317  32.550  28.723  1.00  0.00    -0.014 A 
ATOM     61  C   UNL A   1      46.688  32.982  30.007  1.00  0.00     0.010 A 
ATOM     62  C   UNL A   1      46.349  33.469  27.656  1.00  0.00     0.010 A 
ATOM     63  C   UNL A   1      47.056  34.314  30.225  1.00  0.00     0.020 A 
ATOM     64  C   UNL A   1      46.738  34.795  27.866  1.00  0.00     0.020 A 
ATOM     65  C   UNL A   1      47.075  35.213  29.154  1.00  0.00     0.054 A 
BRANCH  65  66
ATOM     66  S   UNL A   1      47.585  36.928  29.456  1.00  0.00     0.124 S 
ATOM     67  O   UNL A   1      47.297  37.557  28.170  1.00  0.00    -0.237 OA
ATOM     68  O   UNL A   1      46.718  37.332  30.560  1.00  0.00    -0.237 OA
ATOM     69  O   UNL A   1      49.002  36.815  29.792  1.00  0.00    -0.744 OA
ENDBRANCH  65  66
ENDBRANCH  46  60
BRANCH  47  70
ATOM     70  C   UNL A   1      43.547  23.152  26.924  1.00  0.00    -0.014 A 
ATOM     71  C   UNL A   1      43.909  22.537  25.714  1.00  0.00     0.010 A 
ATOM     72  C   UNL A   1      42.810  22.419  27.873  1.00  0.00     0.010 A 
ATOM     73  C   UNL A   1      43.544  21.211  25.460  1.00  0.00     0.020 A 
ATOM     74  C   UNL A   1      42.472  21.085  27.637  1.00  0.00     0.020 A 
ATOM     75  C   UNL A   1      42.833  20.492  26.427  1.00  0.00     0.054 A 
BRANCH  75  76
ATOM     76  S   UNL A   1      42.439  18.747  26.120  1.00  0.00     0.124 S 
ATOM     77  O   UNL A   1      41.036  18.820  25.723  1.00  0.00    -0.237 OA
ATOM     78  O   UNL A   1      43.379  18.387  25.061  1.00  0.00    -0.237 OA
ATOM     79  O   UNL A   1      42.695  18.111  27.410  1.00  0.00    -0.744 OA
ENDBRANCH  75  76
ENDBRANCH  47  70
BRANCH  59  80
ATOM     80  C   UNL A   1      49.586  26.572  26.356  1.00  0.00    -0.014 A 
ATOM     81  C   UNL A   1      50.034  26.844  25.052  1.00  0.00     0.010 A 
ATOM     82  C   UNL A   1      50.443  25.913  27.255  1.00  0.00     0.010 A 
ATOM     83  C   UNL A   1      51.306  26.435  24.644  1.00  0.00     0.020 A 
ATOM     84  C   UNL A   1      51.723  25.522  26.858  1.00  0.00     0.020 A 
ATOM     85  C   UNL A   1      52.141  25.771  25.549  1.00  0.00     0.054 A 
BRANCH  85  86
ATOM     86  S   UNL A   1      53.798  25.270  25.006  1.00  0.00     0.124 S 
ATOM     87  O   UNL A   1      54.656  26.016  25.923  1.00  0.00    -0.237 OA
ATOM     88  O   UNL A   1      53.778  23.822  25.202  1.00  0.00    -0.237 OA
ATOM     89  O   UNL A   1      53.850  25.703  23.612  1.00  0.00    -0.744 OA
ENDBRANCH  85  86
ENDBRANCH  59  80
ENDBRANCH  33  34
ENDBRANCH  26  28
ENDBRANCH  25  26
ENDBRANCH  24  25
ENDBRANCH   1  24
TORSDOF 17
ENDMDL
