MODEL 1
REMARK VINA RESULT:     -11.2      0.000      0.000
REMARK SMILES Cc1cc(F)c([C@H](O)[C@H]2CCCC[C@@H]2C(=O)OCCOC(=O)c2ccc(-c3c4nc(c(-c5ccc(S(=O)(=O)[O-])cc5)c5ccc([nH]5)c(-c5ccc(S(=O)(=O)[O-])cc5)c5nc(c(-c6ccc(S(=O)(=O)[O-])cc6)c6ccc3[nH]6)C=C5)C=C4)cc2)cc1F
REMARK SMILES IDX 19 1 18 2 17 3 15 4 16 5 14 6 9 7 10 8 11 9 13 10 12 11 7 12
REMARK SMILES IDX 6 13 1 14 2 15 3 16 84 17 4 18 83 19 85 20 5 21 8 22 20 24
REMARK SMILES IDX 21 25 22 26 23 27 24 28 82 29 25 30 81 31 26 32 27 33 28 34
REMARK SMILES IDX 75 35 29 36 80 37 74 38 76 39 30 40 79 41 73 42 72 43 31 45
REMARK SMILES IDX 61 46 42 47 60 48 43 49 46 50 59 51 77 52 44 53 45 54 58 56
REMARK SMILES IDX 78 57 47 58 32 59 33 60 41 61 34 62 40 63 35 64 36 65 37 66
REMARK SMILES IDX 38 67 39 68 62 69 63 70 71 71 64 72 70 73 65 74 66 75 67 76
REMARK SMILES IDX 68 77 69 78 48 79 49 80 57 81 50 82 56 83 51 84 52 85 53 86
REMARK SMILES IDX 54 87 55 88
REMARK H PARENT 8 23 76 44 46 55
REMARK Flexibility Score: inf
ROOT
ATOM      1  C   UNL A   1      32.549  30.636  26.902  1.00  0.00     0.275 C 
ENDROOT
BRANCH   1   2
ATOM      2  C   UNL A   1      31.911  29.799  25.792  1.00  0.00     0.274 C 
BRANCH   2   3
ATOM      3  O   UNL A   1      32.453  28.464  25.768  1.00  0.00    -0.462 OA
BRANCH   3   4
ATOM      4  C   UNL A   1      33.104  28.100  24.631  1.00  0.00     0.309 C 
ATOM      5  O   UNL A   1      33.990  28.764  24.106  1.00  0.00    -0.252 OA
BRANCH   4   6
ATOM      6  C   UNL A   1      32.687  26.703  24.145  1.00  0.00     0.105 C 
ATOM      7  C   UNL A   1      32.402  26.717  22.611  1.00  0.00     0.037 C 
ATOM      8  C   UNL A   1      31.089  27.515  22.383  1.00  0.00     0.007 C 
ATOM      9  C   UNL A   1      29.908  26.918  23.146  1.00  0.00     0.000 C 
ATOM     10  C   UNL A   1      31.510  26.111  24.934  1.00  0.00     0.016 C 
ATOM     11  C   UNL A   1      30.190  26.815  24.640  1.00  0.00     0.001 C 
BRANCH   7  12
ATOM     12  C   UNL A   1      32.352  25.301  21.946  1.00  0.00     0.151 C 
BRANCH  12  13
ATOM     13  C   UNL A   1      32.848  24.127  22.776  1.00  0.00     0.019 A 
ATOM     14  C   UNL A   1      34.226  20.571  24.867  1.00  0.00     0.047 C 
ATOM     15  C   UNL A   1      33.745  21.812  24.178  1.00  0.00    -0.012 A 
ATOM     16  C   UNL A   1      32.380  22.070  24.024  1.00  0.00     0.046 A 
ATOM     17  C   UNL A   1      34.652  22.706  23.609  1.00  0.00     0.126 A 
ATOM     18  C   UNL A   1      31.951  23.199  23.317  1.00  0.00     0.129 A 
ATOM     19  C   UNL A   1      34.219  23.856  22.942  1.00  0.00     0.049 A 
ATOM     20  F   UNL A   1      35.966  22.460  23.681  1.00  0.00    -0.207 F 
ATOM     21  F   UNL A   1      30.634  23.358  23.129  1.00  0.00    -0.207 F 
ENDBRANCH  12  13
BRANCH  12  22
ATOM     22  O   UNL A   1      33.148  25.321  20.751  1.00  0.00    -0.388 OA
ATOM     23  H   UNL A   1      34.070  25.117  20.973  1.00  0.00     0.211 HD
ENDBRANCH  12  22
ENDBRANCH   7  12
ENDBRANCH   4   6
ENDBRANCH   3   4
ENDBRANCH   2   3
ENDBRANCH   1   2
BRANCH   1  24
ATOM     24  O   UNL A   1      33.695  29.975  27.470  1.00  0.00    -0.458 OA
BRANCH  24  25
ATOM     25  C   UNL A   1      34.525  30.781  28.172  1.00  0.00     0.338 C 
ATOM     26  O   UNL A   1      34.250  31.842  28.703  1.00  0.00    -0.246 OA
BRANCH  25  27
ATOM     27  C   UNL A   1      35.839  30.140  28.316  1.00  0.00     0.060 A 
ATOM     28  C   UNL A   1      36.769  30.156  27.278  1.00  0.00     0.016 A 
ATOM     29  C   UNL A   1      36.195  29.646  29.567  1.00  0.00     0.016 A 
ATOM     30  C   UNL A   1      38.065  29.677  27.516  1.00  0.00     0.010 A 
ATOM     31  C   UNL A   1      37.500  29.240  29.818  1.00  0.00     0.010 A 
ATOM     32  C   UNL A   1      38.456  29.248  28.800  1.00  0.00    -0.014 A 
BRANCH  32  33
ATOM     33  C   UNL A   1      39.861  28.860  29.110  1.00  0.00     0.031 A 
ATOM     34  C   UNL A   1      40.791  29.798  29.842  1.00  0.00     0.074 A 
ATOM     35  C   UNL A   1      40.337  27.683  28.656  1.00  0.00     0.049 A 
ATOM     36  N   UNL A   1      42.035  29.603  30.200  1.00  0.00    -0.248 NA
ATOM     37  C   UNL A   1      40.278  31.135  30.184  1.00  0.00     0.031 C 
ATOM     38  C   UNL A   1      39.590  26.730  27.829  1.00  0.00     0.029 A 
ATOM     39  N   UNL A   1      41.558  27.078  28.831  1.00  0.00    -0.354 N 
ATOM     40  C   UNL A   1      42.454  30.793  30.785  1.00  0.00     0.074 A 
ATOM     41  C   UNL A   1      41.357  31.726  30.675  1.00  0.00     0.031 C 
ATOM     42  C   UNL A   1      40.340  25.635  27.632  1.00  0.00     0.029 A 
ATOM     43  C   UNL A   1      41.631  25.814  28.291  1.00  0.00     0.049 A 
ATOM     44  H   UNL A   1      42.311  27.508  29.296  1.00  0.00     0.167 HD
ATOM     45  C   UNL A   1      43.629  31.074  31.399  1.00  0.00     0.031 A 
ATOM     46  C   UNL A   1      42.606  24.886  28.344  1.00  0.00     0.031 A 
ATOM     47  C   UNL A   1      44.699  30.128  31.560  1.00  0.00     0.049 A 
ATOM     48  C   UNL A   1      43.865  25.178  29.108  1.00  0.00     0.074 A 
ATOM     49  C   UNL A   1      45.886  30.287  32.256  1.00  0.00     0.029 A 
ATOM     50  N   UNL A   1      44.710  28.844  31.038  1.00  0.00    -0.354 N 
ATOM     51  N   UNL A   1      44.203  26.275  29.741  1.00  0.00    -0.248 NA
ATOM     52  C   UNL A   1      44.866  24.105  29.187  1.00  0.00     0.031 C 
ATOM     53  C   UNL A   1      46.628  29.111  32.127  1.00  0.00     0.029 A 
ATOM     54  C   UNL A   1      45.883  28.201  31.395  1.00  0.00     0.049 A 
ATOM     55  H   UNL A   1      43.991  28.449  30.495  1.00  0.00     0.167 HD
ATOM     56  C   UNL A   1      45.446  26.020  30.306  1.00  0.00     0.074 A 
ATOM     57  C   UNL A   1      45.796  24.660  29.954  1.00  0.00     0.031 C 
ATOM     58  C   UNL A   1      46.224  26.846  31.046  1.00  0.00     0.031 A 
BRANCH  45  59
ATOM     59  C   UNL A   1      43.805  32.442  32.008  1.00  0.00    -0.014 A 
ATOM     60  C   UNL A   1      43.481  32.665  33.359  1.00  0.00     0.010 A 
ATOM     61  C   UNL A   1      44.189  33.535  31.209  1.00  0.00     0.010 A 
ATOM     62  C   UNL A   1      43.521  33.955  33.896  1.00  0.00     0.020 A 
ATOM     63  C   UNL A   1      44.259  34.822  31.749  1.00  0.00     0.020 A 
ATOM     64  C   UNL A   1      43.903  35.027  33.084  1.00  0.00     0.054 A 
BRANCH  64  65
ATOM     65  S   UNL A   1      43.951  36.700  33.786  1.00  0.00     0.124 S 
ATOM     66  O   UNL A   1      42.724  36.736  34.577  1.00  0.00    -0.237 OA
ATOM     67  O   UNL A   1      45.196  36.695  34.552  1.00  0.00    -0.237 OA
ATOM     68  O   UNL A   1      43.962  37.563  32.607  1.00  0.00    -0.744 OA
ENDBRANCH  64  65
ENDBRANCH  45  59
BRANCH  46  69
ATOM     69  C   UNL A   1      42.364  23.552  27.728  1.00  0.00    -0.014 A 
ATOM     70  C   UNL A   1      41.782  22.511  28.472  1.00  0.00     0.010 A 
ATOM     71  C   UNL A   1      42.808  23.297  26.418  1.00  0.00     0.010 A 
ATOM     72  C   UNL A   1      41.690  21.225  27.933  1.00  0.00     0.020 A 
ATOM     73  C   UNL A   1      42.696  22.017  25.868  1.00  0.00     0.020 A 
ATOM     74  C   UNL A   1      42.163  20.982  26.640  1.00  0.00     0.054 A 
BRANCH  74  75
ATOM     75  S   UNL A   1      42.085  19.296  25.978  1.00  0.00     0.124 S 
ATOM     76  O   UNL A   1      42.963  19.391  24.815  1.00  0.00    -0.237 OA
ATOM     77  O   UNL A   1      42.593  18.491  27.086  1.00  0.00    -0.237 OA
ATOM     78  O   UNL A   1      40.667  19.112  25.678  1.00  0.00    -0.744 OA
ENDBRANCH  74  75
ENDBRANCH  46  69
BRANCH  58  79
ATOM     79  C   UNL A   1      47.543  26.325  31.548  1.00  0.00    -0.014 A 
ATOM     80  C   UNL A   1      48.659  26.310  30.688  1.00  0.00     0.010 A 
ATOM     81  C   UNL A   1      47.640  25.717  32.810  1.00  0.00     0.010 A 
ATOM     82  C   UNL A   1      49.836  25.662  31.068  1.00  0.00     0.020 A 
ATOM     83  C   UNL A   1      48.825  25.087  33.203  1.00  0.00     0.020 A 
ATOM     84  C   UNL A   1      49.906  25.041  32.317  1.00  0.00     0.054 A 
BRANCH  84  85
ATOM     85  S   UNL A   1      51.425  24.161  32.775  1.00  0.00     0.124 S 
ATOM     86  O   UNL A   1      51.215  22.850  32.170  1.00  0.00    -0.237 OA
ATOM     87  O   UNL A   1      52.470  24.978  32.163  1.00  0.00    -0.237 OA
ATOM     88  O   UNL A   1      51.405  24.185  34.237  1.00  0.00    -0.744 OA
ENDBRANCH  84  85
ENDBRANCH  58  79
ENDBRANCH  32  33
ENDBRANCH  25  27
ENDBRANCH  24  25
ENDBRANCH   1  24
TORSDOF 17
ENDMDL
MODEL 2
REMARK VINA RESULT:     -11.2      1.241      2.120
REMARK SMILES Cc1cc(F)c([C@H](O)[C@H]2CCCC[C@@H]2C(=O)OCCOC(=O)c2ccc(-c3c4nc(c(-c5ccc(S(=O)(=O)[O-])cc5)c5ccc([nH]5)c(-c5ccc(S(=O)(=O)[O-])cc5)c5nc(c(-c6ccc(S(=O)(=O)[O-])cc6)c6ccc3[nH]6)C=C5)C=C4)cc2)cc1F
REMARK SMILES IDX 19 1 18 2 17 3 15 4 16 5 14 6 9 7 10 8 11 9 13 10 12 11 7 12
REMARK SMILES IDX 6 13 1 14 2 15 3 16 84 17 4 18 83 19 85 20 5 21 8 22 20 24
REMARK SMILES IDX 21 25 22 26 23 27 24 28 82 29 25 30 81 31 26 32 27 33 28 34
REMARK SMILES IDX 75 35 29 36 80 37 74 38 76 39 30 40 79 41 73 42 72 43 31 45
REMARK SMILES IDX 61 46 42 47 60 48 43 49 46 50 59 51 77 52 44 53 45 54 58 56
REMARK SMILES IDX 78 57 47 58 32 59 33 60 41 61 34 62 40 63 35 64 36 65 37 66
REMARK SMILES IDX 38 67 39 68 62 69 63 70 71 71 64 72 70 73 65 74 66 75 67 76
REMARK SMILES IDX 68 77 69 78 48 79 49 80 57 81 50 82 56 83 51 84 52 85 53 86
REMARK SMILES IDX 54 87 55 88
REMARK H PARENT 8 23 76 44 46 55
REMARK Flexibility Score: inf
ROOT
ATOM      1  C   UNL A   1      33.271  29.363  25.739  1.00  0.00     0.275 C 
ENDROOT
BRANCH   1   2
ATOM      2  C   UNL A   1      32.515  28.112  25.286  1.00  0.00     0.274 C 
BRANCH   2   3
ATOM      3  O   UNL A   1      33.234  26.914  25.637  1.00  0.00    -0.462 OA
BRANCH   3   4
ATOM      4  C   UNL A   1      32.498  25.912  26.188  1.00  0.00     0.309 C 
ATOM      5  O   UNL A   1      31.484  26.092  26.853  1.00  0.00    -0.252 OA
BRANCH   4   6
ATOM      6  C   UNL A   1      33.012  24.522  25.780  1.00  0.00     0.105 C 
ATOM      7  C   UNL A   1      33.003  24.367  24.228  1.00  0.00     0.037 C 
ATOM      8  C   UNL A   1      31.520  24.281  23.771  1.00  0.00     0.007 C 
ATOM      9  C   UNL A   1      30.776  23.124  24.434  1.00  0.00     0.000 C 
ATOM     10  C   UNL A   1      32.264  23.372  26.469  1.00  0.00     0.016 C 
ATOM     11  C   UNL A   1      30.839  23.204  25.955  1.00  0.00     0.001 C 
BRANCH   7  12
ATOM     12  C   UNL A   1      33.853  23.168  23.689  1.00  0.00     0.151 C 
BRANCH  12  13
ATOM     13  C   UNL A   1      35.142  22.845  24.429  1.00  0.00     0.019 A 
ATOM     14  C   UNL A   1      38.970  21.844  26.236  1.00  0.00     0.047 C 
ATOM     15  C   UNL A   1      37.635  22.185  25.645  1.00  0.00    -0.012 A 
ATOM     16  C   UNL A   1      36.718  21.185  25.307  1.00  0.00     0.046 A 
ATOM     17  C   UNL A   1      37.305  23.507  25.351  1.00  0.00     0.126 A 
ATOM     18  C   UNL A   1      35.506  21.519  24.693  1.00  0.00     0.129 A 
ATOM     19  C   UNL A   1      36.074  23.841  24.777  1.00  0.00     0.049 A 
ATOM     20  F   UNL A   1      38.183  24.487  25.601  1.00  0.00    -0.207 F 
ATOM     21  F   UNL A   1      34.697  20.519  24.316  1.00  0.00    -0.207 F 
ENDBRANCH  12  13
BRANCH  12  22
ATOM     22  O   UNL A   1      34.222  23.436  22.327  1.00  0.00    -0.388 OA
ATOM     23  H   UNL A   1      35.189  23.442  22.248  1.00  0.00     0.211 HD
ENDBRANCH  12  22
ENDBRANCH   7  12
ENDBRANCH   4   6
ENDBRANCH   3   4
ENDBRANCH   2   3
ENDBRANCH   1   2
BRANCH   1  24
ATOM     24  O   UNL A   1      34.309  29.040  26.682  1.00  0.00    -0.458 OA
BRANCH  24  25
ATOM     25  C   UNL A   1      34.576  30.012  27.587  1.00  0.00     0.338 C 
ATOM     26  O   UNL A   1      33.799  30.835  28.037  1.00  0.00    -0.246 OA
BRANCH  25  27
ATOM     27  C   UNL A   1      35.958  29.881  28.066  1.00  0.00     0.060 A 
ATOM     28  C   UNL A   1      36.238  29.389  29.339  1.00  0.00     0.016 A 
ATOM     29  C   UNL A   1      36.991  30.117  27.164  1.00  0.00     0.016 A 
ATOM     30  C   UNL A   1      37.570  29.129  29.692  1.00  0.00     0.010 A 
ATOM     31  C   UNL A   1      38.300  29.790  27.493  1.00  0.00     0.010 A 
ATOM     32  C   UNL A   1      38.613  29.291  28.760  1.00  0.00    -0.014 A 
BRANCH  32  33
ATOM     33  C   UNL A   1      40.017  28.896  29.066  1.00  0.00     0.031 A 
ATOM     34  C   UNL A   1      40.958  29.837  29.780  1.00  0.00     0.074 A 
ATOM     35  C   UNL A   1      40.480  27.709  28.623  1.00  0.00     0.049 A 
ATOM     36  N   UNL A   1      42.204  29.637  30.132  1.00  0.00    -0.248 NA
ATOM     37  C   UNL A   1      40.457  31.181  30.108  1.00  0.00     0.031 C 
ATOM     38  C   UNL A   1      39.721  26.753  27.814  1.00  0.00     0.029 A 
ATOM     39  N   UNL A   1      41.698  27.098  28.798  1.00  0.00    -0.354 N 
ATOM     40  C   UNL A   1      42.635  30.831  30.699  1.00  0.00     0.074 A 
ATOM     41  C   UNL A   1      41.544  31.771  30.585  1.00  0.00     0.031 C 
ATOM     42  C   UNL A   1      40.461  25.649  27.625  1.00  0.00     0.029 A 
ATOM     43  C   UNL A   1      41.758  25.827  28.274  1.00  0.00     0.049 A 
ATOM     44  H   UNL A   1      42.457  27.528  29.253  1.00  0.00     0.167 HD
ATOM     45  C   UNL A   1      43.816  31.110  31.302  1.00  0.00     0.031 A 
ATOM     46  C   UNL A   1      42.727  24.892  28.332  1.00  0.00     0.031 A 
ATOM     47  C   UNL A   1      44.881  30.158  31.468  1.00  0.00     0.049 A 
ATOM     48  C   UNL A   1      43.993  25.184  29.084  1.00  0.00     0.074 A 
ATOM     49  C   UNL A   1      46.072  30.317  32.154  1.00  0.00     0.029 A 
ATOM     50  N   UNL A   1      44.879  28.868  30.962  1.00  0.00    -0.354 N 
ATOM     51  N   UNL A   1      44.343  26.286  29.701  1.00  0.00    -0.248 NA
ATOM     52  C   UNL A   1      44.986  24.104  29.170  1.00  0.00     0.031 C 
ATOM     53  C   UNL A   1      46.805  29.134  32.035  1.00  0.00     0.029 A 
ATOM     54  C   UNL A   1      46.048  28.220  31.319  1.00  0.00     0.049 A 
ATOM     55  H   UNL A   1      44.152  28.471  30.428  1.00  0.00     0.167 HD
ATOM     56  C   UNL A   1      45.588  26.029  30.261  1.00  0.00     0.074 A 
ATOM     57  C   UNL A   1      45.926  24.662  29.924  1.00  0.00     0.031 C 
ATOM     58  C   UNL A   1      46.377  26.858  30.985  1.00  0.00     0.031 A 
BRANCH  45  59
ATOM     59  C   UNL A   1      44.006  32.484  31.892  1.00  0.00    -0.014 A 
ATOM     60  C   UNL A   1      44.745  33.460  31.199  1.00  0.00     0.010 A 
ATOM     61  C   UNL A   1      43.542  32.773  33.189  1.00  0.00     0.010 A 
ATOM     62  C   UNL A   1      45.031  34.692  31.795  1.00  0.00     0.020 A 
ATOM     63  C   UNL A   1      43.801  34.014  33.778  1.00  0.00     0.020 A 
ATOM     64  C   UNL A   1      44.563  34.958  33.085  1.00  0.00     0.054 A 
BRANCH  64  65
ATOM     65  S   UNL A   1      44.941  36.558  33.854  1.00  0.00     0.124 S 
ATOM     66  O   UNL A   1      44.308  37.498  32.934  1.00  0.00    -0.237 OA
ATOM     67  O   UNL A   1      44.314  36.441  35.169  1.00  0.00    -0.237 OA
ATOM     68  O   UNL A   1      46.402  36.588  33.874  1.00  0.00    -0.744 OA
ENDBRANCH  64  65
ENDBRANCH  45  59
BRANCH  46  69
ATOM     69  C   UNL A   1      42.471  23.553  27.735  1.00  0.00    -0.014 A 
ATOM     70  C   UNL A   1      42.057  22.474  28.536  1.00  0.00     0.010 A 
ATOM     71  C   UNL A   1      42.736  23.334  26.371  1.00  0.00     0.010 A 
ATOM     72  C   UNL A   1      41.958  21.190  27.994  1.00  0.00     0.020 A 
ATOM     73  C   UNL A   1      42.614  22.054  25.821  1.00  0.00     0.020 A 
ATOM     74  C   UNL A   1      42.253  20.985  26.643  1.00  0.00     0.054 A 
BRANCH  74  75
ATOM     75  S   UNL A   1      42.171  19.303  25.971  1.00  0.00     0.124 S 
ATOM     76  O   UNL A   1      42.673  18.510  27.091  1.00  0.00    -0.237 OA
ATOM     77  O   UNL A   1      40.750  19.143  25.674  1.00  0.00    -0.237 OA
ATOM     78  O   UNL A   1      43.046  19.359  24.802  1.00  0.00    -0.744 OA
ENDBRANCH  74  75
ENDBRANCH  46  69
BRANCH  58  79
ATOM     79  C   UNL A   1      47.696  26.334  31.485  1.00  0.00    -0.014 A 
ATOM     80  C   UNL A   1      48.793  26.258  30.606  1.00  0.00     0.010 A 
ATOM     81  C   UNL A   1      47.806  25.781  32.772  1.00  0.00     0.010 A 
ATOM     82  C   UNL A   1      49.965  25.603  30.992  1.00  0.00     0.020 A 
ATOM     83  C   UNL A   1      48.986  25.145  33.170  1.00  0.00     0.020 A 
ATOM     84  C   UNL A   1      50.047  25.038  32.267  1.00  0.00     0.054 A 
BRANCH  84  85
ATOM     85  S   UNL A   1      51.558  24.148  32.736  1.00  0.00     0.124 S 
ATOM     86  O   UNL A   1      51.568  24.302  34.187  1.00  0.00    -0.237 OA
ATOM     87  O   UNL A   1      51.302  22.796  32.247  1.00  0.00    -0.237 OA
ATOM     88  O   UNL A   1      52.612  24.869  32.024  1.00  0.00    -0.744 OA
ENDBRANCH  84  85
ENDBRANCH  58  79
ENDBRANCH  32  33
ENDBRANCH  25  27
ENDBRANCH  24  25
ENDBRANCH   1  24
TORSDOF 17
ENDMDL
MODEL 3
REMARK VINA RESULT:     -11.0      2.846      9.447
REMARK SMILES Cc1cc(F)c([C@H](O)[C@H]2CCCC[C@@H]2C(=O)OCCOC(=O)c2ccc(-c3c4nc(c(-c5ccc(S(=O)(=O)[O-])cc5)c5ccc([nH]5)c(-c5ccc(S(=O)(=O)[O-])cc5)c5nc(c(-c6ccc(S(=O)(=O)[O-])cc6)c6ccc3[nH]6)C=C5)C=C4)cc2)cc1F
REMARK SMILES IDX 19 1 18 2 17 3 15 4 16 5 14 6 9 7 10 8 11 9 13 10 12 11 7 12
REMARK SMILES IDX 6 13 1 14 2 15 3 16 84 17 4 18 83 19 85 20 5 21 8 22 20 24
REMARK SMILES IDX 21 25 22 26 23 27 24 28 82 29 25 30 81 31 26 32 27 33 28 34
REMARK SMILES IDX 75 35 29 36 80 37 74 38 76 39 30 40 79 41 73 42 72 43 31 45
REMARK SMILES IDX 61 46 42 47 60 48 43 49 46 50 59 51 77 52 44 53 45 54 58 56
REMARK SMILES IDX 78 57 47 58 32 59 33 60 41 61 34 62 40 63 35 64 36 65 37 66
REMARK SMILES IDX 38 67 39 68 62 69 63 70 71 71 64 72 70 73 65 74 66 75 67 76
REMARK SMILES IDX 68 77 69 78 48 79 49 80 57 81 50 82 56 83 51 84 52 85 53 86
REMARK SMILES IDX 54 87 55 88
REMARK H PARENT 8 23 76 44 46 55
REMARK Flexibility Score: inf
ROOT
ATOM      1  C   UNL A   1      37.316  21.429  25.379  1.00  0.00     0.275 C 
ENDROOT
BRANCH   1   2
ATOM      2  C   UNL A   1      35.916  21.494  25.992  1.00  0.00     0.274 C 
BRANCH   2   3
ATOM      3  O   UNL A   1      35.467  22.857  26.122  1.00  0.00    -0.462 OA
BRANCH   3   4
ATOM      4  C   UNL A   1      34.121  23.043  26.184  1.00  0.00     0.309 C 
ATOM      5  O   UNL A   1      33.384  22.461  26.972  1.00  0.00    -0.252 OA
BRANCH   4   6
ATOM      6  C   UNL A   1      33.644  24.155  25.237  1.00  0.00     0.105 C 
ATOM      7  C   UNL A   1      32.215  23.840  24.694  1.00  0.00     0.037 C 
ATOM      8  C   UNL A   1      32.339  22.644  23.710  1.00  0.00     0.007 C 
ATOM      9  C   UNL A   1      33.300  22.937  22.560  1.00  0.00     0.000 C 
ATOM     10  C   UNL A   1      34.630  24.448  24.098  1.00  0.00     0.016 C 
ATOM     11  C   UNL A   1      34.685  23.330  23.063  1.00  0.00     0.001 C 
BRANCH   7  12
ATOM     12  C   UNL A   1      31.481  25.061  24.046  1.00  0.00     0.151 C 
BRANCH  12  13
ATOM     13  C   UNL A   1      31.585  26.395  24.769  1.00  0.00     0.019 A 
ATOM     14  C   UNL A   1      32.159  30.082  27.004  1.00  0.00     0.047 C 
ATOM     15  C   UNL A   1      31.928  28.821  26.227  1.00  0.00    -0.012 A 
ATOM     16  C   UNL A   1      31.266  27.731  26.800  1.00  0.00     0.046 A 
ATOM     17  C   UNL A   1      32.432  28.680  24.935  1.00  0.00     0.126 A 
ATOM     18  C   UNL A   1      31.121  26.539  26.083  1.00  0.00     0.129 A 
ATOM     19  C   UNL A   1      32.246  27.502  24.205  1.00  0.00     0.049 A 
ATOM     20  F   UNL A   1      33.126  29.680  24.376  1.00  0.00    -0.207 F 
ATOM     21  F   UNL A   1      30.551  25.497  26.705  1.00  0.00    -0.207 F 
ENDBRANCH  12  13
BRANCH  12  22
ATOM     22  O   UNL A   1      30.081  24.760  23.944  1.00  0.00    -0.388 OA
ATOM     23  H   UNL A   1      29.799  24.261  24.727  1.00  0.00     0.211 HD
ENDBRANCH  12  22
ENDBRANCH   7  12
ENDBRANCH   4   6
ENDBRANCH   3   4
ENDBRANCH   2   3
ENDBRANCH   1   2
BRANCH   1  24
ATOM     24  O   UNL A   1      37.965  22.714  25.406  1.00  0.00    -0.458 OA
BRANCH  24  25
ATOM     25  C   UNL A   1      39.126  22.749  26.100  1.00  0.00     0.338 C 
ATOM     26  O   UNL A   1      39.990  21.890  26.138  1.00  0.00    -0.246 OA
BRANCH  25  27
ATOM     27  C   UNL A   1      39.280  24.056  26.752  1.00  0.00     0.060 A 
ATOM     28  C   UNL A   1      38.836  24.271  28.055  1.00  0.00     0.016 A 
ATOM     29  C   UNL A   1      40.017  25.035  26.093  1.00  0.00     0.016 A 
ATOM     30  C   UNL A   1      39.150  25.481  28.691  1.00  0.00     0.010 A 
ATOM     31  C   UNL A   1      40.385  26.201  26.753  1.00  0.00     0.010 A 
ATOM     32  C   UNL A   1      39.960  26.444  28.060  1.00  0.00    -0.014 A 
BRANCH  32  33
ATOM     33  C   UNL A   1      40.416  27.677  28.763  1.00  0.00     0.031 A 
ATOM     34  C   UNL A   1      41.817  27.793  29.313  1.00  0.00     0.074 A 
ATOM     35  C   UNL A   1      39.536  28.674  28.985  1.00  0.00     0.049 A 
ATOM     36  N   UNL A   1      42.371  28.803  29.936  1.00  0.00    -0.248 NA
ATOM     37  C   UNL A   1      42.698  26.620  29.184  1.00  0.00     0.031 C 
ATOM     38  C   UNL A   1      38.117  28.648  28.620  1.00  0.00     0.029 A 
ATOM     39  N   UNL A   1      39.703  29.910  29.563  1.00  0.00    -0.354 N 
ATOM     40  C   UNL A   1      43.648  28.380  30.288  1.00  0.00     0.074 A 
ATOM     41  C   UNL A   1      43.766  27.002  29.871  1.00  0.00     0.031 C 
ATOM     42  C   UNL A   1      37.564  29.835  28.915  1.00  0.00     0.029 A 
ATOM     43  C   UNL A   1      38.577  30.699  29.515  1.00  0.00     0.049 A 
ATOM     44  H   UNL A   1      40.548  30.202  29.974  1.00  0.00     0.167 HD
ATOM     45  C   UNL A   1      44.650  29.085  30.866  1.00  0.00     0.031 A 
ATOM     46  C   UNL A   1      38.381  31.981  29.880  1.00  0.00     0.031 A 
ATOM     47  C   UNL A   1      44.554  30.473  31.228  1.00  0.00     0.049 A 
ATOM     48  C   UNL A   1      39.528  32.777  30.432  1.00  0.00     0.074 A 
ATOM     49  C   UNL A   1      45.547  31.299  31.724  1.00  0.00     0.029 A 
ATOM     50  N   UNL A   1      43.408  31.245  31.118  1.00  0.00    -0.354 N 
ATOM     51  N   UNL A   1      40.757  32.388  30.666  1.00  0.00    -0.248 NA
ATOM     52  C   UNL A   1      39.272  34.189  30.751  1.00  0.00     0.031 C 
ATOM     53  C   UNL A   1      44.994  32.562  31.945  1.00  0.00     0.029 A 
ATOM     54  C   UNL A   1      43.670  32.537  31.539  1.00  0.00     0.049 A 
ATOM     55  H   UNL A   1      42.539  30.921  30.790  1.00  0.00     0.167 HD
ATOM     56  C   UNL A   1      41.426  33.508  31.143  1.00  0.00     0.074 A 
ATOM     57  C   UNL A   1      40.470  34.596  31.152  1.00  0.00     0.031 C 
ATOM     58  C   UNL A   1      42.716  33.617  31.540  1.00  0.00     0.031 A 
BRANCH  45  59
ATOM     59  C   UNL A   1      45.972  28.393  31.087  1.00  0.00    -0.014 A 
ATOM     60  C   UNL A   1      46.275  27.822  32.336  1.00  0.00     0.010 A 
ATOM     61  C   UNL A   1      46.959  28.404  30.085  1.00  0.00     0.010 A 
ATOM     62  C   UNL A   1      47.544  27.291  32.587  1.00  0.00     0.020 A 
ATOM     63  C   UNL A   1      48.219  27.848  30.320  1.00  0.00     0.020 A 
ATOM     64  C   UNL A   1      48.511  27.314  31.578  1.00  0.00     0.054 A 
BRANCH  64  65
ATOM     65  S   UNL A   1      50.157  26.626  31.910  1.00  0.00     0.124 S 
ATOM     66  O   UNL A   1      50.895  27.000  30.707  1.00  0.00    -0.237 OA
ATOM     67  O   UNL A   1      50.555  27.315  33.136  1.00  0.00    -0.237 OA
ATOM     68  O   UNL A   1      49.902  25.196  32.069  1.00  0.00    -0.744 OA
ENDBRANCH  64  65
ENDBRANCH  45  59
BRANCH  46  69
ATOM     69  C   UNL A   1      37.054  32.606  29.626  1.00  0.00    -0.014 A 
ATOM     70  C   UNL A   1      36.756  33.182  28.379  1.00  0.00     0.010 A 
ATOM     71  C   UNL A   1      36.119  32.709  30.672  1.00  0.00     0.010 A 
ATOM     72  C   UNL A   1      35.566  33.891  28.195  1.00  0.00     0.020 A 
ATOM     73  C   UNL A   1      34.917  33.397  30.483  1.00  0.00     0.020 A 
ATOM     74  C   UNL A   1      34.661  34.008  29.254  1.00  0.00     0.054 A 
BRANCH  74  75
ATOM     75  S   UNL A   1      33.147  34.978  29.013  1.00  0.00     0.124 S 
ATOM     76  O   UNL A   1      32.572  34.970  30.356  1.00  0.00    -0.237 OA
ATOM     77  O   UNL A   1      33.660  36.266  28.556  1.00  0.00    -0.237 OA
ATOM     78  O   UNL A   1      32.408  34.214  28.011  1.00  0.00    -0.744 OA
ENDBRANCH  74  75
ENDBRANCH  46  69
BRANCH  58  79
ATOM     79  C   UNL A   1      43.205  34.956  32.022  1.00  0.00    -0.014 A 
ATOM     80  C   UNL A   1      42.990  35.336  33.360  1.00  0.00     0.010 A 
ATOM     81  C   UNL A   1      43.738  35.891  31.118  1.00  0.00     0.010 A 
ATOM     82  C   UNL A   1      43.264  36.640  33.778  1.00  0.00     0.020 A 
ATOM     83  C   UNL A   1      44.035  37.191  31.539  1.00  0.00     0.020 A 
ATOM     84  C   UNL A   1      43.771  37.564  32.860  1.00  0.00     0.054 A 
BRANCH  84  85
ATOM     85  S   UNL A   1      44.075  39.267  33.407  1.00  0.00     0.124 S 
ATOM     86  O   UNL A   1      45.156  39.685  32.521  1.00  0.00    -0.237 OA
ATOM     87  O   UNL A   1      42.786  39.915  33.178  1.00  0.00    -0.237 OA
ATOM     88  O   UNL A   1      44.443  39.113  34.813  1.00  0.00    -0.744 OA
ENDBRANCH  84  85
ENDBRANCH  58  79
ENDBRANCH  32  33
ENDBRANCH  25  27
ENDBRANCH  24  25
ENDBRANCH   1  24
TORSDOF 17
ENDMDL
