MODEL 1
REMARK VINA RESULT:      -8.8      0.000      0.000
REMARK SMILES Cc1cc(C)cc(-c2cccc(Cl)c2C(=O)OCCOC(=O)c2ccc(-c3c4nc(c(-c5ccc(S(=O)(=O)[O-])cc5)c5ccc([nH]5)c(-c5ccc(S(=O)(=O)[O-])cc5)c5nc(c(-c6ccc(S(=O)(=O)[O-])cc6)c6ccc3[nH]6)C=C5)C=C4)cc2)c1
REMARK SMILES IDX 19 1 18 2 17 3 15 4 16 5 14 6 8 7 9 8 10 9 12 10 11 11 13 12
REMARK SMILES IDX 7 13 1 14 2 15 3 16 83 17 4 18 5 19 6 20 20 21 21 22 22 23
REMARK SMILES IDX 23 24 24 25 82 26 25 27 81 28 26 29 27 30 28 31 75 32 29 33
REMARK SMILES IDX 80 34 74 35 76 36 30 37 79 38 73 39 72 40 31 42 61 43 42 44
REMARK SMILES IDX 60 45 43 46 46 47 59 48 77 49 44 50 45 51 58 53 78 54 47 55
REMARK SMILES IDX 32 56 33 57 41 58 34 59 40 60 35 61 36 62 37 63 38 64 39 65
REMARK SMILES IDX 62 66 63 67 71 68 64 69 70 70 65 71 66 72 67 73 68 74 69 75
REMARK SMILES IDX 48 76 49 77 57 78 50 79 56 80 51 81 52 82 53 83 54 84 55 85
REMARK H PARENT 76 41 46 52
REMARK Flexibility Score: inf
ROOT
ATOM      1  C   UNL A   1      45.223  23.819  25.158  1.00  0.00     0.275 C 
ENDROOT
BRANCH   1   2
ATOM      2  C   UNL A   1      46.219  23.398  26.232  1.00  0.00     0.275 C 
BRANCH   2   3
ATOM      3  O   UNL A   1      46.252  24.380  27.295  1.00  0.00    -0.458 OA
BRANCH   3   4
ATOM      4  C   UNL A   1      47.443  24.992  27.511  1.00  0.00     0.340 C 
ATOM      5  O   UNL A   1      48.528  24.443  27.614  1.00  0.00    -0.246 OA
BRANCH   4   6
ATOM      6  C   UNL A   1      47.253  26.442  27.754  1.00  0.00     0.086 A 
ATOM      7  C   UNL A   1      46.865  26.961  29.028  1.00  0.00    -0.002 A 
ATOM      8  C   UNL A   1      46.436  28.297  29.085  1.00  0.00     0.010 A 
ATOM      9  C   UNL A   1      46.402  29.098  27.938  1.00  0.00     0.002 A 
ATOM     10  C   UNL A   1      47.241  27.265  26.612  1.00  0.00     0.056 A 
ATOM     11  C   UNL A   1      46.816  28.589  26.711  1.00  0.00     0.021 A 
ATOM     12  Cl  UNL A   1      47.639  26.696  25.021  1.00  0.00    -0.083 Cl
BRANCH   7  13
ATOM     13  C   UNL A   1      46.676  26.112  30.223  1.00  0.00    -0.017 A 
ATOM     14  C   UNL A   1      48.555  26.047  34.207  1.00  0.00     0.044 C 
ATOM     15  C   UNL A   1      47.391  25.990  33.249  1.00  0.00    -0.050 A 
ATOM     16  C   UNL A   1      46.004  25.030  33.708  1.00  0.00     0.006 A 
ATOM     17  C   UNL A   1      47.702  26.517  31.595  1.00  0.00     0.012 A 
ATOM     18  C   UNL A   1      44.852  24.461  32.431  1.00  0.00    -0.050 A 
ATOM     19  C   UNL A   1      43.832  23.606  33.258  1.00  0.00     0.044 C 
ATOM     20  C   UNL A   1      45.251  25.020  30.516  1.00  0.00     0.012 A 
ENDBRANCH   7  13
ENDBRANCH   4   6
ENDBRANCH   3   4
ENDBRANCH   2   3
ENDBRANCH   1   2
BRANCH   1  21
ATOM     21  O   UNL A   1      43.904  23.475  25.611  1.00  0.00    -0.458 OA
BRANCH  21  22
ATOM     22  C   UNL A   1      43.074  24.533  25.609  1.00  0.00     0.338 C 
ATOM     23  O   UNL A   1      42.454  24.988  24.660  1.00  0.00    -0.246 OA
BRANCH  22  24
ATOM     24  C   UNL A   1      42.901  25.098  26.941  1.00  0.00     0.060 A 
ATOM     25  C   UNL A   1      41.486  24.687  27.977  1.00  0.00     0.016 A 
ATOM     26  C   UNL A   1      43.626  26.687  27.113  1.00  0.00     0.016 A 
ATOM     27  C   UNL A   1      40.810  26.113  29.251  1.00  0.00     0.010 A 
ATOM     28  C   UNL A   1      43.063  27.899  28.283  1.00  0.00     0.010 A 
ATOM     29  C   UNL A   1      41.694  27.682  29.377  1.00  0.00    -0.014 A 
BRANCH  29  30
ATOM     30  C   UNL A   1      41.445  28.680  30.506  1.00  0.00     0.031 A 
ATOM     31  C   UNL A   1      42.309  28.717  31.760  1.00  0.00     0.074 A 
ATOM     32  C   UNL A   1      40.351  29.482  30.518  1.00  0.00     0.049 A 
ATOM     33  N   UNL A   1      42.062  29.290  32.918  1.00  0.00    -0.248 NA
ATOM     34  C   UNL A   1      43.555  27.944  31.757  1.00  0.00     0.031 C 
ATOM     35  C   UNL A   1      39.284  29.478  29.533  1.00  0.00     0.029 A 
ATOM     36  N   UNL A   1      39.930  30.465  31.392  1.00  0.00    -0.354 N 
ATOM     37  C   UNL A   1      43.043  28.835  33.798  1.00  0.00     0.074 A 
ATOM     38  C   UNL A   1      43.853  27.899  33.049  1.00  0.00     0.031 C 
ATOM     39  C   UNL A   1      38.434  30.484  29.734  1.00  0.00     0.029 A 
ATOM     40  C   UNL A   1      38.799  31.139  30.971  1.00  0.00     0.049 A 
ATOM     41  H   UNL A   1      40.393  30.668  32.237  1.00  0.00     0.167 HD
ATOM     42  C   UNL A   1      43.281  29.188  35.089  1.00  0.00     0.031 A 
ATOM     43  C   UNL A   1      38.084  32.149  31.504  1.00  0.00     0.031 A 
ATOM     44  C   UNL A   1      42.579  30.243  35.780  1.00  0.00     0.049 A 
ATOM     45  C   UNL A   1      38.481  32.664  32.847  1.00  0.00     0.074 A 
ATOM     46  C   UNL A   1      42.833  30.770  37.037  1.00  0.00     0.029 A 
ATOM     47  N   UNL A   1      41.524  30.974  35.253  1.00  0.00    -0.354 N 
ATOM     48  N   UNL A   1      39.414  32.209  33.649  1.00  0.00    -0.248 NA
ATOM     49  C   UNL A   1      37.734  33.814  33.365  1.00  0.00     0.031 C 
ATOM     50  C   UNL A   1      41.927  31.812  37.271  1.00  0.00     0.029 A 
ATOM     51  C   UNL A   1      41.137  31.963  36.144  1.00  0.00     0.049 A 
ATOM     52  H   UNL A   1      41.109  30.812  34.374  1.00  0.00     0.167 HD
ATOM     53  C   UNL A   1      39.374  33.027  34.766  1.00  0.00     0.074 A 
ATOM     54  C   UNL A   1      38.349  34.024  34.520  1.00  0.00     0.031 C 
ATOM     55  C   UNL A   1      40.116  32.949  35.896  1.00  0.00     0.031 A 
BRANCH  42  56
ATOM     56  C   UNL A   1      44.382  28.458  35.834  1.00  0.00    -0.014 A 
ATOM     57  C   UNL A   1      44.120  27.289  36.571  1.00  0.00     0.010 A 
ATOM     58  C   UNL A   1      45.707  28.932  35.778  1.00  0.00     0.010 A 
ATOM     59  C   UNL A   1      45.133  26.662  37.305  1.00  0.00     0.020 A 
ATOM     60  C   UNL A   1      46.735  28.283  36.475  1.00  0.00     0.020 A 
ATOM     61  C   UNL A   1      46.433  27.169  37.261  1.00  0.00     0.054 A 
BRANCH  61  62
ATOM     62  S   UNL A   1      47.723  26.341  38.232  1.00  0.00     0.124 S 
ATOM     63  O   UNL A   1      47.043  26.120  39.506  1.00  0.00    -0.237 OA
ATOM     64  O   UNL A   1      47.993  25.138  37.448  1.00  0.00    -0.237 OA
ATOM     65  O   UNL A   1      48.812  27.315  38.267  1.00  0.00    -0.744 OA
ENDBRANCH  61  62
ENDBRANCH  42  56
BRANCH  43  66
ATOM     66  C   UNL A   1      36.945  32.749  30.746  1.00  0.00    -0.014 A 
ATOM     67  C   UNL A   1      35.627  32.349  31.029  1.00  0.00     0.010 A 
ATOM     68  C   UNL A   1      37.156  33.758  29.788  1.00  0.00     0.010 A 
ATOM     69  C   UNL A   1      34.545  32.933  30.362  1.00  0.00     0.020 A 
ATOM     70  C   UNL A   1      36.074  34.374  29.149  1.00  0.00     0.020 A 
ATOM     71  C   UNL A   1      34.775  33.948  29.430  1.00  0.00     0.054 A 
BRANCH  71  72
ATOM     72  S   UNL A   1      33.351  34.740  28.631  1.00  0.00     0.124 S 
ATOM     73  O   UNL A   1      32.492  35.042  29.772  1.00  0.00    -0.237 OA
ATOM     74  O   UNL A   1      33.959  35.894  27.973  1.00  0.00    -0.237 OA
ATOM     75  O   UNL A   1      32.852  33.708  27.724  1.00  0.00    -0.744 OA
ENDBRANCH  71  72
ENDBRANCH  43  66
BRANCH  55  76
ATOM     76  C   UNL A   1      39.875  34.015  36.927  1.00  0.00    -0.014 A 
ATOM     77  C   UNL A   1      40.486  35.278  36.830  1.00  0.00     0.010 A 
ATOM     78  C   UNL A   1      39.040  33.732  38.022  1.00  0.00     0.010 A 
ATOM     79  C   UNL A   1      40.310  36.222  37.844  1.00  0.00     0.020 A 
ATOM     80  C   UNL A   1      38.838  34.684  39.022  1.00  0.00     0.020 A 
ATOM     81  C   UNL A   1      39.493  35.915  38.937  1.00  0.00     0.054 A 
BRANCH  81  82
ATOM     82  S   UNL A   1      39.280  37.154  40.243  1.00  0.00     0.124 S 
ATOM     83  O   UNL A   1      38.526  36.408  41.248  1.00  0.00    -0.237 OA
ATOM     84  O   UNL A   1      40.658  37.481  40.604  1.00  0.00    -0.237 OA
ATOM     85  O   UNL A   1      38.544  38.229  39.582  1.00  0.00    -0.744 OA
ENDBRANCH  81  82
ENDBRANCH  55  76
ENDBRANCH  29  30
ENDBRANCH  22  24
ENDBRANCH  21  22
ENDBRANCH   1  21
TORSDOF 15
ENDMDL
MODEL 2
REMARK VINA RESULT:      -8.6      6.899     14.219
REMARK SMILES Cc1cc(C)cc(-c2cccc(Cl)c2C(=O)OCCOC(=O)c2ccc(-c3c4nc(c(-c5ccc(S(=O)(=O)[O-])cc5)c5ccc([nH]5)c(-c5ccc(S(=O)(=O)[O-])cc5)c5nc(c(-c6ccc(S(=O)(=O)[O-])cc6)c6ccc3[nH]6)C=C5)C=C4)cc2)c1
REMARK SMILES IDX 19 1 18 2 17 3 15 4 16 5 14 6 8 7 9 8 10 9 12 10 11 11 13 12
REMARK SMILES IDX 7 13 1 14 2 15 3 16 83 17 4 18 5 19 6 20 20 21 21 22 22 23
REMARK SMILES IDX 23 24 24 25 82 26 25 27 81 28 26 29 27 30 28 31 75 32 29 33
REMARK SMILES IDX 80 34 74 35 76 36 30 37 79 38 73 39 72 40 31 42 61 43 42 44
REMARK SMILES IDX 60 45 43 46 46 47 59 48 77 49 44 50 45 51 58 53 78 54 47 55
REMARK SMILES IDX 32 56 33 57 41 58 34 59 40 60 35 61 36 62 37 63 38 64 39 65
REMARK SMILES IDX 62 66 63 67 71 68 64 69 70 70 65 71 66 72 67 73 68 74 69 75
REMARK SMILES IDX 48 76 49 77 57 78 50 79 56 80 51 81 52 82 53 83 54 84 55 85
REMARK H PARENT 76 41 46 52
REMARK Flexibility Score: inf
ROOT
ATOM      1  C   UNL A   1      48.343  40.326  28.490  1.00  0.00     0.275 C 
ENDROOT
BRANCH   1   2
ATOM      2  C   UNL A   1      47.697  41.073  27.329  1.00  0.00     0.275 C 
BRANCH   2   3
ATOM      3  O   UNL A   1      46.264  40.869  27.341  1.00  0.00    -0.458 OA
BRANCH   3   4
ATOM      4  C   UNL A   1      45.728  40.306  26.229  1.00  0.00     0.340 C 
ATOM      5  O   UNL A   1      46.262  39.479  25.509  1.00  0.00    -0.246 OA
BRANCH   4   6
ATOM      6  C   UNL A   1      44.426  40.934  25.898  1.00  0.00     0.086 A 
ATOM      7  C   UNL A   1      43.185  40.438  26.406  1.00  0.00    -0.002 A 
ATOM      8  C   UNL A   1      42.002  40.912  25.816  1.00  0.00     0.010 A 
ATOM      9  C   UNL A   1      42.035  41.848  24.776  1.00  0.00     0.002 A 
ATOM     10  C   UNL A   1      44.445  41.895  24.870  1.00  0.00     0.056 A 
ATOM     11  C   UNL A   1      43.249  42.348  24.315  1.00  0.00     0.021 A 
ATOM     12  Cl  UNL A   1      45.908  42.502  24.157  1.00  0.00    -0.083 Cl
BRANCH   7  13
ATOM     13  C   UNL A   1      43.093  39.301  27.345  1.00  0.00    -0.017 A 
ATOM     14  C   UNL A   1      43.020  34.931  26.794  1.00  0.00     0.044 C 
ATOM     15  C   UNL A   1      43.459  36.212  27.457  1.00  0.00    -0.050 A 
ATOM     16  C   UNL A   1      43.861  36.155  29.157  1.00  0.00     0.006 A 
ATOM     17  C   UNL A   1      43.109  37.709  26.592  1.00  0.00     0.012 A 
ATOM     18  C   UNL A   1      43.844  37.684  30.129  1.00  0.00    -0.050 A 
ATOM     19  C   UNL A   1      44.187  37.169  31.568  1.00  0.00     0.044 C 
ATOM     20  C   UNL A   1      43.378  39.400  29.138  1.00  0.00     0.012 A 
ENDBRANCH   7  13
ENDBRANCH   4   6
ENDBRANCH   3   4
ENDBRANCH   2   3
ENDBRANCH   1   2
BRANCH   1  21
ATOM     21  O   UNL A   1      47.565  39.148  28.753  1.00  0.00    -0.458 OA
BRANCH  21  22
ATOM     22  C   UNL A   1      48.270  38.019  28.556  1.00  0.00     0.338 C 
ATOM     23  O   UNL A   1      49.469  37.920  28.343  1.00  0.00    -0.246 OA
BRANCH  22  24
ATOM     24  C   UNL A   1      47.445  36.827  28.695  1.00  0.00     0.060 A 
ATOM     25  C   UNL A   1      47.452  35.830  30.195  1.00  0.00     0.016 A 
ATOM     26  C   UNL A   1      47.129  36.027  27.165  1.00  0.00     0.016 A 
ATOM     27  C   UNL A   1      47.124  33.837  30.001  1.00  0.00     0.010 A 
ATOM     28  C   UNL A   1      46.777  34.292  27.021  1.00  0.00     0.010 A 
ATOM     29  C   UNL A   1      46.743  33.156  28.373  1.00  0.00    -0.014 A 
BRANCH  29  30
ATOM     30  C   UNL A   1      46.193  31.745  28.179  1.00  0.00     0.031 A 
ATOM     31  C   UNL A   1      44.739  31.394  28.470  1.00  0.00     0.074 A 
ATOM     32  C   UNL A   1      47.005  30.699  27.884  1.00  0.00     0.049 A 
ATOM     33  N   UNL A   1      44.191  30.210  28.637  1.00  0.00    -0.248 NA
ATOM     34  C   UNL A   1      43.800  32.497  28.698  1.00  0.00     0.031 C 
ATOM     35  C   UNL A   1      48.451  30.755  27.760  1.00  0.00     0.029 A 
ATOM     36  N   UNL A   1      46.748  29.365  27.635  1.00  0.00    -0.354 N 
ATOM     37  C   UNL A   1      42.901  30.439  29.112  1.00  0.00     0.074 A 
ATOM     38  C   UNL A   1      42.772  31.872  29.256  1.00  0.00     0.031 C 
ATOM     39  C   UNL A   1      48.944  29.602  27.309  1.00  0.00     0.029 A 
ATOM     40  C   UNL A   1      47.863  28.644  27.249  1.00  0.00     0.049 A 
ATOM     41  H   UNL A   1      45.853  28.964  27.724  1.00  0.00     0.167 HD
ATOM     42  C   UNL A   1      41.901  29.553  29.365  1.00  0.00     0.031 A 
ATOM     43  C   UNL A   1      48.046  27.353  26.910  1.00  0.00     0.031 A 
ATOM     44  C   UNL A   1      41.974  28.144  29.061  1.00  0.00     0.049 A 
ATOM     45  C   UNL A   1      46.880  26.426  27.004  1.00  0.00     0.074 A 
ATOM     46  C   UNL A   1      40.973  27.189  29.150  1.00  0.00     0.029 A 
ATOM     47  N   UNL A   1      43.091  27.497  28.553  1.00  0.00    -0.354 N 
ATOM     48  N   UNL A   1      45.676  26.678  27.458  1.00  0.00    -0.248 NA
ATOM     49  C   UNL A   1      47.090  25.047  26.554  1.00  0.00     0.031 C 
ATOM     50  C   UNL A   1      41.489  25.965  28.704  1.00  0.00     0.029 A 
ATOM     51  C   UNL A   1      42.797  26.166  28.297  1.00  0.00     0.049 A 
ATOM     52  H   UNL A   1      43.967  27.921  28.398  1.00  0.00     0.167 HD
ATOM     53  C   UNL A   1      44.978  25.488  27.337  1.00  0.00     0.074 A 
ATOM     54  C   UNL A   1      45.885  24.528  26.737  1.00  0.00     0.031 C 
ATOM     55  C   UNL A   1      43.702  25.217  27.702  1.00  0.00     0.031 A 
BRANCH  42  56
ATOM     56  C   UNL A   1      40.613  30.087  29.962  1.00  0.00    -0.014 A 
ATOM     57  C   UNL A   1      40.452  30.233  31.352  1.00  0.00     0.010 A 
ATOM     58  C   UNL A   1      39.552  30.475  29.120  1.00  0.00     0.010 A 
ATOM     59  C   UNL A   1      39.237  30.667  31.891  1.00  0.00     0.020 A 
ATOM     60  C   UNL A   1      38.346  30.952  29.653  1.00  0.00     0.020 A 
ATOM     61  C   UNL A   1      38.187  31.014  31.039  1.00  0.00     0.054 A 
BRANCH  61  62
ATOM     62  S   UNL A   1      36.619  31.563  31.769  1.00  0.00     0.124 S 
ATOM     63  O   UNL A   1      35.645  30.783  31.007  1.00  0.00    -0.237 OA
ATOM     64  O   UNL A   1      36.767  31.181  33.171  1.00  0.00    -0.237 OA
ATOM     65  O   UNL A   1      36.601  33.001  31.517  1.00  0.00    -0.744 OA
ENDBRANCH  61  62
ENDBRANCH  42  56
BRANCH  43  66
ATOM     66  C   UNL A   1      49.378  26.882  26.424  1.00  0.00    -0.014 A 
ATOM     67  C   UNL A   1      50.302  26.338  27.335  1.00  0.00     0.010 A 
ATOM     68  C   UNL A   1      49.711  26.914  25.058  1.00  0.00     0.010 A 
ATOM     69  C   UNL A   1      51.536  25.850  26.892  1.00  0.00     0.020 A 
ATOM     70  C   UNL A   1      50.926  26.388  24.606  1.00  0.00     0.020 A 
ATOM     71  C   UNL A   1      51.838  25.872  25.528  1.00  0.00     0.054 A 
BRANCH  71  72
ATOM     72  S   UNL A   1      53.415  25.166  24.970  1.00  0.00     0.124 S 
ATOM     73  O   UNL A   1      54.366  25.787  25.887  1.00  0.00    -0.237 OA
ATOM     74  O   UNL A   1      53.202  23.732  25.152  1.00  0.00    -0.237 OA
ATOM     75  O   UNL A   1      53.509  25.602  23.578  1.00  0.00    -0.744 OA
ENDBRANCH  71  72
ENDBRANCH  43  66
BRANCH  55  76
ATOM     76  C   UNL A   1      43.203  23.832  27.404  1.00  0.00    -0.014 A 
ATOM     77  C   UNL A   1      43.214  22.823  28.383  1.00  0.00     0.010 A 
ATOM     78  C   UNL A   1      42.739  23.535  26.110  1.00  0.00     0.010 A 
ATOM     79  C   UNL A   1      42.821  21.523  28.057  1.00  0.00     0.020 A 
ATOM     80  C   UNL A   1      42.318  22.244  25.788  1.00  0.00     0.020 A 
ATOM     81  C   UNL A   1      42.383  21.242  26.758  1.00  0.00     0.054 A 
BRANCH  81  82
ATOM     82  S   UNL A   1      41.880  19.547  26.355  1.00  0.00     0.124 S 
ATOM     83  O   UNL A   1      42.329  18.810  27.533  1.00  0.00    -0.237 OA
ATOM     84  O   UNL A   1      40.432  19.670  26.202  1.00  0.00    -0.237 OA
ATOM     85  O   UNL A   1      42.608  19.256  25.122  1.00  0.00    -0.744 OA
ENDBRANCH  81  82
ENDBRANCH  55  76
ENDBRANCH  29  30
ENDBRANCH  22  24
ENDBRANCH  21  22
ENDBRANCH   1  21
TORSDOF 15
ENDMDL
MODEL 3
REMARK VINA RESULT:      -8.5      4.238      7.157
REMARK SMILES Cc1cc(C)cc(-c2cccc(Cl)c2C(=O)OCCOC(=O)c2ccc(-c3c4nc(c(-c5ccc(S(=O)(=O)[O-])cc5)c5ccc([nH]5)c(-c5ccc(S(=O)(=O)[O-])cc5)c5nc(c(-c6ccc(S(=O)(=O)[O-])cc6)c6ccc3[nH]6)C=C5)C=C4)cc2)c1
REMARK SMILES IDX 19 1 18 2 17 3 15 4 16 5 14 6 8 7 9 8 10 9 12 10 11 11 13 12
REMARK SMILES IDX 7 13 1 14 2 15 3 16 83 17 4 18 5 19 6 20 20 21 21 22 22 23
REMARK SMILES IDX 23 24 24 25 82 26 25 27 81 28 26 29 27 30 28 31 75 32 29 33
REMARK SMILES IDX 80 34 74 35 76 36 30 37 79 38 73 39 72 40 31 42 61 43 42 44
REMARK SMILES IDX 60 45 43 46 46 47 59 48 77 49 44 50 45 51 58 53 78 54 47 55
REMARK SMILES IDX 32 56 33 57 41 58 34 59 40 60 35 61 36 62 37 63 38 64 39 65
REMARK SMILES IDX 62 66 63 67 71 68 64 69 70 70 65 71 66 72 67 73 68 74 69 75
REMARK SMILES IDX 48 76 49 77 57 78 50 79 56 80 51 81 52 82 53 83 54 84 55 85
REMARK H PARENT 76 41 46 52
REMARK Flexibility Score: inf
ROOT
ATOM      1  C   UNL A   1      38.826  22.446  26.044  1.00  0.00     0.275 C 
ENDROOT
BRANCH   1   2
ATOM      2  C   UNL A   1      37.780  23.514  25.744  1.00  0.00     0.275 C 
BRANCH   2   3
ATOM      3  O   UNL A   1      36.670  22.935  25.018  1.00  0.00    -0.458 OA
BRANCH   3   4
ATOM      4  C   UNL A   1      35.492  22.852  25.686  1.00  0.00     0.340 C 
ATOM      5  O   UNL A   1      35.341  22.929  26.894  1.00  0.00    -0.246 OA
BRANCH   4   6
ATOM      6  C   UNL A   1      34.386  22.510  24.760  1.00  0.00     0.086 A 
ATOM      7  C   UNL A   1      33.385  23.457  24.378  1.00  0.00    -0.002 A 
ATOM      8  C   UNL A   1      32.235  22.969  23.737  1.00  0.00     0.010 A 
ATOM      9  C   UNL A   1      32.078  21.605  23.469  1.00  0.00     0.002 A 
ATOM     10  C   UNL A   1      34.230  21.144  24.460  1.00  0.00     0.056 A 
ATOM     11  C   UNL A   1      33.076  20.699  23.815  1.00  0.00     0.021 A 
ATOM     12  Cl  UNL A   1      35.367  19.924  24.942  1.00  0.00    -0.083 Cl
BRANCH   7  13
ATOM     13  C   UNL A   1      33.396  24.867  24.822  1.00  0.00    -0.017 A 
ATOM     14  C   UNL A   1      34.145  28.679  22.746  1.00  0.00     0.044 C 
ATOM     15  C   UNL A   1      33.405  27.766  23.691  1.00  0.00    -0.050 A 
ATOM     16  C   UNL A   1      32.626  28.487  25.080  1.00  0.00     0.006 A 
ATOM     17  C   UNL A   1      33.758  26.043  23.562  1.00  0.00     0.012 A 
ATOM     18  C   UNL A   1      32.223  27.454  26.512  1.00  0.00    -0.050 A 
ATOM     19  C   UNL A   1      31.619  28.495  27.516  1.00  0.00     0.044 C 
ATOM     20  C   UNL A   1      32.688  25.478  26.382  1.00  0.00     0.012 A 
ENDBRANCH   7  13
ENDBRANCH   4   6
ENDBRANCH   3   4
ENDBRANCH   2   3
ENDBRANCH   1   2
BRANCH   1  21
ATOM     21  O   UNL A   1      39.683  22.939  27.086  1.00  0.00    -0.458 OA
BRANCH  21  22
ATOM     22  C   UNL A   1      40.681  23.702  26.605  1.00  0.00     0.338 C 
ATOM     23  O   UNL A   1      41.477  23.414  25.724  1.00  0.00    -0.246 OA
BRANCH  22  24
ATOM     24  C   UNL A   1      40.700  25.026  27.212  1.00  0.00     0.060 A 
ATOM     25  C   UNL A   1      42.226  25.960  27.419  1.00  0.00     0.016 A 
ATOM     26  C   UNL A   1      39.411  25.267  28.379  1.00  0.00     0.016 A 
ATOM     27  C   UNL A   1      42.356  27.205  29.016  1.00  0.00     0.010 A 
ATOM     28  C   UNL A   1      39.517  26.411  29.733  1.00  0.00     0.010 A 
ATOM     29  C   UNL A   1      40.927  27.409  30.101  1.00  0.00    -0.014 A 
BRANCH  29  30
ATOM     30  C   UNL A   1      40.829  28.531  31.132  1.00  0.00     0.031 A 
ATOM     31  C   UNL A   1      41.749  28.600  32.344  1.00  0.00     0.074 A 
ATOM     32  C   UNL A   1      39.821  29.437  31.103  1.00  0.00     0.049 A 
ATOM     33  N   UNL A   1      41.613  29.304  33.447  1.00  0.00    -0.248 NA
ATOM     34  C   UNL A   1      42.912  27.707  32.374  1.00  0.00     0.031 C 
ATOM     35  C   UNL A   1      38.714  29.447  30.162  1.00  0.00     0.029 A 
ATOM     36  N   UNL A   1      39.538  30.539  31.888  1.00  0.00    -0.354 N 
ATOM     37  C   UNL A   1      42.584  28.838  34.331  1.00  0.00     0.074 A 
ATOM     38  C   UNL A   1      43.263  27.757  33.652  1.00  0.00     0.031 C 
ATOM     39  C   UNL A   1      37.977  30.550  30.292  1.00  0.00     0.029 A 
ATOM     40  C   UNL A   1      38.461  31.281  31.443  1.00  0.00     0.049 A 
ATOM     41  H   UNL A   1      40.058  30.773  32.691  1.00  0.00     0.167 HD
ATOM     42  C   UNL A   1      42.915  29.288  35.571  1.00  0.00     0.031 A 
ATOM     43  C   UNL A   1      37.873  32.405  31.897  1.00  0.00     0.031 A 
ATOM     44  C   UNL A   1      42.352  30.471  36.177  1.00  0.00     0.049 A 
ATOM     45  C   UNL A   1      38.381  33.003  33.166  1.00  0.00     0.074 A 
ATOM     46  C   UNL A   1      42.714  31.088  37.365  1.00  0.00     0.029 A 
ATOM     47  N   UNL A   1      41.351  31.252  35.618  1.00  0.00    -0.354 N 
ATOM     48  N   UNL A   1      39.300  32.536  33.975  1.00  0.00    -0.248 NA
ATOM     49  C   UNL A   1      37.775  34.268  33.592  1.00  0.00     0.031 C 
ATOM     50  C   UNL A   1      41.926  32.235  37.526  1.00  0.00     0.029 A 
ATOM     51  C   UNL A   1      41.103  32.357  36.419  1.00  0.00     0.049 A 
ATOM     52  H   UNL A   1      40.882  31.049  34.775  1.00  0.00     0.167 HD
ATOM     53  C   UNL A   1      39.393  33.458  35.004  1.00  0.00     0.074 A 
ATOM     54  C   UNL A   1      38.460  34.525  34.697  1.00  0.00     0.031 C 
ATOM     55  C   UNL A   1      40.175  33.413  36.109  1.00  0.00     0.031 A 
BRANCH  42  56
ATOM     56  C   UNL A   1      43.972  28.525  36.346  1.00  0.00    -0.014 A 
ATOM     57  C   UNL A   1      43.650  27.376  37.092  1.00  0.00     0.010 A 
ATOM     58  C   UNL A   1      45.316  28.946  36.309  1.00  0.00     0.010 A 
ATOM     59  C   UNL A   1      44.624  26.720  37.852  1.00  0.00     0.020 A 
ATOM     60  C   UNL A   1      46.304  28.266  37.033  1.00  0.00     0.020 A 
ATOM     61  C   UNL A   1      45.944  27.175  37.827  1.00  0.00     0.054 A 
BRANCH  61  62
ATOM     62  S   UNL A   1      47.182  26.309  38.832  1.00  0.00     0.124 S 
ATOM     63  O   UNL A   1      47.170  24.974  38.238  1.00  0.00    -0.237 OA
ATOM     64  O   UNL A   1      48.393  27.090  38.593  1.00  0.00    -0.237 OA
ATOM     65  O   UNL A   1      46.648  26.393  40.189  1.00  0.00    -0.744 OA
ENDBRANCH  61  62
ENDBRANCH  42  56
BRANCH  43  66
ATOM     66  C   UNL A   1      36.766  33.042  31.123  1.00  0.00    -0.014 A 
ATOM     67  C   UNL A   1      35.433  32.879  31.545  1.00  0.00     0.010 A 
ATOM     68  C   UNL A   1      37.028  33.859  30.008  1.00  0.00     0.010 A 
ATOM     69  C   UNL A   1      34.387  33.506  30.861  1.00  0.00     0.020 A 
ATOM     70  C   UNL A   1      35.988  34.522  29.346  1.00  0.00     0.020 A 
ATOM     71  C   UNL A   1      34.672  34.330  29.769  1.00  0.00     0.054 A 
BRANCH  71  72
ATOM     72  S   UNL A   1      33.304  35.190  28.942  1.00  0.00     0.124 S 
ATOM     73  O   UNL A   1      32.690  34.113  28.171  1.00  0.00    -0.237 OA
ATOM     74  O   UNL A   1      32.518  35.691  30.067  1.00  0.00    -0.237 OA
ATOM     75  O   UNL A   1      33.976  36.221  28.154  1.00  0.00    -0.744 OA
ENDBRANCH  71  72
ENDBRANCH  43  66
BRANCH  55  76
ATOM     76  C   UNL A   1      40.087  34.592  37.035  1.00  0.00    -0.014 A 
ATOM     77  C   UNL A   1      40.946  35.697  36.898  1.00  0.00     0.010 A 
ATOM     78  C   UNL A   1      39.141  34.578  38.076  1.00  0.00     0.010 A 
ATOM     79  C   UNL A   1      40.899  36.743  37.821  1.00  0.00     0.020 A 
ATOM     80  C   UNL A   1      39.070  35.635  38.983  1.00  0.00     0.020 A 
ATOM     81  C   UNL A   1      39.966  36.701  38.863  1.00  0.00     0.054 A 
BRANCH  81  82
ATOM     82  S   UNL A   1      39.922  38.068  40.052  1.00  0.00     0.124 S 
ATOM     83  O   UNL A   1      39.759  37.361  41.320  1.00  0.00    -0.237 OA
ATOM     84  O   UNL A   1      41.219  38.710  39.851  1.00  0.00    -0.237 OA
ATOM     85  O   UNL A   1      38.770  38.859  39.626  1.00  0.00    -0.744 OA
ENDBRANCH  81  82
ENDBRANCH  55  76
ENDBRANCH  29  30
ENDBRANCH  22  24
ENDBRANCH  21  22
ENDBRANCH   1  21
TORSDOF 15
ENDMDL
