MODEL 1
REMARK VINA RESULT:     -12.0      0.000      0.000
REMARK SMILES Cc1ccc([C@@H](CC(=O)OCCOC(=O)c2ccc(-c3c4nc(c(-c5ccc(S(=O)(=O)[O-])cc5)c5ccc([nH]5)c(-c5ccc(S(=O)(=O)[O-])cc5)c5nc(c(-c6ccc(S(=O)(=O)[O-])cc6)c6ccc3[nH]6)C=C5)C=C4)cc2)NC(=O)c2ccc(OC(F)F)cc2)cc1
REMARK SMILES IDX 11 1 10 2 8 3 9 4 7 5 6 6 5 7 1 8 2 9 3 10 90 11 4 12 89 13
REMARK SMILES IDX 76 14 77 15 78 17 79 18 80 19 88 20 81 21 87 22 82 23 83 24
REMARK SMILES IDX 84 25 85 26 86 27 12 28 13 29 14 30 15 31 16 32 17 33 75 34
REMARK SMILES IDX 18 35 74 36 19 37 20 38 21 39 68 40 22 41 73 42 67 43 69 44
REMARK SMILES IDX 23 45 72 46 66 47 65 48 24 50 54 51 35 52 53 53 36 54 39 55
REMARK SMILES IDX 52 56 70 57 37 58 38 59 51 61 71 62 40 63 25 64 26 65 34 66
REMARK SMILES IDX 27 67 33 68 28 69 29 70 30 71 31 72 32 73 55 74 56 75 64 76
REMARK SMILES IDX 57 77 63 78 58 79 59 80 60 81 61 82 62 83 41 84 42 85 50 86
REMARK SMILES IDX 43 87 49 88 44 89 45 90 46 91 47 92 48 93
REMARK H PARENT 76 16 69 49 39 60
REMARK Flexibility Score: inf
ROOT
ATOM      1  C   UNL A   1      31.886  30.719  26.534  1.00  0.00     0.274 C 
ENDROOT
BRANCH   1   2
ATOM      2  O   UNL A   1      31.443  29.373  26.289  1.00  0.00    -0.462 OA
BRANCH   2   3
ATOM      3  C   UNL A   1      31.857  28.716  25.059  1.00  0.00     0.308 C 
ATOM      4  O   UNL A   1      31.107  29.203  24.180  1.00  0.00    -0.252 OA
BRANCH   3   5
ATOM      5  C   UNL A   1      33.524  27.294  24.955  1.00  0.00     0.152 C 
BRANCH   5   6
ATOM      6  C   UNL A   1      33.772  25.514  25.117  1.00  0.00     0.123 C 
BRANCH   6   7
ATOM      7  C   UNL A   1      33.187  24.751  23.905  1.00  0.00    -0.025 A 
ATOM      8  C   UNL A   1      31.847  21.271  21.821  1.00  0.00     0.044 C 
ATOM      9  C   UNL A   1      32.263  22.611  22.346  1.00  0.00    -0.051 A 
ATOM     10  C   UNL A   1      33.601  22.988  22.292  1.00  0.00     0.004 A 
ATOM     11  C   UNL A   1      31.356  23.438  23.018  1.00  0.00     0.004 A 
ATOM     12  C   UNL A   1      34.037  24.114  22.987  1.00  0.00     0.006 A 
ATOM     13  C   UNL A   1      31.815  24.492  23.814  1.00  0.00     0.006 A 
ENDBRANCH   6   7
BRANCH   6  14
ATOM     14  N   UNL A   1      33.434  24.795  26.353  1.00  0.00    -0.345 N 
ATOM     15  C   UNL A   1      33.039  23.532  26.681  1.00  0.00     0.251 C 
ATOM     16  H   UNL A   1      33.510  25.374  27.146  1.00  0.00     0.164 HD
ATOM     17  O   UNL A   1      32.290  23.430  27.657  1.00  0.00    -0.269 OA
BRANCH  15  18
ATOM     18  C   UNL A   1      33.467  22.288  25.998  1.00  0.00     0.040 A 
ATOM     19  C   UNL A   1      32.471  21.323  25.760  1.00  0.00     0.017 A 
ATOM     20  C   UNL A   1      34.787  21.961  25.706  1.00  0.00     0.017 A 
ATOM     21  C   UNL A   1      32.788  20.075  25.222  1.00  0.00     0.047 A 
ATOM     22  C   UNL A   1      35.104  20.710  25.155  1.00  0.00     0.047 A 
ATOM     23  C   UNL A   1      34.108  19.762  24.907  1.00  0.00     0.126 A 
BRANCH  23  24
ATOM     24  O   UNL A   1      34.289  18.512  24.389  1.00  0.00    -0.435 OA
BRANCH  24  25
ATOM     25  C   UNL A   1      33.161  17.866  23.813  1.00  0.00     0.542 C 
ATOM     26  F   UNL A   1      32.884  18.407  22.602  1.00  0.00    -0.167 F 
ATOM     27  F   UNL A   1      33.405  16.546  23.651  1.00  0.00    -0.167 F 
ENDBRANCH  24  25
ENDBRANCH  23  24
ENDBRANCH  15  18
ENDBRANCH   6  14
ENDBRANCH   5   6
ENDBRANCH   3   5
ENDBRANCH   2   3
ENDBRANCH   1   2
BRANCH   1  28
ATOM     28  C   UNL A   1      33.245  30.757  27.255  1.00  0.00     0.275 C 
BRANCH  28  29
ATOM     29  O   UNL A   1      33.667  32.048  27.739  1.00  0.00    -0.458 OA
BRANCH  29  30
ATOM     30  C   UNL A   1      34.960  32.230  28.102  1.00  0.00     0.338 C 
ATOM     31  O   UNL A   1      35.526  33.293  28.281  1.00  0.00    -0.246 OA
BRANCH  30  32
ATOM     32  C   UNL A   1      35.629  30.960  28.378  1.00  0.00     0.060 A 
ATOM     33  C   UNL A   1      35.631  30.310  30.067  1.00  0.00     0.016 A 
ATOM     34  C   UNL A   1      36.928  30.482  27.219  1.00  0.00     0.016 A 
ATOM     35  C   UNL A   1      37.071  29.389  30.662  1.00  0.00     0.010 A 
ATOM     36  C   UNL A   1      38.334  29.539  27.800  1.00  0.00     0.010 A 
ATOM     37  C   UNL A   1      38.406  29.062  29.530  1.00  0.00    -0.014 A 
BRANCH  37  38
ATOM     38  C   UNL A   1      39.792  28.904  29.909  1.00  0.00     0.031 A 
ATOM     39  C   UNL A   1      40.407  27.643  29.481  1.00  0.00     0.074 A 
ATOM     40  C   UNL A   1      40.450  30.040  30.250  1.00  0.00     0.049 A 
ATOM     41  N   UNL A   1      41.489  27.163  29.966  1.00  0.00    -0.248 NA
ATOM     42  C   UNL A   1      39.801  26.743  28.490  1.00  0.00     0.031 C 
ATOM     43  C   UNL A   1      41.867  30.383  30.157  1.00  0.00     0.029 A 
ATOM     44  N   UNL A   1      39.943  31.174  30.857  1.00  0.00    -0.354 N 
ATOM     45  C   UNL A   1      41.933  26.239  29.044  1.00  0.00     0.074 A 
ATOM     46  C   UNL A   1      40.776  25.856  28.286  1.00  0.00     0.031 C 
ATOM     47  C   UNL A   1      42.125  31.448  30.948  1.00  0.00     0.029 A 
ATOM     48  C   UNL A   1      40.899  31.781  31.654  1.00  0.00     0.049 A 
ATOM     49  H   UNL A   1      39.024  31.506  30.738  1.00  0.00     0.167 HD
ATOM     50  C   UNL A   1      43.274  26.118  28.852  1.00  0.00     0.031 A 
ATOM     51  C   UNL A   1      40.732  31.762  33.010  1.00  0.00     0.031 A 
ATOM     52  C   UNL A   1      43.987  27.030  29.756  1.00  0.00     0.049 A 
ATOM     53  C   UNL A   1      41.657  30.730  33.637  1.00  0.00     0.074 A 
ATOM     54  C   UNL A   1      44.618  28.249  29.570  1.00  0.00     0.029 A 
ATOM     55  N   UNL A   1      43.734  26.936  31.118  1.00  0.00    -0.354 N 
ATOM     56  N   UNL A   1      42.249  29.778  32.961  1.00  0.00    -0.248 NA
ATOM     57  C   UNL A   1      42.074  30.741  35.033  1.00  0.00     0.031 C 
ATOM     58  C   UNL A   1      44.709  28.893  30.843  1.00  0.00     0.029 A 
ATOM     59  C   UNL A   1      44.135  28.069  31.797  1.00  0.00     0.049 A 
ATOM     60  H   UNL A   1      43.319  26.154  31.549  1.00  0.00     0.167 HD
ATOM     61  C   UNL A   1      43.154  29.116  33.746  1.00  0.00     0.074 A 
ATOM     62  C   UNL A   1      42.986  29.751  35.045  1.00  0.00     0.031 C 
ATOM     63  C   UNL A   1      43.970  28.128  33.252  1.00  0.00     0.031 A 
BRANCH  50  64
ATOM     64  C   UNL A   1      43.917  25.423  27.676  1.00  0.00    -0.014 A 
ATOM     65  C   UNL A   1      44.933  24.479  27.928  1.00  0.00     0.010 A 
ATOM     66  C   UNL A   1      43.578  25.621  26.321  1.00  0.00     0.010 A 
ATOM     67  C   UNL A   1      45.582  23.785  26.900  1.00  0.00     0.020 A 
ATOM     68  C   UNL A   1      44.235  24.947  25.276  1.00  0.00     0.020 A 
ATOM     69  C   UNL A   1      45.226  24.020  25.576  1.00  0.00     0.054 A 
BRANCH  69  70
ATOM     70  S   UNL A   1      46.036  23.056  24.277  1.00  0.00     0.124 S 
ATOM     71  O   UNL A   1      44.941  22.798  23.346  1.00  0.00    -0.237 OA
ATOM     72  O   UNL A   1      47.063  23.980  23.802  1.00  0.00    -0.237 OA
ATOM     73  O   UNL A   1      46.540  21.878  24.981  1.00  0.00    -0.744 OA
ENDBRANCH  69  70
ENDBRANCH  50  64
BRANCH  51  74
ATOM     74  C   UNL A   1      39.339  32.163  33.407  1.00  0.00    -0.014 A 
ATOM     75  C   UNL A   1      39.036  33.542  33.270  1.00  0.00     0.010 A 
ATOM     76  C   UNL A   1      38.263  31.259  33.441  1.00  0.00     0.010 A 
ATOM     77  C   UNL A   1      37.735  33.985  32.996  1.00  0.00     0.020 A 
ATOM     78  C   UNL A   1      36.944  31.709  33.205  1.00  0.00     0.020 A 
ATOM     79  C   UNL A   1      36.696  33.061  32.936  1.00  0.00     0.054 A 
BRANCH  79  80
ATOM     80  S   UNL A   1      35.062  33.646  32.375  1.00  0.00     0.124 S 
ATOM     81  O   UNL A   1      34.593  34.404  33.530  1.00  0.00    -0.237 OA
ATOM     82  O   UNL A   1      35.384  34.444  31.196  1.00  0.00    -0.237 OA
ATOM     83  O   UNL A   1      34.324  32.413  32.107  1.00  0.00    -0.744 OA
ENDBRANCH  79  80
ENDBRANCH  51  74
BRANCH  63  84
ATOM     84  C   UNL A   1      44.738  27.101  34.073  1.00  0.00    -0.014 A 
ATOM     85  C   UNL A   1      46.128  26.974  34.090  1.00  0.00     0.010 A 
ATOM     86  C   UNL A   1      44.030  26.241  34.957  1.00  0.00     0.010 A 
ATOM     87  C   UNL A   1      46.772  26.042  34.910  1.00  0.00     0.020 A 
ATOM     88  C   UNL A   1      44.658  25.351  35.827  1.00  0.00     0.020 A 
ATOM     89  C   UNL A   1      46.035  25.243  35.780  1.00  0.00     0.054 A 
BRANCH  89  90
ATOM     90  S   UNL A   1      46.908  24.070  36.828  1.00  0.00     0.124 S 
ATOM     91  O   UNL A   1      45.947  22.973  36.917  1.00  0.00    -0.237 OA
ATOM     92  O   UNL A   1      48.110  23.790  36.044  1.00  0.00    -0.237 OA
ATOM     93  O   UNL A   1      47.133  24.805  38.069  1.00  0.00    -0.744 OA
ENDBRANCH  89  90
ENDBRANCH  63  84
ENDBRANCH  37  38
ENDBRANCH  30  32
ENDBRANCH  29  30
ENDBRANCH  28  29
ENDBRANCH   1  28
TORSDOF 20
ENDMDL
MODEL 2
REMARK VINA RESULT:     -11.9      3.729      5.720
REMARK SMILES Cc1ccc([C@@H](CC(=O)OCCOC(=O)c2ccc(-c3c4nc(c(-c5ccc(S(=O)(=O)[O-])cc5)c5ccc([nH]5)c(-c5ccc(S(=O)(=O)[O-])cc5)c5nc(c(-c6ccc(S(=O)(=O)[O-])cc6)c6ccc3[nH]6)C=C5)C=C4)cc2)NC(=O)c2ccc(OC(F)F)cc2)cc1
REMARK SMILES IDX 11 1 10 2 8 3 9 4 7 5 6 6 5 7 1 8 2 9 3 10 90 11 4 12 89 13
REMARK SMILES IDX 76 14 77 15 78 17 79 18 80 19 88 20 81 21 87 22 82 23 83 24
REMARK SMILES IDX 84 25 85 26 86 27 12 28 13 29 14 30 15 31 16 32 17 33 75 34
REMARK SMILES IDX 18 35 74 36 19 37 20 38 21 39 68 40 22 41 73 42 67 43 69 44
REMARK SMILES IDX 23 45 72 46 66 47 65 48 24 50 54 51 35 52 53 53 36 54 39 55
REMARK SMILES IDX 52 56 70 57 37 58 38 59 51 61 71 62 40 63 25 64 26 65 34 66
REMARK SMILES IDX 27 67 33 68 28 69 29 70 30 71 31 72 32 73 55 74 56 75 64 76
REMARK SMILES IDX 57 77 63 78 58 79 59 80 60 81 61 82 62 83 41 84 42 85 50 86
REMARK SMILES IDX 43 87 49 88 44 89 45 90 46 91 47 92 48 93
REMARK H PARENT 76 16 69 49 39 60
REMARK Flexibility Score: inf
ROOT
ATOM      1  C   UNL A   1      35.892  32.041  28.347  1.00  0.00     0.274 C 
ENDROOT
BRANCH   1   2
ATOM      2  O   UNL A   1      35.068  31.211  27.509  1.00  0.00    -0.462 OA
BRANCH   2   3
ATOM      3  C   UNL A   1      33.632  31.445  27.494  1.00  0.00     0.308 C 
ATOM      4  O   UNL A   1      33.502  32.602  27.960  1.00  0.00    -0.252 OA
BRANCH   3   5
ATOM      5  C   UNL A   1      32.185  30.005  26.693  1.00  0.00     0.152 C 
BRANCH   5   6
ATOM      6  C   UNL A   1      31.661  29.397  25.076  1.00  0.00     0.123 C 
BRANCH   6   7
ATOM      7  C   UNL A   1      30.990  28.008  25.187  1.00  0.00    -0.025 A 
ATOM      8  C   UNL A   1      30.800  23.767  24.706  1.00  0.00     0.044 C 
ATOM      9  C   UNL A   1      30.641  25.234  24.964  1.00  0.00    -0.051 A 
ATOM     10  C   UNL A   1      30.227  26.076  23.936  1.00  0.00     0.004 A 
ATOM     11  C   UNL A   1      31.032  25.800  26.182  1.00  0.00     0.004 A 
ATOM     12  C   UNL A   1      30.307  27.457  24.092  1.00  0.00     0.006 A 
ATOM     13  C   UNL A   1      31.229  27.181  26.290  1.00  0.00     0.006 A 
ENDBRANCH   6   7
BRANCH   6  14
ATOM     14  N   UNL A   1      32.562  29.409  23.916  1.00  0.00    -0.345 N 
ATOM     15  C   UNL A   1      33.607  28.655  23.472  1.00  0.00     0.251 C 
ATOM     16  H   UNL A   1      32.360  30.152  23.303  1.00  0.00     0.164 HD
ATOM     17  O   UNL A   1      34.480  29.251  22.835  1.00  0.00    -0.269 OA
BRANCH  15  18
ATOM     18  C   UNL A   1      33.754  27.191  23.653  1.00  0.00     0.040 A 
ATOM     19  C   UNL A   1      34.258  26.755  24.893  1.00  0.00     0.017 A 
ATOM     20  C   UNL A   1      33.559  26.247  22.650  1.00  0.00     0.017 A 
ATOM     21  C   UNL A   1      34.537  25.408  25.126  1.00  0.00     0.047 A 
ATOM     22  C   UNL A   1      33.830  24.891  22.889  1.00  0.00     0.047 A 
ATOM     23  C   UNL A   1      34.316  24.463  24.127  1.00  0.00     0.126 A 
BRANCH  23  24
ATOM     24  O   UNL A   1      34.627  23.180  24.477  1.00  0.00    -0.435 OA
BRANCH  24  25
ATOM     25  C   UNL A   1      35.983  22.774  24.359  1.00  0.00     0.542 C 
ATOM     26  F   UNL A   1      36.439  23.033  23.109  1.00  0.00    -0.167 F 
ATOM     27  F   UNL A   1      36.754  23.439  25.247  1.00  0.00    -0.167 F 
ENDBRANCH  24  25
ENDBRANCH  23  24
ENDBRANCH  15  18
ENDBRANCH   6  14
ENDBRANCH   5   6
ENDBRANCH   3   5
ENDBRANCH   2   3
ENDBRANCH   1   2
BRANCH   1  28
ATOM     28  C   UNL A   1      36.513  31.248  29.510  1.00  0.00     0.275 C 
BRANCH  28  29
ATOM     29  O   UNL A   1      36.623  29.823  29.316  1.00  0.00    -0.458 OA
BRANCH  29  30
ATOM     30  C   UNL A   1      37.764  29.191  29.681  1.00  0.00     0.338 C 
ATOM     31  O   UNL A   1      37.867  28.261  30.461  1.00  0.00    -0.246 OA
BRANCH  30  32
ATOM     32  C   UNL A   1      38.920  29.682  28.933  1.00  0.00     0.060 A 
ATOM     33  C   UNL A   1      39.164  29.138  27.225  1.00  0.00     0.016 A 
ATOM     34  C   UNL A   1      40.327  30.230  29.922  1.00  0.00     0.016 A 
ATOM     35  C   UNL A   1      40.846  28.905  26.599  1.00  0.00     0.010 A 
ATOM     36  C   UNL A   1      41.990  30.033  29.288  1.00  0.00     0.010 A 
ATOM     37  C   UNL A   1      42.218  29.316  27.657  1.00  0.00    -0.014 A 
BRANCH  37  38
ATOM     38  C   UNL A   1      43.519  28.688  27.606  1.00  0.00     0.031 A 
ATOM     39  C   UNL A   1      43.509  27.235  27.805  1.00  0.00     0.074 A 
ATOM     40  C   UNL A   1      44.507  29.409  27.018  1.00  0.00     0.049 A 
ATOM     41  N   UNL A   1      44.538  26.538  28.111  1.00  0.00    -0.248 NA
ATOM     42  C   UNL A   1      42.288  26.420  27.745  1.00  0.00     0.031 C 
ATOM     43  C   UNL A   1      45.711  28.976  26.314  1.00  0.00     0.029 A 
ATOM     44  N   UNL A   1      44.668  30.782  26.996  1.00  0.00    -0.354 N 
ATOM     45  C   UNL A   1      44.213  25.236  27.793  1.00  0.00     0.074 A 
ATOM     46  C   UNL A   1      42.779  25.180  27.791  1.00  0.00     0.031 C 
ATOM     47  C   UNL A   1      46.581  30.007  26.235  1.00  0.00     0.029 A 
ATOM     48  C   UNL A   1      46.009  31.126  26.964  1.00  0.00     0.049 A 
ATOM     49  H   UNL A   1      43.926  31.431  27.002  1.00  0.00     0.167 HD
ATOM     50  C   UNL A   1      45.194  24.433  27.300  1.00  0.00     0.031 A 
ATOM     51  C   UNL A   1      46.560  31.724  28.062  1.00  0.00     0.031 A 
ATOM     52  C   UNL A   1      46.461  25.174  27.253  1.00  0.00     0.049 A 
ATOM     53  C   UNL A   1      47.399  30.723  28.839  1.00  0.00     0.074 A 
ATOM     54  C   UNL A   1      47.177  25.765  26.224  1.00  0.00     0.029 A 
ATOM     55  N   UNL A   1      46.927  25.757  28.424  1.00  0.00    -0.354 N 
ATOM     56  N   UNL A   1      47.317  29.425  28.679  1.00  0.00    -0.248 NA
ATOM     57  C   UNL A   1      48.460  31.086  29.769  1.00  0.00     0.031 C 
ATOM     58  C   UNL A   1      48.056  26.733  26.802  1.00  0.00     0.029 A 
ATOM     59  C   UNL A   1      47.874  26.729  28.176  1.00  0.00     0.049 A 
ATOM     60  H   UNL A   1      46.619  25.506  29.325  1.00  0.00     0.167 HD
ATOM     61  C   UNL A   1      48.308  28.787  29.374  1.00  0.00     0.074 A 
ATOM     62  C   UNL A   1      48.985  29.880  30.057  1.00  0.00     0.031 C 
ATOM     63  C   UNL A   1      48.496  27.429  29.304  1.00  0.00     0.031 A 
BRANCH  50  64
ATOM     64  C   UNL A   1      44.959  23.118  26.598  1.00  0.00    -0.014 A 
ATOM     65  C   UNL A   1      45.942  22.649  25.705  1.00  0.00     0.010 A 
ATOM     66  C   UNL A   1      43.830  22.289  26.768  1.00  0.00     0.010 A 
ATOM     67  C   UNL A   1      45.808  21.439  25.012  1.00  0.00     0.020 A 
ATOM     68  C   UNL A   1      43.672  21.082  26.065  1.00  0.00     0.020 A 
ATOM     69  C   UNL A   1      44.674  20.658  25.199  1.00  0.00     0.054 A 
BRANCH  69  70
ATOM     70  S   UNL A   1      44.565  19.068  24.341  1.00  0.00     0.124 S 
ATOM     71  O   UNL A   1      45.813  18.416  24.727  1.00  0.00    -0.237 OA
ATOM     72  O   UNL A   1      43.349  18.492  24.911  1.00  0.00    -0.237 OA
ATOM     73  O   UNL A   1      44.473  19.440  22.930  1.00  0.00    -0.744 OA
ENDBRANCH  69  70
ENDBRANCH  50  64
BRANCH  51  74
ATOM     74  C   UNL A   1      45.707  32.854  28.569  1.00  0.00    -0.014 A 
ATOM     75  C   UNL A   1      45.809  34.071  27.847  1.00  0.00     0.010 A 
ATOM     76  C   UNL A   1      44.554  32.651  29.347  1.00  0.00     0.010 A 
ATOM     77  C   UNL A   1      44.733  34.964  27.758  1.00  0.00     0.020 A 
ATOM     78  C   UNL A   1      43.483  33.573  29.291  1.00  0.00     0.020 A 
ATOM     79  C   UNL A   1      43.561  34.697  28.460  1.00  0.00     0.054 A 
BRANCH  79  80
ATOM     80  S   UNL A   1      42.118  35.770  28.155  1.00  0.00     0.124 S 
ATOM     81  O   UNL A   1      41.945  35.651  26.711  1.00  0.00    -0.237 OA
ATOM     82  O   UNL A   1      41.070  35.151  28.961  1.00  0.00    -0.237 OA
ATOM     83  O   UNL A   1      42.560  37.086  28.616  1.00  0.00    -0.744 OA
ENDBRANCH  79  80
ENDBRANCH  51  74
BRANCH  63  84
ATOM     84  C   UNL A   1      49.306  26.581  30.274  1.00  0.00    -0.014 A 
ATOM     85  C   UNL A   1      49.248  26.688  31.666  1.00  0.00     0.010 A 
ATOM     86  C   UNL A   1      50.137  25.542  29.772  1.00  0.00     0.010 A 
ATOM     87  C   UNL A   1      49.980  25.839  32.501  1.00  0.00     0.020 A 
ATOM     88  C   UNL A   1      50.825  24.647  30.590  1.00  0.00     0.020 A 
ATOM     89  C   UNL A   1      50.757  24.819  31.959  1.00  0.00     0.054 A 
BRANCH  89  90
ATOM     90  S   UNL A   1      51.670  23.740  33.075  1.00  0.00     0.124 S 
ATOM     91  O   UNL A   1      52.996  24.353  33.065  1.00  0.00    -0.237 OA
ATOM     92  O   UNL A   1      50.921  23.882  34.322  1.00  0.00    -0.237 OA
ATOM     93  O   UNL A   1      51.583  22.427  32.444  1.00  0.00    -0.744 OA
ENDBRANCH  89  90
ENDBRANCH  63  84
ENDBRANCH  37  38
ENDBRANCH  30  32
ENDBRANCH  29  30
ENDBRANCH  28  29
ENDBRANCH   1  28
TORSDOF 20
ENDMDL
MODEL 3
REMARK VINA RESULT:     -11.8      3.831      9.588
REMARK SMILES Cc1ccc([C@@H](CC(=O)OCCOC(=O)c2ccc(-c3c4nc(c(-c5ccc(S(=O)(=O)[O-])cc5)c5ccc([nH]5)c(-c5ccc(S(=O)(=O)[O-])cc5)c5nc(c(-c6ccc(S(=O)(=O)[O-])cc6)c6ccc3[nH]6)C=C5)C=C4)cc2)NC(=O)c2ccc(OC(F)F)cc2)cc1
REMARK SMILES IDX 11 1 10 2 8 3 9 4 7 5 6 6 5 7 1 8 2 9 3 10 90 11 4 12 89 13
REMARK SMILES IDX 76 14 77 15 78 17 79 18 80 19 88 20 81 21 87 22 82 23 83 24
REMARK SMILES IDX 84 25 85 26 86 27 12 28 13 29 14 30 15 31 16 32 17 33 75 34
REMARK SMILES IDX 18 35 74 36 19 37 20 38 21 39 68 40 22 41 73 42 67 43 69 44
REMARK SMILES IDX 23 45 72 46 66 47 65 48 24 50 54 51 35 52 53 53 36 54 39 55
REMARK SMILES IDX 52 56 70 57 37 58 38 59 51 61 71 62 40 63 25 64 26 65 34 66
REMARK SMILES IDX 27 67 33 68 28 69 29 70 30 71 31 72 32 73 55 74 56 75 64 76
REMARK SMILES IDX 57 77 63 78 58 79 59 80 60 81 61 82 62 83 41 84 42 85 50 86
REMARK SMILES IDX 43 87 49 88 44 89 45 90 46 91 47 92 48 93
REMARK H PARENT 76 16 69 49 39 60
REMARK Flexibility Score: inf
ROOT
ATOM      1  C   UNL A   1      41.427  23.002  27.740  1.00  0.00     0.274 C 
ENDROOT
BRANCH   1   2
ATOM      2  O   UNL A   1      40.722  21.750  27.676  1.00  0.00    -0.462 OA
BRANCH   2   3
ATOM      3  C   UNL A   1      40.048  21.393  26.437  1.00  0.00     0.308 C 
ATOM      4  O   UNL A   1      40.877  20.676  25.829  1.00  0.00    -0.252 OA
BRANCH   3   5
ATOM      5  C   UNL A   1      37.990  21.992  25.970  1.00  0.00     0.152 C 
BRANCH   5   6
ATOM      6  C   UNL A   1      36.851  21.881  24.575  1.00  0.00     0.123 C 
BRANCH   6   7
ATOM      7  C   UNL A   1      36.074  23.203  24.375  1.00  0.00    -0.025 A 
ATOM      8  C   UNL A   1      32.600  25.689  24.475  1.00  0.00     0.044 C 
ATOM      9  C   UNL A   1      33.932  25.013  24.350  1.00  0.00    -0.051 A 
ATOM     10  C   UNL A   1      34.215  24.249  23.222  1.00  0.00     0.004 A 
ATOM     11  C   UNL A   1      34.849  25.020  25.407  1.00  0.00     0.004 A 
ATOM     12  C   UNL A   1      35.339  23.428  23.200  1.00  0.00     0.006 A 
ATOM     13  C   UNL A   1      35.905  24.104  25.433  1.00  0.00     0.006 A 
ENDBRANCH   6   7
BRANCH   6  14
ATOM     14  N   UNL A   1      35.928  20.748  24.417  1.00  0.00    -0.345 N 
ATOM     15  C   UNL A   1      34.859  20.246  25.098  1.00  0.00     0.251 C 
ATOM     16  H   UNL A   1      36.136  20.215  23.617  1.00  0.00     0.164 HD
ATOM     17  O   UNL A   1      34.708  19.022  25.054  1.00  0.00    -0.269 OA
BRANCH  15  18
ATOM     18  C   UNL A   1      33.854  21.046  25.839  1.00  0.00     0.040 A 
ATOM     19  C   UNL A   1      32.709  21.443  25.122  1.00  0.00     0.017 A 
ATOM     20  C   UNL A   1      34.030  21.537  27.128  1.00  0.00     0.017 A 
ATOM     21  C   UNL A   1      31.757  22.288  25.693  1.00  0.00     0.047 A 
ATOM     22  C   UNL A   1      33.066  22.379  27.705  1.00  0.00     0.047 A 
ATOM     23  C   UNL A   1      31.924  22.756  26.994  1.00  0.00     0.126 A 
BRANCH  23  24
ATOM     24  O   UNL A   1      30.926  23.575  27.438  1.00  0.00    -0.435 OA
BRANCH  24  25
ATOM     25  C   UNL A   1      29.608  23.322  26.971  1.00  0.00     0.542 C 
ATOM     26  F   UNL A   1      29.014  22.381  27.742  1.00  0.00    -0.167 F 
ATOM     27  F   UNL A   1      28.866  24.451  27.017  1.00  0.00    -0.167 F 
ENDBRANCH  24  25
ENDBRANCH  23  24
ENDBRANCH  15  18
ENDBRANCH   6  14
ENDBRANCH   5   6
ENDBRANCH   3   5
ENDBRANCH   2   3
ENDBRANCH   1   2
BRANCH   1  28
ATOM     28  C   UNL A   1      40.743  24.093  26.896  1.00  0.00     0.275 C 
BRANCH  28  29
ATOM     29  O   UNL A   1      41.029  25.455  27.275  1.00  0.00    -0.458 OA
BRANCH  29  30
ATOM     30  C   UNL A   1      41.335  26.359  26.313  1.00  0.00     0.338 C 
ATOM     31  O   UNL A   1      41.606  26.124  25.149  1.00  0.00    -0.246 OA
BRANCH  30  32
ATOM     32  C   UNL A   1      41.202  27.732  26.797  1.00  0.00     0.060 A 
ATOM     33  C   UNL A   1      42.658  28.586  27.446  1.00  0.00     0.016 A 
ATOM     34  C   UNL A   1      39.548  28.226  27.325  1.00  0.00     0.016 A 
ATOM     35  C   UNL A   1      42.466  29.760  28.811  1.00  0.00     0.010 A 
ATOM     36  C   UNL A   1      39.356  29.415  28.650  1.00  0.00     0.010 A 
ATOM     37  C   UNL A   1      40.826  30.115  29.409  1.00  0.00    -0.014 A 
BRANCH  37  38
ATOM     38  C   UNL A   1      40.506  30.503  30.764  1.00  0.00     0.031 A 
ATOM     39  C   UNL A   1      39.804  31.785  30.887  1.00  0.00     0.074 A 
ATOM     40  C   UNL A   1      40.531  29.512  31.690  1.00  0.00     0.049 A 
ATOM     41  N   UNL A   1      39.710  32.459  31.971  1.00  0.00    -0.248 NA
ATOM     42  C   UNL A   1      39.186  32.480  29.750  1.00  0.00     0.031 C 
ATOM     43  C   UNL A   1      39.795  29.361  32.943  1.00  0.00     0.029 A 
ATOM     44  N   UNL A   1      41.338  28.389  31.722  1.00  0.00    -0.354 N 
ATOM     45  C   UNL A   1      38.661  33.332  31.776  1.00  0.00     0.074 A 
ATOM     46  C   UNL A   1      38.523  33.468  30.354  1.00  0.00     0.031 C 
ATOM     47  C   UNL A   1      40.404  28.433  33.713  1.00  0.00     0.029 A 
ATOM     48  C   UNL A   1      41.612  28.009  33.025  1.00  0.00     0.049 A 
ATOM     49  H   UNL A   1      41.674  27.922  30.922  1.00  0.00     0.167 HD
ATOM     50  C   UNL A   1      37.859  33.617  32.838  1.00  0.00     0.031 A 
ATOM     51  C   UNL A   1      42.886  28.149  33.496  1.00  0.00     0.031 A 
ATOM     52  C   UNL A   1      38.350  32.915  34.030  1.00  0.00     0.049 A 
ATOM     53  C   UNL A   1      42.977  29.360  34.412  1.00  0.00     0.074 A 
ATOM     54  C   UNL A   1      37.925  31.782  34.706  1.00  0.00     0.029 A 
ATOM     55  N   UNL A   1      39.668  33.117  34.416  1.00  0.00    -0.354 N 
ATOM     56  N   UNL A   1      42.074  30.308  34.455  1.00  0.00    -0.248 NA
ATOM     57  C   UNL A   1      44.014  29.556  35.416  1.00  0.00     0.031 C 
ATOM     58  C   UNL A   1      39.025  31.296  35.479  1.00  0.00     0.029 A 
ATOM     59  C   UNL A   1      40.112  32.129  35.272  1.00  0.00     0.049 A 
ATOM     60  H   UNL A   1      40.220  33.875  34.117  1.00  0.00     0.167 HD
ATOM     61  C   UNL A   1      42.323  31.169  35.489  1.00  0.00     0.074 A 
ATOM     62  C   UNL A   1      43.568  30.659  36.047  1.00  0.00     0.031 C 
ATOM     63  C   UNL A   1      41.476  32.202  35.805  1.00  0.00     0.031 A 
BRANCH  50  64
ATOM     64  C   UNL A   1      36.500  34.267  32.740  1.00  0.00    -0.014 A 
ATOM     65  C   UNL A   1      35.812  34.201  31.512  1.00  0.00     0.010 A 
ATOM     66  C   UNL A   1      35.833  34.933  33.789  1.00  0.00     0.010 A 
ATOM     67  C   UNL A   1      34.546  34.773  31.332  1.00  0.00     0.020 A 
ATOM     68  C   UNL A   1      34.571  35.530  33.618  1.00  0.00     0.020 A 
ATOM     69  C   UNL A   1      33.929  35.432  32.389  1.00  0.00     0.054 A 
BRANCH  69  70
ATOM     70  S   UNL A   1      32.265  36.099  32.142  1.00  0.00     0.124 S 
ATOM     71  O   UNL A   1      32.255  37.259  33.029  1.00  0.00    -0.237 OA
ATOM     72  O   UNL A   1      32.262  36.398  30.712  1.00  0.00    -0.237 OA
ATOM     73  O   UNL A   1      31.387  35.003  32.548  1.00  0.00    -0.744 OA
ENDBRANCH  69  70
ENDBRANCH  50  64
BRANCH  51  74
ATOM     74  C   UNL A   1      43.901  27.603  32.532  1.00  0.00    -0.014 A 
ATOM     75  C   UNL A   1      44.139  26.207  32.617  1.00  0.00     0.010 A 
ATOM     76  C   UNL A   1      44.241  28.250  31.331  1.00  0.00     0.010 A 
ATOM     77  C   UNL A   1      44.525  25.458  31.498  1.00  0.00     0.020 A 
ATOM     78  C   UNL A   1      44.671  27.500  30.212  1.00  0.00     0.020 A 
ATOM     79  C   UNL A   1      44.763  26.105  30.289  1.00  0.00     0.054 A 
BRANCH  79  80
ATOM     80  S   UNL A   1      45.060  25.078  28.812  1.00  0.00     0.124 S 
ATOM     81  O   UNL A   1      46.395  25.505  28.404  1.00  0.00    -0.237 OA
ATOM     82  O   UNL A   1      44.975  23.717  29.334  1.00  0.00    -0.237 OA
ATOM     83  O   UNL A   1      43.985  25.461  27.899  1.00  0.00    -0.744 OA
ENDBRANCH  79  80
ENDBRANCH  51  74
BRANCH  63  84
ATOM     84  C   UNL A   1      41.811  33.407  36.672  1.00  0.00    -0.014 A 
ATOM     85  C   UNL A   1      41.448  33.549  38.014  1.00  0.00     0.010 A 
ATOM     86  C   UNL A   1      42.615  34.453  36.139  1.00  0.00     0.010 A 
ATOM     87  C   UNL A   1      41.835  34.660  38.769  1.00  0.00     0.020 A 
ATOM     88  C   UNL A   1      43.063  35.536  36.894  1.00  0.00     0.020 A 
ATOM     89  C   UNL A   1      42.648  35.642  38.207  1.00  0.00     0.054 A 
BRANCH  89  90
ATOM     90  S   UNL A   1      43.135  37.046  39.223  1.00  0.00     0.124 S 
ATOM     91  O   UNL A   1      41.874  37.400  39.870  1.00  0.00    -0.237 OA
ATOM     92  O   UNL A   1      44.147  36.457  40.098  1.00  0.00    -0.237 OA
ATOM     93  O   UNL A   1      43.638  38.020  38.259  1.00  0.00    -0.744 OA
ENDBRANCH  89  90
ENDBRANCH  63  84
ENDBRANCH  37  38
ENDBRANCH  30  32
ENDBRANCH  29  30
ENDBRANCH  28  29
ENDBRANCH   1  28
TORSDOF 20
ENDMDL
