MODEL 1
REMARK VINA RESULT:     -10.3      0.000      0.000
REMARK SMILES O=C(Cc1ccccc1[N+](=O)[O-])N[C@@H]1C=C[C@H](C(=O)OCCOC(=O)c2ccc(-c3c4nc(c(-c5ccc(S(=O)(=O)[O-])cc5)c5ccc([nH]5)c(-c5ccc(S(=O)(=O)[O-])cc5)c5nc(c(-c6ccc(S(=O)(=O)[O-])cc6)c6ccc3[nH]6)C=C5)C=C4)cc2)C1
REMARK SMILES IDX 21 1 20 2 18 3 19 4 17 5 14 6 15 7 86 8 16 9 13 10 1 11 2 12
REMARK SMILES IDX 3 14 4 15 5 16 9 17 6 18 8 19 7 20 10 21 11 22 12 23 22 24
REMARK SMILES IDX 23 25 24 26 25 27 26 28 27 29 85 30 28 31 84 32 29 33 30 34
REMARK SMILES IDX 31 35 78 36 32 37 83 38 77 39 79 40 33 41 82 42 76 43 75 44
REMARK SMILES IDX 34 46 64 47 45 48 63 49 46 50 49 51 62 52 80 53 47 54 48 55
REMARK SMILES IDX 61 57 81 58 50 59 35 60 36 61 44 62 37 63 43 64 38 65 39 66
REMARK SMILES IDX 40 67 41 68 42 69 65 70 66 71 74 72 67 73 73 74 68 75 69 76
REMARK SMILES IDX 70 77 71 78 72 79 51 80 52 81 60 82 53 83 59 84 54 85 55 86
REMARK SMILES IDX 56 87 57 88 58 89
REMARK H PARENT 13 13 79 45 49 56
REMARK Flexibility Score: inf
ROOT
ATOM      1  C   UNL A   1      31.754  28.891  26.461  1.00  0.00     0.274 C 
ENDROOT
BRANCH   1   2
ATOM      2  O   UNL A   1      31.108  27.682  26.023  1.00  0.00    -0.462 OA
BRANCH   2   3
ATOM      3  C   UNL A   1      31.760  26.965  25.066  1.00  0.00     0.312 C 
ATOM      4  O   UNL A   1      32.204  25.833  25.214  1.00  0.00    -0.252 OA
BRANCH   3   5
ATOM      5  C   UNL A   1      31.788  27.722  23.742  1.00  0.00     0.124 C 
ATOM      6  C   UNL A   1      32.008  26.173  21.858  1.00  0.00     0.106 C 
ATOM      7  C   UNL A   1      33.280  26.916  22.124  1.00  0.00    -0.006 C 
ATOM      8  C   UNL A   1      30.984  26.995  22.644  1.00  0.00     0.048 C 
ATOM      9  C   UNL A   1      33.161  27.767  23.149  1.00  0.00    -0.014 C 
BRANCH   6  10
ATOM     10  N   UNL A   1      32.152  24.836  22.379  1.00  0.00    -0.350 N 
ATOM     11  O   UNL A   1      33.309  24.032  20.567  1.00  0.00    -0.275 OA
ATOM     12  C   UNL A   1      32.822  23.858  21.681  1.00  0.00     0.225 C 
ATOM     13  H   UNL A   1      31.762  24.617  23.256  1.00  0.00     0.164 HD
BRANCH  12  14
ATOM     14  C   UNL A   1      32.989  22.553  22.436  1.00  0.00     0.142 C 
BRANCH  14  15
ATOM     15  C   UNL A   1      33.742  22.762  23.736  1.00  0.00     0.039 A 
ATOM     16  C   UNL A   1      35.002  23.386  23.654  1.00  0.00     0.011 A 
ATOM     17  C   UNL A   1      33.246  22.466  25.024  1.00  0.00     0.273 A 
ATOM     18  C   UNL A   1      35.741  23.692  24.800  1.00  0.00     0.001 A 
ATOM     19  C   UNL A   1      33.992  22.776  26.177  1.00  0.00     0.086 A 
ATOM     20  C   UNL A   1      35.236  23.389  26.061  1.00  0.00     0.007 A 
BRANCH  17  21
ATOM     21  N   UNL A   1      31.944  21.830  25.243  1.00  0.00     0.063 N 
ATOM     22  O   UNL A   1      31.886  20.595  25.140  1.00  0.00    -0.258 OA
ATOM     23  O   UNL A   1      30.977  22.557  25.491  1.00  0.00    -0.258 OA
ENDBRANCH  17  21
ENDBRANCH  14  15
ENDBRANCH  12  14
ENDBRANCH   6  10
ENDBRANCH   3   5
ENDBRANCH   2   3
ENDBRANCH   1   2
BRANCH   1  24
ATOM     24  C   UNL A   1      33.088  28.571  27.145  1.00  0.00     0.275 C 
BRANCH  24  25
ATOM     25  O   UNL A   1      34.138  29.461  26.722  1.00  0.00    -0.458 OA
BRANCH  25  26
ATOM     26  C   UNL A   1      34.557  30.356  27.649  1.00  0.00     0.338 C 
ATOM     27  O   UNL A   1      33.907  31.250  28.161  1.00  0.00    -0.246 OA
BRANCH  26  28
ATOM     28  C   UNL A   1      35.913  29.994  28.091  1.00  0.00     0.060 A 
ATOM     29  C   UNL A   1      36.950  30.066  27.157  1.00  0.00     0.016 A 
ATOM     30  C   UNL A   1      36.160  29.557  29.392  1.00  0.00     0.016 A 
ATOM     31  C   UNL A   1      38.250  29.731  27.523  1.00  0.00     0.010 A 
ATOM     32  C   UNL A   1      37.464  29.213  29.759  1.00  0.00     0.010 A 
ATOM     33  C   UNL A   1      38.516  29.306  28.829  1.00  0.00    -0.014 A 
BRANCH  33  34
ATOM     34  C   UNL A   1      39.899  28.969  29.230  1.00  0.00     0.031 A 
ATOM     35  C   UNL A   1      40.746  29.985  29.935  1.00  0.00     0.074 A 
ATOM     36  C   UNL A   1      40.388  27.746  28.949  1.00  0.00     0.049 A 
ATOM     37  N   UNL A   1      42.010  29.919  30.260  1.00  0.00    -0.248 NA
ATOM     38  C   UNL A   1      40.083  31.239  30.327  1.00  0.00     0.031 C 
ATOM     39  C   UNL A   1      39.634  26.659  28.321  1.00  0.00     0.029 A 
ATOM     40  N   UNL A   1      41.639  27.217  29.143  1.00  0.00    -0.354 N 
ATOM     41  C   UNL A   1      42.304  31.127  30.879  1.00  0.00     0.074 A 
ATOM     42  C   UNL A   1      41.086  31.911  30.876  1.00  0.00     0.031 C 
ATOM     43  C   UNL A   1      40.442  25.596  28.172  1.00  0.00     0.029 A 
ATOM     44  C   UNL A   1      41.779  25.946  28.640  1.00  0.00     0.049 A 
ATOM     45  H   UNL A   1      42.365  27.701  29.598  1.00  0.00     0.167 HD
ATOM     46  C   UNL A   1      43.484  31.542  31.398  1.00  0.00     0.031 A 
ATOM     47  C   UNL A   1      42.873  25.168  28.527  1.00  0.00     0.031 A 
ATOM     48  C   UNL A   1      44.690  30.757  31.382  1.00  0.00     0.049 A 
ATOM     49  C   UNL A   1      44.196  25.695  29.011  1.00  0.00     0.074 A 
ATOM     50  C   UNL A   1      45.934  31.080  31.894  1.00  0.00     0.029 A 
ATOM     51  N   UNL A   1      44.807  29.498  30.811  1.00  0.00    -0.354 N 
ATOM     52  N   UNL A   1      44.459  26.836  29.602  1.00  0.00    -0.248 NA
ATOM     53  C   UNL A   1      45.370  24.838  28.799  1.00  0.00     0.031 C 
ATOM     54  C   UNL A   1      46.818  30.041  31.581  1.00  0.00     0.029 A 
ATOM     55  C   UNL A   1      46.111  29.047  30.921  1.00  0.00     0.049 A 
ATOM     56  H   UNL A   1      44.071  28.997  30.390  1.00  0.00     0.167 HD
ATOM     57  C   UNL A   1      45.828  26.830  29.841  1.00  0.00     0.074 A 
ATOM     58  C   UNL A   1      46.335  25.565  29.349  1.00  0.00     0.031 C 
ATOM     59  C   UNL A   1      46.598  27.788  30.413  1.00  0.00     0.031 A 
BRANCH  46  60
ATOM     60  C   UNL A   1      43.539  32.926  31.986  1.00  0.00    -0.014 A 
ATOM     61  C   UNL A   1      43.371  33.142  33.364  1.00  0.00     0.010 A 
ATOM     62  C   UNL A   1      43.799  34.025  31.146  1.00  0.00     0.010 A 
ATOM     63  C   UNL A   1      43.429  34.437  33.888  1.00  0.00     0.020 A 
ATOM     64  C   UNL A   1      43.879  35.318  31.669  1.00  0.00     0.020 A 
ATOM     65  C   UNL A   1      43.677  35.518  33.035  1.00  0.00     0.054 A 
BRANCH  65  66
ATOM     66  S   UNL A   1      43.761  37.186  33.744  1.00  0.00     0.124 S 
ATOM     67  O   UNL A   1      44.930  37.084  34.614  1.00  0.00    -0.237 OA
ATOM     68  O   UNL A   1      43.929  38.029  32.564  1.00  0.00    -0.237 OA
ATOM     69  O   UNL A   1      42.483  37.334  34.435  1.00  0.00    -0.744 OA
ENDBRANCH  65  66
ENDBRANCH  46  60
BRANCH  47  70
ATOM     70  C   UNL A   1      42.769  23.835  27.874  1.00  0.00    -0.014 A 
ATOM     71  C   UNL A   1      43.139  23.664  26.529  1.00  0.00     0.010 A 
ATOM     72  C   UNL A   1      42.311  22.722  28.604  1.00  0.00     0.010 A 
ATOM     73  C   UNL A   1      43.047  22.406  25.926  1.00  0.00     0.020 A 
ATOM     74  C   UNL A   1      42.241  21.458  28.012  1.00  0.00     0.020 A 
ATOM     75  C   UNL A   1      42.602  21.311  26.672  1.00  0.00     0.054 A 
BRANCH  75  76
ATOM     76  S   UNL A   1      42.546  19.676  25.885  1.00  0.00     0.124 S 
ATOM     77  O   UNL A   1      41.145  19.580  25.486  1.00  0.00    -0.237 OA
ATOM     78  O   UNL A   1      43.507  19.817  24.795  1.00  0.00    -0.237 OA
ATOM     79  O   UNL A   1      42.957  18.769  26.953  1.00  0.00    -0.744 OA
ENDBRANCH  75  76
ENDBRANCH  47  70
BRANCH  59  80
ATOM     80  C   UNL A   1      48.071  27.508  30.541  1.00  0.00    -0.014 A 
ATOM     81  C   UNL A   1      48.562  26.707  31.586  1.00  0.00     0.010 A 
ATOM     82  C   UNL A   1      48.961  27.987  29.563  1.00  0.00     0.010 A 
ATOM     83  C   UNL A   1      49.923  26.400  31.659  1.00  0.00     0.020 A 
ATOM     84  C   UNL A   1      50.319  27.663  29.619  1.00  0.00     0.020 A 
ATOM     85  C   UNL A   1      50.792  26.876  30.672  1.00  0.00     0.054 A 
BRANCH  85  86
ATOM     86  S   UNL A   1      52.542  26.403  30.750  1.00  0.00     0.124 S 
ATOM     87  O   UNL A   1      53.158  27.610  31.296  1.00  0.00    -0.237 OA
ATOM     88  O   UNL A   1      52.523  25.248  31.642  1.00  0.00    -0.237 OA
ATOM     89  O   UNL A   1      52.883  26.105  29.360  1.00  0.00    -0.744 OA
ENDBRANCH  85  86
ENDBRANCH  59  80
ENDBRANCH  33  34
ENDBRANCH  26  28
ENDBRANCH  25  26
ENDBRANCH  24  25
ENDBRANCH   1  24
TORSDOF 18
ENDMDL
MODEL 2
REMARK VINA RESULT:     -10.3      4.444     10.211
REMARK SMILES O=C(Cc1ccccc1[N+](=O)[O-])N[C@@H]1C=C[C@H](C(=O)OCCOC(=O)c2ccc(-c3c4nc(c(-c5ccc(S(=O)(=O)[O-])cc5)c5ccc([nH]5)c(-c5ccc(S(=O)(=O)[O-])cc5)c5nc(c(-c6ccc(S(=O)(=O)[O-])cc6)c6ccc3[nH]6)C=C5)C=C4)cc2)C1
REMARK SMILES IDX 21 1 20 2 18 3 19 4 17 5 14 6 15 7 86 8 16 9 13 10 1 11 2 12
REMARK SMILES IDX 3 14 4 15 5 16 9 17 6 18 8 19 7 20 10 21 11 22 12 23 22 24
REMARK SMILES IDX 23 25 24 26 25 27 26 28 27 29 85 30 28 31 84 32 29 33 30 34
REMARK SMILES IDX 31 35 78 36 32 37 83 38 77 39 79 40 33 41 82 42 76 43 75 44
REMARK SMILES IDX 34 46 64 47 45 48 63 49 46 50 49 51 62 52 80 53 47 54 48 55
REMARK SMILES IDX 61 57 81 58 50 59 35 60 36 61 44 62 37 63 43 64 38 65 39 66
REMARK SMILES IDX 40 67 41 68 42 69 65 70 66 71 74 72 67 73 73 74 68 75 69 76
REMARK SMILES IDX 70 77 71 78 72 79 51 80 52 81 60 82 53 83 59 84 54 85 55 86
REMARK SMILES IDX 56 87 57 88 58 89
REMARK H PARENT 13 13 79 45 49 56
REMARK Flexibility Score: inf
ROOT
ATOM      1  C   UNL A   1      37.730  22.514  25.574  1.00  0.00     0.274 C 
ENDROOT
BRANCH   1   2
ATOM      2  O   UNL A   1      36.520  22.110  26.239  1.00  0.00    -0.462 OA
BRANCH   2   3
ATOM      3  C   UNL A   1      35.357  22.582  25.711  1.00  0.00     0.312 C 
ATOM      4  O   UNL A   1      34.659  23.455  26.211  1.00  0.00    -0.252 OA
BRANCH   3   5
ATOM      5  C   UNL A   1      35.078  21.945  24.354  1.00  0.00     0.124 C 
ATOM      6  C   UNL A   1      33.814  23.474  22.917  1.00  0.00     0.106 C 
ATOM      7  C   UNL A   1      32.961  22.359  23.436  1.00  0.00    -0.006 C 
ATOM      8  C   UNL A   1      35.226  22.956  23.198  1.00  0.00     0.048 C 
ATOM      9  C   UNL A   1      33.650  21.518  24.216  1.00  0.00    -0.014 C 
BRANCH   6  10
ATOM     10  N   UNL A   1      33.506  24.663  23.674  1.00  0.00    -0.350 N 
ATOM     11  O   UNL A   1      33.961  26.120  21.960  1.00  0.00    -0.275 OA
ATOM     12  C   UNL A   1      33.590  25.916  23.113  1.00  0.00     0.225 C 
ATOM     13  H   UNL A   1      33.228  24.575  24.614  1.00  0.00     0.164 HD
BRANCH  12  14
ATOM     14  C   UNL A   1      33.105  27.038  24.012  1.00  0.00     0.142 C 
BRANCH  14  15
ATOM     15  C   UNL A   1      31.629  27.312  23.800  1.00  0.00     0.039 A 
ATOM     16  C   UNL A   1      31.285  28.234  22.793  1.00  0.00     0.011 A 
ATOM     17  C   UNL A   1      30.572  26.654  24.467  1.00  0.00     0.273 A 
ATOM     18  C   UNL A   1      29.951  28.499  22.469  1.00  0.00     0.001 A 
ATOM     19  C   UNL A   1      29.230  26.921  24.138  1.00  0.00     0.086 A 
ATOM     20  C   UNL A   1      28.924  27.841  23.140  1.00  0.00     0.007 A 
BRANCH  17  21
ATOM     21  N   UNL A   1      30.799  25.664  25.524  1.00  0.00     0.063 N 
ATOM     22  O   UNL A   1      30.824  24.468  25.193  1.00  0.00    -0.258 OA
ATOM     23  O   UNL A   1      30.927  26.071  26.683  1.00  0.00    -0.258 OA
ENDBRANCH  17  21
ENDBRANCH  14  15
ENDBRANCH  12  14
ENDBRANCH   6  10
ENDBRANCH   3   5
ENDBRANCH   2   3
ENDBRANCH   1   2
BRANCH   1  24
ATOM     24  C   UNL A   1      38.222  23.858  26.121  1.00  0.00     0.275 C 
BRANCH  24  25
ATOM     25  O   UNL A   1      39.203  23.691  27.162  1.00  0.00    -0.458 OA
BRANCH  25  26
ATOM     26  C   UNL A   1      40.361  24.374  26.993  1.00  0.00     0.338 C 
ATOM     27  O   UNL A   1      41.192  24.215  26.115  1.00  0.00    -0.246 OA
BRANCH  26  28
ATOM     28  C   UNL A   1      40.412  25.483  27.958  1.00  0.00     0.060 A 
ATOM     29  C   UNL A   1      39.307  25.684  28.789  1.00  0.00     0.016 A 
ATOM     30  C   UNL A   1      41.514  26.336  28.025  1.00  0.00     0.016 A 
ATOM     31  C   UNL A   1      39.304  26.721  29.716  1.00  0.00     0.010 A 
ATOM     32  C   UNL A   1      41.509  27.383  28.951  1.00  0.00     0.010 A 
ATOM     33  C   UNL A   1      40.408  27.575  29.805  1.00  0.00    -0.014 A 
BRANCH  33  34
ATOM     34  C   UNL A   1      40.420  28.667  30.804  1.00  0.00     0.031 A 
ATOM     35  C   UNL A   1      41.361  28.610  31.969  1.00  0.00     0.074 A 
ATOM     36  C   UNL A   1      39.574  29.704  30.657  1.00  0.00     0.049 A 
ATOM     37  N   UNL A   1      41.439  29.405  33.003  1.00  0.00    -0.248 NA
ATOM     38  C   UNL A   1      42.346  27.515  31.969  1.00  0.00     0.031 C 
ATOM     39  C   UNL A   1      38.658  29.894  29.531  1.00  0.00     0.029 A 
ATOM     40  N   UNL A   1      39.338  30.786  31.466  1.00  0.00    -0.354 N 
ATOM     41  C   UNL A   1      42.467  28.901  33.789  1.00  0.00     0.074 A 
ATOM     42  C   UNL A   1      42.977  27.724  33.117  1.00  0.00     0.031 C 
ATOM     43  C   UNL A   1      37.952  31.019  29.727  1.00  0.00     0.029 A 
ATOM     44  C   UNL A   1      38.324  31.596  31.014  1.00  0.00     0.049 A 
ATOM     45  H   UNL A   1      39.846  30.966  32.290  1.00  0.00     0.167 HD
ATOM     46  C   UNL A   1      42.936  29.376  34.968  1.00  0.00     0.031 A 
ATOM     47  C   UNL A   1      37.731  32.658  31.594  1.00  0.00     0.031 A 
ATOM     48  C   UNL A   1      42.409  30.539  35.633  1.00  0.00     0.049 A 
ATOM     49  C   UNL A   1      38.196  33.101  32.954  1.00  0.00     0.074 A 
ATOM     50  C   UNL A   1      42.824  31.113  36.822  1.00  0.00     0.029 A 
ATOM     51  N   UNL A   1      41.343  31.299  35.173  1.00  0.00    -0.354 N 
ATOM     52  N   UNL A   1      39.174  32.621  33.684  1.00  0.00    -0.248 NA
ATOM     53  C   UNL A   1      37.468  34.217  33.574  1.00  0.00     0.031 C 
ATOM     54  C   UNL A   1      41.970  32.183  37.110  1.00  0.00     0.029 A 
ATOM     55  C   UNL A   1      41.058  32.310  36.074  1.00  0.00     0.049 A 
ATOM     56  H   UNL A   1      40.860  31.142  34.329  1.00  0.00     0.167 HD
ATOM     57  C   UNL A   1      39.186  33.382  34.847  1.00  0.00     0.074 A 
ATOM     58  C   UNL A   1      38.131  34.366  34.715  1.00  0.00     0.031 C 
ATOM     59  C   UNL A   1      39.994  33.273  35.929  1.00  0.00     0.031 A 
BRANCH  46  60
ATOM     60  C   UNL A   1      44.045  28.611  35.636  1.00  0.00    -0.014 A 
ATOM     61  C   UNL A   1      43.774  27.563  36.532  1.00  0.00     0.010 A 
ATOM     62  C   UNL A   1      45.383  28.926  35.334  1.00  0.00     0.010 A 
ATOM     63  C   UNL A   1      44.822  26.864  37.139  1.00  0.00     0.020 A 
ATOM     64  C   UNL A   1      46.433  28.215  35.922  1.00  0.00     0.020 A 
ATOM     65  C   UNL A   1      46.145  27.199  36.834  1.00  0.00     0.054 A 
BRANCH  65  66
ATOM     66  S   UNL A   1      47.485  26.266  37.626  1.00  0.00     0.124 S 
ATOM     67  O   UNL A   1      48.657  27.061  37.267  1.00  0.00    -0.237 OA
ATOM     68  O   UNL A   1      47.112  26.301  39.037  1.00  0.00    -0.237 OA
ATOM     69  O   UNL A   1      47.410  24.950  36.998  1.00  0.00    -0.744 OA
ENDBRANCH  65  66
ENDBRANCH  46  60
BRANCH  47  70
ATOM     70  C   UNL A   1      36.592  33.332  30.913  1.00  0.00    -0.014 A 
ATOM     71  C   UNL A   1      35.292  33.252  31.441  1.00  0.00     0.010 A 
ATOM     72  C   UNL A   1      36.809  34.074  29.737  1.00  0.00     0.010 A 
ATOM     73  C   UNL A   1      34.229  33.896  30.801  1.00  0.00     0.020 A 
ATOM     74  C   UNL A   1      35.753  34.740  29.108  1.00  0.00     0.020 A 
ATOM     75  C   UNL A   1      34.467  34.639  29.640  1.00  0.00     0.054 A 
BRANCH  75  76
ATOM     76  S   UNL A   1      33.083  35.515  28.859  1.00  0.00     0.124 S 
ATOM     77  O   UNL A   1      32.353  36.022  30.017  1.00  0.00    -0.237 OA
ATOM     78  O   UNL A   1      33.762  36.522  28.049  1.00  0.00    -0.237 OA
ATOM     79  O   UNL A   1      32.403  34.470  28.098  1.00  0.00    -0.744 OA
ENDBRANCH  75  76
ENDBRANCH  47  70
BRANCH  59  80
ATOM     80  C   UNL A   1      39.775  34.242  37.058  1.00  0.00    -0.014 A 
ATOM     81  C   UNL A   1      38.934  33.913  38.136  1.00  0.00     0.010 A 
ATOM     82  C   UNL A   1      40.475  35.462  37.079  1.00  0.00     0.010 A 
ATOM     83  C   UNL A   1      38.787  34.793  39.211  1.00  0.00     0.020 A 
ATOM     84  C   UNL A   1      40.350  36.334  38.164  1.00  0.00     0.020 A 
ATOM     85  C   UNL A   1      39.499  35.997  39.220  1.00  0.00     0.054 A 
BRANCH  85  86
ATOM     86  S   UNL A   1      39.347  37.089  40.661  1.00  0.00     0.124 S 
ATOM     87  O   UNL A   1      38.299  38.011  40.232  1.00  0.00    -0.237 OA
ATOM     88  O   UNL A   1      38.973  36.164  41.726  1.00  0.00    -0.237 OA
ATOM     89  O   UNL A   1      40.678  37.677  40.792  1.00  0.00    -0.744 OA
ENDBRANCH  85  86
ENDBRANCH  59  80
ENDBRANCH  33  34
ENDBRANCH  26  28
ENDBRANCH  25  26
ENDBRANCH  24  25
ENDBRANCH   1  24
TORSDOF 18
ENDMDL
MODEL 3
REMARK VINA RESULT:     -10.1      1.046      8.267
REMARK SMILES O=C(Cc1ccccc1[N+](=O)[O-])N[C@@H]1C=C[C@H](C(=O)OCCOC(=O)c2ccc(-c3c4nc(c(-c5ccc(S(=O)(=O)[O-])cc5)c5ccc([nH]5)c(-c5ccc(S(=O)(=O)[O-])cc5)c5nc(c(-c6ccc(S(=O)(=O)[O-])cc6)c6ccc3[nH]6)C=C5)C=C4)cc2)C1
REMARK SMILES IDX 21 1 20 2 18 3 19 4 17 5 14 6 15 7 86 8 16 9 13 10 1 11 2 12
REMARK SMILES IDX 3 14 4 15 5 16 9 17 6 18 8 19 7 20 10 21 11 22 12 23 22 24
REMARK SMILES IDX 23 25 24 26 25 27 26 28 27 29 85 30 28 31 84 32 29 33 30 34
REMARK SMILES IDX 31 35 78 36 32 37 83 38 77 39 79 40 33 41 82 42 76 43 75 44
REMARK SMILES IDX 34 46 64 47 45 48 63 49 46 50 49 51 62 52 80 53 47 54 48 55
REMARK SMILES IDX 61 57 81 58 50 59 35 60 36 61 44 62 37 63 43 64 38 65 39 66
REMARK SMILES IDX 40 67 41 68 42 69 65 70 66 71 74 72 67 73 73 74 68 75 69 76
REMARK SMILES IDX 70 77 71 78 72 79 51 80 52 81 60 82 53 83 59 84 54 85 55 86
REMARK SMILES IDX 56 87 57 88 58 89
REMARK H PARENT 13 13 79 45 49 56
REMARK Flexibility Score: inf
ROOT
ATOM      1  C   UNL A   1      31.654  27.691  26.918  1.00  0.00     0.274 C 
ENDROOT
BRANCH   1   2
ATOM      2  O   UNL A   1      32.081  27.404  25.574  1.00  0.00    -0.462 OA
BRANCH   2   3
ATOM      3  C   UNL A   1      31.093  27.143  24.673  1.00  0.00     0.312 C 
ATOM      4  O   UNL A   1      30.040  26.571  24.928  1.00  0.00    -0.252 OA
BRANCH   3   5
ATOM      5  C   UNL A   1      31.427  27.742  23.311  1.00  0.00     0.124 C 
ATOM      6  C   UNL A   1      32.447  26.065  21.847  1.00  0.00     0.106 C 
ATOM      7  C   UNL A   1      33.451  27.055  22.349  1.00  0.00    -0.006 C 
ATOM      8  C   UNL A   1      31.122  26.764  22.158  1.00  0.00     0.048 C 
ATOM      9  C   UNL A   1      32.896  27.976  23.145  1.00  0.00    -0.014 C 
BRANCH   6  10
ATOM     10  N   UNL A   1      32.610  24.843  22.595  1.00  0.00    -0.350 N 
ATOM     11  O   UNL A   1      33.475  23.641  20.841  1.00  0.00    -0.275 OA
ATOM     12  C   UNL A   1      33.139  23.711  22.020  1.00  0.00     0.225 C 
ATOM     13  H   UNL A   1      32.336  24.818  23.540  1.00  0.00     0.164 HD
BRANCH  12  14
ATOM     14  C   UNL A   1      33.358  22.562  22.987  1.00  0.00     0.142 C 
BRANCH  14  15
ATOM     15  C   UNL A   1      34.487  22.865  23.954  1.00  0.00     0.039 A 
ATOM     16  C   UNL A   1      35.786  22.954  23.418  1.00  0.00     0.011 A 
ATOM     17  C   UNL A   1      34.329  23.154  25.327  1.00  0.00     0.273 A 
ATOM     18  C   UNL A   1      36.882  23.303  24.213  1.00  0.00     0.001 A 
ATOM     19  C   UNL A   1      35.434  23.507  26.125  1.00  0.00     0.086 A 
ATOM     20  C   UNL A   1      36.706  23.581  25.565  1.00  0.00     0.007 A 
BRANCH  17  21
ATOM     21  N   UNL A   1      33.028  23.110  26.001  1.00  0.00     0.063 N 
ATOM     22  O   UNL A   1      32.235  24.037  25.776  1.00  0.00    -0.258 OA
ATOM     23  O   UNL A   1      32.804  22.170  26.770  1.00  0.00    -0.258 OA
ENDBRANCH  17  21
ENDBRANCH  14  15
ENDBRANCH  12  14
ENDBRANCH   6  10
ENDBRANCH   3   5
ENDBRANCH   2   3
ENDBRANCH   1   2
BRANCH   1  24
ATOM     24  C   UNL A   1      32.226  29.033  27.389  1.00  0.00     0.275 C 
BRANCH  24  25
ATOM     25  O   UNL A   1      33.661  28.997  27.504  1.00  0.00    -0.458 OA
BRANCH  25  26
ATOM     26  C   UNL A   1      34.257  30.182  27.780  1.00  0.00     0.338 C 
ATOM     27  O   UNL A   1      33.729  31.279  27.844  1.00  0.00    -0.246 OA
BRANCH  26  28
ATOM     28  C   UNL A   1      35.658  29.941  28.161  1.00  0.00     0.060 A 
ATOM     29  C   UNL A   1      36.641  30.087  27.178  1.00  0.00     0.016 A 
ATOM     30  C   UNL A   1      36.000  29.544  29.453  1.00  0.00     0.016 A 
ATOM     31  C   UNL A   1      37.980  29.867  27.487  1.00  0.00     0.010 A 
ATOM     32  C   UNL A   1      37.344  29.315  29.761  1.00  0.00     0.010 A 
ATOM     33  C   UNL A   1      38.340  29.483  28.782  1.00  0.00    -0.014 A 
BRANCH  33  34
ATOM     34  C   UNL A   1      39.764  29.268  29.121  1.00  0.00     0.031 A 
ATOM     35  C   UNL A   1      40.415  27.950  28.829  1.00  0.00     0.074 A 
ATOM     36  C   UNL A   1      40.463  30.264  29.699  1.00  0.00     0.049 A 
ATOM     37  N   UNL A   1      41.610  27.532  29.154  1.00  0.00    -0.248 NA
ATOM     38  C   UNL A   1      39.618  26.974  28.067  1.00  0.00     0.031 C 
ATOM     39  C   UNL A   1      39.948  31.607  29.974  1.00  0.00     0.029 A 
ATOM     40  N   UNL A   1      41.750  30.295  30.170  1.00  0.00    -0.354 N 
ATOM     41  C   UNL A   1      41.707  26.240  28.656  1.00  0.00     0.074 A 
ATOM     42  C   UNL A   1      40.444  25.938  28.013  1.00  0.00     0.031 C 
ATOM     43  C   UNL A   1      40.908  32.328  30.576  1.00  0.00     0.029 A 
ATOM     44  C   UNL A   1      42.080  31.483  30.779  1.00  0.00     0.049 A 
ATOM     45  H   UNL A   1      42.377  29.542  30.081  1.00  0.00     0.167 HD
ATOM     46  C   UNL A   1      42.753  25.384  28.734  1.00  0.00     0.031 A 
ATOM     47  C   UNL A   1      43.187  31.834  31.463  1.00  0.00     0.031 A 
ATOM     48  C   UNL A   1      43.997  25.692  29.389  1.00  0.00     0.049 A 
ATOM     49  C   UNL A   1      44.291  30.828  31.631  1.00  0.00     0.074 A 
ATOM     50  C   UNL A   1      45.126  24.900  29.510  1.00  0.00     0.029 A 
ATOM     51  N   UNL A   1      44.272  26.883  30.045  1.00  0.00    -0.354 N 
ATOM     52  N   UNL A   1      44.374  29.611  31.148  1.00  0.00    -0.248 NA
ATOM     53  C   UNL A   1      45.443  31.235  32.447  1.00  0.00     0.031 C 
ATOM     54  C   UNL A   1      46.060  25.590  30.290  1.00  0.00     0.029 A 
ATOM     55  C   UNL A   1      45.535  26.832  30.609  1.00  0.00     0.049 A 
ATOM     56  H   UNL A   1      43.660  27.652  30.101  1.00  0.00     0.167 HD
ATOM     57  C   UNL A   1      45.591  29.110  31.595  1.00  0.00     0.074 A 
ATOM     58  C   UNL A   1      46.219  30.161  32.369  1.00  0.00     0.031 C 
ATOM     59  C   UNL A   1      46.138  27.887  31.387  1.00  0.00     0.031 A 
BRANCH  46  60
ATOM     60  C   UNL A   1      42.580  24.015  28.136  1.00  0.00    -0.014 A 
ATOM     61  C   UNL A   1      41.983  22.970  28.861  1.00  0.00     0.010 A 
ATOM     62  C   UNL A   1      42.991  23.781  26.810  1.00  0.00     0.010 A 
ATOM     63  C   UNL A   1      41.830  21.706  28.283  1.00  0.00     0.020 A 
ATOM     64  C   UNL A   1      42.819  22.525  26.221  1.00  0.00     0.020 A 
ATOM     65  C   UNL A   1      42.254  21.490  26.968  1.00  0.00     0.054 A 
BRANCH  65  66
ATOM     66  S   UNL A   1      42.031  19.845  26.238  1.00  0.00     0.124 S 
ATOM     67  O   UNL A   1      42.898  19.916  25.065  1.00  0.00    -0.237 OA
ATOM     68  O   UNL A   1      42.487  18.956  27.302  1.00  0.00    -0.237 OA
ATOM     69  O   UNL A   1      40.600  19.784  25.950  1.00  0.00    -0.744 OA
ENDBRANCH  65  66
ENDBRANCH  46  60
BRANCH  47  70
ATOM     70  C   UNL A   1      43.271  33.181  32.091  1.00  0.00    -0.014 A 
ATOM     71  C   UNL A   1      43.839  34.262  31.396  1.00  0.00     0.010 A 
ATOM     72  C   UNL A   1      42.765  33.391  33.388  1.00  0.00     0.010 A 
ATOM     73  C   UNL A   1      43.905  35.526  31.990  1.00  0.00     0.020 A 
ATOM     74  C   UNL A   1      42.806  34.658  33.974  1.00  0.00     0.020 A 
ATOM     75  C   UNL A   1      43.385  35.717  33.273  1.00  0.00     0.054 A 
BRANCH  75  76
ATOM     76  S   UNL A   1      43.429  37.380  34.000  1.00  0.00     0.124 S 
ATOM     77  O   UNL A   1      43.624  38.220  32.822  1.00  0.00    -0.237 OA
ATOM     78  O   UNL A   1      42.121  37.480  34.640  1.00  0.00    -0.237 OA
ATOM     79  O   UNL A   1      44.561  37.320  34.922  1.00  0.00    -0.744 OA
ENDBRANCH  75  76
ENDBRANCH  47  70
BRANCH  59  80
ATOM     80  C   UNL A   1      47.484  27.616  32.002  1.00  0.00    -0.014 A 
ATOM     81  C   UNL A   1      47.588  27.024  33.273  1.00  0.00     0.010 A 
ATOM     82  C   UNL A   1      48.654  27.886  31.271  1.00  0.00     0.010 A 
ATOM     83  C   UNL A   1      48.841  26.718  33.808  1.00  0.00     0.020 A 
ATOM     84  C   UNL A   1      49.908  27.559  31.791  1.00  0.00     0.020 A 
ATOM     85  C   UNL A   1      49.994  26.983  33.062  1.00  0.00     0.054 A 
BRANCH  85  86
ATOM     86  S   UNL A   1      51.605  26.510  33.748  1.00  0.00     0.124 S 
ATOM     87  O   UNL A   1      51.320  25.192  34.311  1.00  0.00    -0.237 OA
ATOM     88  O   UNL A   1      52.470  26.516  32.571  1.00  0.00    -0.237 OA
ATOM     89  O   UNL A   1      51.887  27.557  34.727  1.00  0.00    -0.744 OA
ENDBRANCH  85  86
ENDBRANCH  59  80
ENDBRANCH  33  34
ENDBRANCH  26  28
ENDBRANCH  25  26
ENDBRANCH  24  25
ENDBRANCH   1  24
TORSDOF 18
ENDMDL
