MODEL 1
REMARK VINA RESULT:     -13.4      0.000      0.000
REMARK SMILES O=C(OCCOC(=O)c1ccc(N2C(=O)[C@@H]3N=NC(c4ccccc4)=C3[C@H]2c2cccc(Br)c2)cc1)c1ccc(-c2c3nc(c(-c4ccc(S(=O)(=O)[O-])cc4)c4ccc([nH]4)c(-c4ccc(S(=O)(=O)[O-])cc4)c4nc(c(-c5ccc(S(=O)(=O)[O-])cc5)c5ccc2[nH]5)C=C4)C=C3)cc1
REMARK SMILES IDX 4 1 3 2 2 3 1 4 37 5 38 6 96 7 39 8 95 9 40 10 41 11 42 12
REMARK SMILES IDX 89 13 43 14 94 15 88 16 90 17 44 18 93 19 87 20 86 21 45 23
REMARK SMILES IDX 75 24 56 25 74 26 57 27 60 28 73 29 91 30 58 31 59 32 72 34
REMARK SMILES IDX 92 35 61 36 46 37 47 38 55 39 48 40 54 41 49 42 50 43 51 44
REMARK SMILES IDX 52 45 53 46 76 47 77 48 85 49 78 50 84 51 79 52 80 53 81 54
REMARK SMILES IDX 82 55 83 56 62 57 63 58 71 59 64 60 70 61 65 62 66 63 67 64
REMARK SMILES IDX 68 65 69 66 5 67 6 68 7 69 8 70 9 71 10 72 36 73 11 74 35 75
REMARK SMILES IDX 12 76 13 77 14 78 27 79 16 80 15 81 26 82 17 83 19 84 18 85
REMARK SMILES IDX 28 86 29 87 34 88 30 89 32 90 31 91 33 92 20 93 21 94 25 95
REMARK SMILES IDX 22 96 24 97 23 98
REMARK H PARENT 90 22 60 33
REMARK Flexibility Score: inf
ROOT
ATOM      1  C   UNL A   1      34.932  33.622  30.259  1.00  0.00     0.275 C 
ENDROOT
BRANCH   1   2
ATOM      2  O   UNL A   1      34.830  32.365  30.956  1.00  0.00    -0.458 OA
BRANCH   2   3
ATOM      3  C   UNL A   1      35.539  32.191  32.092  1.00  0.00     0.338 C 
ATOM      4  O   UNL A   1      35.125  32.472  33.206  1.00  0.00    -0.246 OA
BRANCH   3   5
ATOM      5  C   UNL A   1      36.786  31.425  31.864  1.00  0.00     0.060 A 
ATOM      6  C   UNL A   1      38.050  32.022  31.895  1.00  0.00     0.016 A 
ATOM      7  C   UNL A   1      36.668  30.051  31.620  1.00  0.00     0.016 A 
ATOM      8  C   UNL A   1      39.180  31.271  31.610  1.00  0.00     0.010 A 
ATOM      9  C   UNL A   1      37.802  29.294  31.360  1.00  0.00     0.010 A 
ATOM     10  C   UNL A   1      39.053  29.915  31.303  1.00  0.00    -0.014 A 
BRANCH  10  11
ATOM     11  C   UNL A   1      40.270  29.172  30.976  1.00  0.00     0.031 A 
ATOM     12  C   UNL A   1      41.258  29.000  32.083  1.00  0.00     0.074 A 
ATOM     13  C   UNL A   1      40.451  28.531  29.804  1.00  0.00     0.049 A 
ATOM     14  N   UNL A   1      42.483  29.409  32.165  1.00  0.00    -0.248 NA
ATOM     15  C   UNL A   1      40.772  28.338  33.295  1.00  0.00     0.031 C 
ATOM     16  C   UNL A   1      39.491  28.324  28.717  1.00  0.00     0.029 A 
ATOM     17  N   UNL A   1      41.533  27.816  29.396  1.00  0.00    -0.354 N 
ATOM     18  C   UNL A   1      42.980  28.914  33.376  1.00  0.00     0.074 A 
ATOM     19  C   UNL A   1      41.852  28.365  34.075  1.00  0.00     0.031 C 
ATOM     20  C   UNL A   1      39.944  27.344  27.903  1.00  0.00     0.029 A 
ATOM     21  C   UNL A   1      41.288  26.980  28.317  1.00  0.00     0.049 A 
ATOM     22  H   UNL A   1      42.414  27.885  29.828  1.00  0.00     0.167 HD
ATOM     23  C   UNL A   1      44.311  28.832  33.662  1.00  0.00     0.031 A 
ATOM     24  C   UNL A   1      42.113  26.018  27.836  1.00  0.00     0.031 A 
ATOM     25  C   UNL A   1      45.101  29.619  32.759  1.00  0.00     0.049 A 
ATOM     26  C   UNL A   1      43.481  26.332  28.314  1.00  0.00     0.074 A 
ATOM     27  C   UNL A   1      45.182  30.963  32.461  1.00  0.00     0.029 A 
ATOM     28  N   UNL A   1      45.712  28.960  31.720  1.00  0.00    -0.354 N 
ATOM     29  N   UNL A   1      44.143  27.396  27.952  1.00  0.00    -0.248 NA
ATOM     30  C   UNL A   1      43.948  25.691  29.533  1.00  0.00     0.031 C 
ATOM     31  C   UNL A   1      45.359  31.003  31.049  1.00  0.00     0.029 A 
ATOM     32  C   UNL A   1      45.442  29.686  30.589  1.00  0.00     0.049 A 
ATOM     33  H   UNL A   1      46.239  28.131  31.776  1.00  0.00     0.167 HD
ATOM     34  C   UNL A   1      44.828  27.796  29.090  1.00  0.00     0.074 A 
ATOM     35  C   UNL A   1      44.744  26.656  30.001  1.00  0.00     0.031 C 
ATOM     36  C   UNL A   1      45.173  29.102  29.293  1.00  0.00     0.031 A 
BRANCH  23  37
ATOM     37  C   UNL A   1      44.939  27.772  34.540  1.00  0.00    -0.014 A 
ATOM     38  C   UNL A   1      44.918  26.428  34.105  1.00  0.00     0.010 A 
ATOM     39  C   UNL A   1      45.282  28.001  35.888  1.00  0.00     0.010 A 
ATOM     40  C   UNL A   1      45.135  25.368  34.996  1.00  0.00     0.020 A 
ATOM     41  C   UNL A   1      45.539  26.950  36.775  1.00  0.00     0.020 A 
ATOM     42  C   UNL A   1      45.423  25.639  36.332  1.00  0.00     0.054 A 
BRANCH  42  43
ATOM     43  S   UNL A   1      45.558  24.263  37.503  1.00  0.00     0.124 S 
ATOM     44  O   UNL A   1      44.581  24.636  38.522  1.00  0.00    -0.237 OA
ATOM     45  O   UNL A   1      45.202  23.113  36.675  1.00  0.00    -0.237 OA
ATOM     46  O   UNL A   1      46.955  24.308  37.926  1.00  0.00    -0.744 OA
ENDBRANCH  42  43
ENDBRANCH  23  37
BRANCH  24  47
ATOM     47  C   UNL A   1      41.728  24.696  27.282  1.00  0.00    -0.014 A 
ATOM     48  C   UNL A   1      42.449  24.108  26.228  1.00  0.00     0.010 A 
ATOM     49  C   UNL A   1      40.808  23.885  27.981  1.00  0.00     0.010 A 
ATOM     50  C   UNL A   1      42.293  22.745  25.918  1.00  0.00     0.020 A 
ATOM     51  C   UNL A   1      40.642  22.530  27.674  1.00  0.00     0.020 A 
ATOM     52  C   UNL A   1      41.403  21.960  26.657  1.00  0.00     0.054 A 
BRANCH  52  53
ATOM     53  S   UNL A   1      41.333  20.168  26.363  1.00  0.00     0.124 S 
ATOM     54  O   UNL A   1      42.385  19.975  25.369  1.00  0.00    -0.237 OA
ATOM     55  O   UNL A   1      41.605  19.616  27.687  1.00  0.00    -0.237 OA
ATOM     56  O   UNL A   1      39.973  19.950  25.872  1.00  0.00    -0.744 OA
ENDBRANCH  52  53
ENDBRANCH  24  47
BRANCH  36  57
ATOM     57  C   UNL A   1      45.019  30.086  28.157  1.00  0.00    -0.014 A 
ATOM     58  C   UNL A   1      43.779  30.633  27.768  1.00  0.00     0.010 A 
ATOM     59  C   UNL A   1      46.193  30.636  27.616  1.00  0.00     0.010 A 
ATOM     60  C   UNL A   1      43.723  31.702  26.861  1.00  0.00     0.020 A 
ATOM     61  C   UNL A   1      46.144  31.712  26.727  1.00  0.00     0.020 A 
ATOM     62  C   UNL A   1      44.909  32.241  26.352  1.00  0.00     0.054 A 
BRANCH  62  63
ATOM     63  S   UNL A   1      44.839  33.687  25.257  1.00  0.00     0.124 S 
ATOM     64  O   UNL A   1      46.220  34.159  25.265  1.00  0.00    -0.237 OA
ATOM     65  O   UNL A   1      44.376  33.119  23.993  1.00  0.00    -0.237 OA
ATOM     66  O   UNL A   1      43.878  34.574  25.913  1.00  0.00    -0.744 OA
ENDBRANCH  62  63
ENDBRANCH  36  57
ENDBRANCH  10  11
ENDBRANCH   3   5
ENDBRANCH   2   3
ENDBRANCH   1   2
BRANCH   1  67
ATOM     67  C   UNL A   1      36.125  33.804  29.318  1.00  0.00     0.275 C 
BRANCH  67  68
ATOM     68  O   UNL A   1      35.951  33.055  28.099  1.00  0.00    -0.458 OA
BRANCH  68  69
ATOM     69  C   UNL A   1      36.342  31.755  28.159  1.00  0.00     0.338 C 
ATOM     70  O   UNL A   1      37.443  31.323  28.454  1.00  0.00    -0.246 OA
BRANCH  69  71
ATOM     71  C   UNL A   1      35.231  30.879  27.750  1.00  0.00     0.060 A 
ATOM     72  C   UNL A   1      35.478  29.557  27.383  1.00  0.00     0.018 A 
ATOM     73  C   UNL A   1      33.947  31.416  27.628  1.00  0.00     0.018 A 
ATOM     74  C   UNL A   1      34.427  28.763  26.904  1.00  0.00     0.027 A 
ATOM     75  C   UNL A   1      32.906  30.626  27.119  1.00  0.00     0.027 A 
ATOM     76  C   UNL A   1      33.143  29.303  26.736  1.00  0.00     0.045 A 
BRANCH  76  77
ATOM     77  N   UNL A   1      32.083  28.496  26.244  1.00  0.00    -0.299 N 
ATOM     78  C   UNL A   1      31.423  27.613  27.145  1.00  0.00     0.259 C 
ATOM     79  C   UNL A   1      32.098  27.941  24.879  1.00  0.00     0.152 C 
ATOM     80  C   UNL A   1      30.886  26.450  26.351  1.00  0.00     0.248 C 
ATOM     81  O   UNL A   1      31.329  27.759  28.340  1.00  0.00    -0.271 OA
ATOM     82  C   UNL A   1      31.889  26.520  25.260  1.00  0.00     0.021 C 
ATOM     83  N   UNL A   1      31.135  25.129  26.934  1.00  0.00    -0.170 NA
ATOM     84  C   UNL A   1      32.473  25.323  25.226  1.00  0.00     0.097 C 
ATOM     85  N   UNL A   1      31.931  24.492  26.189  1.00  0.00    -0.154 NA
BRANCH  79  86
ATOM     86  C   UNL A   1      30.931  28.476  24.022  1.00  0.00    -0.020 A 
ATOM     87  C   UNL A   1      30.202  27.637  23.149  1.00  0.00     0.006 A 
ATOM     88  C   UNL A   1      30.524  29.818  24.099  1.00  0.00     0.022 A 
ATOM     89  C   UNL A   1      29.071  28.087  22.461  1.00  0.00     0.002 A 
ATOM     90  C   UNL A   1      29.400  30.271  23.394  1.00  0.00     0.018 A 
ATOM     91  C   UNL A   1      28.662  29.407  22.590  1.00  0.00     0.016 A 
ATOM     92  Br  UNL A   1      28.864  32.080  23.538  1.00  0.00    -0.051 Br
ENDBRANCH  79  86
BRANCH  84  93
ATOM     93  C   UNL A   1      33.716  24.871  24.600  1.00  0.00     0.002 A 
ATOM     94  C   UNL A   1      33.691  24.217  23.361  1.00  0.00     0.010 A 
ATOM     95  C   UNL A   1      34.876  24.805  25.387  1.00  0.00     0.010 A 
ATOM     96  C   UNL A   1      34.788  23.449  22.954  1.00  0.00     0.001 A 
ATOM     97  C   UNL A   1      35.965  24.034  24.980  1.00  0.00     0.001 A 
ATOM     98  C   UNL A   1      35.911  23.339  23.774  1.00  0.00     0.000 A 
ENDBRANCH  84  93
ENDBRANCH  76  77
ENDBRANCH  69  71
ENDBRANCH  68  69
ENDBRANCH  67  68
ENDBRANCH   1  67
TORSDOF 17
ENDMDL
MODEL 2
REMARK VINA RESULT:     -13.2      3.277      9.713
REMARK SMILES O=C(OCCOC(=O)c1ccc(N2C(=O)[C@@H]3N=NC(c4ccccc4)=C3[C@H]2c2cccc(Br)c2)cc1)c1ccc(-c2c3nc(c(-c4ccc(S(=O)(=O)[O-])cc4)c4ccc([nH]4)c(-c4ccc(S(=O)(=O)[O-])cc4)c4nc(c(-c5ccc(S(=O)(=O)[O-])cc5)c5ccc2[nH]5)C=C4)C=C3)cc1
REMARK SMILES IDX 4 1 3 2 2 3 1 4 37 5 38 6 96 7 39 8 95 9 40 10 41 11 42 12
REMARK SMILES IDX 89 13 43 14 94 15 88 16 90 17 44 18 93 19 87 20 86 21 45 23
REMARK SMILES IDX 75 24 56 25 74 26 57 27 60 28 73 29 91 30 58 31 59 32 72 34
REMARK SMILES IDX 92 35 61 36 46 37 47 38 55 39 48 40 54 41 49 42 50 43 51 44
REMARK SMILES IDX 52 45 53 46 76 47 77 48 85 49 78 50 84 51 79 52 80 53 81 54
REMARK SMILES IDX 82 55 83 56 62 57 63 58 71 59 64 60 70 61 65 62 66 63 67 64
REMARK SMILES IDX 68 65 69 66 5 67 6 68 7 69 8 70 9 71 10 72 36 73 11 74 35 75
REMARK SMILES IDX 12 76 13 77 14 78 27 79 16 80 15 81 26 82 17 83 19 84 18 85
REMARK SMILES IDX 28 86 29 87 34 88 30 89 32 90 31 91 33 92 20 93 21 94 25 95
REMARK SMILES IDX 22 96 24 97 23 98
REMARK H PARENT 90 22 60 33
REMARK Flexibility Score: inf
ROOT
ATOM      1  C   UNL A   1      42.923  21.647  26.162  1.00  0.00     0.275 C 
ENDROOT
BRANCH   1   2
ATOM      2  O   UNL A   1      42.680  22.653  25.157  1.00  0.00    -0.458 OA
BRANCH   2   3
ATOM      3  C   UNL A   1      43.603  23.619  24.967  1.00  0.00     0.338 C 
ATOM      4  O   UNL A   1      44.460  23.585  24.099  1.00  0.00    -0.246 OA
BRANCH   3   5
ATOM      5  C   UNL A   1      43.330  24.824  25.784  1.00  0.00     0.060 A 
ATOM      6  C   UNL A   1      44.105  25.169  26.896  1.00  0.00     0.016 A 
ATOM      7  C   UNL A   1      42.255  25.637  25.402  1.00  0.00     0.016 A 
ATOM      8  C   UNL A   1      43.766  26.273  27.664  1.00  0.00     0.010 A 
ATOM      9  C   UNL A   1      41.931  26.757  26.157  1.00  0.00     0.010 A 
ATOM     10  C   UNL A   1      42.654  27.044  27.317  1.00  0.00    -0.014 A 
BRANCH  10  11
ATOM     11  C   UNL A   1      42.315  28.178  28.177  1.00  0.00     0.031 A 
ATOM     12  C   UNL A   1      43.336  29.264  28.272  1.00  0.00     0.074 A 
ATOM     13  C   UNL A   1      41.101  28.342  28.738  1.00  0.00     0.049 A 
ATOM     14  N   UNL A   1      43.985  29.698  29.305  1.00  0.00    -0.248 NA
ATOM     15  C   UNL A   1      43.733  29.900  27.014  1.00  0.00     0.031 C 
ATOM     16  C   UNL A   1      39.882  27.558  28.525  1.00  0.00     0.029 A 
ATOM     17  N   UNL A   1      40.679  29.349  29.549  1.00  0.00    -0.354 N 
ATOM     18  C   UNL A   1      44.756  30.777  28.858  1.00  0.00     0.074 A 
ATOM     19  C   UNL A   1      44.649  30.777  27.426  1.00  0.00     0.031 C 
ATOM     20  C   UNL A   1      38.819  28.255  28.986  1.00  0.00     0.029 A 
ATOM     21  C   UNL A   1      39.300  29.444  29.667  1.00  0.00     0.049 A 
ATOM     22  H   UNL A   1      41.298  29.959  30.012  1.00  0.00     0.167 HD
ATOM     23  C   UNL A   1      45.303  31.704  29.694  1.00  0.00     0.031 A 
ATOM     24  C   UNL A   1      38.606  30.459  30.236  1.00  0.00     0.031 A 
ATOM     25  C   UNL A   1      45.301  31.261  31.059  1.00  0.00     0.049 A 
ATOM     26  C   UNL A   1      39.540  31.185  31.130  1.00  0.00     0.074 A 
ATOM     27  C   UNL A   1      45.882  30.212  31.738  1.00  0.00     0.029 A 
ATOM     28  N   UNL A   1      44.298  31.733  31.872  1.00  0.00    -0.354 N 
ATOM     29  N   UNL A   1      40.074  30.655  32.196  1.00  0.00    -0.248 NA
ATOM     30  C   UNL A   1      40.225  32.356  30.606  1.00  0.00     0.031 C 
ATOM     31  C   UNL A   1      44.882  29.787  32.659  1.00  0.00     0.029 A 
ATOM     32  C   UNL A   1      43.786  30.644  32.527  1.00  0.00     0.049 A 
ATOM     33  H   UNL A   1      44.005  32.668  31.965  1.00  0.00     0.167 HD
ATOM     34  C   UNL A   1      41.367  31.156  32.235  1.00  0.00     0.074 A 
ATOM     35  C   UNL A   1      41.371  32.268  31.287  1.00  0.00     0.031 C 
ATOM     36  C   UNL A   1      42.383  30.463  32.831  1.00  0.00     0.031 A 
BRANCH  23  37
ATOM     37  C   UNL A   1      45.529  33.158  29.338  1.00  0.00    -0.014 A 
ATOM     38  C   UNL A   1      44.454  33.902  28.805  1.00  0.00     0.010 A 
ATOM     39  C   UNL A   1      46.814  33.728  29.234  1.00  0.00     0.010 A 
ATOM     40  C   UNL A   1      44.666  35.107  28.120  1.00  0.00     0.020 A 
ATOM     41  C   UNL A   1      47.030  34.950  28.588  1.00  0.00     0.020 A 
ATOM     42  C   UNL A   1      45.960  35.611  27.998  1.00  0.00     0.054 A 
BRANCH  42  43
ATOM     43  S   UNL A   1      46.241  37.089  26.991  1.00  0.00     0.124 S 
ATOM     44  O   UNL A   1      47.216  37.822  27.794  1.00  0.00    -0.237 OA
ATOM     45  O   UNL A   1      46.747  36.525  25.742  1.00  0.00    -0.237 OA
ATOM     46  O   UNL A   1      44.917  37.699  26.899  1.00  0.00    -0.744 OA
ENDBRANCH  42  43
ENDBRANCH  23  37
BRANCH  24  47
ATOM     47  C   UNL A   1      37.303  31.017  29.796  1.00  0.00    -0.014 A 
ATOM     48  C   UNL A   1      36.354  31.477  30.726  1.00  0.00     0.010 A 
ATOM     49  C   UNL A   1      37.107  31.350  28.438  1.00  0.00     0.010 A 
ATOM     50  C   UNL A   1      35.276  32.283  30.319  1.00  0.00     0.020 A 
ATOM     51  C   UNL A   1      36.033  32.147  28.025  1.00  0.00     0.020 A 
ATOM     52  C   UNL A   1      35.134  32.628  28.972  1.00  0.00     0.054 A 
BRANCH  52  53
ATOM     53  S   UNL A   1      33.839  33.806  28.481  1.00  0.00     0.124 S 
ATOM     54  O   UNL A   1      33.353  34.289  29.771  1.00  0.00    -0.237 OA
ATOM     55  O   UNL A   1      34.579  34.778  27.682  1.00  0.00    -0.237 OA
ATOM     56  O   UNL A   1      32.890  32.986  27.731  1.00  0.00    -0.744 OA
ENDBRANCH  52  53
ENDBRANCH  24  47
BRANCH  36  57
ATOM     57  C   UNL A   1      42.051  29.248  33.666  1.00  0.00    -0.014 A 
ATOM     58  C   UNL A   1      42.221  27.925  33.211  1.00  0.00     0.010 A 
ATOM     59  C   UNL A   1      41.768  29.457  35.026  1.00  0.00     0.010 A 
ATOM     60  C   UNL A   1      42.109  26.844  34.098  1.00  0.00     0.020 A 
ATOM     61  C   UNL A   1      41.674  28.387  35.918  1.00  0.00     0.020 A 
ATOM     62  C   UNL A   1      41.844  27.084  35.450  1.00  0.00     0.054 A 
BRANCH  62  63
ATOM     63  S   UNL A   1      41.799  25.692  36.616  1.00  0.00     0.124 S 
ATOM     64  O   UNL A   1      41.862  24.534  35.730  1.00  0.00    -0.237 OA
ATOM     65  O   UNL A   1      42.982  25.919  37.442  1.00  0.00    -0.237 OA
ATOM     66  O   UNL A   1      40.526  25.866  37.316  1.00  0.00    -0.744 OA
ENDBRANCH  62  63
ENDBRANCH  36  57
ENDBRANCH  10  11
ENDBRANCH   3   5
ENDBRANCH   2   3
ENDBRANCH   1   2
BRANCH   1  67
ATOM     67  C   UNL A   1      42.535  21.990  27.601  1.00  0.00     0.275 C 
BRANCH  67  68
ATOM     68  O   UNL A   1      41.106  21.937  27.787  1.00  0.00    -0.458 OA
BRANCH  68  69
ATOM     69  C   UNL A   1      40.463  23.126  27.659  1.00  0.00     0.338 C 
ATOM     70  O   UNL A   1      40.715  24.174  28.230  1.00  0.00    -0.246 OA
BRANCH  69  71
ATOM     71  C   UNL A   1      39.323  22.982  26.739  1.00  0.00     0.060 A 
ATOM     72  C   UNL A   1      38.399  24.018  26.596  1.00  0.00     0.018 A 
ATOM     73  C   UNL A   1      39.114  21.760  26.095  1.00  0.00     0.018 A 
ATOM     74  C   UNL A   1      37.267  23.832  25.791  1.00  0.00     0.027 A 
ATOM     75  C   UNL A   1      37.964  21.568  25.316  1.00  0.00     0.027 A 
ATOM     76  C   UNL A   1      37.026  22.594  25.174  1.00  0.00     0.045 A 
BRANCH  76  77
ATOM     77  N   UNL A   1      35.873  22.408  24.366  1.00  0.00    -0.299 N 
ATOM     78  C   UNL A   1      35.840  23.014  23.076  1.00  0.00     0.259 C 
ATOM     79  C   UNL A   1      34.521  22.329  24.945  1.00  0.00     0.152 C 
ATOM     80  C   UNL A   1      34.400  23.277  22.721  1.00  0.00     0.248 C 
ATOM     81  O   UNL A   1      36.800  23.288  22.398  1.00  0.00    -0.271 OA
ATOM     82  C   UNL A   1      33.907  23.397  24.115  1.00  0.00     0.021 C 
ATOM     83  N   UNL A   1      34.127  24.605  22.167  1.00  0.00    -0.170 NA
ATOM     84  C   UNL A   1      33.339  24.600  24.198  1.00  0.00     0.097 C 
ATOM     85  N   UNL A   1      33.417  25.257  22.984  1.00  0.00    -0.154 NA
BRANCH  79  86
ATOM     86  C   UNL A   1      33.858  20.959  24.687  1.00  0.00    -0.020 A 
ATOM     87  C   UNL A   1      32.534  20.850  24.205  1.00  0.00     0.006 A 
ATOM     88  C   UNL A   1      34.559  19.759  24.892  1.00  0.00     0.022 A 
ATOM     89  C   UNL A   1      31.971  19.619  23.857  1.00  0.00     0.002 A 
ATOM     90  C   UNL A   1      33.985  18.524  24.558  1.00  0.00     0.018 A 
ATOM     91  C   UNL A   1      32.701  18.451  24.025  1.00  0.00     0.016 A 
ATOM     92  Br  UNL A   1      34.965  16.927  24.824  1.00  0.00    -0.051 Br
ENDBRANCH  79  86
BRANCH  84  93
ATOM     93  C   UNL A   1      32.956  25.411  25.354  1.00  0.00     0.002 A 
ATOM     94  C   UNL A   1      31.639  25.391  25.831  1.00  0.00     0.010 A 
ATOM     95  C   UNL A   1      33.819  26.438  25.766  1.00  0.00     0.010 A 
ATOM     96  C   UNL A   1      31.176  26.426  26.651  1.00  0.00     0.001 A 
ATOM     97  C   UNL A   1      33.353  27.471  26.580  1.00  0.00     0.001 A 
ATOM     98  C   UNL A   1      32.025  27.475  27.003  1.00  0.00     0.000 A 
ENDBRANCH  84  93
ENDBRANCH  76  77
ENDBRANCH  69  71
ENDBRANCH  68  69
ENDBRANCH  67  68
ENDBRANCH   1  67
TORSDOF 17
ENDMDL
MODEL 3
REMARK VINA RESULT:     -13.1      2.825      9.253
REMARK SMILES O=C(OCCOC(=O)c1ccc(N2C(=O)[C@@H]3N=NC(c4ccccc4)=C3[C@H]2c2cccc(Br)c2)cc1)c1ccc(-c2c3nc(c(-c4ccc(S(=O)(=O)[O-])cc4)c4ccc([nH]4)c(-c4ccc(S(=O)(=O)[O-])cc4)c4nc(c(-c5ccc(S(=O)(=O)[O-])cc5)c5ccc2[nH]5)C=C4)C=C3)cc1
REMARK SMILES IDX 4 1 3 2 2 3 1 4 37 5 38 6 96 7 39 8 95 9 40 10 41 11 42 12
REMARK SMILES IDX 89 13 43 14 94 15 88 16 90 17 44 18 93 19 87 20 86 21 45 23
REMARK SMILES IDX 75 24 56 25 74 26 57 27 60 28 73 29 91 30 58 31 59 32 72 34
REMARK SMILES IDX 92 35 61 36 46 37 47 38 55 39 48 40 54 41 49 42 50 43 51 44
REMARK SMILES IDX 52 45 53 46 76 47 77 48 85 49 78 50 84 51 79 52 80 53 81 54
REMARK SMILES IDX 82 55 83 56 62 57 63 58 71 59 64 60 70 61 65 62 66 63 67 64
REMARK SMILES IDX 68 65 69 66 5 67 6 68 7 69 8 70 9 71 10 72 36 73 11 74 35 75
REMARK SMILES IDX 12 76 13 77 14 78 27 79 16 80 15 81 26 82 17 83 19 84 18 85
REMARK SMILES IDX 28 86 29 87 34 88 30 89 32 90 31 91 33 92 20 93 21 94 25 95
REMARK SMILES IDX 22 96 24 97 23 98
REMARK H PARENT 90 22 60 33
REMARK Flexibility Score: inf
ROOT
ATOM      1  C   UNL A   1      42.677  19.330  25.626  1.00  0.00     0.275 C 
ENDROOT
BRANCH   1   2
ATOM      2  O   UNL A   1      43.971  19.954  25.748  1.00  0.00    -0.458 OA
BRANCH   2   3
ATOM      3  C   UNL A   1      44.278  20.980  24.927  1.00  0.00     0.338 C 
ATOM      4  O   UNL A   1      44.482  20.860  23.729  1.00  0.00    -0.246 OA
BRANCH   3   5
ATOM      5  C   UNL A   1      44.131  22.296  25.592  1.00  0.00     0.060 A 
ATOM      6  C   UNL A   1      44.750  22.595  26.809  1.00  0.00     0.016 A 
ATOM      7  C   UNL A   1      43.344  23.261  24.953  1.00  0.00     0.016 A 
ATOM      8  C   UNL A   1      44.526  23.819  27.421  1.00  0.00     0.010 A 
ATOM      9  C   UNL A   1      43.139  24.497  25.553  1.00  0.00     0.010 A 
ATOM     10  C   UNL A   1      43.688  24.756  26.812  1.00  0.00    -0.014 A 
BRANCH  10  11
ATOM     11  C   UNL A   1      43.454  26.019  27.511  1.00  0.00     0.031 A 
ATOM     12  C   UNL A   1      44.460  27.099  27.280  1.00  0.00     0.074 A 
ATOM     13  C   UNL A   1      42.327  26.283  28.202  1.00  0.00     0.049 A 
ATOM     14  N   UNL A   1      45.239  27.693  28.125  1.00  0.00    -0.248 NA
ATOM     15  C   UNL A   1      44.667  27.513  25.891  1.00  0.00     0.031 C 
ATOM     16  C   UNL A   1      41.103  25.483  28.295  1.00  0.00     0.029 A 
ATOM     17  N   UNL A   1      42.007  27.413  28.886  1.00  0.00    -0.354 N 
ATOM     18  C   UNL A   1      45.923  28.677  27.402  1.00  0.00     0.074 A 
ATOM     19  C   UNL A   1      45.616  28.440  26.019  1.00  0.00     0.031 C 
ATOM     20  C   UNL A   1      40.104  26.254  28.779  1.00  0.00     0.029 A 
ATOM     21  C   UNL A   1      40.656  27.536  29.179  1.00  0.00     0.049 A 
ATOM     22  H   UNL A   1      42.674  28.087  29.150  1.00  0.00     0.167 HD
ATOM     23  C   UNL A   1      46.566  29.727  27.988  1.00  0.00     0.031 A 
ATOM     24  C   UNL A   1      40.031  28.637  29.664  1.00  0.00     0.031 A 
ATOM     25  C   UNL A   1      46.761  29.517  29.393  1.00  0.00     0.049 A 
ATOM     26  C   UNL A   1      41.069  29.494  30.285  1.00  0.00     0.074 A 
ATOM     27  C   UNL A   1      47.450  28.591  30.148  1.00  0.00     0.029 A 
ATOM     28  N   UNL A   1      45.875  30.125  30.250  1.00  0.00    -0.354 N 
ATOM     29  N   UNL A   1      41.756  29.145  31.338  1.00  0.00    -0.248 NA
ATOM     30  C   UNL A   1      41.655  30.557  29.484  1.00  0.00     0.031 C 
ATOM     31  C   UNL A   1      46.596  28.332  31.258  1.00  0.00     0.029 A 
ATOM     32  C   UNL A   1      45.478  29.164  31.142  1.00  0.00     0.049 A 
ATOM     33  H   UNL A   1      45.582  31.064  30.227  1.00  0.00     0.167 HD
ATOM     34  C   UNL A   1      43.034  29.636  31.112  1.00  0.00     0.074 A 
ATOM     35  C   UNL A   1      42.886  30.576  30.002  1.00  0.00     0.031 C 
ATOM     36  C   UNL A   1      44.134  29.045  31.665  1.00  0.00     0.031 A 
BRANCH  23  37
ATOM     37  C   UNL A   1      46.716  31.099  27.368  1.00  0.00    -0.014 A 
ATOM     38  C   UNL A   1      47.989  31.709  27.365  1.00  0.00     0.010 A 
ATOM     39  C   UNL A   1      45.614  31.922  27.057  1.00  0.00     0.010 A 
ATOM     40  C   UNL A   1      48.141  33.087  27.157  1.00  0.00     0.020 A 
ATOM     41  C   UNL A   1      45.760  33.292  26.808  1.00  0.00     0.020 A 
ATOM     42  C   UNL A   1      47.018  33.872  26.901  1.00  0.00     0.054 A 
BRANCH  42  43
ATOM     43  S   UNL A   1      47.207  35.669  26.777  1.00  0.00     0.124 S 
ATOM     44  O   UNL A   1      48.232  35.935  27.783  1.00  0.00    -0.237 OA
ATOM     45  O   UNL A   1      47.624  35.844  25.389  1.00  0.00    -0.237 OA
ATOM     46  O   UNL A   1      45.874  36.178  27.090  1.00  0.00    -0.744 OA
ENDBRANCH  42  43
ENDBRANCH  23  37
BRANCH  24  47
ATOM     47  C   UNL A   1      38.671  29.123  29.325  1.00  0.00    -0.014 A 
ATOM     48  C   UNL A   1      37.760  29.501  30.327  1.00  0.00     0.010 A 
ATOM     49  C   UNL A   1      38.365  29.475  27.993  1.00  0.00     0.010 A 
ATOM     50  C   UNL A   1      36.610  30.248  30.014  1.00  0.00     0.020 A 
ATOM     51  C   UNL A   1      37.220  30.213  27.673  1.00  0.00     0.020 A 
ATOM     52  C   UNL A   1      36.358  30.615  28.689  1.00  0.00     0.054 A 
BRANCH  52  53
ATOM     53  S   UNL A   1      34.965  31.722  28.316  1.00  0.00     0.124 S 
ATOM     54  O   UNL A   1      35.604  32.772  27.528  1.00  0.00    -0.237 OA
ATOM     55  O   UNL A   1      34.051  30.850  27.584  1.00  0.00    -0.237 OA
ATOM     56  O   UNL A   1      34.493  32.141  29.635  1.00  0.00    -0.744 OA
ENDBRANCH  52  53
ENDBRANCH  24  47
BRANCH  36  57
ATOM     57  C   UNL A   1      43.942  27.988  32.728  1.00  0.00    -0.014 A 
ATOM     58  C   UNL A   1      43.471  28.271  34.026  1.00  0.00     0.010 A 
ATOM     59  C   UNL A   1      44.034  26.645  32.326  1.00  0.00     0.010 A 
ATOM     60  C   UNL A   1      43.102  27.232  34.895  1.00  0.00     0.020 A 
ATOM     61  C   UNL A   1      43.651  25.608  33.179  1.00  0.00     0.020 A 
ATOM     62  C   UNL A   1      43.188  25.905  34.461  1.00  0.00     0.054 A 
BRANCH  62  63
ATOM     63  S   UNL A   1      42.617  24.568  35.549  1.00  0.00     0.124 S 
ATOM     64  O   UNL A   1      43.555  24.644  36.664  1.00  0.00    -0.237 OA
ATOM     65  O   UNL A   1      41.243  24.959  35.854  1.00  0.00    -0.237 OA
ATOM     66  O   UNL A   1      42.737  23.369  34.720  1.00  0.00    -0.744 OA
ENDBRANCH  62  63
ENDBRANCH  36  57
ENDBRANCH  10  11
ENDBRANCH   3   5
ENDBRANCH   2   3
ENDBRANCH   1   2
BRANCH   1  67
ATOM     67  C   UNL A   1      41.547  19.890  26.492  1.00  0.00     0.275 C 
BRANCH  67  68
ATOM     68  O   UNL A   1      40.861  20.969  25.827  1.00  0.00    -0.458 OA
BRANCH  68  69
ATOM     69  C   UNL A   1      40.353  21.924  26.648  1.00  0.00     0.338 C 
ATOM     70  O   UNL A   1      40.878  22.414  27.633  1.00  0.00    -0.246 OA
BRANCH  69  71
ATOM     71  C   UNL A   1      38.990  22.281  26.218  1.00  0.00     0.060 A 
ATOM     72  C   UNL A   1      38.509  23.576  26.412  1.00  0.00     0.018 A 
ATOM     73  C   UNL A   1      38.148  21.285  25.717  1.00  0.00     0.018 A 
ATOM     74  C   UNL A   1      37.180  23.877  26.087  1.00  0.00     0.027 A 
ATOM     75  C   UNL A   1      36.811  21.584  25.423  1.00  0.00     0.027 A 
ATOM     76  C   UNL A   1      36.313  22.875  25.623  1.00  0.00     0.045 A 
BRANCH  76  77
ATOM     77  N   UNL A   1      34.965  23.184  25.302  1.00  0.00    -0.299 N 
ATOM     78  C   UNL A   1      33.982  23.096  26.330  1.00  0.00     0.259 C 
ATOM     79  C   UNL A   1      34.384  22.856  23.989  1.00  0.00     0.152 C 
ATOM     80  C   UNL A   1      32.657  22.784  25.684  1.00  0.00     0.248 C 
ATOM     81  O   UNL A   1      34.181  23.227  27.514  1.00  0.00    -0.271 OA
ATOM     82  C   UNL A   1      33.213  22.093  24.496  1.00  0.00     0.021 C 
ATOM     83  N   UNL A   1      31.878  21.729  26.337  1.00  0.00    -0.170 NA
ATOM     84  C   UNL A   1      32.666  20.877  24.492  1.00  0.00     0.097 C 
ATOM     85  N   UNL A   1      31.806  20.732  25.566  1.00  0.00    -0.154 NA
BRANCH  79  86
ATOM     86  C   UNL A   1      33.946  24.118  23.216  1.00  0.00    -0.020 A 
ATOM     87  C   UNL A   1      33.315  24.038  21.954  1.00  0.00     0.006 A 
ATOM     88  C   UNL A   1      34.130  25.403  23.753  1.00  0.00     0.022 A 
ATOM     89  C   UNL A   1      32.810  25.169  21.305  1.00  0.00     0.002 A 
ATOM     90  C   UNL A   1      33.638  26.537  23.092  1.00  0.00     0.018 A 
ATOM     91  C   UNL A   1      32.964  26.423  21.879  1.00  0.00     0.016 A 
ATOM     92  Br  UNL A   1      33.881  28.252  23.854  1.00  0.00    -0.051 Br
ENDBRANCH  79  86
BRANCH  84  93
ATOM     93  C   UNL A   1      33.033  19.654  23.780  1.00  0.00     0.002 A 
ATOM     94  C   UNL A   1      32.183  19.117  22.805  1.00  0.00     0.010 A 
ATOM     95  C   UNL A   1      34.063  18.859  24.304  1.00  0.00     0.010 A 
ATOM     96  C   UNL A   1      32.321  17.780  22.415  1.00  0.00     0.001 A 
ATOM     97  C   UNL A   1      34.195  17.524  23.917  1.00  0.00     0.001 A 
ATOM     98  C   UNL A   1      33.310  16.980  22.989  1.00  0.00     0.000 A 
ENDBRANCH  84  93
ENDBRANCH  76  77
ENDBRANCH  69  71
ENDBRANCH  68  69
ENDBRANCH  67  68
ENDBRANCH   1  67
TORSDOF 17
ENDMDL
