MODEL 1
REMARK VINA RESULT:     -12.2      0.000      0.000
REMARK SMILES COc1ccc(N2C(=O)/C(=C/c3c(C(=O)OCCOC(=O)c4ccc(-c5c6nc(c(-c7ccc(S(=O)(=O)[O-])cc7)c7ccc([nH]7)c(-c7ccc(S(=O)(=O)[O-])cc7)c7nc(c(-c8ccc(S(=O)(=O)[O-])cc8)c8ccc5[nH]8)C=C7)C=C6)cc4)[nH]c4cc(OC)ccc34)SC2=S)cc1
REMARK SMILES IDX 17 1 16 2 14 3 15 4 13 5 12 6 90 7 82 8 83 9 89 10 84 12
REMARK SMILES IDX 88 13 85 14 11 15 7 16 8 17 92 18 9 19 10 20 91 21 93 22
REMARK SMILES IDX 6 23 3 24 4 25 95 26 5 27 94 28 2 29 1 30 86 31 87 32 18 33
REMARK SMILES IDX 19 34 20 35 21 36 22 37 23 38 81 39 24 40 80 41 25 42 26 43
REMARK SMILES IDX 27 44 74 45 28 46 79 47 73 48 75 49 29 50 78 51 72 52 71 53
REMARK SMILES IDX 30 55 60 56 41 57 59 58 42 59 45 60 58 61 76 62 43 63 44 64
REMARK SMILES IDX 57 66 77 67 46 68 31 69 32 70 40 71 33 72 39 73 34 74 35 75
REMARK SMILES IDX 36 76 37 77 38 78 61 79 62 80 70 81 63 82 69 83 64 84 65 85
REMARK SMILES IDX 66 86 67 87 68 88 47 89 48 90 56 91 49 92 55 93 50 94 51 95
REMARK SMILES IDX 52 96 53 97 54 98
REMARK H PARENT 82 11 75 54 45 65
REMARK Flexibility Score: inf
ROOT
ATOM      1  C   UNL A   1      37.921  23.679  25.953  1.00  0.00     0.275 C 
ENDROOT
BRANCH   1   2
ATOM      2  O   UNL A   1      36.674  22.975  26.133  1.00  0.00    -0.457 OA
BRANCH   2   3
ATOM      3  C   UNL A   1      36.073  22.607  24.969  1.00  0.00     0.355 C 
ATOM      4  O   UNL A   1      36.289  23.132  23.884  1.00  0.00    -0.244 OA
BRANCH   3   5
ATOM      5  C   UNL A   1      35.196  21.480  25.144  1.00  0.00     0.133 A 
ATOM      6  C   UNL A   1      33.828  21.354  25.365  1.00  0.00     0.016 A 
ATOM      7  C   UNL A   1      33.475  19.986  25.081  1.00  0.00     0.008 A 
ATOM      8  N   UNL A   1      35.682  20.200  25.094  1.00  0.00    -0.348 N 
ATOM      9  C   UNL A   1      34.675  19.302  24.901  1.00  0.00     0.050 A 
ATOM     10  C   UNL A   1      32.290  19.227  24.953  1.00  0.00     0.015 A 
ATOM     11  H   UNL A   1      36.632  19.961  25.185  1.00  0.00     0.167 HD
ATOM     12  C   UNL A   1      34.772  17.939  24.615  1.00  0.00     0.073 A 
ATOM     13  C   UNL A   1      32.365  17.851  24.615  1.00  0.00     0.047 A 
ATOM     14  C   UNL A   1      33.595  17.216  24.452  1.00  0.00     0.120 A 
BRANCH   6  15
ATOM     15  C   UNL A   1      33.029  22.428  25.881  1.00  0.00     0.032 C 
ATOM     16  N   UNL A   1      32.784  25.914  25.146  1.00  0.00    -0.261 N 
ATOM     17  C   UNL A   1      32.500  24.831  25.988  1.00  0.00     0.270 C 
ATOM     18  C   UNL A   1      33.027  25.583  23.813  1.00  0.00     0.152 C 
ATOM     19  O   UNL A   1      32.187  24.855  27.172  1.00  0.00    -0.268 OA
ATOM     20  C   UNL A   1      32.677  23.552  25.237  1.00  0.00     0.081 C 
ATOM     21  S   UNL A   1      32.700  23.871  23.556  1.00  0.00    -0.054 SA
ATOM     22  S   UNL A   1      33.667  26.491  22.557  1.00  0.00    -0.051 S 
BRANCH  16  23
ATOM     23  C   UNL A   1      32.854  27.252  25.673  1.00  0.00     0.051 A 
ATOM     24  C   UNL A   1      33.003  29.885  26.741  1.00  0.00     0.119 A 
ATOM     25  C   UNL A   1      31.776  29.329  26.381  1.00  0.00     0.048 A 
ATOM     26  C   UNL A   1      34.155  29.124  26.576  1.00  0.00     0.048 A 
ATOM     27  C   UNL A   1      31.701  28.034  25.846  1.00  0.00     0.030 A 
ATOM     28  C   UNL A   1      34.079  27.832  26.036  1.00  0.00     0.030 A 
BRANCH  24  29
ATOM     29  O   UNL A   1      32.954  31.158  27.236  1.00  0.00    -0.497 OA
ATOM     30  C   UNL A   1      34.057  31.566  28.039  1.00  0.00     0.278 C 
ENDBRANCH  24  29
ENDBRANCH  16  23
ENDBRANCH   6  15
BRANCH  14  31
ATOM     31  O   UNL A   1      33.813  15.898  24.163  1.00  0.00    -0.497 OA
ATOM     32  C   UNL A   1      33.353  14.930  25.090  1.00  0.00     0.278 C 
ENDBRANCH  14  31
ENDBRANCH   3   5
ENDBRANCH   2   3
ENDBRANCH   1   2
BRANCH   1  33
ATOM     33  C   UNL A   1      39.136  22.819  26.325  1.00  0.00     0.275 C 
BRANCH  33  34
ATOM     34  O   UNL A   1      39.823  23.307  27.497  1.00  0.00    -0.458 OA
BRANCH  34  35
ATOM     35  C   UNL A   1      40.725  24.279  27.250  1.00  0.00     0.338 C 
ATOM     36  O   UNL A   1      41.737  24.188  26.570  1.00  0.00    -0.246 OA
BRANCH  35  37
ATOM     37  C   UNL A   1      40.316  25.577  27.800  1.00  0.00     0.060 A 
ATOM     38  C   UNL A   1      41.224  26.632  27.698  1.00  0.00     0.016 A 
ATOM     39  C   UNL A   1      39.244  25.652  28.685  1.00  0.00     0.016 A 
ATOM     40  C   UNL A   1      41.182  27.673  28.609  1.00  0.00     0.010 A 
ATOM     41  C   UNL A   1      39.131  26.770  29.518  1.00  0.00     0.010 A 
ATOM     42  C   UNL A   1      40.141  27.752  29.537  1.00  0.00    -0.014 A 
BRANCH  42  43
ATOM     43  C   UNL A   1      40.169  28.800  30.588  1.00  0.00     0.031 A 
ATOM     44  C   UNL A   1      41.209  28.727  31.677  1.00  0.00     0.074 A 
ATOM     45  C   UNL A   1      39.309  29.835  30.544  1.00  0.00     0.049 A 
ATOM     46  N   UNL A   1      41.273  29.384  32.804  1.00  0.00    -0.248 NA
ATOM     47  C   UNL A   1      42.311  27.768  31.480  1.00  0.00     0.031 C 
ATOM     48  C   UNL A   1      38.314  30.073  29.492  1.00  0.00     0.029 A 
ATOM     49  N   UNL A   1      39.142  30.895  31.397  1.00  0.00    -0.354 N 
ATOM     50  C   UNL A   1      42.365  28.860  33.487  1.00  0.00     0.074 A 
ATOM     51  C   UNL A   1      42.947  27.842  32.639  1.00  0.00     0.031 C 
ATOM     52  C   UNL A   1      37.676  31.225  29.741  1.00  0.00     0.029 A 
ATOM     53  C   UNL A   1      38.140  31.754  31.016  1.00  0.00     0.049 A 
ATOM     54  H   UNL A   1      39.688  31.026  32.206  1.00  0.00     0.167 HD
ATOM     55  C   UNL A   1      42.824  29.189  34.719  1.00  0.00     0.031 A 
ATOM     56  C   UNL A   1      37.620  32.823  31.646  1.00  0.00     0.031 A 
ATOM     57  C   UNL A   1      42.263  30.249  35.515  1.00  0.00     0.049 A 
ATOM     58  C   UNL A   1      38.156  33.188  32.999  1.00  0.00     0.074 A 
ATOM     59  C   UNL A   1      42.613  30.655  36.791  1.00  0.00     0.029 A 
ATOM     60  N   UNL A   1      41.252  31.098  35.088  1.00  0.00    -0.354 N 
ATOM     61  N   UNL A   1      39.099  32.594  33.695  1.00  0.00    -0.248 NA
ATOM     62  C   UNL A   1      37.554  34.352  33.657  1.00  0.00     0.031 C 
ATOM     63  C   UNL A   1      41.803  31.743  37.139  1.00  0.00     0.029 A 
ATOM     64  C   UNL A   1      40.976  32.037  36.065  1.00  0.00     0.049 A 
ATOM     65  H   UNL A   1      40.797  31.041  34.216  1.00  0.00     0.167 HD
ATOM     66  C   UNL A   1      39.209  33.321  34.873  1.00  0.00     0.074 A 
ATOM     67  C   UNL A   1      38.252  34.409  34.784  1.00  0.00     0.031 C 
ATOM     68  C   UNL A   1      40.021  33.107  35.939  1.00  0.00     0.031 A 
BRANCH  55  69
ATOM     69  C   UNL A   1      43.939  28.355  35.293  1.00  0.00    -0.014 A 
ATOM     70  C   UNL A   1      45.290  28.702  35.124  1.00  0.00     0.010 A 
ATOM     71  C   UNL A   1      43.619  27.192  36.020  1.00  0.00     0.010 A 
ATOM     72  C   UNL A   1      46.301  27.876  35.629  1.00  0.00     0.020 A 
ATOM     73  C   UNL A   1      44.625  26.378  36.548  1.00  0.00     0.020 A 
ATOM     74  C   UNL A   1      45.962  26.714  36.330  1.00  0.00     0.054 A 
BRANCH  74  75
ATOM     75  S   UNL A   1      47.287  25.655  36.977  1.00  0.00     0.124 S 
ATOM     76  O   UNL A   1      46.602  24.375  37.128  1.00  0.00    -0.237 OA
ATOM     77  O   UNL A   1      48.292  25.709  35.918  1.00  0.00    -0.237 OA
ATOM     78  O   UNL A   1      47.671  26.308  38.227  1.00  0.00    -0.744 OA
ENDBRANCH  74  75
ENDBRANCH  55  69
BRANCH  56  79
ATOM     79  C   UNL A   1      36.502  33.580  31.018  1.00  0.00    -0.014 A 
ATOM     80  C   UNL A   1      36.648  34.143  29.740  1.00  0.00     0.010 A 
ATOM     81  C   UNL A   1      35.266  33.698  31.681  1.00  0.00     0.010 A 
ATOM     82  C   UNL A   1      35.580  34.814  29.136  1.00  0.00     0.020 A 
ATOM     83  C   UNL A   1      34.187  34.342  31.069  1.00  0.00     0.020 A 
ATOM     84  C   UNL A   1      34.354  34.906  29.803  1.00  0.00     0.054 A 
BRANCH  84  85
ATOM     85  S   UNL A   1      32.954  35.710  28.974  1.00  0.00     0.124 S 
ATOM     86  O   UNL A   1      32.156  36.168  30.107  1.00  0.00    -0.237 OA
ATOM     87  O   UNL A   1      33.604  36.760  28.193  1.00  0.00    -0.237 OA
ATOM     88  O   UNL A   1      32.364  34.634  28.183  1.00  0.00    -0.744 OA
ENDBRANCH  84  85
ENDBRANCH  56  79
BRANCH  68  89
ATOM     89  C   UNL A   1      39.932  34.101  37.059  1.00  0.00    -0.014 A 
ATOM     90  C   UNL A   1      39.062  33.897  38.144  1.00  0.00     0.010 A 
ATOM     91  C   UNL A   1      40.744  35.247  37.028  1.00  0.00     0.010 A 
ATOM     92  C   UNL A   1      38.973  34.850  39.161  1.00  0.00     0.020 A 
ATOM     93  C   UNL A   1      40.673  36.192  38.052  1.00  0.00     0.020 A 
ATOM     94  C   UNL A   1      39.772  35.996  39.103  1.00  0.00     0.054 A 
BRANCH  94  95
ATOM     95  S   UNL A   1      39.652  37.219  40.436  1.00  0.00     0.124 S 
ATOM     96  O   UNL A   1      38.816  36.522  41.409  1.00  0.00    -0.237 OA
ATOM     97  O   UNL A   1      41.046  37.411  40.827  1.00  0.00    -0.237 OA
ATOM     98  O   UNL A   1      39.030  38.372  39.789  1.00  0.00    -0.744 OA
ENDBRANCH  94  95
ENDBRANCH  68  89
ENDBRANCH  42  43
ENDBRANCH  35  37
ENDBRANCH  34  35
ENDBRANCH  33  34
ENDBRANCH   1  33
TORSDOF 18
ENDMDL
MODEL 2
REMARK VINA RESULT:     -12.1      5.834     11.963
REMARK SMILES COc1ccc(N2C(=O)/C(=C/c3c(C(=O)OCCOC(=O)c4ccc(-c5c6nc(c(-c7ccc(S(=O)(=O)[O-])cc7)c7ccc([nH]7)c(-c7ccc(S(=O)(=O)[O-])cc7)c7nc(c(-c8ccc(S(=O)(=O)[O-])cc8)c8ccc5[nH]8)C=C7)C=C6)cc4)[nH]c4cc(OC)ccc34)SC2=S)cc1
REMARK SMILES IDX 17 1 16 2 14 3 15 4 13 5 12 6 90 7 82 8 83 9 89 10 84 12
REMARK SMILES IDX 88 13 85 14 11 15 7 16 8 17 92 18 9 19 10 20 91 21 93 22
REMARK SMILES IDX 6 23 3 24 4 25 95 26 5 27 94 28 2 29 1 30 86 31 87 32 18 33
REMARK SMILES IDX 19 34 20 35 21 36 22 37 23 38 81 39 24 40 80 41 25 42 26 43
REMARK SMILES IDX 27 44 74 45 28 46 79 47 73 48 75 49 29 50 78 51 72 52 71 53
REMARK SMILES IDX 30 55 60 56 41 57 59 58 42 59 45 60 58 61 76 62 43 63 44 64
REMARK SMILES IDX 57 66 77 67 46 68 31 69 32 70 40 71 33 72 39 73 34 74 35 75
REMARK SMILES IDX 36 76 37 77 38 78 61 79 62 80 70 81 63 82 69 83 64 84 65 85
REMARK SMILES IDX 66 86 67 87 68 88 47 89 48 90 56 91 49 92 55 93 50 94 51 95
REMARK SMILES IDX 52 96 53 97 54 98
REMARK H PARENT 82 11 75 54 45 65
REMARK Flexibility Score: inf
ROOT
ATOM      1  C   UNL A   1      33.991  31.910  27.515  1.00  0.00     0.275 C 
ENDROOT
BRANCH   1   2
ATOM      2  O   UNL A   1      33.068  30.802  27.439  1.00  0.00    -0.457 OA
BRANCH   2   3
ATOM      3  C   UNL A   1      33.592  29.684  26.868  1.00  0.00     0.355 C 
ATOM      4  O   UNL A   1      34.651  29.167  27.204  1.00  0.00    -0.244 OA
BRANCH   3   5
ATOM      5  C   UNL A   1      32.725  29.133  25.860  1.00  0.00     0.133 A 
ATOM      6  C   UNL A   1      32.392  27.834  25.488  1.00  0.00     0.016 A 
ATOM      7  C   UNL A   1      31.202  27.917  24.677  1.00  0.00     0.008 A 
ATOM      8  N   UNL A   1      32.008  29.952  25.029  1.00  0.00    -0.348 N 
ATOM      9  C   UNL A   1      30.992  29.271  24.428  1.00  0.00     0.050 A 
ATOM     10  C   UNL A   1      30.269  27.018  24.114  1.00  0.00     0.015 A 
ATOM     11  H   UNL A   1      32.201  30.906  24.885  1.00  0.00     0.167 HD
ATOM     12  C   UNL A   1      29.939  29.779  23.665  1.00  0.00     0.073 A 
ATOM     13  C   UNL A   1      29.165  27.517  23.375  1.00  0.00     0.047 A 
ATOM     14  C   UNL A   1      29.006  28.884  23.152  1.00  0.00     0.120 A 
BRANCH   6  15
ATOM     15  C   UNL A   1      33.209  26.703  25.818  1.00  0.00     0.032 C 
ATOM     16  N   UNL A   1      33.805  23.537  24.277  1.00  0.00    -0.261 N 
ATOM     17  C   UNL A   1      33.907  24.381  25.392  1.00  0.00     0.270 C 
ATOM     18  C   UNL A   1      33.689  24.188  23.048  1.00  0.00     0.152 C 
ATOM     19  O   UNL A   1      34.086  24.068  26.562  1.00  0.00    -0.268 OA
ATOM     20  C   UNL A   1      33.718  25.799  24.966  1.00  0.00     0.081 C 
ATOM     21  S   UNL A   1      33.909  25.921  23.270  1.00  0.00    -0.054 SA
ATOM     22  S   UNL A   1      33.268  23.603  21.535  1.00  0.00    -0.051 S 
BRANCH  16  23
ATOM     23  C   UNL A   1      33.780  22.107  24.441  1.00  0.00     0.051 A 
ATOM     24  C   UNL A   1      33.749  19.278  24.742  1.00  0.00     0.119 A 
ATOM     25  C   UNL A   1      32.572  19.982  24.487  1.00  0.00     0.048 A 
ATOM     26  C   UNL A   1      34.942  19.985  24.841  1.00  0.00     0.048 A 
ATOM     27  C   UNL A   1      32.584  21.378  24.346  1.00  0.00     0.030 A 
ATOM     28  C   UNL A   1      34.951  21.381  24.706  1.00  0.00     0.030 A 
BRANCH  24  29
ATOM     29  O   UNL A   1      33.612  17.924  24.876  1.00  0.00    -0.497 OA
ATOM     30  C   UNL A   1      32.469  17.474  25.596  1.00  0.00     0.278 C 
ENDBRANCH  24  29
ENDBRANCH  16  23
ENDBRANCH   6  15
BRANCH  14  31
ATOM     31  O   UNL A   1      28.017  29.496  22.434  1.00  0.00    -0.497 OA
ATOM     32  C   UNL A   1      28.400  30.401  21.414  1.00  0.00     0.278 C 
ENDBRANCH  14  31
ENDBRANCH   3   5
ENDBRANCH   2   3
ENDBRANCH   1   2
BRANCH   1  33
ATOM     33  C   UNL A   1      34.347  32.273  28.963  1.00  0.00     0.275 C 
BRANCH  33  34
ATOM     34  O   UNL A   1      35.106  31.238  29.623  1.00  0.00    -0.458 OA
BRANCH  34  35
ATOM     35  C   UNL A   1      36.354  31.604  29.981  1.00  0.00     0.338 C 
ATOM     36  O   UNL A   1      36.675  32.591  30.625  1.00  0.00    -0.246 OA
BRANCH  35  37
ATOM     37  C   UNL A   1      37.359  30.600  29.613  1.00  0.00     0.060 A 
ATOM     38  C   UNL A   1      38.146  30.074  30.638  1.00  0.00     0.016 A 
ATOM     39  C   UNL A   1      37.744  30.454  28.283  1.00  0.00     0.016 A 
ATOM     40  C   UNL A   1      39.408  29.577  30.358  1.00  0.00     0.010 A 
ATOM     41  C   UNL A   1      38.964  29.833  27.995  1.00  0.00     0.010 A 
ATOM     42  C   UNL A   1      39.838  29.457  29.035  1.00  0.00    -0.014 A 
BRANCH  42  43
ATOM     43  C   UNL A   1      41.233  29.041  28.748  1.00  0.00     0.031 A 
ATOM     44  C   UNL A   1      42.351  30.039  28.910  1.00  0.00     0.074 A 
ATOM     45  C   UNL A   1      41.508  27.770  28.397  1.00  0.00     0.049 A 
ATOM     46  N   UNL A   1      43.589  29.968  28.500  1.00  0.00    -0.248 NA
ATOM     47  C   UNL A   1      42.023  31.296  29.608  1.00  0.00     0.031 C 
ATOM     48  C   UNL A   1      40.529  26.683  28.294  1.00  0.00     0.029 A 
ATOM     49  N   UNL A   1      42.698  27.170  28.076  1.00  0.00    -0.354 N 
ATOM     50  C   UNL A   1      44.162  31.197  28.808  1.00  0.00     0.074 A 
ATOM     51  C   UNL A   1      43.142  31.990  29.459  1.00  0.00     0.031 C 
ATOM     52  C   UNL A   1      41.164  25.545  27.979  1.00  0.00     0.029 A 
ATOM     53  C   UNL A   1      42.573  25.839  27.758  1.00  0.00     0.049 A 
ATOM     54  H   UNL A   1      43.559  27.648  28.073  1.00  0.00     0.167 HD
ATOM     55  C   UNL A   1      45.422  31.626  28.553  1.00  0.00     0.031 A 
ATOM     56  C   UNL A   1      43.483  24.963  27.294  1.00  0.00     0.031 A 
ATOM     57  C   UNL A   1      46.435  30.794  27.959  1.00  0.00     0.049 A 
ATOM     58  C   UNL A   1      44.879  25.450  27.038  1.00  0.00     0.074 A 
ATOM     59  C   UNL A   1      47.735  31.121  27.615  1.00  0.00     0.029 A 
ATOM     60  N   UNL A   1      46.267  29.450  27.658  1.00  0.00    -0.354 N 
ATOM     61  N   UNL A   1      45.372  26.656  27.204  1.00  0.00    -0.248 NA
ATOM     62  C   UNL A   1      45.837  24.467  26.521  1.00  0.00     0.031 C 
ATOM     63  C   UNL A   1      48.348  29.976  27.093  1.00  0.00     0.029 A 
ATOM     64  C   UNL A   1      47.443  28.927  27.149  1.00  0.00     0.049 A 
ATOM     65  H   UNL A   1      45.434  28.942  27.787  1.00  0.00     0.167 HD
ATOM     66  C   UNL A   1      46.703  26.574  26.820  1.00  0.00     0.074 A 
ATOM     67  C   UNL A   1      46.942  25.196  26.434  1.00  0.00     0.031 C 
ATOM     68  C   UNL A   1      47.644  27.550  26.780  1.00  0.00     0.031 A 
BRANCH  55  69
ATOM     69  C   UNL A   1      45.742  33.066  28.855  1.00  0.00    -0.014 A 
ATOM     70  C   UNL A   1      46.288  33.464  30.087  1.00  0.00     0.010 A 
ATOM     71  C   UNL A   1      45.486  34.045  27.874  1.00  0.00     0.010 A 
ATOM     72  C   UNL A   1      46.527  34.818  30.351  1.00  0.00     0.020 A 
ATOM     73  C   UNL A   1      45.747  35.395  28.124  1.00  0.00     0.020 A 
ATOM     74  C   UNL A   1      46.246  35.776  29.371  1.00  0.00     0.054 A 
BRANCH  74  75
ATOM     75  S   UNL A   1      46.562  37.526  29.733  1.00  0.00     0.124 S 
ATOM     76  O   UNL A   1      45.897  37.691  31.023  1.00  0.00    -0.237 OA
ATOM     77  O   UNL A   1      48.020  37.593  29.766  1.00  0.00    -0.237 OA
ATOM     78  O   UNL A   1      45.935  38.228  28.615  1.00  0.00    -0.744 OA
ENDBRANCH  74  75
ENDBRANCH  55  69
BRANCH  56  79
ATOM     79  C   UNL A   1      43.077  23.562  26.999  1.00  0.00    -0.014 A 
ATOM     80  C   UNL A   1      43.096  23.073  25.682  1.00  0.00     0.010 A 
ATOM     81  C   UNL A   1      42.716  22.693  28.046  1.00  0.00     0.010 A 
ATOM     82  C   UNL A   1      42.759  21.742  25.417  1.00  0.00     0.020 A 
ATOM     83  C   UNL A   1      42.406  21.355  27.789  1.00  0.00     0.020 A 
ATOM     84  C   UNL A   1      42.419  20.890  26.472  1.00  0.00     0.054 A 
BRANCH  84  85
ATOM     85  S   UNL A   1      42.060  19.146  26.120  1.00  0.00     0.124 S 
ATOM     86  O   UNL A   1      40.619  19.175  25.895  1.00  0.00    -0.237 OA
ATOM     87  O   UNL A   1      42.880  18.882  24.941  1.00  0.00    -0.237 OA
ATOM     88  O   UNL A   1      42.493  18.459  27.334  1.00  0.00    -0.744 OA
ENDBRANCH  84  85
ENDBRANCH  56  79
BRANCH  68  89
ATOM     89  C   UNL A   1      49.021  27.137  26.349  1.00  0.00    -0.014 A 
ATOM     90  C   UNL A   1      49.965  26.673  27.281  1.00  0.00     0.010 A 
ATOM     91  C   UNL A   1      49.365  27.203  24.988  1.00  0.00     0.010 A 
ATOM     92  C   UNL A   1      51.250  26.323  26.863  1.00  0.00     0.020 A 
ATOM     93  C   UNL A   1      50.642  26.835  24.563  1.00  0.00     0.020 A 
ATOM     94  C   UNL A   1      51.583  26.416  25.508  1.00  0.00     0.054 A 
BRANCH  94  95
ATOM     95  S   UNL A   1      53.254  25.948  24.979  1.00  0.00     0.124 S 
ATOM     96  O   UNL A   1      54.080  26.904  25.711  1.00  0.00    -0.237 OA
ATOM     97  O   UNL A   1      53.358  24.560  25.422  1.00  0.00    -0.237 OA
ATOM     98  O   UNL A   1      53.219  26.131  23.530  1.00  0.00    -0.744 OA
ENDBRANCH  94  95
ENDBRANCH  68  89
ENDBRANCH  42  43
ENDBRANCH  35  37
ENDBRANCH  34  35
ENDBRANCH  33  34
ENDBRANCH   1  33
TORSDOF 18
ENDMDL
MODEL 3
REMARK VINA RESULT:     -11.8      6.054     10.296
REMARK SMILES COc1ccc(N2C(=O)/C(=C/c3c(C(=O)OCCOC(=O)c4ccc(-c5c6nc(c(-c7ccc(S(=O)(=O)[O-])cc7)c7ccc([nH]7)c(-c7ccc(S(=O)(=O)[O-])cc7)c7nc(c(-c8ccc(S(=O)(=O)[O-])cc8)c8ccc5[nH]8)C=C7)C=C6)cc4)[nH]c4cc(OC)ccc34)SC2=S)cc1
REMARK SMILES IDX 17 1 16 2 14 3 15 4 13 5 12 6 90 7 82 8 83 9 89 10 84 12
REMARK SMILES IDX 88 13 85 14 11 15 7 16 8 17 92 18 9 19 10 20 91 21 93 22
REMARK SMILES IDX 6 23 3 24 4 25 95 26 5 27 94 28 2 29 1 30 86 31 87 32 18 33
REMARK SMILES IDX 19 34 20 35 21 36 22 37 23 38 81 39 24 40 80 41 25 42 26 43
REMARK SMILES IDX 27 44 74 45 28 46 79 47 73 48 75 49 29 50 78 51 72 52 71 53
REMARK SMILES IDX 30 55 60 56 41 57 59 58 42 59 45 60 58 61 76 62 43 63 44 64
REMARK SMILES IDX 57 66 77 67 46 68 31 69 32 70 40 71 33 72 39 73 34 74 35 75
REMARK SMILES IDX 36 76 37 77 38 78 61 79 62 80 70 81 63 82 69 83 64 84 65 85
REMARK SMILES IDX 66 86 67 87 68 88 47 89 48 90 56 91 49 92 55 93 50 94 51 95
REMARK SMILES IDX 52 96 53 97 54 98
REMARK H PARENT 82 11 75 54 45 65
REMARK Flexibility Score: inf
ROOT
ATOM      1  C   UNL A   1      38.052  22.661  25.670  1.00  0.00     0.275 C 
ENDROOT
BRANCH   1   2
ATOM      2  O   UNL A   1      36.622  22.565  25.842  1.00  0.00    -0.457 OA
BRANCH   2   3
ATOM      3  C   UNL A   1      35.954  22.179  24.722  1.00  0.00     0.355 C 
ATOM      4  O   UNL A   1      36.118  22.675  23.614  1.00  0.00    -0.244 OA
BRANCH   3   5
ATOM      5  C   UNL A   1      35.073  21.069  24.972  1.00  0.00     0.133 A 
ATOM      6  C   UNL A   1      33.707  20.965  25.215  1.00  0.00     0.016 A 
ATOM      7  C   UNL A   1      33.343  19.585  25.014  1.00  0.00     0.008 A 
ATOM      8  N   UNL A   1      35.551  19.786  24.990  1.00  0.00    -0.348 N 
ATOM      9  C   UNL A   1      34.537  18.884  24.860  1.00  0.00     0.050 A 
ATOM     10  C   UNL A   1      32.152  18.828  24.943  1.00  0.00     0.015 A 
ATOM     11  H   UNL A   1      36.501  19.547  25.084  1.00  0.00     0.167 HD
ATOM     12  C   UNL A   1      34.623  17.507  24.652  1.00  0.00     0.073 A 
ATOM     13  C   UNL A   1      32.216  17.434  24.685  1.00  0.00     0.047 A 
ATOM     14  C   UNL A   1      33.440  16.782  24.544  1.00  0.00     0.120 A 
BRANCH   6  15
ATOM     15  C   UNL A   1      32.920  22.071  25.676  1.00  0.00     0.032 C 
ATOM     16  N   UNL A   1      32.395  25.404  24.504  1.00  0.00    -0.261 N 
ATOM     17  C   UNL A   1      32.277  24.444  25.518  1.00  0.00     0.270 C 
ATOM     18  C   UNL A   1      32.489  24.893  23.209  1.00  0.00     0.152 C 
ATOM     19  O   UNL A   1      32.112  24.627  26.717  1.00  0.00    -0.268 OA
ATOM     20  C   UNL A   1      32.429  23.078  24.934  1.00  0.00     0.081 C 
ATOM     21  S   UNL A   1      32.228  23.151  23.237  1.00  0.00    -0.054 SA
ATOM     22  S   UNL A   1      32.918  25.634  21.768  1.00  0.00    -0.051 S 
BRANCH  16  23
ATOM     23  C   UNL A   1      32.456  26.806  24.828  1.00  0.00     0.051 A 
ATOM     24  C   UNL A   1      32.584  29.568  25.495  1.00  0.00     0.119 A 
ATOM     25  C   UNL A   1      31.385  28.989  25.079  1.00  0.00     0.048 A 
ATOM     26  C   UNL A   1      33.717  28.768  25.586  1.00  0.00     0.048 A 
ATOM     27  C   UNL A   1      31.322  27.628  24.741  1.00  0.00     0.030 A 
ATOM     28  C   UNL A   1      33.652  27.410  25.242  1.00  0.00     0.030 A 
BRANCH  24  29
ATOM     29  O   UNL A   1      32.527  30.904  25.782  1.00  0.00    -0.497 OA
ATOM     30  C   UNL A   1      32.202  31.247  27.125  1.00  0.00     0.278 C 
ENDBRANCH  24  29
ENDBRANCH  16  23
ENDBRANCH   6  15
BRANCH  14  31
ATOM     31  O   UNL A   1      33.648  15.449  24.330  1.00  0.00    -0.497 OA
ATOM     32  C   UNL A   1      33.238  14.542  25.339  1.00  0.00     0.278 C 
ENDBRANCH  14  31
ENDBRANCH   3   5
ENDBRANCH   2   3
ENDBRANCH   1   2
BRANCH   1  33
ATOM     33  C   UNL A   1      38.734  21.287  25.680  1.00  0.00     0.275 C 
BRANCH  33  34
ATOM     34  O   UNL A   1      39.631  21.122  26.798  1.00  0.00    -0.458 OA
BRANCH  34  35
ATOM     35  C   UNL A   1      40.785  20.490  26.499  1.00  0.00     0.338 C 
ATOM     36  O   UNL A   1      40.912  19.342  26.097  1.00  0.00    -0.246 OA
BRANCH  35  37
ATOM     37  C   UNL A   1      41.950  21.377  26.588  1.00  0.00     0.060 A 
ATOM     38  C   UNL A   1      42.468  21.631  27.858  1.00  0.00     0.016 A 
ATOM     39  C   UNL A   1      42.287  22.196  25.513  1.00  0.00     0.016 A 
ATOM     40  C   UNL A   1      43.160  22.804  28.104  1.00  0.00     0.010 A 
ATOM     41  C   UNL A   1      43.095  23.314  25.741  1.00  0.00     0.010 A 
ATOM     42  C   UNL A   1      43.476  23.666  27.051  1.00  0.00    -0.014 A 
BRANCH  42  43
ATOM     43  C   UNL A   1      44.107  24.979  27.337  1.00  0.00     0.031 A 
ATOM     44  C   UNL A   1      43.274  26.087  27.928  1.00  0.00     0.074 A 
ATOM     45  C   UNL A   1      45.424  25.164  27.121  1.00  0.00     0.049 A 
ATOM     46  N   UNL A   1      43.549  27.359  28.039  1.00  0.00    -0.248 NA
ATOM     47  C   UNL A   1      41.943  25.716  28.441  1.00  0.00     0.031 C 
ATOM     48  C   UNL A   1      46.361  24.144  26.639  1.00  0.00     0.029 A 
ATOM     49  N   UNL A   1      46.209  26.275  27.295  1.00  0.00    -0.354 N 
ATOM     50  C   UNL A   1      42.400  27.953  28.549  1.00  0.00     0.074 A 
ATOM     51  C   UNL A   1      41.429  26.898  28.746  1.00  0.00     0.031 C 
ATOM     52  C   UNL A   1      47.596  24.664  26.599  1.00  0.00     0.029 A 
ATOM     53  C   UNL A   1      47.524  26.075  26.952  1.00  0.00     0.049 A 
ATOM     54  H   UNL A   1      45.862  27.133  27.631  1.00  0.00     0.167 HD
ATOM     55  C   UNL A   1      42.175  29.263  28.811  1.00  0.00     0.031 A 
ATOM     56  C   UNL A   1      48.550  26.943  26.883  1.00  0.00     0.031 A 
ATOM     57  C   UNL A   1      43.181  30.283  28.665  1.00  0.00     0.049 A 
ATOM     58  C   UNL A   1      48.288  28.387  27.198  1.00  0.00     0.074 A 
ATOM     59  C   UNL A   1      43.067  31.648  28.861  1.00  0.00     0.029 A 
ATOM     60  N   UNL A   1      44.502  30.036  28.319  1.00  0.00    -0.354 N 
ATOM     61  N   UNL A   1      47.158  28.959  27.547  1.00  0.00    -0.248 NA
ATOM     62  C   UNL A   1      49.430  29.303  27.100  1.00  0.00     0.031 C 
ATOM     63  C   UNL A   1      44.319  32.227  28.621  1.00  0.00     0.029 A 
ATOM     64  C   UNL A   1      45.220  31.218  28.315  1.00  0.00     0.049 A 
ATOM     65  H   UNL A   1      44.874  29.149  28.110  1.00  0.00     0.167 HD
ATOM     66  C   UNL A   1      47.456  30.304  27.718  1.00  0.00     0.074 A 
ATOM     67  C   UNL A   1      48.875  30.454  27.456  1.00  0.00     0.031 C 
ATOM     68  C   UNL A   1      46.631  31.328  28.053  1.00  0.00     0.031 A 
BRANCH  55  69
ATOM     69  C   UNL A   1      40.781  29.663  29.217  1.00  0.00    -0.014 A 
ATOM     70  C   UNL A   1      40.467  30.031  30.536  1.00  0.00     0.010 A 
ATOM     71  C   UNL A   1      39.761  29.669  28.246  1.00  0.00     0.010 A 
ATOM     72  C   UNL A   1      39.150  30.349  30.888  1.00  0.00     0.020 A 
ATOM     73  C   UNL A   1      38.449  30.011  28.587  1.00  0.00     0.020 A 
ATOM     74  C   UNL A   1      38.147  30.327  29.912  1.00  0.00     0.054 A 
BRANCH  74  75
ATOM     75  S   UNL A   1      36.446  30.743  30.388  1.00  0.00     0.124 S 
ATOM     76  O   UNL A   1      36.612  32.075  30.963  1.00  0.00    -0.237 OA
ATOM     77  O   UNL A   1      35.732  30.693  29.115  1.00  0.00    -0.237 OA
ATOM     78  O   UNL A   1      36.087  29.694  31.340  1.00  0.00    -0.744 OA
ENDBRANCH  74  75
ENDBRANCH  55  69
BRANCH  56  79
ATOM     79  C   UNL A   1      49.893  26.469  26.450  1.00  0.00    -0.014 A 
ATOM     80  C   UNL A   1      50.317  26.636  25.122  1.00  0.00     0.010 A 
ATOM     81  C   UNL A   1      50.775  25.891  27.382  1.00  0.00     0.010 A 
ATOM     82  C   UNL A   1      51.598  26.231  24.732  1.00  0.00     0.020 A 
ATOM     83  C   UNL A   1      52.065  25.511  27.004  1.00  0.00     0.020 A 
ATOM     84  C   UNL A   1      52.465  25.674  25.677  1.00  0.00     0.054 A 
BRANCH  84  85
ATOM     85  S   UNL A   1      54.151  25.226  25.174  1.00  0.00     0.124 S 
ATOM     86  O   UNL A   1      54.365  26.101  24.026  1.00  0.00    -0.237 OA
ATOM     87  O   UNL A   1      54.935  25.541  26.365  1.00  0.00    -0.237 OA
ATOM     88  O   UNL A   1      54.046  23.802  24.867  1.00  0.00    -0.744 OA
ENDBRANCH  84  85
ENDBRANCH  56  79
BRANCH  68  89
ATOM     89  C   UNL A   1      47.266  32.680  28.199  1.00  0.00    -0.014 A 
ATOM     90  C   UNL A   1      47.364  33.558  27.106  1.00  0.00     0.010 A 
ATOM     91  C   UNL A   1      47.757  33.078  29.454  1.00  0.00     0.010 A 
ATOM     92  C   UNL A   1      47.986  34.799  27.257  1.00  0.00     0.020 A 
ATOM     93  C   UNL A   1      48.362  34.325  29.614  1.00  0.00     0.020 A 
ATOM     94  C   UNL A   1      48.490  35.170  28.508  1.00  0.00     0.054 A 
BRANCH  94  95
ATOM     95  S   UNL A   1      49.286  36.789  28.690  1.00  0.00     0.124 S 
ATOM     96  O   UNL A   1      50.467  36.640  27.844  1.00  0.00    -0.237 OA
ATOM     97  O   UNL A   1      48.268  37.710  28.191  1.00  0.00    -0.237 OA
ATOM     98  O   UNL A   1      49.551  36.882  30.123  1.00  0.00    -0.744 OA
ENDBRANCH  94  95
ENDBRANCH  68  89
ENDBRANCH  42  43
ENDBRANCH  35  37
ENDBRANCH  34  35
ENDBRANCH  33  34
ENDBRANCH   1  33
TORSDOF 18
ENDMDL
