MODEL 1
REMARK VINA RESULT:     -13.2      0.000      0.000
REMARK SMILES Cc1c(C(=O)OCCOC(=O)c2ccc(-c3c4nc(c(-c5ccc(S(=O)(=O)[O-])cc5)c5ccc([nH]5)c(-c5ccc(S(=O)(=O)[O-])cc5)c5nc(c(-c6ccc(S(=O)(=O)[O-])cc6)c6ccc3[nH]6)C=C5)C=C4)cc2)oc2c1/C(=N/NC(=O)C(c1ccccc1)c1ccccc1)CCC2
REMARK SMILES IDX 7 1 6 2 4 3 5 4 3 5 1 6 2 7 74 8 72 9 73 10 75 11 95 12
REMARK SMILES IDX 76 13 93 14 94 15 77 16 78 17 79 19 80 20 81 21 82 22 86 23
REMARK SMILES IDX 83 24 85 25 84 26 87 27 88 28 92 29 89 30 91 31 90 32 8 33
REMARK SMILES IDX 9 34 10 35 11 36 12 37 13 38 71 39 14 40 70 41 15 42 16 43
REMARK SMILES IDX 17 44 64 45 18 46 69 47 63 48 65 49 19 50 68 51 62 52 61 53
REMARK SMILES IDX 20 55 50 56 31 57 49 58 32 59 35 60 48 61 66 62 33 63 34 64
REMARK SMILES IDX 47 66 67 67 36 68 21 69 22 70 30 71 23 72 29 73 24 74 25 75
REMARK SMILES IDX 26 76 27 77 28 78 51 79 52 80 60 81 53 82 59 83 54 84 55 85
REMARK SMILES IDX 56 86 57 87 58 88 37 89 38 90 46 91 39 92 45 93 40 94 41 95
REMARK SMILES IDX 42 96 43 97 44 98
REMARK H PARENT 77 18 65 54 35 65
REMARK Flexibility Score: inf
ROOT
ATOM      1  C   UNL A   1      36.951  20.762  24.764  1.00  0.00     0.275 C 
ENDROOT
BRANCH   1   2
ATOM      2  O   UNL A   1      35.811  20.791  25.615  1.00  0.00    -0.456 OA
BRANCH   2   3
ATOM      3  C   UNL A   1      34.594  20.579  25.050  1.00  0.00     0.374 C 
ATOM      4  O   UNL A   1      34.042  19.485  24.925  1.00  0.00    -0.242 OA
BRANCH   3   5
ATOM      5  C   UNL A   1      34.050  21.858  24.711  1.00  0.00     0.215 A 
ATOM      6  C   UNL A   1      33.831  23.166  26.933  1.00  0.00     0.049 C 
ATOM      7  C   UNL A   1      33.722  22.984  25.455  1.00  0.00     0.012 A 
ATOM      8  C   UNL A   1      33.233  23.912  24.483  1.00  0.00     0.043 A 
ATOM      9  O   UNL A   1      33.831  22.074  23.377  1.00  0.00    -0.453 OA
ATOM     10  C   UNL A   1      33.361  23.314  23.254  1.00  0.00     0.114 A 
ATOM     11  C   UNL A   1      32.520  25.169  24.607  1.00  0.00     0.072 C 
ATOM     12  C   UNL A   1      32.930  23.757  21.914  1.00  0.00     0.076 C 
ATOM     13  N   UNL A   1      32.475  25.527  25.866  1.00  0.00    -0.177 NA
ATOM     14  C   UNL A   1      31.778  25.498  23.246  1.00  0.00     0.059 C 
ATOM     15  C   UNL A   1      32.609  25.244  21.986  1.00  0.00     0.014 C 
BRANCH  13  16
ATOM     16  N   UNL A   1      31.845  26.405  26.713  1.00  0.00    -0.246 N 
ATOM     17  C   UNL A   1      31.967  27.744  26.991  1.00  0.00     0.252 C 
ATOM     18  H   UNL A   1      31.140  25.973  27.246  1.00  0.00     0.193 HD
ATOM     19  O   UNL A   1      31.314  28.275  27.892  1.00  0.00    -0.272 OA
BRANCH  17  20
ATOM     20  C   UNL A   1      32.906  28.535  26.132  1.00  0.00     0.140 C 
BRANCH  20  21
ATOM     21  C   UNL A   1      32.118  28.864  24.762  1.00  0.00    -0.031 A 
ATOM     22  C   UNL A   1      30.742  29.131  24.702  1.00  0.00     0.005 A 
ATOM     23  C   UNL A   1      32.762  28.959  23.484  1.00  0.00     0.005 A 
ATOM     24  C   UNL A   1      30.067  29.264  23.455  1.00  0.00     0.000 A 
ATOM     25  C   UNL A   1      32.094  28.961  22.252  1.00  0.00     0.000 A 
ATOM     26  C   UNL A   1      30.726  29.095  22.237  1.00  0.00     0.000 A 
ENDBRANCH  20  21
BRANCH  20  27
ATOM     27  C   UNL A   1      33.751  29.412  27.231  1.00  0.00    -0.031 A 
ATOM     28  C   UNL A   1      35.058  29.161  27.737  1.00  0.00     0.005 A 
ATOM     29  C   UNL A   1      33.424  30.772  27.392  1.00  0.00     0.005 A 
ATOM     30  C   UNL A   1      35.875  30.031  28.485  1.00  0.00     0.000 A 
ATOM     31  C   UNL A   1      34.278  31.708  28.054  1.00  0.00     0.000 A 
ATOM     32  C   UNL A   1      35.485  31.332  28.634  1.00  0.00     0.000 A 
ENDBRANCH  20  27
ENDBRANCH  17  20
ENDBRANCH  13  16
ENDBRANCH   3   5
ENDBRANCH   2   3
ENDBRANCH   1   2
BRANCH   1  33
ATOM     33  C   UNL A   1      37.684  22.090  24.816  1.00  0.00     0.275 C 
BRANCH  33  34
ATOM     34  O   UNL A   1      37.989  22.431  26.166  1.00  0.00    -0.458 OA
BRANCH  34  35
ATOM     35  C   UNL A   1      39.260  22.205  26.565  1.00  0.00     0.338 C 
ATOM     36  O   UNL A   1      39.767  21.140  26.866  1.00  0.00    -0.246 OA
BRANCH  35  37
ATOM     37  C   UNL A   1      39.899  23.499  26.791  1.00  0.00     0.060 A 
ATOM     38  C   UNL A   1      41.123  23.532  27.464  1.00  0.00     0.016 A 
ATOM     39  C   UNL A   1      39.128  24.654  26.584  1.00  0.00     0.016 A 
ATOM     40  C   UNL A   1      41.491  24.708  28.082  1.00  0.00     0.010 A 
ATOM     41  C   UNL A   1      39.491  25.816  27.204  1.00  0.00     0.010 A 
ATOM     42  C   UNL A   1      40.621  25.805  28.013  1.00  0.00    -0.014 A 
BRANCH  42  43
ATOM     43  C   UNL A   1      40.969  27.022  28.710  1.00  0.00     0.031 A 
ATOM     44  C   UNL A   1      42.139  27.696  28.105  1.00  0.00     0.074 A 
ATOM     45  C   UNL A   1      40.196  27.537  29.685  1.00  0.00     0.049 A 
ATOM     46  N   UNL A   1      43.314  27.827  28.619  1.00  0.00    -0.248 NA
ATOM     47  C   UNL A   1      42.061  28.078  26.682  1.00  0.00     0.031 C 
ATOM     48  C   UNL A   1      38.876  27.091  30.146  1.00  0.00     0.029 A 
ATOM     49  N   UNL A   1      40.386  28.671  30.402  1.00  0.00    -0.354 N 
ATOM     50  C   UNL A   1      44.057  28.523  27.677  1.00  0.00     0.074 A 
ATOM     51  C   UNL A   1      43.316  28.461  26.445  1.00  0.00     0.031 C 
ATOM     52  C   UNL A   1      38.290  28.090  30.848  1.00  0.00     0.029 A 
ATOM     53  C   UNL A   1      39.240  29.180  31.001  1.00  0.00     0.049 A 
ATOM     54  H   UNL A   1      41.267  29.100  30.491  1.00  0.00     0.167 HD
ATOM     55  C   UNL A   1      45.087  29.330  28.051  1.00  0.00     0.031 A 
ATOM     56  C   UNL A   1      39.085  30.435  31.504  1.00  0.00     0.031 A 
ATOM     57  C   UNL A   1      45.500  29.068  29.405  1.00  0.00     0.049 A 
ATOM     58  C   UNL A   1      40.455  30.978  31.720  1.00  0.00     0.074 A 
ATOM     59  C   UNL A   1      45.975  27.951  30.066  1.00  0.00     0.029 A 
ATOM     60  N   UNL A   1      45.026  29.916  30.381  1.00  0.00    -0.354 N 
ATOM     61  N   UNL A   1      41.283  30.486  32.601  1.00  0.00    -0.248 NA
ATOM     62  C   UNL A   1      41.078  31.705  30.621  1.00  0.00     0.031 C 
ATOM     63  C   UNL A   1      45.319  27.970  31.330  1.00  0.00     0.029 A 
ATOM     64  C   UNL A   1      44.557  29.138  31.409  1.00  0.00     0.049 A 
ATOM     65  H   UNL A   1      45.024  30.900  30.347  1.00  0.00     0.167 HD
ATOM     66  C   UNL A   1      42.512  30.448  31.956  1.00  0.00     0.074 A 
ATOM     67  C   UNL A   1      42.339  31.281  30.762  1.00  0.00     0.031 C 
ATOM     68  C   UNL A   1      43.459  29.516  32.274  1.00  0.00     0.031 A 
BRANCH  55  69
ATOM     69  C   UNL A   1      45.410  30.620  27.346  1.00  0.00    -0.014 A 
ATOM     70  C   UNL A   1      46.749  30.884  27.002  1.00  0.00     0.010 A 
ATOM     71  C   UNL A   1      44.499  31.695  27.262  1.00  0.00     0.010 A 
ATOM     72  C   UNL A   1      47.165  32.175  26.656  1.00  0.00     0.020 A 
ATOM     73  C   UNL A   1      44.895  32.976  26.876  1.00  0.00     0.020 A 
ATOM     74  C   UNL A   1      46.234  33.214  26.606  1.00  0.00     0.054 A 
BRANCH  74  75
ATOM     75  S   UNL A   1      46.799  34.892  26.245  1.00  0.00     0.124 S 
ATOM     76  O   UNL A   1      47.417  35.280  27.509  1.00  0.00    -0.237 OA
ATOM     77  O   UNL A   1      47.717  34.673  25.130  1.00  0.00    -0.237 OA
ATOM     78  O   UNL A   1      45.569  35.601  25.903  1.00  0.00    -0.744 OA
ENDBRANCH  74  75
ENDBRANCH  55  69
BRANCH  56  79
ATOM     79  C   UNL A   1      37.878  31.305  31.441  1.00  0.00    -0.014 A 
ATOM     80  C   UNL A   1      36.685  30.954  32.105  1.00  0.00     0.010 A 
ATOM     81  C   UNL A   1      37.983  32.628  30.962  1.00  0.00     0.010 A 
ATOM     82  C   UNL A   1      35.672  31.905  32.340  1.00  0.00     0.020 A 
ATOM     83  C   UNL A   1      36.977  33.578  31.186  1.00  0.00     0.020 A 
ATOM     84  C   UNL A   1      35.836  33.220  31.899  1.00  0.00     0.054 A 
BRANCH  84  85
ATOM     85  S   UNL A   1      34.622  34.492  32.372  1.00  0.00     0.124 S 
ATOM     86  O   UNL A   1      33.607  33.709  33.073  1.00  0.00    -0.237 OA
ATOM     87  O   UNL A   1      35.413  35.392  33.207  1.00  0.00    -0.237 OA
ATOM     88  O   UNL A   1      34.196  35.054  31.093  1.00  0.00    -0.744 OA
ENDBRANCH  84  85
ENDBRANCH  56  79
BRANCH  68  89
ATOM     89  C   UNL A   1      43.257  28.660  33.506  1.00  0.00    -0.014 A 
ATOM     90  C   UNL A   1      43.867  28.906  34.753  1.00  0.00     0.010 A 
ATOM     91  C   UNL A   1      42.270  27.661  33.433  1.00  0.00     0.010 A 
ATOM     92  C   UNL A   1      43.518  28.150  35.886  1.00  0.00     0.020 A 
ATOM     93  C   UNL A   1      41.904  26.920  34.557  1.00  0.00     0.020 A 
ATOM     94  C   UNL A   1      42.538  27.157  35.778  1.00  0.00     0.054 A 
BRANCH  94  95
ATOM     95  S   UNL A   1      42.065  26.194  37.241  1.00  0.00     0.124 S 
ATOM     96  O   UNL A   1      43.086  26.573  38.214  1.00  0.00    -0.237 OA
ATOM     97  O   UNL A   1      40.715  26.674  37.527  1.00  0.00    -0.237 OA
ATOM     98  O   UNL A   1      42.135  24.806  36.784  1.00  0.00    -0.744 OA
ENDBRANCH  94  95
ENDBRANCH  68  89
ENDBRANCH  42  43
ENDBRANCH  35  37
ENDBRANCH  34  35
ENDBRANCH  33  34
ENDBRANCH   1  33
TORSDOF 18
ENDMDL
MODEL 2
REMARK VINA RESULT:     -12.8      1.049      2.675
REMARK SMILES Cc1c(C(=O)OCCOC(=O)c2ccc(-c3c4nc(c(-c5ccc(S(=O)(=O)[O-])cc5)c5ccc([nH]5)c(-c5ccc(S(=O)(=O)[O-])cc5)c5nc(c(-c6ccc(S(=O)(=O)[O-])cc6)c6ccc3[nH]6)C=C5)C=C4)cc2)oc2c1/C(=N/NC(=O)C(c1ccccc1)c1ccccc1)CCC2
REMARK SMILES IDX 7 1 6 2 4 3 5 4 3 5 1 6 2 7 74 8 72 9 73 10 75 11 95 12
REMARK SMILES IDX 76 13 93 14 94 15 77 16 78 17 79 19 80 20 81 21 82 22 86 23
REMARK SMILES IDX 83 24 85 25 84 26 87 27 88 28 92 29 89 30 91 31 90 32 8 33
REMARK SMILES IDX 9 34 10 35 11 36 12 37 13 38 71 39 14 40 70 41 15 42 16 43
REMARK SMILES IDX 17 44 64 45 18 46 69 47 63 48 65 49 19 50 68 51 62 52 61 53
REMARK SMILES IDX 20 55 50 56 31 57 49 58 32 59 35 60 48 61 66 62 33 63 34 64
REMARK SMILES IDX 47 66 67 67 36 68 21 69 22 70 30 71 23 72 29 73 24 74 25 75
REMARK SMILES IDX 26 76 27 77 28 78 51 79 52 80 60 81 53 82 59 83 54 84 55 85
REMARK SMILES IDX 56 86 57 87 58 88 37 89 38 90 46 91 39 92 45 93 40 94 41 95
REMARK SMILES IDX 42 96 43 97 44 98
REMARK H PARENT 77 18 65 54 35 65
REMARK Flexibility Score: inf
ROOT
ATOM      1  C   UNL A   1      36.778  21.287  24.745  1.00  0.00     0.275 C 
ENDROOT
BRANCH   1   2
ATOM      2  O   UNL A   1      35.659  21.076  25.597  1.00  0.00    -0.456 OA
BRANCH   2   3
ATOM      3  C   UNL A   1      34.460  20.810  25.015  1.00  0.00     0.374 C 
ATOM      4  O   UNL A   1      34.097  19.711  24.592  1.00  0.00    -0.242 OA
BRANCH   3   5
ATOM      5  C   UNL A   1      33.684  22.010  25.063  1.00  0.00     0.215 A 
ATOM      6  C   UNL A   1      34.741  23.628  23.343  1.00  0.00     0.049 C 
ATOM      7  C   UNL A   1      33.747  23.216  24.377  1.00  0.00     0.012 A 
ATOM      8  C   UNL A   1      32.660  23.976  24.912  1.00  0.00     0.043 A 
ATOM      9  O   UNL A   1      32.619  21.993  25.923  1.00  0.00    -0.453 OA
ATOM     10  C   UNL A   1      32.004  23.168  25.808  1.00  0.00     0.114 A 
ATOM     11  C   UNL A   1      32.307  25.379  24.809  1.00  0.00     0.072 C 
ATOM     12  C   UNL A   1      30.883  23.451  26.724  1.00  0.00     0.076 C 
ATOM     13  N   UNL A   1      33.089  25.967  23.937  1.00  0.00    -0.177 NA
ATOM     14  C   UNL A   1      31.336  25.775  25.997  1.00  0.00     0.059 C 
ATOM     15  C   UNL A   1      30.230  24.757  26.287  1.00  0.00     0.014 C 
BRANCH  13  16
ATOM     16  N   UNL A   1      33.469  27.212  23.501  1.00  0.00    -0.246 N 
ATOM     17  C   UNL A   1      33.161  28.502  23.856  1.00  0.00     0.252 C 
ATOM     18  H   UNL A   1      34.113  27.170  22.758  1.00  0.00     0.193 HD
ATOM     19  O   UNL A   1      33.590  29.464  23.216  1.00  0.00    -0.272 OA
BRANCH  17  20
ATOM     20  C   UNL A   1      32.306  28.687  25.073  1.00  0.00     0.140 C 
BRANCH  20  21
ATOM     21  C   UNL A   1      33.260  29.295  26.224  1.00  0.00    -0.031 A 
ATOM     22  C   UNL A   1      33.030  30.528  26.853  1.00  0.00     0.005 A 
ATOM     23  C   UNL A   1      34.407  28.608  26.743  1.00  0.00     0.005 A 
ATOM     24  C   UNL A   1      33.981  31.090  27.751  1.00  0.00     0.000 A 
ATOM     25  C   UNL A   1      35.408  29.203  27.522  1.00  0.00     0.000 A 
ATOM     26  C   UNL A   1      35.202  30.469  28.017  1.00  0.00     0.000 A 
ENDBRANCH  20  21
BRANCH  20  27
ATOM     27  C   UNL A   1      30.848  29.088  24.434  1.00  0.00    -0.031 A 
ATOM     28  C   UNL A   1      30.302  30.388  24.240  1.00  0.00     0.005 A 
ATOM     29  C   UNL A   1      30.225  28.168  23.569  1.00  0.00     0.005 A 
ATOM     30  C   UNL A   1      29.172  30.743  23.477  1.00  0.00     0.000 A 
ATOM     31  C   UNL A   1      29.144  28.520  22.702  1.00  0.00     0.000 A 
ATOM     32  C   UNL A   1      28.591  29.796  22.683  1.00  0.00     0.000 A 
ENDBRANCH  20  27
ENDBRANCH  17  20
ENDBRANCH  13  16
ENDBRANCH   3   5
ENDBRANCH   2   3
ENDBRANCH   1   2
BRANCH   1  33
ATOM     33  C   UNL A   1      38.066  20.936  25.467  1.00  0.00     0.275 C 
BRANCH  33  34
ATOM     34  O   UNL A   1      38.605  22.092  26.103  1.00  0.00    -0.458 OA
BRANCH  34  35
ATOM     35  C   UNL A   1      39.844  21.962  26.626  1.00  0.00     0.338 C 
ATOM     36  O   UNL A   1      40.381  20.944  27.023  1.00  0.00    -0.246 OA
BRANCH  35  37
ATOM     37  C   UNL A   1      40.384  23.301  26.845  1.00  0.00     0.060 A 
ATOM     38  C   UNL A   1      41.586  23.431  27.545  1.00  0.00     0.016 A 
ATOM     39  C   UNL A   1      39.538  24.395  26.603  1.00  0.00     0.016 A 
ATOM     40  C   UNL A   1      41.855  24.639  28.152  1.00  0.00     0.010 A 
ATOM     41  C   UNL A   1      39.803  25.589  27.213  1.00  0.00     0.010 A 
ATOM     42  C   UNL A   1      40.912  25.669  28.047  1.00  0.00    -0.014 A 
BRANCH  42  43
ATOM     43  C   UNL A   1      41.156  26.918  28.732  1.00  0.00     0.031 A 
ATOM     44  C   UNL A   1      42.295  27.661  28.149  1.00  0.00     0.074 A 
ATOM     45  C   UNL A   1      40.321  27.394  29.675  1.00  0.00     0.049 A 
ATOM     46  N   UNL A   1      43.442  27.879  28.694  1.00  0.00    -0.248 NA
ATOM     47  C   UNL A   1      42.234  28.014  26.718  1.00  0.00     0.031 C 
ATOM     48  C   UNL A   1      39.022  26.867  30.106  1.00  0.00     0.029 A 
ATOM     49  N   UNL A   1      40.413  28.550  30.377  1.00  0.00    -0.354 N 
ATOM     50  C   UNL A   1      44.165  28.609  27.761  1.00  0.00     0.074 A 
ATOM     51  C   UNL A   1      43.467  28.478  26.510  1.00  0.00     0.031 C 
ATOM     52  C   UNL A   1      38.348  27.835  30.773  1.00  0.00     0.029 A 
ATOM     53  C   UNL A   1      39.218  28.989  30.934  1.00  0.00     0.049 A 
ATOM     54  H   UNL A   1      41.260  29.040  30.484  1.00  0.00     0.167 HD
ATOM     55  C   UNL A   1      45.126  29.490  28.150  1.00  0.00     0.031 A 
ATOM     56  C   UNL A   1      38.964  30.238  31.411  1.00  0.00     0.031 A 
ATOM     57  C   UNL A   1      45.516  29.278  29.521  1.00  0.00     0.049 A 
ATOM     58  C   UNL A   1      40.288  30.877  31.657  1.00  0.00     0.074 A 
ATOM     59  C   UNL A   1      46.045  28.206  30.214  1.00  0.00     0.029 A 
ATOM     60  N   UNL A   1      44.957  30.107  30.467  1.00  0.00    -0.354 N 
ATOM     61  N   UNL A   1      41.120  30.455  32.569  1.00  0.00    -0.248 NA
ATOM     62  C   UNL A   1      40.893  31.626  30.563  1.00  0.00     0.031 C 
ATOM     63  C   UNL A   1      45.352  28.200  31.458  1.00  0.00     0.029 A 
ATOM     64  C   UNL A   1      44.511  29.314  31.495  1.00  0.00     0.049 A 
ATOM     65  H   UNL A   1      44.890  31.087  30.416  1.00  0.00     0.167 HD
ATOM     66  C   UNL A   1      42.367  30.491  31.960  1.00  0.00     0.074 A 
ATOM     67  C   UNL A   1      42.174  31.292  30.747  1.00  0.00     0.031 C 
ATOM     68  C   UNL A   1      43.365  29.630  32.322  1.00  0.00     0.031 A 
BRANCH  55  69
ATOM     69  C   UNL A   1      45.383  30.788  27.433  1.00  0.00    -0.014 A 
ATOM     70  C   UNL A   1      46.683  31.054  26.963  1.00  0.00     0.010 A 
ATOM     71  C   UNL A   1      44.471  31.865  27.450  1.00  0.00     0.010 A 
ATOM     72  C   UNL A   1      47.066  32.348  26.593  1.00  0.00     0.020 A 
ATOM     73  C   UNL A   1      44.830  33.150  27.043  1.00  0.00     0.020 A 
ATOM     74  C   UNL A   1      46.138  33.390  26.646  1.00  0.00     0.054 A 
BRANCH  74  75
ATOM     75  S   UNL A   1      46.669  35.071  26.252  1.00  0.00     0.124 S 
ATOM     76  O   UNL A   1      45.408  35.706  25.881  1.00  0.00    -0.237 OA
ATOM     77  O   UNL A   1      47.254  35.511  27.516  1.00  0.00    -0.237 OA
ATOM     78  O   UNL A   1      47.623  34.882  25.161  1.00  0.00    -0.744 OA
ENDBRANCH  74  75
ENDBRANCH  55  69
BRANCH  56  79
ATOM     79  C   UNL A   1      37.703  31.024  31.298  1.00  0.00    -0.014 A 
ATOM     80  C   UNL A   1      36.630  30.819  32.189  1.00  0.00     0.010 A 
ATOM     81  C   UNL A   1      37.658  32.179  30.490  1.00  0.00     0.010 A 
ATOM     82  C   UNL A   1      35.594  31.766  32.314  1.00  0.00     0.020 A 
ATOM     83  C   UNL A   1      36.628  33.122  30.603  1.00  0.00     0.020 A 
ATOM     84  C   UNL A   1      35.612  32.925  31.535  1.00  0.00     0.054 A 
BRANCH  84  85
ATOM     85  S   UNL A   1      34.386  34.237  31.836  1.00  0.00     0.124 S 
ATOM     86  O   UNL A   1      33.817  34.443  30.507  1.00  0.00    -0.237 OA
ATOM     87  O   UNL A   1      33.496  33.624  32.817  1.00  0.00    -0.237 OA
ATOM     88  O   UNL A   1      35.189  35.348  32.343  1.00  0.00    -0.744 OA
ENDBRANCH  84  85
ENDBRANCH  56  79
BRANCH  68  89
ATOM     89  C   UNL A   1      43.184  28.782  33.562  1.00  0.00    -0.014 A 
ATOM     90  C   UNL A   1      43.544  29.190  34.863  1.00  0.00     0.010 A 
ATOM     91  C   UNL A   1      42.461  27.585  33.416  1.00  0.00     0.010 A 
ATOM     92  C   UNL A   1      43.214  28.403  35.980  1.00  0.00     0.020 A 
ATOM     93  C   UNL A   1      42.113  26.809  34.522  1.00  0.00     0.020 A 
ATOM     94  C   UNL A   1      42.501  27.213  35.800  1.00  0.00     0.054 A 
BRANCH  94  95
ATOM     95  S   UNL A   1      42.050  26.205  37.239  1.00  0.00     0.124 S 
ATOM     96  O   UNL A   1      42.184  24.844  36.728  1.00  0.00    -0.237 OA
ATOM     97  O   UNL A   1      43.041  26.601  38.238  1.00  0.00    -0.237 OA
ATOM     98  O   UNL A   1      40.680  26.619  37.541  1.00  0.00    -0.744 OA
ENDBRANCH  94  95
ENDBRANCH  68  89
ENDBRANCH  42  43
ENDBRANCH  35  37
ENDBRANCH  34  35
ENDBRANCH  33  34
ENDBRANCH   1  33
TORSDOF 18
ENDMDL
MODEL 3
REMARK VINA RESULT:     -12.1      2.606      9.447
REMARK SMILES Cc1c(C(=O)OCCOC(=O)c2ccc(-c3c4nc(c(-c5ccc(S(=O)(=O)[O-])cc5)c5ccc([nH]5)c(-c5ccc(S(=O)(=O)[O-])cc5)c5nc(c(-c6ccc(S(=O)(=O)[O-])cc6)c6ccc3[nH]6)C=C5)C=C4)cc2)oc2c1/C(=N/NC(=O)C(c1ccccc1)c1ccccc1)CCC2
REMARK SMILES IDX 7 1 6 2 4 3 5 4 3 5 1 6 2 7 74 8 72 9 73 10 75 11 95 12
REMARK SMILES IDX 76 13 93 14 94 15 77 16 78 17 79 19 80 20 81 21 82 22 86 23
REMARK SMILES IDX 83 24 85 25 84 26 87 27 88 28 92 29 89 30 91 31 90 32 8 33
REMARK SMILES IDX 9 34 10 35 11 36 12 37 13 38 71 39 14 40 70 41 15 42 16 43
REMARK SMILES IDX 17 44 64 45 18 46 69 47 63 48 65 49 19 50 68 51 62 52 61 53
REMARK SMILES IDX 20 55 50 56 31 57 49 58 32 59 35 60 48 61 66 62 33 63 34 64
REMARK SMILES IDX 47 66 67 67 36 68 21 69 22 70 30 71 23 72 29 73 24 74 25 75
REMARK SMILES IDX 26 76 27 77 28 78 51 79 52 80 60 81 53 82 59 83 54 84 55 85
REMARK SMILES IDX 56 86 57 87 58 88 37 89 38 90 46 91 39 92 45 93 40 94 41 95
REMARK SMILES IDX 42 96 43 97 44 98
REMARK H PARENT 77 18 65 54 35 65
REMARK Flexibility Score: inf
ROOT
ATOM      1  C   UNL A   1      32.243  30.045  25.876  1.00  0.00     0.275 C 
ENDROOT
BRANCH   1   2
ATOM      2  O   UNL A   1      33.217  29.786  24.872  1.00  0.00    -0.456 OA
BRANCH   2   3
ATOM      3  C   UNL A   1      32.915  28.866  23.920  1.00  0.00     0.374 C 
ATOM      4  O   UNL A   1      33.156  28.973  22.716  1.00  0.00    -0.242 OA
BRANCH   3   5
ATOM      5  C   UNL A   1      32.350  27.732  24.583  1.00  0.00     0.215 A 
ATOM      6  C   UNL A   1      34.312  26.528  25.764  1.00  0.00     0.049 C 
ATOM      7  C   UNL A   1      32.883  26.727  25.380  1.00  0.00     0.012 A 
ATOM      8  C   UNL A   1      31.754  25.917  25.719  1.00  0.00     0.043 A 
ATOM      9  O   UNL A   1      30.992  27.594  24.468  1.00  0.00    -0.453 OA
ATOM     10  C   UNL A   1      30.648  26.516  25.169  1.00  0.00     0.114 A 
ATOM     11  C   UNL A   1      31.643  24.602  26.320  1.00  0.00     0.072 C 
ATOM     12  C   UNL A   1      29.240  26.077  25.111  1.00  0.00     0.076 C 
ATOM     13  N   UNL A   1      32.822  24.204  26.730  1.00  0.00    -0.177 NA
ATOM     14  C   UNL A   1      30.225  23.980  25.985  1.00  0.00     0.059 C 
ATOM     15  C   UNL A   1      29.051  24.952  26.121  1.00  0.00     0.014 C 
BRANCH  13  16
ATOM     16  N   UNL A   1      33.490  23.085  27.162  1.00  0.00    -0.246 N 
ATOM     17  C   UNL A   1      34.504  22.306  26.663  1.00  0.00     0.252 C 
ATOM     18  H   UNL A   1      33.165  22.767  28.035  1.00  0.00     0.193 HD
ATOM     19  O   UNL A   1      34.860  21.272  27.234  1.00  0.00    -0.272 OA
BRANCH  17  20
ATOM     20  C   UNL A   1      35.178  22.783  25.413  1.00  0.00     0.140 C 
BRANCH  20  21
ATOM     21  C   UNL A   1      36.762  22.811  25.719  1.00  0.00    -0.031 A 
ATOM     22  C   UNL A   1      37.617  21.722  25.491  1.00  0.00     0.005 A 
ATOM     23  C   UNL A   1      37.451  23.968  26.211  1.00  0.00     0.005 A 
ATOM     24  C   UNL A   1      38.975  21.743  25.920  1.00  0.00     0.000 A 
ATOM     25  C   UNL A   1      38.745  23.958  26.751  1.00  0.00     0.000 A 
ATOM     26  C   UNL A   1      39.511  22.823  26.621  1.00  0.00     0.000 A 
ENDBRANCH  20  21
BRANCH  20  27
ATOM     27  C   UNL A   1      34.229  22.158  24.229  1.00  0.00    -0.031 A 
ATOM     28  C   UNL A   1      33.455  20.964  24.263  1.00  0.00     0.005 A 
ATOM     29  C   UNL A   1      33.725  23.033  23.248  1.00  0.00     0.005 A 
ATOM     30  C   UNL A   1      32.459  20.556  23.354  1.00  0.00     0.000 A 
ATOM     31  C   UNL A   1      32.643  22.691  22.378  1.00  0.00     0.000 A 
ATOM     32  C   UNL A   1      32.036  21.440  22.403  1.00  0.00     0.000 A 
ENDBRANCH  20  27
ENDBRANCH  17  20
ENDBRANCH  13  16
ENDBRANCH   3   5
ENDBRANCH   2   3
ENDBRANCH   1   2
BRANCH   1  33
ATOM     33  C   UNL A   1      32.818  30.951  26.949  1.00  0.00     0.275 C 
BRANCH  33  34
ATOM     34  O   UNL A   1      34.134  30.528  27.298  1.00  0.00    -0.458 OA
BRANCH  34  35
ATOM     35  C   UNL A   1      34.982  31.497  27.707  1.00  0.00     0.338 C 
ATOM     36  O   UNL A   1      34.943  32.683  27.438  1.00  0.00    -0.246 OA
BRANCH  35  37
ATOM     37  C   UNL A   1      36.114  30.854  28.371  1.00  0.00     0.060 A 
ATOM     38  C   UNL A   1      36.971  31.642  29.143  1.00  0.00     0.016 A 
ATOM     39  C   UNL A   1      36.452  29.551  27.973  1.00  0.00     0.016 A 
ATOM     40  C   UNL A   1      38.248  31.176  29.373  1.00  0.00     0.010 A 
ATOM     41  C   UNL A   1      37.721  29.095  28.195  1.00  0.00     0.010 A 
ATOM     42  C   UNL A   1      38.626  29.947  28.817  1.00  0.00    -0.014 A 
BRANCH  42  43
ATOM     43  C   UNL A   1      39.981  29.480  28.999  1.00  0.00     0.031 A 
ATOM     44  C   UNL A   1      40.324  29.308  30.428  1.00  0.00     0.074 A 
ATOM     45  C   UNL A   1      40.754  29.097  27.965  1.00  0.00     0.049 A 
ATOM     46  N   UNL A   1      41.156  30.009  31.119  1.00  0.00    -0.248 NA
ATOM     47  C   UNL A   1      39.492  28.396  31.237  1.00  0.00     0.031 C 
ATOM     48  C   UNL A   1      40.396  28.961  26.549  1.00  0.00     0.029 A 
ATOM     49  N   UNL A   1      42.023  28.622  27.991  1.00  0.00    -0.354 N 
ATOM     50  C   UNL A   1      41.129  29.468  32.397  1.00  0.00     0.074 A 
ATOM     51  C   UNL A   1      39.955  28.639  32.464  1.00  0.00     0.031 C 
ATOM     52  C   UNL A   1      41.323  28.192  25.928  1.00  0.00     0.029 A 
ATOM     53  C   UNL A   1      42.398  27.903  26.863  1.00  0.00     0.049 A 
ATOM     54  H   UNL A   1      42.631  28.775  28.749  1.00  0.00     0.167 HD
ATOM     55  C   UNL A   1      42.221  29.525  33.206  1.00  0.00     0.031 A 
ATOM     56  C   UNL A   1      43.473  27.075  26.757  1.00  0.00     0.031 A 
ATOM     57  C   UNL A   1      43.183  30.486  32.732  1.00  0.00     0.049 A 
ATOM     58  C   UNL A   1      44.400  27.439  27.865  1.00  0.00     0.074 A 
ATOM     59  C   UNL A   1      43.143  31.845  32.488  1.00  0.00     0.029 A 
ATOM     60  N   UNL A   1      44.254  30.000  32.016  1.00  0.00    -0.354 N 
ATOM     61  N   UNL A   1      45.012  28.591  27.929  1.00  0.00    -0.248 NA
ATOM     62  C   UNL A   1      44.238  26.750  29.139  1.00  0.00     0.031 C 
ATOM     63  C   UNL A   1      43.864  32.017  31.272  1.00  0.00     0.029 A 
ATOM     64  C   UNL A   1      44.382  30.777  30.892  1.00  0.00     0.049 A 
ATOM     65  H   UNL A   1      44.823  29.236  32.265  1.00  0.00     0.167 HD
ATOM     66  C   UNL A   1      44.914  28.974  29.260  1.00  0.00     0.074 A 
ATOM     67  C   UNL A   1      44.491  27.765  29.973  1.00  0.00     0.031 C 
ATOM     68  C   UNL A   1      44.888  30.290  29.625  1.00  0.00     0.031 A 
BRANCH  55  69
ATOM     69  C   UNL A   1      42.590  28.417  34.156  1.00  0.00    -0.014 A 
ATOM     70  C   UNL A   1      42.248  28.550  35.515  1.00  0.00     0.010 A 
ATOM     71  C   UNL A   1      43.499  27.391  33.819  1.00  0.00     0.010 A 
ATOM     72  C   UNL A   1      42.837  27.739  36.491  1.00  0.00     0.020 A 
ATOM     73  C   UNL A   1      44.059  26.549  34.779  1.00  0.00     0.020 A 
ATOM     74  C   UNL A   1      43.747  26.750  36.116  1.00  0.00     0.054 A 
BRANCH  74  75
ATOM     75  S   UNL A   1      44.568  25.770  37.393  1.00  0.00     0.124 S 
ATOM     76  O   UNL A   1      45.942  26.255  37.307  1.00  0.00    -0.237 OA
ATOM     77  O   UNL A   1      43.832  26.156  38.594  1.00  0.00    -0.237 OA
ATOM     78  O   UNL A   1      44.359  24.392  36.954  1.00  0.00    -0.744 OA
ENDBRANCH  74  75
ENDBRANCH  55  69
BRANCH  56  79
ATOM     79  C   UNL A   1      43.564  25.779  26.028  1.00  0.00    -0.014 A 
ATOM     80  C   UNL A   1      44.738  25.405  25.343  1.00  0.00     0.010 A 
ATOM     81  C   UNL A   1      42.595  24.777  26.243  1.00  0.00     0.010 A 
ATOM     82  C   UNL A   1      44.961  24.069  24.951  1.00  0.00     0.020 A 
ATOM     83  C   UNL A   1      42.807  23.447  25.851  1.00  0.00     0.020 A 
ATOM     84  C   UNL A   1      44.001  23.093  25.230  1.00  0.00     0.054 A 
BRANCH  84  85
ATOM     85  S   UNL A   1      44.372  21.341  24.904  1.00  0.00     0.124 S 
ATOM     86  O   UNL A   1      45.636  21.152  25.611  1.00  0.00    -0.237 OA
ATOM     87  O   UNL A   1      43.218  20.657  25.480  1.00  0.00    -0.237 OA
ATOM     88  O   UNL A   1      44.463  21.273  23.447  1.00  0.00    -0.744 OA
ENDBRANCH  84  85
ENDBRANCH  56  79
BRANCH  68  89
ATOM     89  C   UNL A   1      45.204  31.344  28.586  1.00  0.00    -0.014 A 
ATOM     90  C   UNL A   1      44.258  31.889  27.693  1.00  0.00     0.010 A 
ATOM     91  C   UNL A   1      46.483  31.924  28.636  1.00  0.00     0.010 A 
ATOM     92  C   UNL A   1      44.597  32.965  26.855  1.00  0.00     0.020 A 
ATOM     93  C   UNL A   1      46.821  33.006  27.820  1.00  0.00     0.020 A 
ATOM     94  C   UNL A   1      45.882  33.515  26.923  1.00  0.00     0.054 A 
BRANCH  94  95
ATOM     95  S   UNL A   1      46.319  34.919  25.861  1.00  0.00     0.124 S 
ATOM     96  O   UNL A   1      45.684  34.568  24.594  1.00  0.00    -0.237 OA
ATOM     97  O   UNL A   1      45.731  36.057  26.564  1.00  0.00    -0.237 OA
ATOM     98  O   UNL A   1      47.781  34.902  25.843  1.00  0.00    -0.744 OA
ENDBRANCH  94  95
ENDBRANCH  68  89
ENDBRANCH  42  43
ENDBRANCH  35  37
ENDBRANCH  34  35
ENDBRANCH  33  34
ENDBRANCH   1  33
TORSDOF 18
ENDMDL
