MODEL 1
REMARK VINA RESULT:      -9.3      0.000      0.000
REMARK SMILES C[N@H+](CCC(=O)Nc1sccc1C#N)CC(=O)OCCOC(=O)c1ccc(-c2c3nc(c(-c4ccc(S(=O)(=O)[O-])cc4)c4ccc([nH]4)c(-c4ccc(S(=O)(=O)[O-])cc4)c4nc(c(-c5ccc(S(=O)(=O)[O-])cc5)c5ccc2[nH]5)C=C4)C=C3)cc1
REMARK SMILES IDX 18 1 16 2 17 3 15 4 2 5 1 6 3 8 4 9 5 10 6 11 7 12 8 14 9 15
REMARK SMILES IDX 12 16 10 17 11 18 13 19 14 20 19 21 20 22 21 23 22 24 23 25
REMARK SMILES IDX 24 26 25 27 83 28 26 29 82 30 27 31 28 32 29 33 76 34 30 35
REMARK SMILES IDX 81 36 75 37 77 38 31 39 80 40 74 41 73 42 32 44 62 45 43 46
REMARK SMILES IDX 61 47 44 48 47 49 60 50 78 51 45 52 46 53 59 55 79 56 48 57
REMARK SMILES IDX 33 58 34 59 42 60 35 61 41 62 36 63 37 64 38 65 39 66 40 67
REMARK SMILES IDX 63 68 64 69 72 70 65 71 71 72 66 73 67 74 68 75 69 76 70 77
REMARK SMILES IDX 49 78 50 79 58 80 51 81 57 82 52 83 53 84 54 85 55 86 56 87
REMARK H PARENT 2 7 7 13 77 43 47 54
REMARK Flexibility Score: inf
ROOT
ATOM      1  O   UNL A   1      32.229  27.815  26.183  1.00  0.00    -0.458 OA
ENDROOT
BRANCH   1   2
ATOM      2  C   UNL A   1      31.361  26.801  25.926  1.00  0.00     0.361 C 
ATOM      3  O   UNL A   1      30.540  26.363  26.721  1.00  0.00    -0.245 OA
BRANCH   2   4
ATOM      4  C   UNL A   1      31.494  26.330  24.495  1.00  0.00     0.386 C 
BRANCH   4   5
ATOM      5  N   UNL A   1      32.764  25.619  24.292  1.00  0.00    -0.328 N 
ATOM      6  C   UNL A   1      33.612  26.419  23.404  1.00  0.00     0.333 C 
ATOM      7  H   UNL A   1      33.207  25.514  25.204  1.00  0.00     0.348 HD
BRANCH   5   8
ATOM      8  C   UNL A   1      32.612  24.239  23.802  1.00  0.00     0.272 C 
BRANCH   8   9
ATOM      9  C   UNL A   1      31.433  23.396  24.296  1.00  0.00     0.161 C 
BRANCH   9  10
ATOM     10  C   UNL A   1      31.268  22.616  25.599  1.00  0.00     0.230 C 
ATOM     11  O   UNL A   1      30.355  23.006  26.352  1.00  0.00    -0.274 OA
ATOM     12  N   UNL A   1      31.901  21.501  26.020  1.00  0.00    -0.316 N 
ATOM     13  H   UNL A   1      31.442  21.064  26.775  1.00  0.00     0.170 HD
BRANCH  12  14
ATOM     14  C   UNL A   1      33.033  20.842  25.638  1.00  0.00     0.113 A 
ATOM     15  S   UNL A   1      32.727  19.180  25.371  1.00  0.00    -0.125 S 
ATOM     16  C   UNL A   1      34.369  21.125  25.484  1.00  0.00     0.087 A 
ATOM     17  C   UNL A   1      34.222  18.979  24.569  1.00  0.00     0.068 A 
ATOM     18  C   UNL A   1      35.040  20.070  24.778  1.00  0.00     0.033 A 
BRANCH  16  19
ATOM     19  C   UNL A   1      35.016  22.295  25.990  1.00  0.00     0.102 C 
ATOM     20  N   UNL A   1      35.543  23.245  26.393  1.00  0.00    -0.192 NA
ENDBRANCH  16  19
ENDBRANCH  12  14
ENDBRANCH   9  10
ENDBRANCH   8   9
ENDBRANCH   5   8
ENDBRANCH   4   5
ENDBRANCH   2   4
ENDBRANCH   1   2
BRANCH   1  21
ATOM     21  C   UNL A   1      31.855  28.680  27.258  1.00  0.00     0.274 C 
BRANCH  21  22
ATOM     22  C   UNL A   1      32.214  30.119  26.896  1.00  0.00     0.275 C 
BRANCH  22  23
ATOM     23  O   UNL A   1      33.646  30.285  26.779  1.00  0.00    -0.458 OA
BRANCH  23  24
ATOM     24  C   UNL A   1      34.195  31.214  27.598  1.00  0.00     0.338 C 
ATOM     25  O   UNL A   1      33.662  32.236  28.004  1.00  0.00    -0.246 OA
BRANCH  24  26
ATOM     26  C   UNL A   1      35.558  30.839  28.020  1.00  0.00     0.060 A 
ATOM     27  C   UNL A   1      35.830  29.572  28.525  1.00  0.00     0.016 A 
ATOM     28  C   UNL A   1      36.535  31.833  28.089  1.00  0.00     0.016 A 
ATOM     29  C   UNL A   1      37.034  29.337  29.198  1.00  0.00     0.010 A 
ATOM     30  C   UNL A   1      37.784  31.550  28.654  1.00  0.00     0.010 A 
ATOM     31  C   UNL A   1      38.045  30.307  29.258  1.00  0.00    -0.014 A 
BRANCH  31  32
ATOM     32  C   UNL A   1      39.358  30.058  29.940  1.00  0.00     0.031 A 
ATOM     33  C   UNL A   1      40.282  28.969  29.437  1.00  0.00     0.074 A 
ATOM     34  C   UNL A   1      39.724  30.757  31.037  1.00  0.00     0.049 A 
ATOM     35  N   UNL A   1      41.255  28.350  30.060  1.00  0.00    -0.248 NA
ATOM     36  C   UNL A   1      40.071  28.502  28.056  1.00  0.00     0.031 C 
ATOM     37  C   UNL A   1      39.002  31.893  31.617  1.00  0.00     0.029 A 
ATOM     38  N   UNL A   1      40.801  30.595  31.882  1.00  0.00    -0.354 N 
ATOM     39  C   UNL A   1      41.711  27.368  29.184  1.00  0.00     0.074 A 
ATOM     40  C   UNL A   1      40.917  27.482  27.978  1.00  0.00     0.031 C 
ATOM     41  C   UNL A   1      39.662  32.339  32.692  1.00  0.00     0.029 A 
ATOM     42  C   UNL A   1      40.767  31.434  32.972  1.00  0.00     0.049 A 
ATOM     43  H   UNL A   1      41.523  29.945  31.722  1.00  0.00     0.167 HD
ATOM     44  C   UNL A   1      42.689  26.447  29.376  1.00  0.00     0.031 A 
ATOM     45  C   UNL A   1      41.464  31.432  34.126  1.00  0.00     0.031 A 
ATOM     46  C   UNL A   1      43.503  26.377  30.565  1.00  0.00     0.049 A 
ATOM     47  C   UNL A   1      42.486  30.360  34.360  1.00  0.00     0.074 A 
ATOM     48  C   UNL A   1      44.529  25.492  30.856  1.00  0.00     0.029 A 
ATOM     49  N   UNL A   1      43.398  27.232  31.652  1.00  0.00    -0.354 N 
ATOM     50  N   UNL A   1      42.843  29.378  33.567  1.00  0.00    -0.248 NA
ATOM     51  C   UNL A   1      43.186  30.386  35.650  1.00  0.00     0.031 C 
ATOM     52  C   UNL A   1      45.003  25.777  32.141  1.00  0.00     0.029 A 
ATOM     53  C   UNL A   1      44.324  26.884  32.621  1.00  0.00     0.049 A 
ATOM     54  H   UNL A   1      42.758  27.977  31.724  1.00  0.00     0.167 HD
ATOM     55  C   UNL A   1      43.826  28.679  34.256  1.00  0.00     0.074 A 
ATOM     56  C   UNL A   1      44.019  29.363  35.519  1.00  0.00     0.031 C 
ATOM     57  C   UNL A   1      44.507  27.571  33.875  1.00  0.00     0.031 A 
BRANCH  44  58
ATOM     58  C   UNL A   1      42.909  25.398  28.309  1.00  0.00    -0.014 A 
ATOM     59  C   UNL A   1      43.844  25.572  27.273  1.00  0.00     0.010 A 
ATOM     60  C   UNL A   1      42.211  24.177  28.394  1.00  0.00     0.010 A 
ATOM     61  C   UNL A   1      44.049  24.562  26.325  1.00  0.00     0.020 A 
ATOM     62  C   UNL A   1      42.436  23.152  27.468  1.00  0.00     0.020 A 
ATOM     63  C   UNL A   1      43.344  23.358  26.430  1.00  0.00     0.054 A 
BRANCH  63  64
ATOM     64  S   UNL A   1      43.654  22.055  25.204  1.00  0.00     0.124 S 
ATOM     65  O   UNL A   1      42.596  21.096  25.510  1.00  0.00    -0.237 OA
ATOM     66  O   UNL A   1      43.507  22.768  23.937  1.00  0.00    -0.237 OA
ATOM     67  O   UNL A   1      45.009  21.604  25.509  1.00  0.00    -0.744 OA
ENDBRANCH  63  64
ENDBRANCH  44  58
BRANCH  45  68
ATOM     68  C   UNL A   1      41.136  32.428  35.185  1.00  0.00    -0.014 A 
ATOM     69  C   UNL A   1      41.852  33.632  35.287  1.00  0.00     0.010 A 
ATOM     70  C   UNL A   1      40.065  32.193  36.071  1.00  0.00     0.010 A 
ATOM     71  C   UNL A   1      41.505  34.581  36.253  1.00  0.00     0.020 A 
ATOM     72  C   UNL A   1      39.689  33.155  37.010  1.00  0.00     0.020 A 
ATOM     73  C   UNL A   1      40.418  34.341  37.101  1.00  0.00     0.054 A 
BRANCH  73  74
ATOM     74  S   UNL A   1      39.935  35.622  38.290  1.00  0.00     0.124 S 
ATOM     75  O   UNL A   1      39.604  36.741  37.412  1.00  0.00    -0.237 OA
ATOM     76  O   UNL A   1      38.805  35.003  38.979  1.00  0.00    -0.237 OA
ATOM     77  O   UNL A   1      41.132  35.799  39.109  1.00  0.00    -0.744 OA
ENDBRANCH  73  74
ENDBRANCH  45  68
BRANCH  57  78
ATOM     78  C   UNL A   1      45.565  27.061  34.816  1.00  0.00    -0.014 A 
ATOM     79  C   UNL A   1      46.890  27.527  34.754  1.00  0.00     0.010 A 
ATOM     80  C   UNL A   1      45.217  26.115  35.797  1.00  0.00     0.010 A 
ATOM     81  C   UNL A   1      47.856  27.026  35.630  1.00  0.00     0.020 A 
ATOM     82  C   UNL A   1      46.172  25.635  36.695  1.00  0.00     0.020 A 
ATOM     83  C   UNL A   1      47.490  26.082  36.595  1.00  0.00     0.054 A 
BRANCH  83  84
ATOM     84  S   UNL A   1      48.756  25.471  37.741  1.00  0.00     0.124 S 
ATOM     85  O   UNL A   1      49.990  25.803  37.034  1.00  0.00    -0.237 OA
ATOM     86  O   UNL A   1      48.495  26.248  38.949  1.00  0.00    -0.237 OA
ATOM     87  O   UNL A   1      48.466  24.044  37.849  1.00  0.00    -0.744 OA
ENDBRANCH  83  84
ENDBRANCH  57  78
ENDBRANCH  31  32
ENDBRANCH  24  26
ENDBRANCH  23  24
ENDBRANCH  22  23
ENDBRANCH  21  22
ENDBRANCH   1  21
TORSDOF 20
ENDMDL
MODEL 2
REMARK VINA RESULT:      -8.9      2.759      8.571
REMARK SMILES C[N@H+](CCC(=O)Nc1sccc1C#N)CC(=O)OCCOC(=O)c1ccc(-c2c3nc(c(-c4ccc(S(=O)(=O)[O-])cc4)c4ccc([nH]4)c(-c4ccc(S(=O)(=O)[O-])cc4)c4nc(c(-c5ccc(S(=O)(=O)[O-])cc5)c5ccc2[nH]5)C=C4)C=C3)cc1
REMARK SMILES IDX 18 1 16 2 17 3 15 4 2 5 1 6 3 8 4 9 5 10 6 11 7 12 8 14 9 15
REMARK SMILES IDX 12 16 10 17 11 18 13 19 14 20 19 21 20 22 21 23 22 24 23 25
REMARK SMILES IDX 24 26 25 27 83 28 26 29 82 30 27 31 28 32 29 33 76 34 30 35
REMARK SMILES IDX 81 36 75 37 77 38 31 39 80 40 74 41 73 42 32 44 62 45 43 46
REMARK SMILES IDX 61 47 44 48 47 49 60 50 78 51 45 52 46 53 59 55 79 56 48 57
REMARK SMILES IDX 33 58 34 59 42 60 35 61 41 62 36 63 37 64 38 65 39 66 40 67
REMARK SMILES IDX 63 68 64 69 72 70 65 71 71 72 66 73 67 74 68 75 69 76 70 77
REMARK SMILES IDX 49 78 50 79 58 80 51 81 57 82 52 83 53 84 54 85 55 86 56 87
REMARK H PARENT 2 7 7 13 77 43 47 54
REMARK Flexibility Score: inf
ROOT
ATOM      1  O   UNL A   1      37.187  22.186  24.865  1.00  0.00    -0.458 OA
ENDROOT
BRANCH   1   2
ATOM      2  C   UNL A   1      35.830  22.188  24.947  1.00  0.00     0.361 C 
ATOM      3  O   UNL A   1      35.095  21.366  24.418  1.00  0.00    -0.245 OA
BRANCH   2   4
ATOM      4  C   UNL A   1      35.348  23.305  25.846  1.00  0.00     0.386 C 
BRANCH   4   5
ATOM      5  N   UNL A   1      34.272  24.070  25.201  1.00  0.00    -0.328 N 
ATOM      6  C   UNL A   1      33.027  23.303  25.303  1.00  0.00     0.333 C 
ATOM      7  H   UNL A   1      34.182  24.956  25.698  1.00  0.00     0.348 HD
BRANCH   5   8
ATOM      8  C   UNL A   1      34.558  24.461  23.811  1.00  0.00     0.272 C 
BRANCH   8   9
ATOM      9  C   UNL A   1      33.416  24.486  22.792  1.00  0.00     0.161 C 
BRANCH   9  10
ATOM     10  C   UNL A   1      33.034  25.564  21.778  1.00  0.00     0.230 C 
ATOM     11  O   UNL A   1      33.231  25.277  20.582  1.00  0.00    -0.274 OA
ATOM     12  N   UNL A   1      32.422  26.751  21.974  1.00  0.00    -0.316 N 
ATOM     13  H   UNL A   1      32.072  27.142  21.140  1.00  0.00     0.170 HD
BRANCH  12  14
ATOM     14  C   UNL A   1      32.178  27.532  23.067  1.00  0.00     0.113 A 
ATOM     15  S   UNL A   1      33.619  28.239  23.660  1.00  0.00    -0.125 S 
ATOM     16  C   UNL A   1      31.110  27.848  23.870  1.00  0.00     0.087 A 
ATOM     17  C   UNL A   1      32.742  29.339  24.630  1.00  0.00     0.068 A 
ATOM     18  C   UNL A   1      31.417  28.964  24.720  1.00  0.00     0.033 A 
BRANCH  16  19
ATOM     19  C   UNL A   1      29.868  27.139  23.889  1.00  0.00     0.102 C 
ATOM     20  N   UNL A   1      28.866  26.558  23.904  1.00  0.00    -0.192 NA
ENDBRANCH  16  19
ENDBRANCH  12  14
ENDBRANCH   9  10
ENDBRANCH   8   9
ENDBRANCH   5   8
ENDBRANCH   4   5
ENDBRANCH   2   4
ENDBRANCH   1   2
BRANCH   1  21
ATOM     21  C   UNL A   1      37.863  22.864  25.927  1.00  0.00     0.274 C 
BRANCH  21  22
ATOM     22  C   UNL A   1      39.161  22.126  26.251  1.00  0.00     0.275 C 
BRANCH  22  23
ATOM     23  O   UNL A   1      39.897  22.800  27.296  1.00  0.00    -0.458 OA
BRANCH  23  24
ATOM     24  C   UNL A   1      40.877  23.635  26.874  1.00  0.00     0.338 C 
ATOM     25  O   UNL A   1      41.684  23.422  25.981  1.00  0.00    -0.246 OA
BRANCH  24  26
ATOM     26  C   UNL A   1      40.855  24.920  27.598  1.00  0.00     0.060 A 
ATOM     27  C   UNL A   1      41.964  25.761  27.602  1.00  0.00     0.016 A 
ATOM     28  C   UNL A   1      39.778  25.197  28.441  1.00  0.00     0.016 A 
ATOM     29  C   UNL A   1      42.039  26.806  28.528  1.00  0.00     0.010 A 
ATOM     30  C   UNL A   1      39.812  26.320  29.276  1.00  0.00     0.010 A 
ATOM     31  C   UNL A   1      40.961  27.125  29.367  1.00  0.00    -0.014 A 
BRANCH  31  32
ATOM     32  C   UNL A   1      41.009  28.268  30.338  1.00  0.00     0.031 A 
ATOM     33  C   UNL A   1      41.995  28.249  31.488  1.00  0.00     0.074 A 
ATOM     34  C   UNL A   1      40.153  29.309  30.242  1.00  0.00     0.049 A 
ATOM     35  N   UNL A   1      41.971  28.916  32.615  1.00  0.00    -0.248 NA
ATOM     36  C   UNL A   1      43.150  27.344  31.359  1.00  0.00     0.031 C 
ATOM     37  C   UNL A   1      39.192  29.537  29.160  1.00  0.00     0.029 A 
ATOM     38  N   UNL A   1      39.939  30.371  31.093  1.00  0.00    -0.354 N 
ATOM     39  C   UNL A   1      43.051  28.451  33.362  1.00  0.00     0.074 A 
ATOM     40  C   UNL A   1      43.720  27.453  32.553  1.00  0.00     0.031 C 
ATOM     41  C   UNL A   1      38.518  30.670  29.394  1.00  0.00     0.029 A 
ATOM     42  C   UNL A   1      38.885  31.170  30.710  1.00  0.00     0.049 A 
ATOM     43  H   UNL A   1      40.485  30.543  31.893  1.00  0.00     0.167 HD
ATOM     44  C   UNL A   1      43.437  28.812  34.612  1.00  0.00     0.031 A 
ATOM     45  C   UNL A   1      38.206  32.131  31.367  1.00  0.00     0.031 A 
ATOM     46  C   UNL A   1      42.788  29.842  35.386  1.00  0.00     0.049 A 
ATOM     47  C   UNL A   1      38.590  32.464  32.777  1.00  0.00     0.074 A 
ATOM     48  C   UNL A   1      43.106  30.295  36.656  1.00  0.00     0.029 A 
ATOM     49  N   UNL A   1      41.702  30.592  34.959  1.00  0.00    -0.354 N 
ATOM     50  N   UNL A   1      39.550  31.952  33.509  1.00  0.00    -0.248 NA
ATOM     51  C   UNL A   1      37.790  33.491  33.455  1.00  0.00     0.031 C 
ATOM     52  C   UNL A   1      42.178  31.276  37.018  1.00  0.00     0.029 A 
ATOM     53  C   UNL A   1      41.327  31.488  35.947  1.00  0.00     0.049 A 
ATOM     54  H   UNL A   1      41.263  30.500  34.083  1.00  0.00     0.167 HD
ATOM     55  C   UNL A   1      39.481  32.611  34.730  1.00  0.00     0.074 A 
ATOM     56  C   UNL A   1      38.400  33.570  34.629  1.00  0.00     0.031 C 
ATOM     57  C   UNL A   1      40.247  32.436  35.836  1.00  0.00     0.031 A 
BRANCH  44  58
ATOM     58  C   UNL A   1      44.579  28.060  35.257  1.00  0.00    -0.014 A 
ATOM     59  C   UNL A   1      44.376  26.874  35.985  1.00  0.00     0.010 A 
ATOM     60  C   UNL A   1      45.898  28.517  35.062  1.00  0.00     0.010 A 
ATOM     61  C   UNL A   1      45.463  26.183  36.534  1.00  0.00     0.020 A 
ATOM     62  C   UNL A   1      46.990  27.813  35.582  1.00  0.00     0.020 A 
ATOM     63  C   UNL A   1      46.763  26.657  36.328  1.00  0.00     0.054 A 
BRANCH  63  64
ATOM     64  S   UNL A   1      48.154  25.723  37.027  1.00  0.00     0.124 S 
ATOM     65  O   UNL A   1      49.053  26.794  37.449  1.00  0.00    -0.237 OA
ATOM     66  O   UNL A   1      47.522  24.971  38.108  1.00  0.00    -0.237 OA
ATOM     67  O   UNL A   1      48.632  24.917  35.906  1.00  0.00    -0.744 OA
ENDBRANCH  63  64
ENDBRANCH  44  58
BRANCH  45  68
ATOM     68  C   UNL A   1      37.025  32.769  30.719  1.00  0.00    -0.014 A 
ATOM     69  C   UNL A   1      37.185  33.845  29.830  1.00  0.00     0.010 A 
ATOM     70  C   UNL A   1      35.729  32.266  30.956  1.00  0.00     0.010 A 
ATOM     71  C   UNL A   1      36.075  34.405  29.191  1.00  0.00     0.020 A 
ATOM     72  C   UNL A   1      34.623  32.795  30.288  1.00  0.00     0.020 A 
ATOM     73  C   UNL A   1      34.802  33.869  29.415  1.00  0.00     0.054 A 
BRANCH  73  74
ATOM     74  S   UNL A   1      33.389  34.558  28.511  1.00  0.00     0.124 S 
ATOM     75  O   UNL A   1      32.962  33.418  27.705  1.00  0.00    -0.237 OA
ATOM     76  O   UNL A   1      32.484  34.945  29.590  1.00  0.00    -0.237 OA
ATOM     77  O   UNL A   1      33.970  35.672  27.766  1.00  0.00    -0.744 OA
ENDBRANCH  73  74
ENDBRANCH  45  68
BRANCH  57  78
ATOM     78  C   UNL A   1      39.975  33.342  37.007  1.00  0.00    -0.014 A 
ATOM     79  C   UNL A   1      39.110  32.958  38.047  1.00  0.00     0.010 A 
ATOM     80  C   UNL A   1      40.619  34.590  37.076  1.00  0.00     0.010 A 
ATOM     81  C   UNL A   1      38.864  33.824  39.115  1.00  0.00     0.020 A 
ATOM     82  C   UNL A   1      40.401  35.446  38.158  1.00  0.00     0.020 A 
ATOM     83  C   UNL A   1      39.512  35.063  39.163  1.00  0.00     0.054 A 
BRANCH  83  84
ATOM     84  S   UNL A   1      39.199  36.156  40.576  1.00  0.00     0.124 S 
ATOM     85  O   UNL A   1      40.528  36.267  41.173  1.00  0.00    -0.237 OA
ATOM     86  O   UNL A   1      38.693  37.367  39.937  1.00  0.00    -0.237 OA
ATOM     87  O   UNL A   1      38.220  35.421  41.373  1.00  0.00    -0.744 OA
ENDBRANCH  83  84
ENDBRANCH  57  78
ENDBRANCH  31  32
ENDBRANCH  24  26
ENDBRANCH  23  24
ENDBRANCH  22  23
ENDBRANCH  21  22
ENDBRANCH   1  21
TORSDOF 20
ENDMDL
MODEL 3
REMARK VINA RESULT:      -8.7      5.497     11.088
REMARK SMILES C[N@H+](CCC(=O)Nc1sccc1C#N)CC(=O)OCCOC(=O)c1ccc(-c2c3nc(c(-c4ccc(S(=O)(=O)[O-])cc4)c4ccc([nH]4)c(-c4ccc(S(=O)(=O)[O-])cc4)c4nc(c(-c5ccc(S(=O)(=O)[O-])cc5)c5ccc2[nH]5)C=C4)C=C3)cc1
REMARK SMILES IDX 18 1 16 2 17 3 15 4 2 5 1 6 3 8 4 9 5 10 6 11 7 12 8 14 9 15
REMARK SMILES IDX 12 16 10 17 11 18 13 19 14 20 19 21 20 22 21 23 22 24 23 25
REMARK SMILES IDX 24 26 25 27 83 28 26 29 82 30 27 31 28 32 29 33 76 34 30 35
REMARK SMILES IDX 81 36 75 37 77 38 31 39 80 40 74 41 73 42 32 44 62 45 43 46
REMARK SMILES IDX 61 47 44 48 47 49 60 50 78 51 45 52 46 53 59 55 79 56 48 57
REMARK SMILES IDX 33 58 34 59 42 60 35 61 41 62 36 63 37 64 38 65 39 66 40 67
REMARK SMILES IDX 63 68 64 69 72 70 65 71 71 72 66 73 67 74 68 75 69 76 70 77
REMARK SMILES IDX 49 78 50 79 58 80 51 81 57 82 52 83 53 84 54 85 55 86 56 87
REMARK H PARENT 2 7 7 13 77 43 47 54
REMARK Flexibility Score: inf
ROOT
ATOM      1  O   UNL A   1      34.138  33.579  28.024  1.00  0.00    -0.458 OA
ENDROOT
BRANCH   1   2
ATOM      2  C   UNL A   1      34.159  34.196  29.235  1.00  0.00     0.361 C 
ATOM      3  O   UNL A   1      33.169  34.578  29.844  1.00  0.00    -0.245 OA
BRANCH   2   4
ATOM      4  C   UNL A   1      35.572  34.283  29.769  1.00  0.00     0.386 C 
BRANCH   4   5
ATOM      5  N   UNL A   1      35.708  33.518  31.016  1.00  0.00    -0.328 N 
ATOM      6  C   UNL A   1      34.938  32.277  30.891  1.00  0.00     0.333 C 
ATOM      7  H   UNL A   1      36.698  33.307  31.142  1.00  0.00     0.348 HD
BRANCH   5   8
ATOM      8  C   UNL A   1      35.339  34.268  32.228  1.00  0.00     0.272 C 
BRANCH   8   9
ATOM      9  C   UNL A   1      36.342  34.363  33.382  1.00  0.00     0.161 C 
BRANCH   9  10
ATOM     10  C   UNL A   1      36.551  33.431  34.575  1.00  0.00     0.230 C 
ATOM     11  O   UNL A   1      35.807  33.629  35.554  1.00  0.00    -0.274 OA
ATOM     12  N   UNL A   1      37.359  32.357  34.695  1.00  0.00    -0.316 N 
ATOM     13  H   UNL A   1      37.128  31.790  35.467  1.00  0.00     0.170 HD
BRANCH  12  14
ATOM     14  C   UNL A   1      38.426  31.879  33.991  1.00  0.00     0.113 A 
ATOM     15  S   UNL A   1      39.527  33.129  33.602  1.00  0.00    -0.125 S 
ATOM     16  C   UNL A   1      38.824  30.686  33.438  1.00  0.00     0.087 A 
ATOM     17  C   UNL A   1      40.737  32.002  33.172  1.00  0.00     0.068 A 
ATOM     18  C   UNL A   1      40.204  30.736  33.043  1.00  0.00     0.033 A 
BRANCH  16  19
ATOM     19  C   UNL A   1      37.972  29.554  33.245  1.00  0.00     0.102 C 
ATOM     20  N   UNL A   1      37.286  28.632  33.093  1.00  0.00    -0.192 NA
ENDBRANCH  16  19
ENDBRANCH  12  14
ENDBRANCH   9  10
ENDBRANCH   8   9
ENDBRANCH   5   8
ENDBRANCH   4   5
ENDBRANCH   2   4
ENDBRANCH   1   2
BRANCH   1  21
ATOM     21  C   UNL A   1      32.936  32.866  27.724  1.00  0.00     0.274 C 
BRANCH  21  22
ATOM     22  C   UNL A   1      33.252  31.376  27.598  1.00  0.00     0.275 C 
BRANCH  22  23
ATOM     23  O   UNL A   1      34.678  31.140  27.649  1.00  0.00    -0.458 OA
BRANCH  23  24
ATOM     24  C   UNL A   1      35.050  29.887  28.005  1.00  0.00     0.338 C 
ATOM     25  O   UNL A   1      34.320  28.913  28.118  1.00  0.00    -0.246 OA
BRANCH  24  26
ATOM     26  C   UNL A   1      36.507  29.782  28.211  1.00  0.00     0.060 A 
ATOM     27  C   UNL A   1      37.398  30.008  27.167  1.00  0.00     0.016 A 
ATOM     28  C   UNL A   1      36.976  29.264  29.419  1.00  0.00     0.016 A 
ATOM     29  C   UNL A   1      38.732  29.608  27.296  1.00  0.00     0.010 A 
ATOM     30  C   UNL A   1      38.339  28.985  29.579  1.00  0.00     0.010 A 
ATOM     31  C   UNL A   1      39.238  29.112  28.506  1.00  0.00    -0.014 A 
BRANCH  31  32
ATOM     32  C   UNL A   1      40.676  28.717  28.673  1.00  0.00     0.031 A 
ATOM     33  C   UNL A   1      41.714  29.759  29.037  1.00  0.00     0.074 A 
ATOM     34  C   UNL A   1      41.087  27.448  28.460  1.00  0.00     0.049 A 
ATOM     35  N   UNL A   1      43.015  29.728  28.880  1.00  0.00    -0.248 NA
ATOM     36  C   UNL A   1      41.220  31.009  29.639  1.00  0.00     0.031 C 
ATOM     37  C   UNL A   1      40.223  26.298  28.181  1.00  0.00     0.029 A 
ATOM     38  N   UNL A   1      42.356  26.913  28.422  1.00  0.00    -0.354 N 
ATOM     39  C   UNL A   1      43.482  30.977  29.280  1.00  0.00     0.074 A 
ATOM     40  C   UNL A   1      42.326  31.740  29.701  1.00  0.00     0.031 C 
ATOM     41  C   UNL A   1      40.974  25.201  28.031  1.00  0.00     0.029 A 
ATOM     42  C   UNL A   1      42.376  25.588  28.050  1.00  0.00     0.049 A 
ATOM     43  H   UNL A   1      43.167  27.426  28.641  1.00  0.00     0.167 HD
ATOM     44  C   UNL A   1      44.755  31.447  29.279  1.00  0.00     0.031 A 
ATOM     45  C   UNL A   1      43.385  24.783  27.662  1.00  0.00     0.031 A 
ATOM     46  C   UNL A   1      45.902  30.658  28.901  1.00  0.00     0.049 A 
ATOM     47  C   UNL A   1      44.776  25.338  27.587  1.00  0.00     0.074 A 
ATOM     48  C   UNL A   1      47.236  31.032  28.877  1.00  0.00     0.029 A 
ATOM     49  N   UNL A   1      45.856  29.331  28.498  1.00  0.00    -0.354 N 
ATOM     50  N   UNL A   1      45.194  26.547  27.874  1.00  0.00    -0.248 NA
ATOM     51  C   UNL A   1      45.827  24.425  27.121  1.00  0.00     0.031 C 
ATOM     52  C   UNL A   1      47.987  29.951  28.405  1.00  0.00     0.029 A 
ATOM     53  C   UNL A   1      47.133  28.880  28.205  1.00  0.00     0.049 A 
ATOM     54  H   UNL A   1      45.037  28.790  28.430  1.00  0.00     0.167 HD
ATOM     55  C   UNL A   1      46.564  26.534  27.642  1.00  0.00     0.074 A 
ATOM     56  C   UNL A   1      46.904  25.193  27.210  1.00  0.00     0.031 C 
ATOM     57  C   UNL A   1      47.459  27.544  27.774  1.00  0.00     0.031 A 
BRANCH  44  58
ATOM     58  C   UNL A   1      44.987  32.897  29.644  1.00  0.00    -0.014 A 
ATOM     59  C   UNL A   1      45.109  33.320  30.979  1.00  0.00     0.010 A 
ATOM     60  C   UNL A   1      45.160  33.843  28.614  1.00  0.00     0.010 A 
ATOM     61  C   UNL A   1      45.363  34.664  31.277  1.00  0.00     0.020 A 
ATOM     62  C   UNL A   1      45.446  35.182  28.907  1.00  0.00     0.020 A 
ATOM     63  C   UNL A   1      45.531  35.586  30.239  1.00  0.00     0.054 A 
BRANCH  63  64
ATOM     64  S   UNL A   1      45.889  37.316  30.656  1.00  0.00     0.124 S 
ATOM     65  O   UNL A   1      44.783  38.017  30.010  1.00  0.00    -0.237 OA
ATOM     66  O   UNL A   1      45.858  37.305  32.116  1.00  0.00    -0.237 OA
ATOM     67  O   UNL A   1      47.204  37.553  30.065  1.00  0.00    -0.744 OA
ENDBRANCH  63  64
ENDBRANCH  44  58
BRANCH  45  68
ATOM     68  C   UNL A   1      43.086  23.392  27.217  1.00  0.00    -0.014 A 
ATOM     69  C   UNL A   1      43.099  23.054  25.853  1.00  0.00     0.010 A 
ATOM     70  C   UNL A   1      42.829  22.383  28.168  1.00  0.00     0.010 A 
ATOM     71  C   UNL A   1      42.864  21.737  25.449  1.00  0.00     0.020 A 
ATOM     72  C   UNL A   1      42.635  21.059  27.771  1.00  0.00     0.020 A 
ATOM     73  C   UNL A   1      42.644  20.745  26.411  1.00  0.00     0.054 A 
BRANCH  73  74
ATOM     74  S   UNL A   1      42.425  19.030  25.867  1.00  0.00     0.124 S 
ATOM     75  O   UNL A   1      42.920  18.282  27.019  1.00  0.00    -0.237 OA
ATOM     76  O   UNL A   1      40.985  18.955  25.636  1.00  0.00    -0.237 OA
ATOM     77  O   UNL A   1      43.246  18.944  24.662  1.00  0.00    -0.744 OA
ENDBRANCH  73  74
ENDBRANCH  45  68
BRANCH  57  78
ATOM     78  C   UNL A   1      48.903  27.219  27.501  1.00  0.00    -0.014 A 
ATOM     79  C   UNL A   1      49.440  27.296  26.204  1.00  0.00     0.010 A 
ATOM     80  C   UNL A   1      49.741  26.855  28.570  1.00  0.00     0.010 A 
ATOM     81  C   UNL A   1      50.781  26.975  25.976  1.00  0.00     0.020 A 
ATOM     82  C   UNL A   1      51.089  26.564  28.352  1.00  0.00     0.020 A 
ATOM     83  C   UNL A   1      51.596  26.611  27.052  1.00  0.00     0.054 A 
BRANCH  83  84
ATOM     84  S   UNL A   1      53.341  26.230  26.734  1.00  0.00     0.124 S 
ATOM     85  O   UNL A   1      54.008  26.928  27.829  1.00  0.00    -0.237 OA
ATOM     86  O   UNL A   1      53.367  24.771  26.809  1.00  0.00    -0.237 OA
ATOM     87  O   UNL A   1      53.580  26.785  25.404  1.00  0.00    -0.744 OA
ENDBRANCH  83  84
ENDBRANCH  57  78
ENDBRANCH  31  32
ENDBRANCH  24  26
ENDBRANCH  23  24
ENDBRANCH  22  23
ENDBRANCH  21  22
ENDBRANCH   1  21
TORSDOF 20
ENDMDL
