MODEL 1
REMARK VINA RESULT:     -11.3      0.000      0.000
REMARK SMILES CC(=O)N1CCN(C(=O)c2ccc(=O)n(CCC(=O)OCCOC(=O)c3ccc(-c4c5nc(c(-c6ccc(S(=O)(=O)[O-])cc6)c6ccc([nH]6)c(-c6ccc(S(=O)(=O)[O-])cc6)c6nc(c(-c7ccc(S(=O)(=O)[O-])cc7)c7ccc4[nH]7)C=C6)C=C5)cc3)n2)CC1
REMARK SMILES IDX 21 1 20 2 18 3 19 4 17 5 16 6 15 7 10 8 11 9 86 10 12 11
REMARK SMILES IDX 13 12 14 13 8 14 1 15 2 16 3 17 4 18 5 19 88 20 6 21 87 22
REMARK SMILES IDX 7 23 9 24 22 25 23 26 24 27 25 28 26 29 27 30 85 31 28 32
REMARK SMILES IDX 84 33 29 34 30 35 31 36 78 37 32 38 83 39 77 40 79 41 33 42
REMARK SMILES IDX 82 43 76 44 75 45 34 47 64 48 45 49 63 50 46 51 49 52 62 53
REMARK SMILES IDX 80 54 47 55 48 56 61 58 81 59 50 60 35 61 36 62 44 63 37 64
REMARK SMILES IDX 43 65 38 66 39 67 40 68 41 69 42 70 65 71 66 72 74 73 67 74
REMARK SMILES IDX 73 75 68 76 69 77 70 78 71 79 72 80 51 81 52 82 60 83 53 84
REMARK SMILES IDX 59 85 54 86 55 87 56 88 57 89 58 90
REMARK H PARENT 79 46 49 57
REMARK Flexibility Score: inf
ROOT
ATOM      1  C   UNL A   1      32.306  29.443  25.353  1.00  0.00     0.274 C 
ENDROOT
BRANCH   1   2
ATOM      2  O   UNL A   1      32.072  28.079  24.956  1.00  0.00    -0.462 OA
BRANCH   2   3
ATOM      3  C   UNL A   1      31.958  27.818  23.634  1.00  0.00     0.307 C 
ATOM      4  O   UNL A   1      31.801  28.670  22.768  1.00  0.00    -0.252 OA
BRANCH   3   5
ATOM      5  C   UNL A   1      31.973  26.338  23.332  1.00  0.00     0.146 C 
BRANCH   5   6
ATOM      6  C   UNL A   1      30.648  25.618  23.586  1.00  0.00     0.160 C 
BRANCH   6   7
ATOM      7  N   UNL A   1      30.753  24.648  24.674  1.00  0.00    -0.229 N 
ATOM      8  C   UNL A   1      31.395  22.566  25.302  1.00  0.00     0.149 A 
ATOM      9  C   UNL A   1      30.540  22.581  26.498  1.00  0.00     0.042 A 
ATOM     10  N   UNL A   1      31.438  23.483  24.387  1.00  0.00    -0.164 NA
ATOM     11  C   UNL A   1      30.022  23.767  26.810  1.00  0.00     0.076 A 
ATOM     12  C   UNL A   1      30.287  24.944  25.955  1.00  0.00     0.266 A 
ATOM     13  O   UNL A   1      30.023  26.049  26.406  1.00  0.00    -0.268 OA
BRANCH   8  14
ATOM     14  C   UNL A   1      32.365  21.414  25.218  1.00  0.00     0.274 C 
ATOM     15  C   UNL A   1      38.090  23.665  26.381  1.00  0.00     0.114 C 
ATOM     16  C   UNL A   1      37.700  22.453  25.575  1.00  0.00     0.219 C 
ATOM     17  O   UNL A   1      38.508  21.536  25.420  1.00  0.00    -0.275 OA
ATOM     18  N   UNL A   1      36.401  22.383  25.110  1.00  0.00    -0.339 N 
ATOM     19  C   UNL A   1      35.881  21.101  24.620  1.00  0.00     0.141 C 
ATOM     20  C   UNL A   1      35.402  23.461  25.144  1.00  0.00     0.141 C 
ATOM     21  C   UNL A   1      34.695  20.657  25.491  1.00  0.00     0.141 C 
ATOM     22  C   UNL A   1      34.178  23.038  25.971  1.00  0.00     0.141 C 
ATOM     23  N   UNL A   1      33.679  21.711  25.556  1.00  0.00    -0.334 N 
ATOM     24  O   UNL A   1      31.931  20.308  24.926  1.00  0.00    -0.267 OA
ENDBRANCH   8  14
ENDBRANCH   6   7
ENDBRANCH   5   6
ENDBRANCH   3   5
ENDBRANCH   2   3
ENDBRANCH   1   2
BRANCH   1  25
ATOM     25  C   UNL A   1      32.455  29.578  26.870  1.00  0.00     0.275 C 
BRANCH  25  26
ATOM     26  O   UNL A   1      33.827  29.429  27.265  1.00  0.00    -0.458 OA
BRANCH  26  27
ATOM     27  C   UNL A   1      34.419  30.522  27.795  1.00  0.00     0.338 C 
ATOM     28  O   UNL A   1      33.951  31.622  27.999  1.00  0.00    -0.246 OA
BRANCH  27  29
ATOM     29  C   UNL A   1      35.774  30.151  28.196  1.00  0.00     0.060 A 
ATOM     30  C   UNL A   1      36.811  30.280  27.277  1.00  0.00     0.016 A 
ATOM     31  C   UNL A   1      36.001  29.700  29.499  1.00  0.00     0.016 A 
ATOM     32  C   UNL A   1      38.090  29.897  27.655  1.00  0.00     0.010 A 
ATOM     33  C   UNL A   1      37.285  29.339  29.883  1.00  0.00     0.010 A 
ATOM     34  C   UNL A   1      38.332  29.414  28.954  1.00  0.00    -0.014 A 
BRANCH  34  35
ATOM     35  C   UNL A   1      39.693  28.987  29.330  1.00  0.00     0.031 A 
ATOM     36  C   UNL A   1      40.528  29.841  30.233  1.00  0.00     0.074 A 
ATOM     37  C   UNL A   1      40.146  27.804  28.877  1.00  0.00     0.049 A 
ATOM     38  N   UNL A   1      41.692  29.574  30.763  1.00  0.00    -0.248 NA
ATOM     39  C   UNL A   1      39.993  31.166  30.586  1.00  0.00     0.031 C 
ATOM     40  C   UNL A   1      39.403  26.918  27.979  1.00  0.00     0.029 A 
ATOM     41  N   UNL A   1      41.312  27.133  29.128  1.00  0.00    -0.354 N 
ATOM     42  C   UNL A   1      42.017  30.683  31.533  1.00  0.00     0.074 A 
ATOM     43  C   UNL A   1      40.966  31.658  31.339  1.00  0.00     0.031 C 
ATOM     44  C   UNL A   1      40.111  25.794  27.796  1.00  0.00     0.029 A 
ATOM     45  C   UNL A   1      41.370  25.898  28.529  1.00  0.00     0.049 A 
ATOM     46  H   UNL A   1      42.039  27.499  29.683  1.00  0.00     0.167 HD
ATOM     47  C   UNL A   1      43.079  30.853  32.353  1.00  0.00     0.031 A 
ATOM     48  C   UNL A   1      42.323  24.945  28.577  1.00  0.00     0.031 A 
ATOM     49  C   UNL A   1      44.126  29.874  32.506  1.00  0.00     0.049 A 
ATOM     50  C   UNL A   1      43.524  25.172  29.450  1.00  0.00     0.074 A 
ATOM     51  C   UNL A   1      45.249  29.938  33.308  1.00  0.00     0.029 A 
ATOM     52  N   UNL A   1      44.179  28.655  31.839  1.00  0.00    -0.354 N 
ATOM     53  N   UNL A   1      43.796  26.203  30.215  1.00  0.00    -0.248 NA
ATOM     54  C   UNL A   1      44.536  24.110  29.484  1.00  0.00     0.031 C 
ATOM     55  C   UNL A   1      46.018  28.796  33.070  1.00  0.00     0.029 A 
ATOM     56  C   UNL A   1      45.332  27.974  32.189  1.00  0.00     0.049 A 
ATOM     57  H   UNL A   1      43.498  28.325  31.210  1.00  0.00     0.167 HD
ATOM     58  C   UNL A   1      45.004  25.911  30.835  1.00  0.00     0.074 A 
ATOM     59  C   UNL A   1      45.400  24.595  30.369  1.00  0.00     0.031 C 
ATOM     60  C   UNL A   1      45.718  26.666  31.708  1.00  0.00     0.031 A 
BRANCH  47  61
ATOM     61  C   UNL A   1      43.158  32.129  33.155  1.00  0.00    -0.014 A 
ATOM     62  C   UNL A   1      42.530  32.219  34.410  1.00  0.00     0.010 A 
ATOM     63  C   UNL A   1      43.794  33.271  32.630  1.00  0.00     0.010 A 
ATOM     64  C   UNL A   1      42.519  33.426  35.116  1.00  0.00     0.020 A 
ATOM     65  C   UNL A   1      43.817  34.469  33.350  1.00  0.00     0.020 A 
ATOM     66  C   UNL A   1      43.161  34.546  34.579  1.00  0.00     0.054 A 
BRANCH  66  67
ATOM     67  S   UNL A   1      43.140  36.102  35.511  1.00  0.00     0.124 S 
ATOM     68  O   UNL A   1      43.044  35.635  36.890  1.00  0.00    -0.237 OA
ATOM     69  O   UNL A   1      44.413  36.715  35.139  1.00  0.00    -0.237 OA
ATOM     70  O   UNL A   1      41.957  36.791  35.000  1.00  0.00    -0.744 OA
ENDBRANCH  66  67
ENDBRANCH  47  61
BRANCH  48  71
ATOM     71  C   UNL A   1      42.097  23.682  27.822  1.00  0.00    -0.014 A 
ATOM     72  C   UNL A   1      41.333  22.645  28.394  1.00  0.00     0.010 A 
ATOM     73  C   UNL A   1      42.782  23.440  26.619  1.00  0.00     0.010 A 
ATOM     74  C   UNL A   1      41.336  21.367  27.830  1.00  0.00     0.020 A 
ATOM     75  C   UNL A   1      42.761  22.170  26.033  1.00  0.00     0.020 A 
ATOM     76  C   UNL A   1      42.073  21.132  26.666  1.00  0.00     0.054 A 
BRANCH  76  77
ATOM     77  S   UNL A   1      42.174  19.434  26.034  1.00  0.00     0.124 S 
ATOM     78  O   UNL A   1      43.096  19.588  24.911  1.00  0.00    -0.237 OA
ATOM     79  O   UNL A   1      42.697  18.699  27.182  1.00  0.00    -0.237 OA
ATOM     80  O   UNL A   1      40.795  19.121  25.670  1.00  0.00    -0.744 OA
ENDBRANCH  76  77
ENDBRANCH  48  71
BRANCH  60  81
ATOM     81  C   UNL A   1      47.023  26.114  32.225  1.00  0.00    -0.014 A 
ATOM     82  C   UNL A   1      48.189  26.230  31.442  1.00  0.00     0.010 A 
ATOM     83  C   UNL A   1      47.062  25.337  33.396  1.00  0.00     0.010 A 
ATOM     84  C   UNL A   1      49.349  25.535  31.789  1.00  0.00     0.020 A 
ATOM     85  C   UNL A   1      48.233  24.670  33.766  1.00  0.00     0.020 A 
ATOM     86  C   UNL A   1      49.359  24.747  32.942  1.00  0.00     0.054 A 
BRANCH  86  87
ATOM     87  S   UNL A   1      50.851  23.794  33.334  1.00  0.00     0.124 S 
ATOM     88  O   UNL A   1      50.886  23.862  34.792  1.00  0.00    -0.237 OA
ATOM     89  O   UNL A   1      50.548  22.480  32.771  1.00  0.00    -0.237 OA
ATOM     90  O   UNL A   1      51.915  24.526  32.650  1.00  0.00    -0.744 OA
ENDBRANCH  86  87
ENDBRANCH  60  81
ENDBRANCH  34  35
ENDBRANCH  27  29
ENDBRANCH  26  27
ENDBRANCH  25  26
ENDBRANCH   1  25
TORSDOF 17
ENDMDL
MODEL 2
REMARK VINA RESULT:     -10.6      4.042     10.349
REMARK SMILES CC(=O)N1CCN(C(=O)c2ccc(=O)n(CCC(=O)OCCOC(=O)c3ccc(-c4c5nc(c(-c6ccc(S(=O)(=O)[O-])cc6)c6ccc([nH]6)c(-c6ccc(S(=O)(=O)[O-])cc6)c6nc(c(-c7ccc(S(=O)(=O)[O-])cc7)c7ccc4[nH]7)C=C6)C=C5)cc3)n2)CC1
REMARK SMILES IDX 21 1 20 2 18 3 19 4 17 5 16 6 15 7 10 8 11 9 86 10 12 11
REMARK SMILES IDX 13 12 14 13 8 14 1 15 2 16 3 17 4 18 5 19 88 20 6 21 87 22
REMARK SMILES IDX 7 23 9 24 22 25 23 26 24 27 25 28 26 29 27 30 85 31 28 32
REMARK SMILES IDX 84 33 29 34 30 35 31 36 78 37 32 38 83 39 77 40 79 41 33 42
REMARK SMILES IDX 82 43 76 44 75 45 34 47 64 48 45 49 63 50 46 51 49 52 62 53
REMARK SMILES IDX 80 54 47 55 48 56 61 58 81 59 50 60 35 61 36 62 44 63 37 64
REMARK SMILES IDX 43 65 38 66 39 67 40 68 41 69 42 70 65 71 66 72 74 73 67 74
REMARK SMILES IDX 73 75 68 76 69 77 70 78 71 79 72 80 51 81 52 82 60 83 53 84
REMARK SMILES IDX 59 85 54 86 55 87 56 88 57 89 58 90
REMARK H PARENT 79 46 49 57
REMARK Flexibility Score: inf
ROOT
ATOM      1  C   UNL A   1      36.889  23.525  26.242  1.00  0.00     0.274 C 
ENDROOT
BRANCH   1   2
ATOM      2  O   UNL A   1      36.007  23.957  25.190  1.00  0.00    -0.462 OA
BRANCH   2   3
ATOM      3  C   UNL A   1      35.592  23.032  24.295  1.00  0.00     0.307 C 
ATOM      4  O   UNL A   1      35.815  21.831  24.382  1.00  0.00    -0.252 OA
BRANCH   3   5
ATOM      5  C   UNL A   1      34.872  23.646  23.117  1.00  0.00     0.146 C 
BRANCH   5   6
ATOM      6  C   UNL A   1      33.378  23.331  23.044  1.00  0.00     0.160 C 
BRANCH   6   7
ATOM      7  N   UNL A   1      32.625  23.997  24.104  1.00  0.00    -0.229 N 
ATOM      8  C   UNL A   1      32.011  25.969  25.040  1.00  0.00     0.149 A 
ATOM      9  C   UNL A   1      31.674  25.340  26.326  1.00  0.00     0.042 A 
ATOM     10  N   UNL A   1      32.546  25.374  24.020  1.00  0.00    -0.164 NA
ATOM     11  C   UNL A   1      31.623  24.009  26.310  1.00  0.00     0.076 A 
ATOM     12  C   UNL A   1      31.934  23.267  25.070  1.00  0.00     0.266 A 
ATOM     13  O   UNL A   1      31.624  22.085  25.019  1.00  0.00    -0.268 OA
BRANCH   8  14
ATOM     14  C   UNL A   1      31.592  27.411  24.899  1.00  0.00     0.274 C 
ATOM     15  C   UNL A   1      35.798  30.912  27.940  1.00  0.00     0.114 C 
ATOM     16  C   UNL A   1      34.351  31.216  27.652  1.00  0.00     0.219 C 
ATOM     17  O   UNL A   1      33.967  32.386  27.619  1.00  0.00    -0.275 OA
ATOM     18  N   UNL A   1      33.521  30.155  27.347  1.00  0.00    -0.339 N 
ATOM     19  C   UNL A   1      32.211  30.419  26.740  1.00  0.00     0.141 C 
ATOM     20  C   UNL A   1      33.849  28.727  27.468  1.00  0.00     0.141 C 
ATOM     21  C   UNL A   1      32.145  29.770  25.348  1.00  0.00     0.141 C 
ATOM     22  C   UNL A   1      33.751  28.032  26.100  1.00  0.00     0.141 C 
ATOM     23  N   UNL A   1      32.475  28.345  25.427  1.00  0.00    -0.334 N 
ATOM     24  O   UNL A   1      30.560  27.660  24.292  1.00  0.00    -0.267 OA
ENDBRANCH   8  14
ENDBRANCH   6   7
ENDBRANCH   5   6
ENDBRANCH   3   5
ENDBRANCH   2   3
ENDBRANCH   1   2
BRANCH   1  25
ATOM     25  C   UNL A   1      38.304  24.082  26.064  1.00  0.00     0.275 C 
BRANCH  25  26
ATOM     26  O   UNL A   1      38.748  24.739  27.260  1.00  0.00    -0.458 OA
BRANCH  26  27
ATOM     27  C   UNL A   1      39.718  25.668  27.107  1.00  0.00     0.338 C 
ATOM     28  O   UNL A   1      40.409  25.900  26.137  1.00  0.00    -0.246 OA
BRANCH  27  29
ATOM     29  C   UNL A   1      39.771  26.470  28.326  1.00  0.00     0.060 A 
ATOM     30  C   UNL A   1      38.942  26.137  29.393  1.00  0.00     0.016 A 
ATOM     31  C   UNL A   1      40.672  27.537  28.402  1.00  0.00     0.016 A 
ATOM     32  C   UNL A   1      38.976  26.922  30.536  1.00  0.00     0.010 A 
ATOM     33  C   UNL A   1      40.720  28.308  29.556  1.00  0.00     0.010 A 
ATOM     34  C   UNL A   1      39.855  28.018  30.620  1.00  0.00    -0.014 A 
BRANCH  34  35
ATOM     35  C   UNL A   1      39.859  28.857  31.833  1.00  0.00     0.031 A 
ATOM     36  C   UNL A   1      40.955  28.716  32.843  1.00  0.00     0.074 A 
ATOM     37  C   UNL A   1      38.883  29.770  31.989  1.00  0.00     0.049 A 
ATOM     38  N   UNL A   1      41.188  29.444  33.903  1.00  0.00    -0.248 NA
ATOM     39  C   UNL A   1      41.914  27.617  32.643  1.00  0.00     0.031 C 
ATOM     40  C   UNL A   1      37.768  29.961  31.060  1.00  0.00     0.029 A 
ATOM     41  N   UNL A   1      38.688  30.720  32.954  1.00  0.00    -0.354 N 
ATOM     42  C   UNL A   1      42.332  28.910  34.481  1.00  0.00     0.074 A 
ATOM     43  C   UNL A   1      42.702  27.750  33.700  1.00  0.00     0.031 C 
ATOM     44  C   UNL A   1      37.032  31.003  31.475  1.00  0.00     0.029 A 
ATOM     45  C   UNL A   1      37.600  31.525  32.716  1.00  0.00     0.049 A 
ATOM     46  H   UNL A   1      39.269  30.817  33.744  1.00  0.00     0.167 HD
ATOM     47  C   UNL A   1      43.026  29.372  35.546  1.00  0.00     0.031 A 
ATOM     48  C   UNL A   1      37.121  32.577  33.408  1.00  0.00     0.031 A 
ATOM     49  C   UNL A   1      42.620  30.516  36.322  1.00  0.00     0.049 A 
ATOM     50  C   UNL A   1      37.874  33.044  34.620  1.00  0.00     0.074 A 
ATOM     51  C   UNL A   1      43.246  31.073  37.420  1.00  0.00     0.029 A 
ATOM     52  N   UNL A   1      41.479  31.274  36.083  1.00  0.00    -0.354 N 
ATOM     53  N   UNL A   1      38.984  32.564  35.129  1.00  0.00    -0.248 NA
ATOM     54  C   UNL A   1      37.328  34.198  35.344  1.00  0.00     0.031 C 
ATOM     55  C   UNL A   1      42.447  32.118  37.890  1.00  0.00     0.029 A 
ATOM     56  C   UNL A   1      41.368  32.275  37.033  1.00  0.00     0.049 A 
ATOM     57  H   UNL A   1      40.844  31.122  35.347  1.00  0.00     0.167 HD
ATOM     58  C   UNL A   1      39.282  33.364  36.224  1.00  0.00     0.074 A 
ATOM     59  C   UNL A   1      38.242  34.374  36.293  1.00  0.00     0.031 C 
ATOM     60  C   UNL A   1      40.319  33.268  37.093  1.00  0.00     0.031 A 
BRANCH  47  61
ATOM     61  C   UNL A   1      44.300  28.654  35.926  1.00  0.00    -0.014 A 
ATOM     62  C   UNL A   1      44.270  27.597  36.851  1.00  0.00     0.010 A 
ATOM     63  C   UNL A   1      45.544  29.079  35.419  1.00  0.00     0.010 A 
ATOM     64  C   UNL A   1      45.456  26.990  37.278  1.00  0.00     0.020 A 
ATOM     65  C   UNL A   1      46.728  28.450  35.815  1.00  0.00     0.020 A 
ATOM     66  C   UNL A   1      46.679  27.424  36.758  1.00  0.00     0.054 A 
BRANCH  66  67
ATOM     67  S   UNL A   1      48.207  26.623  37.320  1.00  0.00     0.124 S 
ATOM     68  O   UNL A   1      48.639  27.505  38.399  1.00  0.00    -0.237 OA
ATOM     69  O   UNL A   1      47.740  25.300  37.734  1.00  0.00    -0.237 OA
ATOM     70  O   UNL A   1      49.054  26.627  36.130  1.00  0.00    -0.744 OA
ENDBRANCH  66  67
ENDBRANCH  47  61
BRANCH  48  71
ATOM     71  C   UNL A   1      35.911  33.273  32.888  1.00  0.00    -0.014 A 
ATOM     72  C   UNL A   1      36.046  34.327  31.963  1.00  0.00     0.010 A 
ATOM     73  C   UNL A   1      34.647  33.009  33.441  1.00  0.00     0.010 A 
ATOM     74  C   UNL A   1      34.964  35.161  31.674  1.00  0.00     0.020 A 
ATOM     75  C   UNL A   1      33.552  33.823  33.129  1.00  0.00     0.020 A 
ATOM     76  C   UNL A   1      33.729  34.919  32.281  1.00  0.00     0.054 A 
BRANCH  76  77
ATOM     77  S   UNL A   1      32.379  36.098  32.000  1.00  0.00     0.124 S 
ATOM     78  O   UNL A   1      32.322  36.143  30.540  1.00  0.00    -0.237 OA
ATOM     79  O   UNL A   1      31.248  35.447  32.654  1.00  0.00    -0.237 OA
ATOM     80  O   UNL A   1      32.851  37.320  32.643  1.00  0.00    -0.744 OA
ENDBRANCH  76  77
ENDBRANCH  48  71
BRANCH  60  81
ATOM     81  C   UNL A   1      40.399  34.268  38.221  1.00  0.00    -0.014 A 
ATOM     82  C   UNL A   1      39.879  33.933  39.486  1.00  0.00     0.010 A 
ATOM     83  C   UNL A   1      40.829  35.585  37.985  1.00  0.00     0.010 A 
ATOM     84  C   UNL A   1      39.734  34.909  40.475  1.00  0.00     0.020 A 
ATOM     85  C   UNL A   1      40.720  36.556  38.984  1.00  0.00     0.020 A 
ATOM     86  C   UNL A   1      40.142  36.219  40.211  1.00  0.00     0.054 A 
BRANCH  86  87
ATOM     87  S   UNL A   1      39.877  37.486  41.481  1.00  0.00     0.124 S 
ATOM     88  O   UNL A   1      39.169  36.741  42.517  1.00  0.00    -0.237 OA
ATOM     89  O   UNL A   1      41.241  37.892  41.816  1.00  0.00    -0.237 OA
ATOM     90  O   UNL A   1      39.086  38.503  40.792  1.00  0.00    -0.744 OA
ENDBRANCH  86  87
ENDBRANCH  60  81
ENDBRANCH  34  35
ENDBRANCH  27  29
ENDBRANCH  26  27
ENDBRANCH  25  26
ENDBRANCH   1  25
TORSDOF 17
ENDMDL
MODEL 3
REMARK VINA RESULT:     -10.6      3.975      9.037
REMARK SMILES CC(=O)N1CCN(C(=O)c2ccc(=O)n(CCC(=O)OCCOC(=O)c3ccc(-c4c5nc(c(-c6ccc(S(=O)(=O)[O-])cc6)c6ccc([nH]6)c(-c6ccc(S(=O)(=O)[O-])cc6)c6nc(c(-c7ccc(S(=O)(=O)[O-])cc7)c7ccc4[nH]7)C=C6)C=C5)cc3)n2)CC1
REMARK SMILES IDX 21 1 20 2 18 3 19 4 17 5 16 6 15 7 10 8 11 9 86 10 12 11
REMARK SMILES IDX 13 12 14 13 8 14 1 15 2 16 3 17 4 18 5 19 88 20 6 21 87 22
REMARK SMILES IDX 7 23 9 24 22 25 23 26 24 27 25 28 26 29 27 30 85 31 28 32
REMARK SMILES IDX 84 33 29 34 30 35 31 36 78 37 32 38 83 39 77 40 79 41 33 42
REMARK SMILES IDX 82 43 76 44 75 45 34 47 64 48 45 49 63 50 46 51 49 52 62 53
REMARK SMILES IDX 80 54 47 55 48 56 61 58 81 59 50 60 35 61 36 62 44 63 37 64
REMARK SMILES IDX 43 65 38 66 39 67 40 68 41 69 42 70 65 71 66 72 74 73 67 74
REMARK SMILES IDX 73 75 68 76 69 77 70 78 71 79 72 80 51 81 52 82 60 83 53 84
REMARK SMILES IDX 59 85 54 86 55 87 56 88 57 89 58 90
REMARK H PARENT 79 46 49 57
REMARK Flexibility Score: inf
ROOT
ATOM      1  C   UNL A   1      33.955  30.103  27.206  1.00  0.00     0.274 C 
ENDROOT
BRANCH   1   2
ATOM      2  O   UNL A   1      32.537  30.339  27.278  1.00  0.00    -0.462 OA
BRANCH   2   3
ATOM      3  C   UNL A   1      31.882  30.605  26.125  1.00  0.00     0.307 C 
ATOM      4  O   UNL A   1      31.071  31.510  25.977  1.00  0.00    -0.252 OA
BRANCH   3   5
ATOM      5  C   UNL A   1      32.205  29.610  25.034  1.00  0.00     0.146 C 
BRANCH   5   6
ATOM      6  C   UNL A   1      31.039  29.281  24.101  1.00  0.00     0.160 C 
BRANCH   6   7
ATOM      7  N   UNL A   1      30.613  27.889  24.229  1.00  0.00    -0.229 N 
ATOM      8  C   UNL A   1      31.117  25.815  24.995  1.00  0.00     0.149 A 
ATOM      9  C   UNL A   1      30.158  25.165  24.089  1.00  0.00     0.042 A 
ATOM     10  N   UNL A   1      31.412  27.077  25.010  1.00  0.00    -0.164 NA
ATOM     11  C   UNL A   1      29.313  25.989  23.472  1.00  0.00     0.076 A 
ATOM     12  C   UNL A   1      29.406  27.449  23.687  1.00  0.00     0.266 A 
ATOM     13  O   UNL A   1      28.465  28.141  23.322  1.00  0.00    -0.268 OA
BRANCH   8  14
ATOM     14  C   UNL A   1      31.715  24.918  26.050  1.00  0.00     0.274 C 
ATOM     15  C   UNL A   1      36.896  22.356  23.645  1.00  0.00     0.114 C 
ATOM     16  C   UNL A   1      35.997  21.822  24.729  1.00  0.00     0.219 C 
ATOM     17  O   UNL A   1      36.441  21.020  25.551  1.00  0.00    -0.275 OA
ATOM     18  N   UNL A   1      34.715  22.331  24.808  1.00  0.00    -0.339 N 
ATOM     19  C   UNL A   1      33.925  22.101  26.023  1.00  0.00     0.141 C 
ATOM     20  C   UNL A   1      34.058  23.198  23.820  1.00  0.00     0.141 C 
ATOM     21  C   UNL A   1      33.589  23.449  26.683  1.00  0.00     0.141 C 
ATOM     22  C   UNL A   1      33.665  24.541  24.455  1.00  0.00     0.141 C 
ATOM     23  N   UNL A   1      32.938  24.345  25.725  1.00  0.00    -0.334 N 
ATOM     24  O   UNL A   1      31.130  24.807  27.118  1.00  0.00    -0.267 OA
ENDBRANCH   8  14
ENDBRANCH   6   7
ENDBRANCH   5   6
ENDBRANCH   3   5
ENDBRANCH   2   3
ENDBRANCH   1   2
BRANCH   1  25
ATOM     25  C   UNL A   1      34.747  31.139  28.005  1.00  0.00     0.275 C 
BRANCH  25  26
ATOM     26  O   UNL A   1      36.139  30.791  28.056  1.00  0.00    -0.458 OA
BRANCH  26  27
ATOM     27  C   UNL A   1      36.535  30.069  29.128  1.00  0.00     0.338 C 
ATOM     28  O   UNL A   1      35.877  29.662  30.062  1.00  0.00    -0.246 OA
BRANCH  27  29
ATOM     29  C   UNL A   1      37.951  29.751  28.959  1.00  0.00     0.060 A 
ATOM     30  C   UNL A   1      38.461  29.596  27.674  1.00  0.00     0.016 A 
ATOM     31  C   UNL A   1      38.764  29.636  30.091  1.00  0.00     0.016 A 
ATOM     32  C   UNL A   1      39.800  29.264  27.523  1.00  0.00     0.010 A 
ATOM     33  C   UNL A   1      40.109  29.325  29.936  1.00  0.00     0.010 A 
ATOM     34  C   UNL A   1      40.627  29.115  28.651  1.00  0.00    -0.014 A 
BRANCH  34  35
ATOM     35  C   UNL A   1      42.042  28.736  28.472  1.00  0.00     0.031 A 
ATOM     36  C   UNL A   1      42.405  27.325  28.128  1.00  0.00     0.074 A 
ATOM     37  C   UNL A   1      42.984  29.689  28.587  1.00  0.00     0.049 A 
ATOM     38  N   UNL A   1      43.576  26.835  27.818  1.00  0.00    -0.248 NA
ATOM     39  C   UNL A   1      41.318  26.332  28.134  1.00  0.00     0.031 C 
ATOM     40  C   UNL A   1      42.717  31.085  28.936  1.00  0.00     0.029 A 
ATOM     41  N   UNL A   1      44.338  29.640  28.395  1.00  0.00    -0.354 N 
ATOM     42  C   UNL A   1      43.365  25.486  27.567  1.00  0.00     0.074 A 
ATOM     43  C   UNL A   1      41.969  25.217  27.836  1.00  0.00     0.031 C 
ATOM     44  C   UNL A   1      43.867  31.773  28.882  1.00  0.00     0.029 A 
ATOM     45  C   UNL A   1      44.954  30.860  28.534  1.00  0.00     0.049 A 
ATOM     46  H   UNL A   1      44.825  28.811  28.178  1.00  0.00     0.167 HD
ATOM     47  C   UNL A   1      44.250  24.568  27.117  1.00  0.00     0.031 A 
ATOM     48  C   UNL A   1      46.246  31.212  28.384  1.00  0.00     0.031 A 
ATOM     49  C   UNL A   1      45.642  24.859  26.882  1.00  0.00     0.049 A 
ATOM     50  C   UNL A   1      47.229  30.168  27.937  1.00  0.00     0.074 A 
ATOM     51  C   UNL A   1      46.631  24.008  26.427  1.00  0.00     0.029 A 
ATOM     52  N   UNL A   1      46.242  26.096  27.089  1.00  0.00    -0.354 N 
ATOM     53  N   UNL A   1      47.008  28.906  27.651  1.00  0.00    -0.248 NA
ATOM     54  C   UNL A   1      48.625  30.588  27.775  1.00  0.00     0.031 C 
ATOM     55  C   UNL A   1      47.840  24.707  26.431  1.00  0.00     0.029 A 
ATOM     56  C   UNL A   1      47.594  26.021  26.800  1.00  0.00     0.049 A 
ATOM     57  H   UNL A   1      45.775  26.906  27.396  1.00  0.00     0.167 HD
ATOM     58  C   UNL A   1      48.233  28.382  27.260  1.00  0.00     0.074 A 
ATOM     59  C   UNL A   1      49.189  29.471  27.328  1.00  0.00     0.031 C 
ATOM     60  C   UNL A   1      48.537  27.115  26.883  1.00  0.00     0.031 A 
BRANCH  47  61
ATOM     61  C   UNL A   1      43.744  23.174  26.836  1.00  0.00    -0.014 A 
ATOM     62  C   UNL A   1      42.971  22.493  27.793  1.00  0.00     0.010 A 
ATOM     63  C   UNL A   1      44.099  22.505  25.648  1.00  0.00     0.010 A 
ATOM     64  C   UNL A   1      42.578  21.168  27.578  1.00  0.00     0.020 A 
ATOM     65  C   UNL A   1      43.676  21.193  25.414  1.00  0.00     0.020 A 
ATOM     66  C   UNL A   1      42.936  20.525  26.390  1.00  0.00     0.054 A 
BRANCH  66  67
ATOM     67  S   UNL A   1      42.414  18.807  26.128  1.00  0.00     0.124 S 
ATOM     68  O   UNL A   1      41.012  18.964  25.758  1.00  0.00    -0.237 OA
ATOM     69  O   UNL A   1      43.305  18.363  25.057  1.00  0.00    -0.237 OA
ATOM     70  O   UNL A   1      42.653  18.176  27.423  1.00  0.00    -0.744 OA
ENDBRANCH  66  67
ENDBRANCH  47  61
BRANCH  48  71
ATOM     71  C   UNL A   1      46.619  32.639  28.592  1.00  0.00    -0.014 A 
ATOM     72  C   UNL A   1      46.646  33.528  27.499  1.00  0.00     0.010 A 
ATOM     73  C   UNL A   1      47.115  33.069  29.834  1.00  0.00     0.010 A 
ATOM     74  C   UNL A   1      47.246  34.783  27.620  1.00  0.00     0.020 A 
ATOM     75  C   UNL A   1      47.688  34.339  29.967  1.00  0.00     0.020 A 
ATOM     76  C   UNL A   1      47.788  35.170  28.848  1.00  0.00     0.054 A 
BRANCH  76  77
ATOM     77  S   UNL A   1      48.686  36.744  28.942  1.00  0.00     0.124 S 
ATOM     78  O   UNL A   1      50.043  36.334  28.586  1.00  0.00    -0.237 OA
ATOM     79  O   UNL A   1      47.995  37.562  27.949  1.00  0.00    -0.237 OA
ATOM     80  O   UNL A   1      48.504  37.161  30.329  1.00  0.00    -0.744 OA
ENDBRANCH  76  77
ENDBRANCH  48  71
BRANCH  60  81
ATOM     81  C   UNL A   1      49.967  26.802  26.519  1.00  0.00    -0.014 A 
ATOM     82  C   UNL A   1      50.372  26.857  25.171  1.00  0.00     0.010 A 
ATOM     83  C   UNL A   1      50.859  26.294  27.480  1.00  0.00     0.010 A 
ATOM     84  C   UNL A   1      51.617  26.357  24.783  1.00  0.00     0.020 A 
ATOM     85  C   UNL A   1      52.120  25.827  27.100  1.00  0.00     0.020 A 
ATOM     86  C   UNL A   1      52.477  25.831  25.749  1.00  0.00     0.054 A 
BRANCH  86  87
ATOM     87  S   UNL A   1      54.057  25.119  25.214  1.00  0.00     0.124 S 
ATOM     88  O   UNL A   1      54.877  25.253  26.414  1.00  0.00    -0.237 OA
ATOM     89  O   UNL A   1      53.685  23.753  24.853  1.00  0.00    -0.237 OA
ATOM     90  O   UNL A   1      54.453  25.966  24.091  1.00  0.00    -0.744 OA
ENDBRANCH  86  87
ENDBRANCH  60  81
ENDBRANCH  34  35
ENDBRANCH  27  29
ENDBRANCH  26  27
ENDBRANCH  25  26
ENDBRANCH   1  25
TORSDOF 17
ENDMDL
