MODEL 1
REMARK VINA RESULT:     -10.7      0.000      0.000
REMARK SMILES O=C(OCCOC(=O)[C@H]1CC(=O)N(CCc2ccc3c(c2)OCO3)C1)c1ccc(-c2c3nc(c(-c4ccc(S(=O)(=O)[O-])cc4)c4ccc([nH]4)c(-c4ccc(S(=O)(=O)[O-])cc4)c4nc(c(-c5ccc(S(=O)(=O)[O-])cc5)c5ccc2[nH]5)C=C4)C=C3)cc1
REMARK SMILES IDX 4 1 3 2 2 3 1 4 26 5 27 6 85 7 28 8 84 9 29 10 30 11 31 12
REMARK SMILES IDX 78 13 32 14 83 15 77 16 79 17 33 18 82 19 76 20 75 21 34 23
REMARK SMILES IDX 64 24 45 25 63 26 46 27 49 28 62 29 80 30 47 31 48 32 61 34
REMARK SMILES IDX 81 35 50 36 35 37 36 38 44 39 37 40 43 41 38 42 39 43 40 44
REMARK SMILES IDX 41 45 42 46 65 47 66 48 74 49 67 50 73 51 68 52 69 53 70 54
REMARK SMILES IDX 71 55 72 56 51 57 52 58 60 59 53 60 59 61 54 62 55 63 56 64
REMARK SMILES IDX 57 65 58 66 5 67 6 68 7 69 8 70 9 71 10 72 25 73 11 74 13 75
REMARK SMILES IDX 12 76 14 77 15 78 16 79 17 80 21 81 18 82 20 83 19 84 22 85
REMARK SMILES IDX 24 86 23 87
REMARK H PARENT 79 22 49 33
REMARK Flexibility Score: inf
ROOT
ATOM      1  C   UNL A   1      37.717  33.459  31.994  1.00  0.00     0.275 C 
ENDROOT
BRANCH   1   2
ATOM      2  O   UNL A   1      36.784  32.406  31.721  1.00  0.00    -0.458 OA
BRANCH   2   3
ATOM      3  C   UNL A   1      36.992  31.082  31.546  1.00  0.00     0.338 C 
ATOM      4  O   UNL A   1      36.228  30.301  32.114  1.00  0.00    -0.246 OA
BRANCH   3   5
ATOM      5  C   UNL A   1      38.159  30.498  30.800  1.00  0.00     0.060 A 
ATOM      6  C   UNL A   1      38.257  30.289  29.422  1.00  0.00     0.016 A 
ATOM      7  C   UNL A   1      39.297  30.222  31.574  1.00  0.00     0.016 A 
ATOM      8  C   UNL A   1      39.473  29.936  28.819  1.00  0.00     0.010 A 
ATOM      9  C   UNL A   1      40.533  29.960  30.968  1.00  0.00     0.010 A 
ATOM     10  C   UNL A   1      40.634  29.801  29.578  1.00  0.00    -0.014 A 
BRANCH  10  11
ATOM     11  C   UNL A   1      41.902  29.312  28.977  1.00  0.00     0.031 A 
ATOM     12  C   UNL A   1      42.969  30.324  28.674  1.00  0.00     0.074 A 
ATOM     13  C   UNL A   1      42.186  28.005  28.784  1.00  0.00     0.049 A 
ATOM     14  N   UNL A   1      44.166  30.129  28.191  1.00  0.00    -0.248 NA
ATOM     15  C   UNL A   1      42.677  31.727  29.013  1.00  0.00     0.031 C 
ATOM     16  C   UNL A   1      41.375  26.877  29.234  1.00  0.00     0.029 A 
ATOM     17  N   UNL A   1      43.267  27.405  28.168  1.00  0.00    -0.354 N 
ATOM     18  C   UNL A   1      44.784  31.366  28.249  1.00  0.00     0.074 A 
ATOM     19  C   UNL A   1      43.789  32.333  28.642  1.00  0.00     0.031 C 
ATOM     20  C   UNL A   1      41.988  25.740  28.863  1.00  0.00     0.029 A 
ATOM     21  C   UNL A   1      43.137  26.041  28.040  1.00  0.00     0.049 A 
ATOM     22  H   UNL A   1      44.055  27.904  27.853  1.00  0.00     0.167 HD
ATOM     23  C   UNL A   1      46.093  31.660  28.105  1.00  0.00     0.031 A 
ATOM     24  C   UNL A   1      43.832  25.136  27.322  1.00  0.00     0.031 A 
ATOM     25  C   UNL A   1      47.088  30.710  27.710  1.00  0.00     0.049 A 
ATOM     26  C   UNL A   1      45.165  25.555  26.789  1.00  0.00     0.074 A 
ATOM     27  C   UNL A   1      48.446  30.904  27.554  1.00  0.00     0.029 A 
ATOM     28  N   UNL A   1      46.824  29.389  27.381  1.00  0.00    -0.354 N 
ATOM     29  N   UNL A   1      45.744  26.724  26.892  1.00  0.00    -0.248 NA
ATOM     30  C   UNL A   1      45.990  24.512  26.166  1.00  0.00     0.031 C 
ATOM     31  C   UNL A   1      48.993  29.719  27.052  1.00  0.00     0.029 A 
ATOM     32  C   UNL A   1      47.987  28.768  26.965  1.00  0.00     0.049 A 
ATOM     33  H   UNL A   1      45.940  28.958  27.435  1.00  0.00     0.167 HD
ATOM     34  C   UNL A   1      47.050  26.526  26.474  1.00  0.00     0.074 A 
ATOM     35  C   UNL A   1      47.149  25.144  26.043  1.00  0.00     0.031 C 
ATOM     36  C   UNL A   1      48.083  27.398  26.528  1.00  0.00     0.031 A 
BRANCH  23  37
ATOM     37  C   UNL A   1      46.477  33.080  28.396  1.00  0.00    -0.014 A 
ATOM     38  C   UNL A   1      46.692  33.511  29.721  1.00  0.00     0.010 A 
ATOM     39  C   UNL A   1      46.531  34.009  27.348  1.00  0.00     0.010 A 
ATOM     40  C   UNL A   1      46.887  34.864  29.997  1.00  0.00     0.020 A 
ATOM     41  C   UNL A   1      46.758  35.360  27.618  1.00  0.00     0.020 A 
ATOM     42  C   UNL A   1      46.909  35.780  28.942  1.00  0.00     0.054 A 
BRANCH  42  43
ATOM     43  S   UNL A   1      47.141  37.536  29.327  1.00  0.00     0.124 S 
ATOM     44  O   UNL A   1      48.596  37.662  29.295  1.00  0.00    -0.237 OA
ATOM     45  O   UNL A   1      46.429  38.197  28.237  1.00  0.00    -0.237 OA
ATOM     46  O   UNL A   1      46.531  37.684  30.646  1.00  0.00    -0.744 OA
ENDBRANCH  42  43
ENDBRANCH  23  37
BRANCH  24  47
ATOM     47  C   UNL A   1      43.329  23.754  27.067  1.00  0.00    -0.014 A 
ATOM     48  C   UNL A   1      43.468  22.724  28.012  1.00  0.00     0.010 A 
ATOM     49  C   UNL A   1      42.771  23.446  25.809  1.00  0.00     0.010 A 
ATOM     50  C   UNL A   1      43.060  21.416  27.706  1.00  0.00     0.020 A 
ATOM     51  C   UNL A   1      42.349  22.143  25.505  1.00  0.00     0.020 A 
ATOM     52  C   UNL A   1      42.503  21.133  26.455  1.00  0.00     0.054 A 
BRANCH  52  53
ATOM     53  S   UNL A   1      41.947  19.438  26.097  1.00  0.00     0.124 S 
ATOM     54  O   UNL A   1      42.219  18.755  27.358  1.00  0.00    -0.237 OA
ATOM     55  O   UNL A   1      40.536  19.631  25.773  1.00  0.00    -0.237 OA
ATOM     56  O   UNL A   1      42.787  19.033  24.972  1.00  0.00    -0.744 OA
ENDBRANCH  52  53
ENDBRANCH  24  47
BRANCH  36  57
ATOM     57  C   UNL A   1      49.443  26.863  26.198  1.00  0.00    -0.014 A 
ATOM     58  C   UNL A   1      50.163  26.063  27.098  1.00  0.00     0.010 A 
ATOM     59  C   UNL A   1      49.988  27.146  24.930  1.00  0.00     0.010 A 
ATOM     60  C   UNL A   1      51.423  25.577  26.746  1.00  0.00     0.020 A 
ATOM     61  C   UNL A   1      51.228  26.630  24.561  1.00  0.00     0.020 A 
ATOM     62  C   UNL A   1      51.944  25.859  25.478  1.00  0.00     0.054 A 
BRANCH  62  63
ATOM     63  S   UNL A   1      53.552  25.164  25.023  1.00  0.00     0.124 S 
ATOM     64  O   UNL A   1      53.621  25.467  23.597  1.00  0.00    -0.237 OA
ATOM     65  O   UNL A   1      54.475  25.912  25.873  1.00  0.00    -0.237 OA
ATOM     66  O   UNL A   1      53.423  23.746  25.354  1.00  0.00    -0.744 OA
ENDBRANCH  62  63
ENDBRANCH  36  57
ENDBRANCH  10  11
ENDBRANCH   3   5
ENDBRANCH   2   3
ENDBRANCH   1   2
BRANCH   1  67
ATOM     67  C   UNL A   1      37.661  34.030  33.413  1.00  0.00     0.274 C 
BRANCH  67  68
ATOM     68  O   UNL A   1      36.636  35.019  33.631  1.00  0.00    -0.462 OA
BRANCH  68  69
ATOM     69  C   UNL A   1      35.422  34.541  34.028  1.00  0.00     0.311 C 
ATOM     70  O   UNL A   1      35.274  33.621  34.823  1.00  0.00    -0.252 OA
BRANCH  69  71
ATOM     71  C   UNL A   1      34.251  35.193  33.321  1.00  0.00     0.128 C 
ATOM     72  C   UNL A   1      34.073  36.674  33.504  1.00  0.00     0.117 C 
ATOM     73  C   UNL A   1      34.365  35.042  31.824  1.00  0.00     0.135 C 
ATOM     74  C   UNL A   1      33.467  37.153  32.202  1.00  0.00     0.223 C 
ATOM     75  N   UNL A   1      33.692  36.171  31.241  1.00  0.00    -0.341 N 
ATOM     76  O   UNL A   1      32.886  38.211  32.061  1.00  0.00    -0.275 OA
BRANCH  75  77
ATOM     77  C   UNL A   1      33.052  36.146  29.915  1.00  0.00     0.124 C 
BRANCH  77  78
ATOM     78  C   UNL A   1      33.793  35.589  28.664  1.00  0.00     0.057 C 
BRANCH  78  79
ATOM     79  C   UNL A   1      34.239  34.142  28.534  1.00  0.00    -0.042 A 
ATOM     80  C   UNL A   1      35.563  33.722  28.682  1.00  0.00     0.008 A 
ATOM     81  C   UNL A   1      33.300  33.151  28.207  1.00  0.00     0.054 A 
ATOM     82  C   UNL A   1      36.019  32.509  28.157  1.00  0.00     0.051 A 
ATOM     83  C   UNL A   1      33.744  31.924  27.754  1.00  0.00     0.166 A 
ATOM     84  C   UNL A   1      35.080  31.636  27.671  1.00  0.00     0.165 A 
ATOM     85  O   UNL A   1      32.970  30.903  27.303  1.00  0.00    -0.454 OA
ATOM     86  O   UNL A   1      35.320  30.413  27.131  1.00  0.00    -0.454 OA
ATOM     87  C   UNL A   1      33.974  29.894  27.084  1.00  0.00     0.468 C 
ENDBRANCH  78  79
ENDBRANCH  77  78
ENDBRANCH  75  77
ENDBRANCH  69  71
ENDBRANCH  68  69
ENDBRANCH  67  68
ENDBRANCH   1  67
TORSDOF 17
ENDMDL
MODEL 2
REMARK VINA RESULT:     -10.7      5.635     14.005
REMARK SMILES O=C(OCCOC(=O)[C@H]1CC(=O)N(CCc2ccc3c(c2)OCO3)C1)c1ccc(-c2c3nc(c(-c4ccc(S(=O)(=O)[O-])cc4)c4ccc([nH]4)c(-c4ccc(S(=O)(=O)[O-])cc4)c4nc(c(-c5ccc(S(=O)(=O)[O-])cc5)c5ccc2[nH]5)C=C4)C=C3)cc1
REMARK SMILES IDX 4 1 3 2 2 3 1 4 26 5 27 6 85 7 28 8 84 9 29 10 30 11 31 12
REMARK SMILES IDX 78 13 32 14 83 15 77 16 79 17 33 18 82 19 76 20 75 21 34 23
REMARK SMILES IDX 64 24 45 25 63 26 46 27 49 28 62 29 80 30 47 31 48 32 61 34
REMARK SMILES IDX 81 35 50 36 35 37 36 38 44 39 37 40 43 41 38 42 39 43 40 44
REMARK SMILES IDX 41 45 42 46 65 47 66 48 74 49 67 50 73 51 68 52 69 53 70 54
REMARK SMILES IDX 71 55 72 56 51 57 52 58 60 59 53 60 59 61 54 62 55 63 56 64
REMARK SMILES IDX 57 65 58 66 5 67 6 68 7 69 8 70 9 71 10 72 25 73 11 74 13 75
REMARK SMILES IDX 12 76 14 77 15 78 16 79 17 80 21 81 18 82 20 83 19 84 22 85
REMARK SMILES IDX 24 86 23 87
REMARK H PARENT 79 22 49 33
REMARK Flexibility Score: inf
ROOT
ATOM      1  C   UNL A   1      45.158  24.411  26.562  1.00  0.00     0.275 C 
ENDROOT
BRANCH   1   2
ATOM      2  O   UNL A   1      43.985  24.630  25.767  1.00  0.00    -0.458 OA
BRANCH   2   3
ATOM      3  C   UNL A   1      42.809  25.213  26.092  1.00  0.00     0.338 C 
ATOM      4  O   UNL A   1      41.874  25.096  25.300  1.00  0.00    -0.246 OA
BRANCH   3   5
ATOM      5  C   UNL A   1      42.601  26.087  27.296  1.00  0.00     0.060 A 
ATOM      6  C   UNL A   1      43.304  27.249  27.624  1.00  0.00     0.016 A 
ATOM      7  C   UNL A   1      41.521  25.734  28.123  1.00  0.00     0.016 A 
ATOM      8  C   UNL A   1      42.879  28.094  28.659  1.00  0.00     0.010 A 
ATOM      9  C   UNL A   1      41.042  26.621  29.095  1.00  0.00     0.010 A 
ATOM     10  C   UNL A   1      41.724  27.811  29.385  1.00  0.00    -0.014 A 
BRANCH  10  11
ATOM     11  C   UNL A   1      41.326  28.627  30.561  1.00  0.00     0.031 A 
ATOM     12  C   UNL A   1      42.009  28.350  31.869  1.00  0.00     0.074 A 
ATOM     13  C   UNL A   1      40.464  29.665  30.497  1.00  0.00     0.049 A 
ATOM     14  N   UNL A   1      41.859  28.958  33.015  1.00  0.00    -0.248 NA
ATOM     15  C   UNL A   1      43.037  27.294  31.877  1.00  0.00     0.031 C 
ATOM     16  C   UNL A   1      39.889  30.227  29.279  1.00  0.00     0.029 A 
ATOM     17  N   UNL A   1      39.936  30.454  31.501  1.00  0.00    -0.354 N 
ATOM     18  C   UNL A   1      42.825  28.412  33.842  1.00  0.00     0.074 A 
ATOM     19  C   UNL A   1      43.435  27.312  33.135  1.00  0.00     0.031 C 
ATOM     20  C   UNL A   1      39.088  31.251  29.620  1.00  0.00     0.029 A 
ATOM     21  C   UNL A   1      38.974  31.332  31.058  1.00  0.00     0.049 A 
ATOM     22  H   UNL A   1      40.221  30.395  32.441  1.00  0.00     0.167 HD
ATOM     23  C   UNL A   1      43.256  28.858  35.040  1.00  0.00     0.031 A 
ATOM     24  C   UNL A   1      38.078  32.092  31.721  1.00  0.00     0.031 A 
ATOM     25  C   UNL A   1      42.655  29.945  35.753  1.00  0.00     0.049 A 
ATOM     26  C   UNL A   1      38.302  32.304  33.185  1.00  0.00     0.074 A 
ATOM     27  C   UNL A   1      43.029  30.486  36.967  1.00  0.00     0.029 A 
ATOM     28  N   UNL A   1      41.533  30.637  35.325  1.00  0.00    -0.354 N 
ATOM     29  N   UNL A   1      39.249  31.806  33.936  1.00  0.00    -0.248 NA
ATOM     30  C   UNL A   1      37.428  33.275  33.857  1.00  0.00     0.031 C 
ATOM     31  C   UNL A   1      42.083  31.456  37.313  1.00  0.00     0.029 A 
ATOM     32  C   UNL A   1      41.163  31.567  36.280  1.00  0.00     0.049 A 
ATOM     33  H   UNL A   1      41.068  30.490  34.470  1.00  0.00     0.167 HD
ATOM     34  C   UNL A   1      39.175  32.501  35.132  1.00  0.00     0.074 A 
ATOM     35  C   UNL A   1      38.040  33.398  35.027  1.00  0.00     0.031 C 
ATOM     36  C   UNL A   1      40.029  32.450  36.180  1.00  0.00     0.031 A 
BRANCH  23  37
ATOM     37  C   UNL A   1      44.442  28.143  35.613  1.00  0.00    -0.014 A 
ATOM     38  C   UNL A   1      45.753  28.543  35.282  1.00  0.00     0.010 A 
ATOM     39  C   UNL A   1      44.245  27.008  36.411  1.00  0.00     0.010 A 
ATOM     40  C   UNL A   1      46.845  27.775  35.685  1.00  0.00     0.020 A 
ATOM     41  C   UNL A   1      45.339  26.255  36.843  1.00  0.00     0.020 A 
ATOM     42  C   UNL A   1      46.628  26.630  36.456  1.00  0.00     0.054 A 
BRANCH  42  43
ATOM     43  S   UNL A   1      48.060  25.635  36.949  1.00  0.00     0.124 S 
ATOM     44  O   UNL A   1      47.443  24.344  37.241  1.00  0.00    -0.237 OA
ATOM     45  O   UNL A   1      48.902  25.675  35.756  1.00  0.00    -0.237 OA
ATOM     46  O   UNL A   1      48.593  26.348  38.108  1.00  0.00    -0.744 OA
ENDBRANCH  42  43
ENDBRANCH  23  37
BRANCH  24  47
ATOM     47  C   UNL A   1      36.908  32.729  31.046  1.00  0.00    -0.014 A 
ATOM     48  C   UNL A   1      35.626  32.156  31.080  1.00  0.00     0.010 A 
ATOM     49  C   UNL A   1      37.106  33.897  30.282  1.00  0.00     0.010 A 
ATOM     50  C   UNL A   1      34.567  32.736  30.364  1.00  0.00     0.020 A 
ATOM     51  C   UNL A   1      36.048  34.487  29.576  1.00  0.00     0.020 A 
ATOM     52  C   UNL A   1      34.783  33.898  29.617  1.00  0.00     0.054 A 
BRANCH  52  53
ATOM     53  S   UNL A   1      33.385  34.651  28.730  1.00  0.00     0.124 S 
ATOM     54  O   UNL A   1      32.440  34.909  29.811  1.00  0.00    -0.237 OA
ATOM     55  O   UNL A   1      33.995  35.834  28.126  1.00  0.00    -0.237 OA
ATOM     56  O   UNL A   1      32.983  33.615  27.781  1.00  0.00    -0.744 OA
ENDBRANCH  52  53
ENDBRANCH  24  47
BRANCH  36  57
ATOM     57  C   UNL A   1      39.830  33.459  37.270  1.00  0.00    -0.014 A 
ATOM     58  C   UNL A   1      40.276  34.783  37.145  1.00  0.00     0.010 A 
ATOM     59  C   UNL A   1      39.141  33.065  38.433  1.00  0.00     0.010 A 
ATOM     60  C   UNL A   1      40.060  35.693  38.181  1.00  0.00     0.020 A 
ATOM     61  C   UNL A   1      38.889  33.980  39.452  1.00  0.00     0.020 A 
ATOM     62  C   UNL A   1      39.364  35.286  39.325  1.00  0.00     0.054 A 
BRANCH  62  63
ATOM     63  S   UNL A   1      39.042  36.503  40.626  1.00  0.00     0.124 S 
ATOM     64  O   UNL A   1      38.658  37.680  39.852  1.00  0.00    -0.237 OA
ATOM     65  O   UNL A   1      37.970  35.875  41.393  1.00  0.00    -0.237 OA
ATOM     66  O   UNL A   1      40.321  36.608  41.326  1.00  0.00    -0.744 OA
ENDBRANCH  62  63
ENDBRANCH  36  57
ENDBRANCH  10  11
ENDBRANCH   3   5
ENDBRANCH   2   3
ENDBRANCH   1   2
BRANCH   1  67
ATOM     67  C   UNL A   1      46.149  23.390  25.996  1.00  0.00     0.274 C 
BRANCH  67  68
ATOM     68  O   UNL A   1      45.847  22.015  26.300  1.00  0.00    -0.462 OA
BRANCH  68  69
ATOM     69  C   UNL A   1      45.847  21.157  25.240  1.00  0.00     0.311 C 
ATOM     70  O   UNL A   1      46.799  21.000  24.485  1.00  0.00    -0.252 OA
BRANCH  69  71
ATOM     71  C   UNL A   1      44.517  20.469  25.013  1.00  0.00     0.128 C 
ATOM     72  C   UNL A   1      44.448  18.993  25.291  1.00  0.00     0.117 C 
ATOM     73  C   UNL A   1      43.448  21.038  25.914  1.00  0.00     0.135 C 
ATOM     74  C   UNL A   1      43.030  18.756  25.766  1.00  0.00     0.223 C 
ATOM     75  N   UNL A   1      42.498  19.985  26.148  1.00  0.00    -0.341 N 
ATOM     76  O   UNL A   1      42.483  17.672  25.787  1.00  0.00    -0.275 OA
BRANCH  75  77
ATOM     77  C   UNL A   1      41.073  20.218  26.438  1.00  0.00     0.124 C 
BRANCH  77  78
ATOM     78  C   UNL A   1      40.552  21.614  26.885  1.00  0.00     0.057 C 
BRANCH  78  79
ATOM     79  C   UNL A   1      39.305  22.265  26.308  1.00  0.00    -0.042 A 
ATOM     80  C   UNL A   1      38.935  23.589  26.556  1.00  0.00     0.008 A 
ATOM     81  C   UNL A   1      38.433  21.509  25.508  1.00  0.00     0.054 A 
ATOM     82  C   UNL A   1      37.621  24.035  26.385  1.00  0.00     0.051 A 
ATOM     83  C   UNL A   1      37.154  21.978  25.276  1.00  0.00     0.166 A 
ATOM     84  C   UNL A   1      36.741  23.189  25.761  1.00  0.00     0.165 A 
ATOM     85  O   UNL A   1      36.164  21.324  24.616  1.00  0.00    -0.454 OA
ATOM     86  O   UNL A   1      35.432  23.441  25.497  1.00  0.00    -0.454 OA
ATOM     87  C   UNL A   1      35.142  22.339  24.610  1.00  0.00     0.468 C 
ENDBRANCH  78  79
ENDBRANCH  77  78
ENDBRANCH  75  77
ENDBRANCH  69  71
ENDBRANCH  68  69
ENDBRANCH  67  68
ENDBRANCH   1  67
TORSDOF 17
ENDMDL
MODEL 3
REMARK VINA RESULT:     -10.6      5.995      9.477
REMARK SMILES O=C(OCCOC(=O)[C@H]1CC(=O)N(CCc2ccc3c(c2)OCO3)C1)c1ccc(-c2c3nc(c(-c4ccc(S(=O)(=O)[O-])cc4)c4ccc([nH]4)c(-c4ccc(S(=O)(=O)[O-])cc4)c4nc(c(-c5ccc(S(=O)(=O)[O-])cc5)c5ccc2[nH]5)C=C4)C=C3)cc1
REMARK SMILES IDX 4 1 3 2 2 3 1 4 26 5 27 6 85 7 28 8 84 9 29 10 30 11 31 12
REMARK SMILES IDX 78 13 32 14 83 15 77 16 79 17 33 18 82 19 76 20 75 21 34 23
REMARK SMILES IDX 64 24 45 25 63 26 46 27 49 28 62 29 80 30 47 31 48 32 61 34
REMARK SMILES IDX 81 35 50 36 35 37 36 38 44 39 37 40 43 41 38 42 39 43 40 44
REMARK SMILES IDX 41 45 42 46 65 47 66 48 74 49 67 50 73 51 68 52 69 53 70 54
REMARK SMILES IDX 71 55 72 56 51 57 52 58 60 59 53 60 59 61 54 62 55 63 56 64
REMARK SMILES IDX 57 65 58 66 5 67 6 68 7 69 8 70 9 71 10 72 25 73 11 74 13 75
REMARK SMILES IDX 12 76 14 77 15 78 16 79 17 80 21 81 18 82 20 83 19 84 22 85
REMARK SMILES IDX 24 86 23 87
REMARK H PARENT 79 22 49 33
REMARK Flexibility Score: inf
ROOT
ATOM      1  C   UNL A   1      32.338  32.999  27.256  1.00  0.00     0.275 C 
ENDROOT
BRANCH   1   2
ATOM      2  O   UNL A   1      32.815  34.175  27.923  1.00  0.00    -0.458 OA
BRANCH   2   3
ATOM      3  C   UNL A   1      33.323  34.324  29.167  1.00  0.00     0.338 C 
ATOM      4  O   UNL A   1      32.680  35.000  29.971  1.00  0.00    -0.246 OA
BRANCH   3   5
ATOM      5  C   UNL A   1      34.671  33.820  29.599  1.00  0.00     0.060 A 
ATOM      6  C   UNL A   1      35.917  34.239  29.126  1.00  0.00     0.016 A 
ATOM      7  C   UNL A   1      34.662  32.891  30.653  1.00  0.00     0.016 A 
ATOM      8  C   UNL A   1      37.108  33.846  29.755  1.00  0.00     0.010 A 
ATOM      9  C   UNL A   1      35.841  32.572  31.339  1.00  0.00     0.010 A 
ATOM     10  C   UNL A   1      37.085  33.037  30.889  1.00  0.00    -0.014 A 
BRANCH  10  11
ATOM     11  C   UNL A   1      38.336  32.514  31.496  1.00  0.00     0.031 A 
ATOM     12  C   UNL A   1      38.819  33.154  32.766  1.00  0.00     0.074 A 
ATOM     13  C   UNL A   1      39.004  31.437  31.029  1.00  0.00     0.049 A 
ATOM     14  N   UNL A   1      39.856  32.841  33.495  1.00  0.00    -0.248 NA
ATOM     15  C   UNL A   1      37.999  34.246  33.319  1.00  0.00     0.031 C 
ATOM     16  C   UNL A   1      38.558  30.552  29.957  1.00  0.00     0.029 A 
ATOM     17  N   UNL A   1      40.209  30.889  31.424  1.00  0.00    -0.354 N 
ATOM     18  C   UNL A   1      39.758  33.640  34.622  1.00  0.00     0.074 A 
ATOM     19  C   UNL A   1      38.675  34.568  34.406  1.00  0.00     0.031 C 
ATOM     20  C   UNL A   1      39.484  29.594  29.785  1.00  0.00     0.029 A 
ATOM     21  C   UNL A   1      40.638  29.865  30.612  1.00  0.00     0.049 A 
ATOM     22  H   UNL A   1      40.711  31.200  32.212  1.00  0.00     0.167 HD
ATOM     23  C   UNL A   1      40.429  33.536  35.787  1.00  0.00     0.031 A 
ATOM     24  C   UNL A   1      41.826  29.235  30.512  1.00  0.00     0.031 A 
ATOM     25  C   UNL A   1      41.509  32.623  36.010  1.00  0.00     0.049 A 
ATOM     26  C   UNL A   1      42.796  29.409  31.637  1.00  0.00     0.074 A 
ATOM     27  C   UNL A   1      42.243  32.427  37.163  1.00  0.00     0.029 A 
ATOM     28  N   UNL A   1      42.027  31.771  35.047  1.00  0.00    -0.354 N 
ATOM     29  N   UNL A   1      42.661  30.142  32.712  1.00  0.00    -0.248 NA
ATOM     30  C   UNL A   1      44.007  28.579  31.605  1.00  0.00     0.031 C 
ATOM     31  C   UNL A   1      43.260  31.512  36.873  1.00  0.00     0.029 A 
ATOM     32  C   UNL A   1      43.112  31.086  35.562  1.00  0.00     0.049 A 
ATOM     33  H   UNL A   1      41.675  31.669  34.133  1.00  0.00     0.167 HD
ATOM     34  C   UNL A   1      43.697  29.763  33.549  1.00  0.00     0.074 A 
ATOM     35  C   UNL A   1      44.493  28.793  32.820  1.00  0.00     0.031 C 
ATOM     36  C   UNL A   1      43.908  30.130  34.834  1.00  0.00     0.031 A 
BRANCH  23  37
ATOM     37  C   UNL A   1      39.974  34.450  36.885  1.00  0.00    -0.014 A 
ATOM     38  C   UNL A   1      40.401  35.793  36.927  1.00  0.00     0.010 A 
ATOM     39  C   UNL A   1      39.193  33.939  37.930  1.00  0.00     0.010 A 
ATOM     40  C   UNL A   1      40.109  36.590  38.034  1.00  0.00     0.020 A 
ATOM     41  C   UNL A   1      38.871  34.744  39.025  1.00  0.00     0.020 A 
ATOM     42  C   UNL A   1      39.352  36.055  39.080  1.00  0.00     0.054 A 
BRANCH  42  43
ATOM     43  S   UNL A   1      39.005  37.100  40.518  1.00  0.00     0.124 S 
ATOM     44  O   UNL A   1      38.237  38.190  39.920  1.00  0.00    -0.237 OA
ATOM     45  O   UNL A   1      38.249  36.204  41.389  1.00  0.00    -0.237 OA
ATOM     46  O   UNL A   1      40.332  37.467  41.007  1.00  0.00    -0.744 OA
ENDBRANCH  42  43
ENDBRANCH  23  37
BRANCH  24  47
ATOM     47  C   UNL A   1      42.184  28.373  29.347  1.00  0.00    -0.014 A 
ATOM     48  C   UNL A   1      42.759  28.899  28.179  1.00  0.00     0.010 A 
ATOM     49  C   UNL A   1      41.862  27.000  29.381  1.00  0.00     0.010 A 
ATOM     50  C   UNL A   1      43.004  28.074  27.070  1.00  0.00     0.020 A 
ATOM     51  C   UNL A   1      42.118  26.170  28.281  1.00  0.00     0.020 A 
ATOM     52  C   UNL A   1      42.683  26.714  27.127  1.00  0.00     0.054 A 
BRANCH  52  53
ATOM     53  S   UNL A   1      43.047  25.659  25.691  1.00  0.00     0.124 S 
ATOM     54  O   UNL A   1      42.279  26.307  24.633  1.00  0.00    -0.237 OA
ATOM     55  O   UNL A   1      44.499  25.769  25.578  1.00  0.00    -0.237 OA
ATOM     56  O   UNL A   1      42.560  24.343  26.101  1.00  0.00    -0.744 OA
ENDBRANCH  52  53
ENDBRANCH  24  47
BRANCH  36  57
ATOM     57  C   UNL A   1      44.993  29.414  35.578  1.00  0.00    -0.014 A 
ATOM     58  C   UNL A   1      44.738  28.253  36.324  1.00  0.00     0.010 A 
ATOM     59  C   UNL A   1      46.310  29.906  35.487  1.00  0.00     0.010 A 
ATOM     60  C   UNL A   1      45.781  27.612  36.994  1.00  0.00     0.020 A 
ATOM     61  C   UNL A   1      47.359  29.246  36.121  1.00  0.00     0.020 A 
ATOM     62  C   UNL A   1      47.085  28.109  36.883  1.00  0.00     0.054 A 
BRANCH  62  63
ATOM     63  S   UNL A   1      48.428  27.221  37.710  1.00  0.00     0.124 S 
ATOM     64  O   UNL A   1      48.124  27.455  39.118  1.00  0.00    -0.237 OA
ATOM     65  O   UNL A   1      48.238  25.850  37.243  1.00  0.00    -0.237 OA
ATOM     66  O   UNL A   1      49.635  27.879  37.214  1.00  0.00    -0.744 OA
ENDBRANCH  62  63
ENDBRANCH  36  57
ENDBRANCH  10  11
ENDBRANCH   3   5
ENDBRANCH   2   3
ENDBRANCH   1   2
BRANCH   1  67
ATOM     67  C   UNL A   1      33.275  31.790  27.316  1.00  0.00     0.274 C 
BRANCH  67  68
ATOM     68  O   UNL A   1      32.642  30.517  27.085  1.00  0.00    -0.462 OA
BRANCH  68  69
ATOM     69  C   UNL A   1      33.363  29.614  26.361  1.00  0.00     0.311 C 
ATOM     70  O   UNL A   1      34.423  29.125  26.736  1.00  0.00    -0.252 OA
BRANCH  69  71
ATOM     71  C   UNL A   1      32.785  29.330  24.990  1.00  0.00     0.128 C 
ATOM     72  C   UNL A   1      33.636  28.546  24.031  1.00  0.00     0.117 C 
ATOM     73  C   UNL A   1      31.528  28.501  25.091  1.00  0.00     0.135 C 
ATOM     74  C   UNL A   1      32.649  27.760  23.194  1.00  0.00     0.223 C 
ATOM     75  N   UNL A   1      31.435  27.738  23.876  1.00  0.00    -0.341 N 
ATOM     76  O   UNL A   1      32.906  27.258  22.119  1.00  0.00    -0.275 OA
BRANCH  75  77
ATOM     77  C   UNL A   1      30.163  27.285  23.289  1.00  0.00     0.124 C 
BRANCH  77  78
ATOM     78  C   UNL A   1      28.890  28.180  23.316  1.00  0.00     0.057 C 
BRANCH  78  79
ATOM     79  C   UNL A   1      28.873  29.623  22.839  1.00  0.00    -0.042 A 
ATOM     80  C   UNL A   1      29.214  30.711  23.645  1.00  0.00     0.008 A 
ATOM     81  C   UNL A   1      28.456  29.918  21.531  1.00  0.00     0.054 A 
ATOM     82  C   UNL A   1      28.799  32.013  23.348  1.00  0.00     0.051 A 
ATOM     83  C   UNL A   1      28.111  31.216  21.210  1.00  0.00     0.166 A 
ATOM     84  C   UNL A   1      28.221  32.229  22.124  1.00  0.00     0.165 A 
ATOM     85  O   UNL A   1      27.595  31.645  20.028  1.00  0.00    -0.454 OA
ATOM     86  O   UNL A   1      27.762  33.416  21.649  1.00  0.00    -0.454 OA
ATOM     87  C   UNL A   1      27.551  33.064  20.264  1.00  0.00     0.468 C 
ENDBRANCH  78  79
ENDBRANCH  77  78
ENDBRANCH  75  77
ENDBRANCH  69  71
ENDBRANCH  68  69
ENDBRANCH  67  68
ENDBRANCH   1  67
TORSDOF 17
ENDMDL
