MODEL 1
REMARK VINA RESULT:      -9.4      0.000      0.000
REMARK SMILES CC(=O)N/N=C/c1ccc(O[C@H](C)C(=O)OCCOC(=O)c2ccc(-c3c4nc(c(-c5ccc(S(=O)(=O)[O-])cc5)c5ccc([nH]5)c(-c5ccc(S(=O)(=O)[O-])cc5)c5nc(c(-c6ccc(S(=O)(=O)[O-])cc6)c6ccc3[nH]6)C=C5)C=C4)cc2)cc1
REMARK SMILES IDX 17 1 16 2 14 3 15 4 12 5 13 6 11 7 10 8 7 9 8 10 83 11 9 12
REMARK SMILES IDX 82 13 6 14 5 15 4 16 1 17 2 18 3 19 18 21 19 22 20 23 21 24
REMARK SMILES IDX 22 25 23 26 81 27 24 28 80 29 25 30 26 31 27 32 74 33 28 34
REMARK SMILES IDX 79 35 73 36 75 37 29 38 78 39 72 40 71 41 30 43 60 44 41 45
REMARK SMILES IDX 59 46 42 47 45 48 58 49 76 50 43 51 44 52 57 54 77 55 46 56
REMARK SMILES IDX 31 57 32 58 40 59 33 60 39 61 34 62 35 63 36 64 37 65 38 66
REMARK SMILES IDX 61 67 62 68 70 69 63 70 69 71 64 72 65 73 66 74 67 75 68 76
REMARK SMILES IDX 47 77 48 78 56 79 49 80 55 81 50 82 51 83 52 84 53 85 54 86
REMARK H PARENT 4 20 75 42 45 53
REMARK Flexibility Score: inf
ROOT
ATOM      1  C   UNL A   1      41.103  19.822  26.439  1.00  0.00     0.274 C 
ENDROOT
BRANCH   1   2
ATOM      2  O   UNL A   1      42.060  19.982  25.377  1.00  0.00    -0.459 OA
BRANCH   2   3
ATOM      3  C   UNL A   1      43.154  19.169  25.409  1.00  0.00     0.347 C 
ATOM      4  O   UNL A   1      43.121  17.967  25.646  1.00  0.00    -0.248 OA
BRANCH   3   5
ATOM      5  C   UNL A   1      44.444  19.939  25.108  1.00  0.00     0.279 C 
ATOM      6  C   UNL A   1      45.378  19.086  24.242  1.00  0.00     0.066 C 
BRANCH   5   7
ATOM      7  O   UNL A   1      44.010  21.156  24.500  1.00  0.00    -0.479 OA
BRANCH   7   8
ATOM      8  C   UNL A   1      44.418  22.363  24.982  1.00  0.00     0.120 A 
ATOM      9  C   UNL A   1      44.791  24.967  25.931  1.00  0.00    -0.005 A 
ATOM     10  C   UNL A   1      45.670  24.435  24.985  1.00  0.00     0.013 A 
ATOM     11  C   UNL A   1      43.781  24.172  26.470  1.00  0.00     0.013 A 
ATOM     12  C   UNL A   1      45.497  23.123  24.533  1.00  0.00     0.047 A 
ATOM     13  C   UNL A   1      43.598  22.875  25.991  1.00  0.00     0.047 A 
BRANCH   9  14
ATOM     14  C   UNL A   1      44.907  26.391  26.292  1.00  0.00     0.141 C 
ATOM     15  N   UNL A   1      44.148  27.295  25.755  1.00  0.00    -0.181 NA
BRANCH  15  16
ATOM     16  N   UNL A   1      44.422  28.580  26.115  1.00  0.00    -0.247 N 
ATOM     17  C   UNL A   1      42.050  29.288  26.034  1.00  0.00     0.116 C 
ATOM     18  C   UNL A   1      43.500  29.580  26.321  1.00  0.00     0.236 C 
ATOM     19  O   UNL A   1      43.863  30.688  26.723  1.00  0.00    -0.274 OA
ATOM     20  H   UNL A   1      45.370  28.816  26.237  1.00  0.00     0.193 HD
ENDBRANCH  15  16
ENDBRANCH   9  14
ENDBRANCH   7   8
ENDBRANCH   5   7
ENDBRANCH   3   5
ENDBRANCH   2   3
ENDBRANCH   1   2
BRANCH   1  21
ATOM     21  C   UNL A   1      39.841  20.637  26.154  1.00  0.00     0.275 C 
BRANCH  21  22
ATOM     22  O   UNL A   1      40.098  22.045  26.327  1.00  0.00    -0.458 OA
BRANCH  22  23
ATOM     23  C   UNL A   1      39.040  22.869  26.160  1.00  0.00     0.338 C 
ATOM     24  O   UNL A   1      37.972  22.612  25.632  1.00  0.00    -0.246 OA
BRANCH  23  25
ATOM     25  C   UNL A   1      39.314  24.155  26.818  1.00  0.00     0.060 A 
ATOM     26  C   UNL A   1      40.120  25.084  26.157  1.00  0.00     0.016 A 
ATOM     27  C   UNL A   1      38.868  24.398  28.117  1.00  0.00     0.016 A 
ATOM     28  C   UNL A   1      40.501  26.258  26.800  1.00  0.00     0.010 A 
ATOM     29  C   UNL A   1      39.237  25.588  28.755  1.00  0.00     0.010 A 
ATOM     30  C   UNL A   1      40.071  26.518  28.109  1.00  0.00    -0.014 A 
BRANCH  30  31
ATOM     31  C   UNL A   1      40.543  27.740  28.807  1.00  0.00     0.031 A 
ATOM     32  C   UNL A   1      41.935  27.793  29.376  1.00  0.00     0.074 A 
ATOM     33  C   UNL A   1      39.732  28.810  28.910  1.00  0.00     0.049 A 
ATOM     34  N   UNL A   1      42.517  28.754  30.047  1.00  0.00    -0.248 NA
ATOM     35  C   UNL A   1      42.784  26.608  29.165  1.00  0.00     0.031 C 
ATOM     36  C   UNL A   1      38.369  28.894  28.382  1.00  0.00     0.029 A 
ATOM     37  N   UNL A   1      39.941  30.036  29.492  1.00  0.00    -0.354 N 
ATOM     38  C   UNL A   1      43.784  28.282  30.366  1.00  0.00     0.074 A 
ATOM     39  C   UNL A   1      43.886  26.944  29.823  1.00  0.00     0.031 C 
ATOM     40  C   UNL A   1      37.865  30.108  28.660  1.00  0.00     0.029 A 
ATOM     41  C   UNL A   1      38.853  30.874  29.414  1.00  0.00     0.049 A 
ATOM     42  H   UNL A   1      40.788  30.290  29.924  1.00  0.00     0.167 HD
ATOM     43  C   UNL A   1      44.773  28.905  31.052  1.00  0.00     0.031 A 
ATOM     44  C   UNL A   1      38.667  32.112  29.909  1.00  0.00     0.031 A 
ATOM     45  C   UNL A   1      44.680  30.241  31.578  1.00  0.00     0.049 A 
ATOM     46  C   UNL A   1      39.779  32.779  30.671  1.00  0.00     0.074 A 
ATOM     47  C   UNL A   1      45.643  30.966  32.261  1.00  0.00     0.029 A 
ATOM     48  N   UNL A   1      43.563  31.054  31.481  1.00  0.00    -0.354 N 
ATOM     49  N   UNL A   1      40.976  32.320  30.949  1.00  0.00    -0.248 NA
ATOM     50  C   UNL A   1      39.516  34.132  31.177  1.00  0.00     0.031 C 
ATOM     51  C   UNL A   1      45.092  32.205  32.609  1.00  0.00     0.029 A 
ATOM     52  C   UNL A   1      43.804  32.268  32.104  1.00  0.00     0.049 A 
ATOM     53  H   UNL A   1      42.721  30.806  31.035  1.00  0.00     0.167 HD
ATOM     54  C   UNL A   1      41.613  33.335  31.653  1.00  0.00     0.074 A 
ATOM     55  C   UNL A   1      40.679  34.438  31.737  1.00  0.00     0.031 C 
ATOM     56  C   UNL A   1      42.860  33.352  32.186  1.00  0.00     0.031 A 
BRANCH  43  57
ATOM     57  C   UNL A   1      46.037  28.129  31.304  1.00  0.00    -0.014 A 
ATOM     58  C   UNL A   1      46.150  27.249  32.394  1.00  0.00     0.010 A 
ATOM     59  C   UNL A   1      47.116  28.256  30.409  1.00  0.00     0.010 A 
ATOM     60  C   UNL A   1      47.332  26.532  32.604  1.00  0.00     0.020 A 
ATOM     61  C   UNL A   1      48.291  27.525  30.605  1.00  0.00     0.020 A 
ATOM     62  C   UNL A   1      48.398  26.679  31.710  1.00  0.00     0.054 A 
BRANCH  62  63
ATOM     63  S   UNL A   1      49.913  25.722  31.990  1.00  0.00     0.124 S 
ATOM     64  O   UNL A   1      49.541  24.899  33.138  1.00  0.00    -0.237 OA
ATOM     65  O   UNL A   1      50.077  25.001  30.730  1.00  0.00    -0.237 OA
ATOM     66  O   UNL A   1      50.923  26.742  32.256  1.00  0.00    -0.744 OA
ENDBRANCH  62  63
ENDBRANCH  43  57
BRANCH  44  67
ATOM     67  C   UNL A   1      37.360  32.795  29.721  1.00  0.00    -0.014 A 
ATOM     68  C   UNL A   1      36.957  33.243  28.452  1.00  0.00     0.010 A 
ATOM     69  C   UNL A   1      36.506  33.000  30.822  1.00  0.00     0.010 A 
ATOM     70  C   UNL A   1      35.733  33.899  28.289  1.00  0.00     0.020 A 
ATOM     71  C   UNL A   1      35.272  33.632  30.658  1.00  0.00     0.020 A 
ATOM     72  C   UNL A   1      34.899  34.090  29.393  1.00  0.00     0.054 A 
BRANCH  72  73
ATOM     73  S   UNL A   1      33.290  34.895  29.156  1.00  0.00     0.124 S 
ATOM     74  O   UNL A   1      32.694  34.777  30.483  1.00  0.00    -0.237 OA
ATOM     75  O   UNL A   1      33.666  36.246  28.748  1.00  0.00    -0.237 OA
ATOM     76  O   UNL A   1      32.660  34.092  28.110  1.00  0.00    -0.744 OA
ENDBRANCH  72  73
ENDBRANCH  44  67
BRANCH  56  77
ATOM     77  C   UNL A   1      43.288  34.614  32.884  1.00  0.00    -0.014 A 
ATOM     78  C   UNL A   1      43.035  34.808  34.253  1.00  0.00     0.010 A 
ATOM     79  C   UNL A   1      43.962  35.615  32.162  1.00  0.00     0.010 A 
ATOM     80  C   UNL A   1      43.409  35.999  34.879  1.00  0.00     0.020 A 
ATOM     81  C   UNL A   1      44.358  36.798  32.789  1.00  0.00     0.020 A 
ATOM     82  C   UNL A   1      44.061  36.991  34.140  1.00  0.00     0.054 A 
BRANCH  82  83
ATOM     83  S   UNL A   1      44.549  38.529  34.969  1.00  0.00     0.124 S 
ATOM     84  O   UNL A   1      43.609  39.491  34.399  1.00  0.00    -0.237 OA
ATOM     85  O   UNL A   1      44.347  38.216  36.381  1.00  0.00    -0.237 OA
ATOM     86  O   UNL A   1      45.943  38.708  34.569  1.00  0.00    -0.744 OA
ENDBRANCH  82  83
ENDBRANCH  56  77
ENDBRANCH  30  31
ENDBRANCH  23  25
ENDBRANCH  22  23
ENDBRANCH  21  22
ENDBRANCH   1  21
TORSDOF 18
ENDMDL
MODEL 2
REMARK VINA RESULT:      -9.3      4.565     11.075
REMARK SMILES CC(=O)N/N=C/c1ccc(O[C@H](C)C(=O)OCCOC(=O)c2ccc(-c3c4nc(c(-c5ccc(S(=O)(=O)[O-])cc5)c5ccc([nH]5)c(-c5ccc(S(=O)(=O)[O-])cc5)c5nc(c(-c6ccc(S(=O)(=O)[O-])cc6)c6ccc3[nH]6)C=C5)C=C4)cc2)cc1
REMARK SMILES IDX 17 1 16 2 14 3 15 4 12 5 13 6 11 7 10 8 7 9 8 10 83 11 9 12
REMARK SMILES IDX 82 13 6 14 5 15 4 16 1 17 2 18 3 19 18 21 19 22 20 23 21 24
REMARK SMILES IDX 22 25 23 26 81 27 24 28 80 29 25 30 26 31 27 32 74 33 28 34
REMARK SMILES IDX 79 35 73 36 75 37 29 38 78 39 72 40 71 41 30 43 60 44 41 45
REMARK SMILES IDX 59 46 42 47 45 48 58 49 76 50 43 51 44 52 57 54 77 55 46 56
REMARK SMILES IDX 31 57 32 58 40 59 33 60 39 61 34 62 35 63 36 64 37 65 38 66
REMARK SMILES IDX 61 67 62 68 70 69 63 70 69 71 64 72 65 73 66 74 67 75 68 76
REMARK SMILES IDX 47 77 48 78 56 79 49 80 55 81 50 82 51 83 52 84 53 85 54 86
REMARK H PARENT 4 20 75 42 45 53
REMARK Flexibility Score: inf
ROOT
ATOM      1  C   UNL A   1      31.845  28.797  25.829  1.00  0.00     0.274 C 
ENDROOT
BRANCH   1   2
ATOM      2  O   UNL A   1      32.509  27.730  25.130  1.00  0.00    -0.459 OA
BRANCH   2   3
ATOM      3  C   UNL A   1      31.720  26.726  24.650  1.00  0.00     0.347 C 
ATOM      4  O   UNL A   1      30.518  26.829  24.436  1.00  0.00    -0.248 OA
BRANCH   3   5
ATOM      5  C   UNL A   1      32.520  25.443  24.404  1.00  0.00     0.279 C 
ATOM      6  C   UNL A   1      34.012  25.767  24.274  1.00  0.00     0.066 C 
BRANCH   5   7
ATOM      7  O   UNL A   1      32.185  24.587  25.497  1.00  0.00    -0.479 OA
BRANCH   7   8
ATOM      8  C   UNL A   1      32.575  23.282  25.508  1.00  0.00     0.120 A 
ATOM      9  C   UNL A   1      32.903  20.505  25.491  1.00  0.00    -0.005 A 
ATOM     10  C   UNL A   1      33.592  21.283  26.422  1.00  0.00     0.013 A 
ATOM     11  C   UNL A   1      32.121  21.116  24.511  1.00  0.00     0.013 A 
ATOM     12  C   UNL A   1      33.447  22.675  26.411  1.00  0.00     0.047 A 
ATOM     13  C   UNL A   1      31.960  22.501  24.527  1.00  0.00     0.047 A 
BRANCH   9  14
ATOM     14  C   UNL A   1      32.960  19.036  25.606  1.00  0.00     0.141 C 
ATOM     15  N   UNL A   1      32.158  18.267  24.937  1.00  0.00    -0.181 NA
BRANCH  15  16
ATOM     16  N   UNL A   1      32.263  16.936  25.205  1.00  0.00    -0.247 N 
ATOM     17  C   UNL A   1      34.026  16.558  23.509  1.00  0.00     0.116 C 
ATOM     18  C   UNL A   1      33.146  16.057  24.623  1.00  0.00     0.236 C 
ATOM     19  O   UNL A   1      33.200  14.886  25.005  1.00  0.00    -0.274 OA
ATOM     20  H   UNL A   1      31.646  16.568  25.879  1.00  0.00     0.193 HD
ENDBRANCH  15  16
ENDBRANCH   9  14
ENDBRANCH   7   8
ENDBRANCH   5   7
ENDBRANCH   3   5
ENDBRANCH   2   3
ENDBRANCH   1   2
BRANCH   1  21
ATOM     21  C   UNL A   1      32.268  28.822  27.299  1.00  0.00     0.275 C 
BRANCH  21  22
ATOM     22  O   UNL A   1      33.703  28.894  27.412  1.00  0.00    -0.458 OA
BRANCH  22  23
ATOM     23  C   UNL A   1      34.217  30.107  27.715  1.00  0.00     0.338 C 
ATOM     24  O   UNL A   1      33.636  31.177  27.735  1.00  0.00    -0.246 OA
BRANCH  23  25
ATOM     25  C   UNL A   1      35.616  29.952  28.138  1.00  0.00     0.060 A 
ATOM     26  C   UNL A   1      36.621  30.078  27.176  1.00  0.00     0.016 A 
ATOM     27  C   UNL A   1      35.928  29.581  29.445  1.00  0.00     0.016 A 
ATOM     28  C   UNL A   1      37.946  29.816  27.514  1.00  0.00     0.010 A 
ATOM     29  C   UNL A   1      37.263  29.336  29.788  1.00  0.00     0.010 A 
ATOM     30  C   UNL A   1      38.279  29.434  28.821  1.00  0.00    -0.014 A 
BRANCH  30  31
ATOM     31  C   UNL A   1      39.686  29.089  29.148  1.00  0.00     0.031 A 
ATOM     32  C   UNL A   1      40.572  30.100  29.824  1.00  0.00     0.074 A 
ATOM     33  C   UNL A   1      40.160  27.862  28.862  1.00  0.00     0.049 A 
ATOM     34  N   UNL A   1      41.833  29.999  30.159  1.00  0.00    -0.248 NA
ATOM     35  C   UNL A   1      39.961  31.396  30.163  1.00  0.00     0.031 C 
ATOM     36  C   UNL A   1      39.396  26.785  28.229  1.00  0.00     0.029 A 
ATOM     37  N   UNL A   1      41.400  27.313  29.071  1.00  0.00    -0.354 N 
ATOM     38  C   UNL A   1      42.177  31.224  30.718  1.00  0.00     0.074 A 
ATOM     39  C   UNL A   1      40.994  32.057  30.671  1.00  0.00     0.031 C 
ATOM     40  C   UNL A   1      40.183  25.703  28.107  1.00  0.00     0.029 A 
ATOM     41  C   UNL A   1      41.513  26.020  28.618  1.00  0.00     0.049 A 
ATOM     42  H   UNL A   1      42.138  27.799  29.505  1.00  0.00     0.167 HD
ATOM     43  C   UNL A   1      43.369  31.620  31.224  1.00  0.00     0.031 A 
ATOM     44  C   UNL A   1      42.573  25.189  28.600  1.00  0.00     0.031 A 
ATOM     45  C   UNL A   1      44.542  30.788  31.287  1.00  0.00     0.049 A 
ATOM     46  C   UNL A   1      43.887  25.655  29.163  1.00  0.00     0.074 A 
ATOM     47  C   UNL A   1      45.788  31.094  31.810  1.00  0.00     0.029 A 
ATOM     48  N   UNL A   1      44.616  29.488  30.816  1.00  0.00    -0.354 N 
ATOM     49  N   UNL A   1      44.188  26.813  29.701  1.00  0.00    -0.248 NA
ATOM     50  C   UNL A   1      45.002  24.700  29.122  1.00  0.00     0.031 C 
ATOM     51  C   UNL A   1      46.626  29.989  31.620  1.00  0.00     0.029 A 
ATOM     52  C   UNL A   1      45.890  28.981  31.020  1.00  0.00     0.049 A 
ATOM     53  H   UNL A   1      43.873  28.996  30.397  1.00  0.00     0.167 HD
ATOM     54  C   UNL A   1      45.523  26.719  30.075  1.00  0.00     0.074 A 
ATOM     55  C   UNL A   1      45.964  25.386  29.722  1.00  0.00     0.031 C 
ATOM     56  C   UNL A   1      46.315  27.655  30.655  1.00  0.00     0.031 A 
BRANCH  43  57
ATOM     57  C   UNL A   1      43.477  33.036  31.720  1.00  0.00    -0.014 A 
ATOM     58  C   UNL A   1      43.174  33.369  33.053  1.00  0.00     0.010 A 
ATOM     59  C   UNL A   1      43.928  34.043  30.847  1.00  0.00     0.010 A 
ATOM     60  C   UNL A   1      43.289  34.690  33.494  1.00  0.00     0.020 A 
ATOM     61  C   UNL A   1      44.064  35.361  31.291  1.00  0.00     0.020 A 
ATOM     62  C   UNL A   1      43.728  35.680  32.608  1.00  0.00     0.054 A 
BRANCH  62  63
ATOM     63  S   UNL A   1      43.892  37.384  33.209  1.00  0.00     0.124 S 
ATOM     64  O   UNL A   1      43.926  38.140  31.960  1.00  0.00    -0.237 OA
ATOM     65  O   UNL A   1      42.687  37.559  34.015  1.00  0.00    -0.237 OA
ATOM     66  O   UNL A   1      45.144  37.367  33.961  1.00  0.00    -0.744 OA
ENDBRANCH  62  63
ENDBRANCH  43  57
BRANCH  44  67
ATOM     67  C   UNL A   1      42.441  23.834  28.003  1.00  0.00    -0.014 A 
ATOM     68  C   UNL A   1      42.053  22.736  28.788  1.00  0.00     0.010 A 
ATOM     69  C   UNL A   1      42.705  23.638  26.634  1.00  0.00     0.010 A 
ATOM     70  C   UNL A   1      41.947  21.462  28.221  1.00  0.00     0.020 A 
ATOM     71  C   UNL A   1      42.577  22.372  26.058  1.00  0.00     0.020 A 
ATOM     72  C   UNL A   1      42.211  21.289  26.859  1.00  0.00     0.054 A 
BRANCH  72  73
ATOM     73  S   UNL A   1      42.018  19.640  26.126  1.00  0.00     0.124 S 
ATOM     74  O   UNL A   1      42.389  18.770  27.237  1.00  0.00    -0.237 OA
ATOM     75  O   UNL A   1      40.607  19.619  25.749  1.00  0.00    -0.237 OA
ATOM     76  O   UNL A   1      42.953  19.658  25.003  1.00  0.00    -0.744 OA
ENDBRANCH  72  73
ENDBRANCH  44  67
BRANCH  56  77
ATOM     77  C   UNL A   1      47.731  27.254  30.964  1.00  0.00    -0.014 A 
ATOM     78  C   UNL A   1      48.796  27.657  30.139  1.00  0.00     0.010 A 
ATOM     79  C   UNL A   1      48.002  26.473  32.102  1.00  0.00     0.010 A 
ATOM     80  C   UNL A   1      50.102  27.248  30.422  1.00  0.00     0.020 A 
ATOM     81  C   UNL A   1      49.308  26.081  32.401  1.00  0.00     0.020 A 
ATOM     82  C   UNL A   1      50.348  26.454  31.547  1.00  0.00     0.054 A 
BRANCH  82  83
ATOM     83  S   UNL A   1      52.051  25.940  31.905  1.00  0.00     0.124 S 
ATOM     84  O   UNL A   1      52.651  25.933  30.574  1.00  0.00    -0.237 OA
ATOM     85  O   UNL A   1      52.526  26.990  32.803  1.00  0.00    -0.237 OA
ATOM     86  O   UNL A   1      51.890  24.626  32.524  1.00  0.00    -0.744 OA
ENDBRANCH  82  83
ENDBRANCH  56  77
ENDBRANCH  30  31
ENDBRANCH  23  25
ENDBRANCH  22  23
ENDBRANCH  21  22
ENDBRANCH   1  21
TORSDOF 18
ENDMDL
MODEL 3
REMARK VINA RESULT:      -9.1      4.092     10.549
REMARK SMILES CC(=O)N/N=C/c1ccc(O[C@H](C)C(=O)OCCOC(=O)c2ccc(-c3c4nc(c(-c5ccc(S(=O)(=O)[O-])cc5)c5ccc([nH]5)c(-c5ccc(S(=O)(=O)[O-])cc5)c5nc(c(-c6ccc(S(=O)(=O)[O-])cc6)c6ccc3[nH]6)C=C5)C=C4)cc2)cc1
REMARK SMILES IDX 17 1 16 2 14 3 15 4 12 5 13 6 11 7 10 8 7 9 8 10 83 11 9 12
REMARK SMILES IDX 82 13 6 14 5 15 4 16 1 17 2 18 3 19 18 21 19 22 20 23 21 24
REMARK SMILES IDX 22 25 23 26 81 27 24 28 80 29 25 30 26 31 27 32 74 33 28 34
REMARK SMILES IDX 79 35 73 36 75 37 29 38 78 39 72 40 71 41 30 43 60 44 41 45
REMARK SMILES IDX 59 46 42 47 45 48 58 49 76 50 43 51 44 52 57 54 77 55 46 56
REMARK SMILES IDX 31 57 32 58 40 59 33 60 39 61 34 62 35 63 36 64 37 65 38 66
REMARK SMILES IDX 61 67 62 68 70 69 63 70 69 71 64 72 65 73 66 74 67 75 68 76
REMARK SMILES IDX 47 77 48 78 56 79 49 80 55 81 50 82 51 83 52 84 53 85 54 86
REMARK H PARENT 4 20 75 42 45 53
REMARK Flexibility Score: inf
ROOT
ATOM      1  C   UNL A   1      31.766  29.177  26.262  1.00  0.00     0.274 C 
ENDROOT
BRANCH   1   2
ATOM      2  O   UNL A   1      31.209  29.298  24.942  1.00  0.00    -0.459 OA
BRANCH   2   3
ATOM      3  C   UNL A   1      31.788  28.547  23.961  1.00  0.00     0.347 C 
ATOM      4  O   UNL A   1      32.496  28.997  23.067  1.00  0.00    -0.248 OA
BRANCH   3   5
ATOM      5  C   UNL A   1      31.453  27.060  24.110  1.00  0.00     0.279 C 
ATOM      6  C   UNL A   1      29.941  26.844  23.971  1.00  0.00     0.066 C 
BRANCH   5   7
ATOM      7  O   UNL A   1      32.245  26.405  23.119  1.00  0.00    -0.479 OA
BRANCH   7   8
ATOM      8  C   UNL A   1      33.101  25.401  23.459  1.00  0.00     0.120 A 
ATOM      9  C   UNL A   1      35.178  23.696  24.233  1.00  0.00    -0.005 A 
ATOM     10  C   UNL A   1      34.408  23.393  23.109  1.00  0.00     0.013 A 
ATOM     11  C   UNL A   1      34.857  24.799  25.023  1.00  0.00     0.013 A 
ATOM     12  C   UNL A   1      33.352  24.234  22.740  1.00  0.00     0.047 A 
ATOM     13  C   UNL A   1      33.822  25.647  24.631  1.00  0.00     0.047 A 
BRANCH   9  14
ATOM     14  C   UNL A   1      36.368  22.877  24.526  1.00  0.00     0.141 C 
ATOM     15  N   UNL A   1      36.691  22.552  25.739  1.00  0.00    -0.181 NA
BRANCH  15  16
ATOM     16  N   UNL A   1      37.861  21.868  25.871  1.00  0.00    -0.247 N 
ATOM     17  C   UNL A   1      39.105  23.823  26.741  1.00  0.00     0.116 C 
ATOM     18  C   UNL A   1      39.039  22.363  26.380  1.00  0.00     0.236 C 
ATOM     19  O   UNL A   1      40.015  21.623  26.523  1.00  0.00    -0.274 OA
ATOM     20  H   UNL A   1      37.864  20.929  25.572  1.00  0.00     0.193 HD
ENDBRANCH  15  16
ENDBRANCH   9  14
ENDBRANCH   7   8
ENDBRANCH   5   7
ENDBRANCH   3   5
ENDBRANCH   2   3
ENDBRANCH   1   2
BRANCH   1  21
ATOM     21  C   UNL A   1      32.291  30.529  26.750  1.00  0.00     0.275 C 
BRANCH  21  22
ATOM     22  O   UNL A   1      33.728  30.508  26.851  1.00  0.00    -0.458 OA
BRANCH  22  23
ATOM     23  C   UNL A   1      34.286  31.468  27.622  1.00  0.00     0.338 C 
ATOM     24  O   UNL A   1      33.804  32.542  27.937  1.00  0.00    -0.246 OA
BRANCH  23  25
ATOM     25  C   UNL A   1      35.573  30.988  28.144  1.00  0.00     0.060 A 
ATOM     26  C   UNL A   1      35.620  29.732  28.751  1.00  0.00     0.016 A 
ATOM     27  C   UNL A   1      36.698  31.813  28.130  1.00  0.00     0.016 A 
ATOM     28  C   UNL A   1      36.792  29.297  29.365  1.00  0.00     0.010 A 
ATOM     29  C   UNL A   1      37.881  31.367  28.731  1.00  0.00     0.010 A 
ATOM     30  C   UNL A   1      37.932  30.114  29.369  1.00  0.00    -0.014 A 
BRANCH  30  31
ATOM     31  C   UNL A   1      39.151  29.668  30.088  1.00  0.00     0.031 A 
ATOM     32  C   UNL A   1      39.548  30.329  31.381  1.00  0.00     0.074 A 
ATOM     33  C   UNL A   1      39.889  28.655  29.595  1.00  0.00     0.049 A 
ATOM     34  N   UNL A   1      40.592  30.104  32.136  1.00  0.00    -0.248 NA
ATOM     35  C   UNL A   1      38.654  31.384  31.889  1.00  0.00     0.031 C 
ATOM     36  C   UNL A   1      39.599  27.918  28.363  1.00  0.00     0.029 A 
ATOM     37  N   UNL A   1      41.033  28.069  30.074  1.00  0.00    -0.354 N 
ATOM     38  C   UNL A   1      40.502  31.006  33.189  1.00  0.00     0.074 A 
ATOM     39  C   UNL A   1      39.303  31.789  32.972  1.00  0.00     0.031 C 
ATOM     40  C   UNL A   1      40.539  26.974  28.187  1.00  0.00     0.029 A 
ATOM     41  C   UNL A   1      41.513  27.062  29.270  1.00  0.00     0.049 A 
ATOM     42  H   UNL A   1      41.469  28.344  30.913  1.00  0.00     0.167 HD
ATOM     43  C   UNL A   1      41.340  31.169  34.240  1.00  0.00     0.031 A 
ATOM     44  C   UNL A   1      42.623  26.307  29.383  1.00  0.00     0.031 A 
ATOM     45  C   UNL A   1      42.523  30.381  34.467  1.00  0.00     0.049 A 
ATOM     46  C   UNL A   1      43.540  26.512  30.558  1.00  0.00     0.074 A 
ATOM     47  C   UNL A   1      43.418  30.455  35.521  1.00  0.00     0.029 A 
ATOM     48  N   UNL A   1      42.975  29.375  33.629  1.00  0.00    -0.354 N 
ATOM     49  N   UNL A   1      43.428  27.361  31.551  1.00  0.00    -0.248 NA
ATOM     50  C   UNL A   1      44.728  25.652  30.628  1.00  0.00     0.031 C 
ATOM     51  C   UNL A   1      44.433  29.516  35.300  1.00  0.00     0.029 A 
ATOM     52  C   UNL A   1      44.145  28.829  34.133  1.00  0.00     0.049 A 
ATOM     53  H   UNL A   1      42.531  29.089  32.798  1.00  0.00     0.167 HD
ATOM     54  C   UNL A   1      44.526  27.128  32.371  1.00  0.00     0.074 A 
ATOM     55  C   UNL A   1      45.275  26.044  31.770  1.00  0.00     0.031 C 
ATOM     56  C   UNL A   1      44.883  27.756  33.518  1.00  0.00     0.031 A 
BRANCH  43  57
ATOM     57  C   UNL A   1      41.026  32.272  35.214  1.00  0.00    -0.014 A 
ATOM     58  C   UNL A   1      40.177  32.056  36.314  1.00  0.00     0.010 A 
ATOM     59  C   UNL A   1      41.624  33.535  35.046  1.00  0.00     0.010 A 
ATOM     60  C   UNL A   1      39.906  33.094  37.211  1.00  0.00     0.020 A 
ATOM     61  C   UNL A   1      41.371  34.568  35.952  1.00  0.00     0.020 A 
ATOM     62  C   UNL A   1      40.501  34.346  37.021  1.00  0.00     0.054 A 
BRANCH  62  63
ATOM     63  S   UNL A   1      40.152  35.671  38.210  1.00  0.00     0.124 S 
ATOM     64  O   UNL A   1      39.809  36.783  37.327  1.00  0.00    -0.237 OA
ATOM     65  O   UNL A   1      39.044  35.124  38.988  1.00  0.00    -0.237 OA
ATOM     66  O   UNL A   1      41.408  35.820  38.940  1.00  0.00    -0.744 OA
ENDBRANCH  62  63
ENDBRANCH  43  57
BRANCH  44  67
ATOM     67  C   UNL A   1      42.943  25.300  28.337  1.00  0.00    -0.014 A 
ATOM     68  C   UNL A   1      43.679  25.657  27.195  1.00  0.00     0.010 A 
ATOM     69  C   UNL A   1      42.509  23.969  28.484  1.00  0.00     0.010 A 
ATOM     70  C   UNL A   1      43.962  24.706  26.210  1.00  0.00     0.020 A 
ATOM     71  C   UNL A   1      42.810  23.011  27.513  1.00  0.00     0.020 A 
ATOM     72  C   UNL A   1      43.525  23.389  26.375  1.00  0.00     0.054 A 
BRANCH  72  73
ATOM     73  S   UNL A   1      43.944  22.155  25.113  1.00  0.00     0.124 S 
ATOM     74  O   UNL A   1      43.587  22.849  23.881  1.00  0.00    -0.237 OA
ATOM     75  O   UNL A   1      45.374  21.946  25.332  1.00  0.00    -0.237 OA
ATOM     76  O   UNL A   1      43.098  21.014  25.460  1.00  0.00    -0.744 OA
ENDBRANCH  72  73
ENDBRANCH  44  67
BRANCH  56  77
ATOM     77  C   UNL A   1      46.128  27.267  34.206  1.00  0.00    -0.014 A 
ATOM     78  C   UNL A   1      46.074  26.234  35.158  1.00  0.00     0.010 A 
ATOM     79  C   UNL A   1      47.372  27.840  33.885  1.00  0.00     0.010 A 
ATOM     80  C   UNL A   1      47.235  25.813  35.811  1.00  0.00     0.020 A 
ATOM     81  C   UNL A   1      48.538  27.407  34.518  1.00  0.00     0.020 A 
ATOM     82  C   UNL A   1      48.460  26.410  35.493  1.00  0.00     0.054 A 
BRANCH  82  83
ATOM     83  S   UNL A   1      49.960  25.846  36.343  1.00  0.00     0.124 S 
ATOM     84  O   UNL A   1      49.848  26.523  37.633  1.00  0.00    -0.237 OA
ATOM     85  O   UNL A   1      49.789  24.396  36.378  1.00  0.00    -0.237 OA
ATOM     86  O   UNL A   1      51.041  26.320  35.482  1.00  0.00    -0.744 OA
ENDBRANCH  82  83
ENDBRANCH  56  77
ENDBRANCH  30  31
ENDBRANCH  23  25
ENDBRANCH  22  23
ENDBRANCH  21  22
ENDBRANCH   1  21
TORSDOF 18
ENDMDL
