MODEL 1
REMARK VINA RESULT:      -9.9      0.000      0.000
REMARK SMILES O=C(OCCOC(=O)C1(Cc2nccs2)CC1)c1ccc(-c2c3nc(c(-c4ccc(S(=O)(=O)[O-])cc4)c4ccc([nH]4)c(-c4ccc(S(=O)(=O)[O-])cc4)c4nc(c(-c5ccc(S(=O)(=O)[O-])cc5)c5ccc2[nH]5)C=C4)C=C3)cc1
REMARK SMILES IDX 4 1 3 2 2 3 1 4 18 5 19 6 77 7 20 8 76 9 21 10 22 11 23 12
REMARK SMILES IDX 70 13 24 14 75 15 69 16 71 17 25 18 74 19 68 20 67 21 26 23
REMARK SMILES IDX 56 24 37 25 55 26 38 27 41 28 54 29 72 30 39 31 40 32 53 34
REMARK SMILES IDX 73 35 42 36 27 37 28 38 36 39 29 40 35 41 30 42 31 43 32 44
REMARK SMILES IDX 33 45 34 46 57 47 58 48 66 49 59 50 65 51 60 52 61 53 62 54
REMARK SMILES IDX 63 55 64 56 43 57 44 58 52 59 45 60 51 61 46 62 47 63 48 64
REMARK SMILES IDX 49 65 50 66 5 67 6 68 7 69 8 70 9 71 16 72 17 73 10 74 11 75
REMARK SMILES IDX 12 76 15 77 13 78 14 79
REMARK H PARENT 71 22 41 33
REMARK Flexibility Score: inf
ROOT
ATOM      1  C   UNL A   1      37.625  21.434  25.261  1.00  0.00     0.275 C 
ENDROOT
BRANCH   1   2
ATOM      2  O   UNL A   1      38.469  22.483  25.733  1.00  0.00    -0.458 OA
BRANCH   2   3
ATOM      3  C   UNL A   1      39.523  22.159  26.508  1.00  0.00     0.338 C 
ATOM      4  O   UNL A   1      39.883  21.022  26.750  1.00  0.00    -0.246 OA
BRANCH   3   5
ATOM      5  C   UNL A   1      40.126  23.434  26.993  1.00  0.00     0.060 A 
ATOM      6  C   UNL A   1      39.661  24.666  26.507  1.00  0.00     0.016 A 
ATOM      7  C   UNL A   1      41.081  23.413  28.009  1.00  0.00     0.016 A 
ATOM      8  C   UNL A   1      40.146  25.858  27.019  1.00  0.00     0.010 A 
ATOM      9  C   UNL A   1      41.529  24.616  28.566  1.00  0.00     0.010 A 
ATOM     10  C   UNL A   1      41.087  25.845  28.051  1.00  0.00    -0.014 A 
BRANCH  10  11
ATOM     11  C   UNL A   1      41.711  27.134  28.419  1.00  0.00     0.031 A 
ATOM     12  C   UNL A   1      43.080  27.431  27.879  1.00  0.00     0.074 A 
ATOM     13  C   UNL A   1      41.003  28.072  29.080  1.00  0.00     0.049 A 
ATOM     14  N   UNL A   1      43.730  28.564  27.860  1.00  0.00    -0.248 NA
ATOM     15  C   UNL A   1      43.812  26.308  27.269  1.00  0.00     0.031 C 
ATOM     16  C   UNL A   1      39.653  27.888  29.620  1.00  0.00     0.029 A 
ATOM     17  N   UNL A   1      41.296  29.382  29.363  1.00  0.00    -0.354 N 
ATOM     18  C   UNL A   1      44.939  28.286  27.233  1.00  0.00     0.074 A 
ATOM     19  C   UNL A   1      44.967  26.870  26.959  1.00  0.00     0.031 C 
ATOM     20  C   UNL A   1      39.219  29.051  30.133  1.00  0.00     0.029 A 
ATOM     21  C   UNL A   1      40.256  30.064  29.955  1.00  0.00     0.049 A 
ATOM     22  H   UNL A   1      42.165  29.794  29.162  1.00  0.00     0.167 HD
ATOM     23  C   UNL A   1      45.924  29.140  26.875  1.00  0.00     0.031 A 
ATOM     24  C   UNL A   1      40.141  31.368  30.275  1.00  0.00     0.031 A 
ATOM     25  C   UNL A   1      45.882  30.547  27.145  1.00  0.00     0.049 A 
ATOM     26  C   UNL A   1      41.265  32.297  29.899  1.00  0.00     0.074 A 
ATOM     27  C   UNL A   1      46.816  31.516  26.836  1.00  0.00     0.029 A 
ATOM     28  N   UNL A   1      44.833  31.184  27.795  1.00  0.00    -0.354 N 
ATOM     29  N   UNL A   1      42.381  32.026  29.262  1.00  0.00    -0.248 NA
ATOM     30  C   UNL A   1      41.100  33.713  30.253  1.00  0.00     0.031 C 
ATOM     31  C   UNL A   1      46.346  32.737  27.332  1.00  0.00     0.029 A 
ATOM     32  C   UNL A   1      45.099  32.535  27.906  1.00  0.00     0.049 A 
ATOM     33  H   UNL A   1      44.021  30.739  28.128  1.00  0.00     0.167 HD
ATOM     34  C   UNL A   1      43.032  33.243  29.102  1.00  0.00     0.074 A 
ATOM     35  C   UNL A   1      42.183  34.251  29.707  1.00  0.00     0.031 C 
ATOM     36  C   UNL A   1      44.220  33.509  28.504  1.00  0.00     0.031 A 
BRANCH  23  37
ATOM     37  C   UNL A   1      47.116  28.536  26.185  1.00  0.00    -0.014 A 
ATOM     38  C   UNL A   1      48.364  28.449  26.833  1.00  0.00     0.010 A 
ATOM     39  C   UNL A   1      47.013  28.137  24.842  1.00  0.00     0.010 A 
ATOM     40  C   UNL A   1      49.502  28.057  26.125  1.00  0.00     0.020 A 
ATOM     41  C   UNL A   1      48.144  27.713  24.139  1.00  0.00     0.020 A 
ATOM     42  C   UNL A   1      49.387  27.710  24.776  1.00  0.00     0.054 A 
BRANCH  42  43
ATOM     43  S   UNL A   1      50.887  27.265  23.859  1.00  0.00     0.124 S 
ATOM     44  O   UNL A   1      50.339  26.865  22.565  1.00  0.00    -0.237 OA
ATOM     45  O   UNL A   1      51.648  28.512  23.860  1.00  0.00    -0.237 OA
ATOM     46  O   UNL A   1      51.468  26.184  24.651  1.00  0.00    -0.744 OA
ENDBRANCH  42  43
ENDBRANCH  23  37
BRANCH  24  47
ATOM     47  C   UNL A   1      38.901  31.879  30.926  1.00  0.00    -0.014 A 
ATOM     48  C   UNL A   1      37.840  32.390  30.157  1.00  0.00     0.010 A 
ATOM     49  C   UNL A   1      38.772  31.856  32.328  1.00  0.00     0.010 A 
ATOM     50  C   UNL A   1      36.685  32.886  30.775  1.00  0.00     0.020 A 
ATOM     51  C   UNL A   1      37.612  32.329  32.949  1.00  0.00     0.020 A 
ATOM     52  C   UNL A   1      36.579  32.852  32.168  1.00  0.00     0.054 A 
BRANCH  52  53
ATOM     53  S   UNL A   1      35.055  33.462  32.946  1.00  0.00     0.124 S 
ATOM     54  O   UNL A   1      34.028  32.702  32.241  1.00  0.00    -0.237 OA
ATOM     55  O   UNL A   1      35.255  33.107  34.349  1.00  0.00    -0.237 OA
ATOM     56  O   UNL A   1      35.078  34.896  32.666  1.00  0.00    -0.744 OA
ENDBRANCH  52  53
ENDBRANCH  24  47
BRANCH  36  57
ATOM     57  C   UNL A   1      44.648  34.947  28.428  1.00  0.00    -0.014 A 
ATOM     58  C   UNL A   1      45.481  35.511  29.408  1.00  0.00     0.010 A 
ATOM     59  C   UNL A   1      44.274  35.717  27.311  1.00  0.00     0.010 A 
ATOM     60  C   UNL A   1      45.917  36.832  29.281  1.00  0.00     0.020 A 
ATOM     61  C   UNL A   1      44.729  37.028  27.169  1.00  0.00     0.020 A 
ATOM     62  C   UNL A   1      45.539  37.581  28.161  1.00  0.00     0.054 A 
BRANCH  62  63
ATOM     63  S   UNL A   1      46.171  39.271  27.987  1.00  0.00     0.124 S 
ATOM     64  O   UNL A   1      47.293  39.273  28.921  1.00  0.00    -0.237 OA
ATOM     65  O   UNL A   1      46.530  39.336  26.572  1.00  0.00    -0.237 OA
ATOM     66  O   UNL A   1      45.035  40.106  28.372  1.00  0.00    -0.744 OA
ENDBRANCH  62  63
ENDBRANCH  36  57
ENDBRANCH  10  11
ENDBRANCH   3   5
ENDBRANCH   2   3
ENDBRANCH   1   2
BRANCH   1  67
ATOM     67  C   UNL A   1      36.275  21.742  24.575  1.00  0.00     0.274 C 
BRANCH  67  68
ATOM     68  O   UNL A   1      35.264  20.720  24.600  1.00  0.00    -0.462 OA
BRANCH  68  69
ATOM     69  C   UNL A   1      34.197  21.001  25.415  1.00  0.00     0.312 C 
ATOM     70  O   UNL A   1      34.252  21.169  26.625  1.00  0.00    -0.252 OA
BRANCH  69  71
ATOM     71  C   UNL A   1      32.862  20.899  24.722  1.00  0.00     0.074 C 
ATOM     72  C   UNL A   1      31.659  21.573  25.378  1.00  0.00     0.020 C 
ATOM     73  C   UNL A   1      32.301  22.224  24.198  1.00  0.00     0.020 C 
BRANCH  71  74
ATOM     74  C   UNL A   1      32.533  19.664  23.894  1.00  0.00     0.086 C 
BRANCH  74  75
ATOM     75  C   UNL A   1      32.823  18.303  24.449  1.00  0.00     0.094 A 
ATOM     76  N   UNL A   1      32.152  17.758  25.437  1.00  0.00    -0.250 NA
ATOM     77  S   UNL A   1      33.959  17.260  23.682  1.00  0.00    -0.127 S 
ATOM     78  C   UNL A   1      32.491  16.428  25.573  1.00  0.00     0.123 A 
ATOM     79  C   UNL A   1      33.448  15.973  24.694  1.00  0.00     0.087 A 
ENDBRANCH  74  75
ENDBRANCH  71  74
ENDBRANCH  69  71
ENDBRANCH  68  69
ENDBRANCH  67  68
ENDBRANCH   1  67
TORSDOF 16
ENDMDL
MODEL 2
REMARK VINA RESULT:      -9.7      5.239     10.292
REMARK SMILES O=C(OCCOC(=O)C1(Cc2nccs2)CC1)c1ccc(-c2c3nc(c(-c4ccc(S(=O)(=O)[O-])cc4)c4ccc([nH]4)c(-c4ccc(S(=O)(=O)[O-])cc4)c4nc(c(-c5ccc(S(=O)(=O)[O-])cc5)c5ccc2[nH]5)C=C4)C=C3)cc1
REMARK SMILES IDX 4 1 3 2 2 3 1 4 18 5 19 6 77 7 20 8 76 9 21 10 22 11 23 12
REMARK SMILES IDX 70 13 24 14 75 15 69 16 71 17 25 18 74 19 68 20 67 21 26 23
REMARK SMILES IDX 56 24 37 25 55 26 38 27 41 28 54 29 72 30 39 31 40 32 53 34
REMARK SMILES IDX 73 35 42 36 27 37 28 38 36 39 29 40 35 41 30 42 31 43 32 44
REMARK SMILES IDX 33 45 34 46 57 47 58 48 66 49 59 50 65 51 60 52 61 53 62 54
REMARK SMILES IDX 63 55 64 56 43 57 44 58 52 59 45 60 51 61 46 62 47 63 48 64
REMARK SMILES IDX 49 65 50 66 5 67 6 68 7 69 8 70 9 71 16 72 17 73 10 74 11 75
REMARK SMILES IDX 12 76 15 77 13 78 14 79
REMARK H PARENT 71 22 41 33
REMARK Flexibility Score: inf
ROOT
ATOM      1  C   UNL A   1      40.736  21.466  26.457  1.00  0.00     0.275 C 
ENDROOT
BRANCH   1   2
ATOM      2  O   UNL A   1      39.380  21.789  26.764  1.00  0.00    -0.458 OA
BRANCH   2   3
ATOM      3  C   UNL A   1      38.816  22.844  26.144  1.00  0.00     0.338 C 
ATOM      4  O   UNL A   1      38.046  22.768  25.206  1.00  0.00    -0.246 OA
BRANCH   3   5
ATOM      5  C   UNL A   1      39.320  24.075  26.818  1.00  0.00     0.060 A 
ATOM      6  C   UNL A   1      40.053  25.028  26.093  1.00  0.00     0.016 A 
ATOM      7  C   UNL A   1      38.975  24.338  28.144  1.00  0.00     0.016 A 
ATOM      8  C   UNL A   1      40.444  26.220  26.683  1.00  0.00     0.010 A 
ATOM      9  C   UNL A   1      39.320  25.565  28.722  1.00  0.00     0.010 A 
ATOM     10  C   UNL A   1      40.084  26.498  28.003  1.00  0.00    -0.014 A 
BRANCH  10  11
ATOM     11  C   UNL A   1      40.692  27.687  28.638  1.00  0.00     0.031 A 
ATOM     12  C   UNL A   1      39.819  28.888  28.862  1.00  0.00     0.074 A 
ATOM     13  C   UNL A   1      41.941  27.628  29.144  1.00  0.00     0.049 A 
ATOM     14  N   UNL A   1      40.044  29.944  29.597  1.00  0.00    -0.248 NA
ATOM     15  C   UNL A   1      38.516  28.899  28.177  1.00  0.00     0.031 C 
ATOM     16  C   UNL A   1      42.858  26.493  29.003  1.00  0.00     0.029 A 
ATOM     17  N   UNL A   1      42.635  28.518  29.923  1.00  0.00    -0.354 N 
ATOM     18  C   UNL A   1      38.909  30.735  29.464  1.00  0.00     0.074 A 
ATOM     19  C   UNL A   1      38.035  30.080  28.521  1.00  0.00     0.031 C 
ATOM     20  C   UNL A   1      43.976  26.738  29.705  1.00  0.00     0.029 A 
ATOM     21  C   UNL A   1      43.855  28.043  30.349  1.00  0.00     0.049 A 
ATOM     22  H   UNL A   1      42.294  29.410  30.155  1.00  0.00     0.167 HD
ATOM     23  C   UNL A   1      38.598  31.885  30.103  1.00  0.00     0.031 A 
ATOM     24  C   UNL A   1      44.751  28.583  31.198  1.00  0.00     0.031 A 
ATOM     25  C   UNL A   1      39.471  32.523  31.045  1.00  0.00     0.049 A 
ATOM     26  C   UNL A   1      44.401  29.883  31.874  1.00  0.00     0.074 A 
ATOM     27  C   UNL A   1      39.273  33.689  31.756  1.00  0.00     0.029 A 
ATOM     28  N   UNL A   1      40.719  32.033  31.404  1.00  0.00    -0.354 N 
ATOM     29  N   UNL A   1      43.302  30.594  31.774  1.00  0.00    -0.248 NA
ATOM     30  C   UNL A   1      45.396  30.436  32.802  1.00  0.00     0.031 C 
ATOM     31  C   UNL A   1      40.421  33.925  32.521  1.00  0.00     0.029 A 
ATOM     32  C   UNL A   1      41.311  32.879  32.322  1.00  0.00     0.049 A 
ATOM     33  H   UNL A   1      41.124  31.206  31.056  1.00  0.00     0.167 HD
ATOM     34  C   UNL A   1      43.455  31.656  32.657  1.00  0.00     0.074 A 
ATOM     35  C   UNL A   1      44.752  31.491  33.283  1.00  0.00     0.031 C 
ATOM     36  C   UNL A   1      42.600  32.672  32.933  1.00  0.00     0.031 A 
BRANCH  23  37
ATOM     37  C   UNL A   1      37.272  32.505  29.759  1.00  0.00    -0.014 A 
ATOM     38  C   UNL A   1      37.158  33.442  28.713  1.00  0.00     0.010 A 
ATOM     39  C   UNL A   1      36.146  32.220  30.549  1.00  0.00     0.010 A 
ATOM     40  C   UNL A   1      35.966  34.145  28.521  1.00  0.00     0.020 A 
ATOM     41  C   UNL A   1      34.942  32.898  30.339  1.00  0.00     0.020 A 
ATOM     42  C   UNL A   1      34.871  33.881  29.349  1.00  0.00     0.054 A 
BRANCH  42  43
ATOM     43  S   UNL A   1      33.354  34.849  29.124  1.00  0.00     0.124 S 
ATOM     44  O   UNL A   1      33.878  36.111  28.609  1.00  0.00    -0.237 OA
ATOM     45  O   UNL A   1      32.597  34.046  28.167  1.00  0.00    -0.237 OA
ATOM     46  O   UNL A   1      32.783  34.912  30.467  1.00  0.00    -0.744 OA
ENDBRANCH  42  43
ENDBRANCH  23  37
BRANCH  24  47
ATOM     47  C   UNL A   1      46.025  27.872  31.506  1.00  0.00    -0.014 A 
ATOM     48  C   UNL A   1      46.103  26.956  32.571  1.00  0.00     0.010 A 
ATOM     49  C   UNL A   1      47.175  28.106  30.728  1.00  0.00     0.010 A 
ATOM     50  C   UNL A   1      47.307  26.306  32.866  1.00  0.00     0.020 A 
ATOM     51  C   UNL A   1      48.375  27.442  31.004  1.00  0.00     0.020 A 
ATOM     52  C   UNL A   1      48.436  26.553  32.080  1.00  0.00     0.054 A 
BRANCH  52  53
ATOM     53  S   UNL A   1      49.976  25.666  32.454  1.00  0.00     0.124 S 
ATOM     54  O   UNL A   1      50.222  24.943  31.210  1.00  0.00    -0.237 OA
ATOM     55  O   UNL A   1      50.903  26.757  32.746  1.00  0.00    -0.237 OA
ATOM     56  O   UNL A   1      49.623  24.836  33.603  1.00  0.00    -0.744 OA
ENDBRANCH  52  53
ENDBRANCH  24  47
BRANCH  36  57
ATOM     57  C   UNL A   1      43.016  33.655  33.991  1.00  0.00    -0.014 A 
ATOM     58  C   UNL A   1      43.710  34.831  33.660  1.00  0.00     0.010 A 
ATOM     59  C   UNL A   1      42.629  33.432  35.325  1.00  0.00     0.010 A 
ATOM     60  C   UNL A   1      44.029  35.759  34.653  1.00  0.00     0.020 A 
ATOM     61  C   UNL A   1      42.924  34.370  36.315  1.00  0.00     0.020 A 
ATOM     62  C   UNL A   1      43.632  35.524  35.974  1.00  0.00     0.054 A 
BRANCH  62  63
ATOM     63  S   UNL A   1      44.001  36.774  37.233  1.00  0.00     0.124 S 
ATOM     64  O   UNL A   1      45.294  36.323  37.739  1.00  0.00    -0.237 OA
ATOM     65  O   UNL A   1      44.026  38.013  36.459  1.00  0.00    -0.237 OA
ATOM     66  O   UNL A   1      42.887  36.658  38.172  1.00  0.00    -0.744 OA
ENDBRANCH  62  63
ENDBRANCH  36  57
ENDBRANCH  10  11
ENDBRANCH   3   5
ENDBRANCH   2   3
ENDBRANCH   1   2
BRANCH   1  67
ATOM     67  C   UNL A   1      41.192  19.997  26.305  1.00  0.00     0.274 C 
BRANCH  67  68
ATOM     68  O   UNL A   1      42.037  19.672  25.188  1.00  0.00    -0.462 OA
BRANCH  68  69
ATOM     69  C   UNL A   1      43.272  19.188  25.536  1.00  0.00     0.312 C 
ATOM     70  O   UNL A   1      43.485  18.307  26.357  1.00  0.00    -0.252 OA
BRANCH  69  71
ATOM     71  C   UNL A   1      44.418  19.977  24.956  1.00  0.00     0.074 C 
ATOM     72  C   UNL A   1      45.839  19.502  25.250  1.00  0.00     0.020 C 
ATOM     73  C   UNL A   1      45.250  19.234  23.905  1.00  0.00     0.020 C 
BRANCH  71  74
ATOM     74  C   UNL A   1      44.273  21.479  24.748  1.00  0.00     0.086 C 
BRANCH  74  75
ATOM     75  C   UNL A   1      44.646  22.417  25.855  1.00  0.00     0.094 A 
ATOM     76  N   UNL A   1      44.035  22.458  27.016  1.00  0.00    -0.250 NA
ATOM     77  S   UNL A   1      46.061  23.393  25.745  1.00  0.00    -0.127 S 
ATOM     78  C   UNL A   1      44.737  23.249  27.901  1.00  0.00     0.123 A 
ATOM     79  C   UNL A   1      45.877  23.830  27.393  1.00  0.00     0.087 A 
ENDBRANCH  74  75
ENDBRANCH  71  74
ENDBRANCH  69  71
ENDBRANCH  68  69
ENDBRANCH  67  68
ENDBRANCH   1  67
TORSDOF 16
ENDMDL
MODEL 3
REMARK VINA RESULT:      -9.7      4.637     10.279
REMARK SMILES O=C(OCCOC(=O)C1(Cc2nccs2)CC1)c1ccc(-c2c3nc(c(-c4ccc(S(=O)(=O)[O-])cc4)c4ccc([nH]4)c(-c4ccc(S(=O)(=O)[O-])cc4)c4nc(c(-c5ccc(S(=O)(=O)[O-])cc5)c5ccc2[nH]5)C=C4)C=C3)cc1
REMARK SMILES IDX 4 1 3 2 2 3 1 4 18 5 19 6 77 7 20 8 76 9 21 10 22 11 23 12
REMARK SMILES IDX 70 13 24 14 75 15 69 16 71 17 25 18 74 19 68 20 67 21 26 23
REMARK SMILES IDX 56 24 37 25 55 26 38 27 41 28 54 29 72 30 39 31 40 32 53 34
REMARK SMILES IDX 73 35 42 36 27 37 28 38 36 39 29 40 35 41 30 42 31 43 32 44
REMARK SMILES IDX 33 45 34 46 57 47 58 48 66 49 59 50 65 51 60 52 61 53 62 54
REMARK SMILES IDX 63 55 64 56 43 57 44 58 52 59 45 60 51 61 46 62 47 63 48 64
REMARK SMILES IDX 49 65 50 66 5 67 6 68 7 69 8 70 9 71 16 72 17 73 10 74 11 75
REMARK SMILES IDX 12 76 15 77 13 78 14 79
REMARK H PARENT 71 22 41 33
REMARK Flexibility Score: inf
ROOT
ATOM      1  C   UNL A   1      34.702  32.831  28.081  1.00  0.00     0.275 C 
ENDROOT
BRANCH   1   2
ATOM      2  O   UNL A   1      34.129  31.638  28.616  1.00  0.00    -0.458 OA
BRANCH   2   3
ATOM      3  C   UNL A   1      34.397  30.469  28.003  1.00  0.00     0.338 C 
ATOM      4  O   UNL A   1      33.599  29.835  27.338  1.00  0.00    -0.246 OA
BRANCH   3   5
ATOM      5  C   UNL A   1      35.816  30.124  28.305  1.00  0.00     0.060 A 
ATOM      6  C   UNL A   1      36.179  29.685  29.589  1.00  0.00     0.016 A 
ATOM      7  C   UNL A   1      36.770  30.133  27.288  1.00  0.00     0.016 A 
ATOM      8  C   UNL A   1      37.474  29.271  29.856  1.00  0.00     0.010 A 
ATOM      9  C   UNL A   1      38.062  29.661  27.542  1.00  0.00     0.010 A 
ATOM     10  C   UNL A   1      38.428  29.258  28.836  1.00  0.00    -0.014 A 
BRANCH  10  11
ATOM     11  C   UNL A   1      39.832  28.997  29.222  1.00  0.00     0.031 A 
ATOM     12  C   UNL A   1      40.430  27.673  28.844  1.00  0.00     0.074 A 
ATOM     13  C   UNL A   1      40.590  29.981  29.747  1.00  0.00     0.049 A 
ATOM     14  N   UNL A   1      41.682  27.302  28.856  1.00  0.00    -0.248 NA
ATOM     15  C   UNL A   1      39.498  26.631  28.380  1.00  0.00     0.031 C 
ATOM     16  C   UNL A   1      40.107  31.313  30.123  1.00  0.00     0.029 A 
ATOM     17  N   UNL A   1      41.936  30.034  30.006  1.00  0.00    -0.354 N 
ATOM     18  C   UNL A   1      41.682  25.990  28.398  1.00  0.00     0.074 A 
ATOM     19  C   UNL A   1      40.308  25.604  28.193  1.00  0.00     0.031 C 
ATOM     20  C   UNL A   1      41.145  32.063  30.526  1.00  0.00     0.029 A 
ATOM     21  C   UNL A   1      42.367  31.270  30.434  1.00  0.00     0.049 A 
ATOM     22  H   UNL A   1      42.536  29.262  29.898  1.00  0.00     0.167 HD
ATOM     23  C   UNL A   1      42.736  25.186  28.128  1.00  0.00     0.031 A 
ATOM     24  C   UNL A   1      43.614  31.720  30.679  1.00  0.00     0.031 A 
ATOM     25  C   UNL A   1      44.099  25.583  28.328  1.00  0.00     0.049 A 
ATOM     26  C   UNL A   1      44.773  30.798  30.405  1.00  0.00     0.074 A 
ATOM     27  C   UNL A   1      45.253  24.862  28.095  1.00  0.00     0.029 A 
ATOM     28  N   UNL A   1      44.485  26.825  28.813  1.00  0.00    -0.354 N 
ATOM     29  N   UNL A   1      44.757  29.576  29.925  1.00  0.00    -0.248 NA
ATOM     30  C   UNL A   1      46.117  31.326  30.672  1.00  0.00     0.031 C 
ATOM     31  C   UNL A   1      46.340  25.658  28.474  1.00  0.00     0.029 A 
ATOM     32  C   UNL A   1      45.862  26.890  28.897  1.00  0.00     0.049 A 
ATOM     33  H   UNL A   1      43.869  27.551  29.062  1.00  0.00     0.167 HD
ATOM     34  C   UNL A   1      46.090  29.203  29.794  1.00  0.00     0.074 A 
ATOM     35  C   UNL A   1      46.883  30.331  30.242  1.00  0.00     0.031 C 
ATOM     36  C   UNL A   1      46.615  28.039  29.336  1.00  0.00     0.031 A 
BRANCH  23  37
ATOM     37  C   UNL A   1      42.414  23.808  27.619  1.00  0.00    -0.014 A 
ATOM     38  C   UNL A   1      42.081  22.766  28.506  1.00  0.00     0.010 A 
ATOM     39  C   UNL A   1      42.539  23.527  26.248  1.00  0.00     0.010 A 
ATOM     40  C   UNL A   1      41.964  21.453  28.043  1.00  0.00     0.020 A 
ATOM     41  C   UNL A   1      42.390  22.220  25.776  1.00  0.00     0.020 A 
ATOM     42  C   UNL A   1      42.139  21.187  26.682  1.00  0.00     0.054 A 
BRANCH  42  43
ATOM     43  S   UNL A   1      42.045  19.468  26.110  1.00  0.00     0.124 S 
ATOM     44  O   UNL A   1      42.587  18.742  27.255  1.00  0.00    -0.237 OA
ATOM     45  O   UNL A   1      40.616  19.285  25.870  1.00  0.00    -0.237 OA
ATOM     46  O   UNL A   1      42.881  19.457  24.912  1.00  0.00    -0.744 OA
ENDBRANCH  42  43
ENDBRANCH  23  37
BRANCH  24  47
ATOM     47  C   UNL A   1      43.833  33.119  31.147  1.00  0.00    -0.014 A 
ATOM     48  C   UNL A   1      43.801  33.436  32.516  1.00  0.00     0.010 A 
ATOM     49  C   UNL A   1      44.079  34.148  30.218  1.00  0.00     0.010 A 
ATOM     50  C   UNL A   1      43.990  34.754  32.948  1.00  0.00     0.020 A 
ATOM     51  C   UNL A   1      44.290  35.463  30.645  1.00  0.00     0.020 A 
ATOM     52  C   UNL A   1      44.233  35.760  32.009  1.00  0.00     0.054 A 
BRANCH  52  53
ATOM     53  S   UNL A   1      44.516  37.456  32.594  1.00  0.00     0.124 S 
ATOM     54  O   UNL A   1      43.902  37.428  33.918  1.00  0.00    -0.237 OA
ATOM     55  O   UNL A   1      45.973  37.556  32.574  1.00  0.00    -0.237 OA
ATOM     56  O   UNL A   1      43.830  38.279  31.601  1.00  0.00    -0.744 OA
ENDBRANCH  52  53
ENDBRANCH  24  47
BRANCH  36  57
ATOM     57  C   UNL A   1      48.112  27.944  29.251  1.00  0.00    -0.014 A 
ATOM     58  C   UNL A   1      48.868  27.401  30.303  1.00  0.00     0.010 A 
ATOM     59  C   UNL A   1      48.757  28.328  28.061  1.00  0.00     0.010 A 
ATOM     60  C   UNL A   1      50.252  27.264  30.173  1.00  0.00     0.020 A 
ATOM     61  C   UNL A   1      50.136  28.169  27.919  1.00  0.00     0.020 A 
ATOM     62  C   UNL A   1      50.877  27.648  28.981  1.00  0.00     0.054 A 
BRANCH  62  63
ATOM     63  S   UNL A   1      52.664  27.400  28.813  1.00  0.00     0.124 S 
ATOM     64  O   UNL A   1      53.030  28.458  27.876  1.00  0.00    -0.237 OA
ATOM     65  O   UNL A   1      53.144  27.578  30.181  1.00  0.00    -0.237 OA
ATOM     66  O   UNL A   1      52.777  26.039  28.292  1.00  0.00    -0.744 OA
ENDBRANCH  62  63
ENDBRANCH  36  57
ENDBRANCH  10  11
ENDBRANCH   3   5
ENDBRANCH   2   3
ENDBRANCH   1   2
BRANCH   1  67
ATOM     67  C   UNL A   1      34.972  34.060  28.979  1.00  0.00     0.274 C 
BRANCH  67  68
ATOM     68  O   UNL A   1      33.883  34.560  29.772  1.00  0.00    -0.462 OA
BRANCH  68  69
ATOM     69  C   UNL A   1      33.985  34.281  31.112  1.00  0.00     0.312 C 
ATOM     70  O   UNL A   1      34.023  33.162  31.604  1.00  0.00    -0.252 OA
BRANCH  69  71
ATOM     71  C   UNL A   1      33.849  35.494  31.996  1.00  0.00     0.074 C 
ATOM     72  C   UNL A   1      33.178  36.736  31.414  1.00  0.00     0.020 C 
ATOM     73  C   UNL A   1      32.410  35.874  32.360  1.00  0.00     0.020 C 
BRANCH  71  74
ATOM     74  C   UNL A   1      34.900  35.772  33.062  1.00  0.00     0.086 C 
BRANCH  74  75
ATOM     75  C   UNL A   1      35.892  34.707  33.417  1.00  0.00     0.094 A 
ATOM     76  N   UNL A   1      35.668  33.766  34.304  1.00  0.00    -0.250 NA
ATOM     77  S   UNL A   1      37.353  34.528  32.522  1.00  0.00    -0.127 S 
ATOM     78  C   UNL A   1      36.659  32.808  34.251  1.00  0.00     0.123 A 
ATOM     79  C   UNL A   1      37.654  33.044  33.329  1.00  0.00     0.087 A 
ENDBRANCH  74  75
ENDBRANCH  71  74
ENDBRANCH  69  71
ENDBRANCH  68  69
ENDBRANCH  67  68
ENDBRANCH   1  67
TORSDOF 16
ENDMDL
