MODEL 1
REMARK VINA RESULT:     -13.5      0.000      0.000
REMARK SMILES Cc1ccc(-c2cc(C[C@H]3CCCC3=O)ccc2[C@@H](C)C(=O)OCCOC(=O)c2ccc(-c3c4nc(c(-c5ccc(S(=O)(=O)[O-])cc5)c5ccc([nH]5)c(-c5ccc(S(=O)(=O)[O-])cc5)c5nc(c(-c6ccc(S(=O)(=O)[O-])cc6)c6ccc3[nH]6)C=C5)C=C4)cc2)cc1
REMARK SMILES IDX 24 1 23 2 21 3 22 4 19 5 20 6 18 7 6 8 7 9 8 10 17 11 16 12
REMARK SMILES IDX 5 13 1 14 2 15 3 16 90 17 4 18 89 19 9 20 10 21 11 22 14 23
REMARK SMILES IDX 12 24 13 25 15 26 25 27 26 28 27 29 28 30 29 31 30 32 88 33
REMARK SMILES IDX 31 34 87 35 32 36 33 37 34 38 81 39 35 40 86 41 80 42 82 43
REMARK SMILES IDX 36 44 85 45 79 46 78 47 37 49 67 50 48 51 66 52 49 53 52 54
REMARK SMILES IDX 65 55 83 56 50 57 51 58 64 60 84 61 53 62 38 63 39 64 47 65
REMARK SMILES IDX 40 66 46 67 41 68 42 69 43 70 44 71 45 72 68 73 69 74 77 75
REMARK SMILES IDX 70 76 76 77 71 78 72 79 73 80 74 81 75 82 54 83 55 84 63 85
REMARK SMILES IDX 56 86 62 87 57 88 58 89 59 90 60 91 61 92
REMARK H PARENT 82 48 52 59
REMARK Flexibility Score: inf
ROOT
ATOM      1  C   UNL A   1      32.934  30.542  26.498  1.00  0.00     0.274 C 
ENDROOT
BRANCH   1   2
ATOM      2  O   UNL A   1      33.077  29.605  25.420  1.00  0.00    -0.462 OA
BRANCH   2   3
ATOM      3  C   UNL A   1      32.928  28.291  25.766  1.00  0.00     0.313 C 
ATOM      4  O   UNL A   1      33.823  27.462  25.658  1.00  0.00    -0.252 OA
BRANCH   3   5
ATOM      5  C   UNL A   1      31.469  27.974  26.150  1.00  0.00     0.127 C 
ATOM      6  C   UNL A   1      31.239  27.987  27.660  1.00  0.00     0.025 C 
BRANCH   5   7
ATOM      7  C   UNL A   1      31.121  26.632  25.529  1.00  0.00    -0.026 A 
ATOM      8  C   UNL A   1      30.711  26.514  24.186  1.00  0.00    -0.014 A 
ATOM      9  C   UNL A   1      30.893  25.270  23.558  1.00  0.00     0.012 A 
ATOM     10  C   UNL A   1      31.390  24.160  24.260  1.00  0.00    -0.047 A 
ATOM     11  C   UNL A   1      31.451  25.482  26.268  1.00  0.00     0.005 A 
ATOM     12  C   UNL A   1      31.578  24.256  25.639  1.00  0.00     0.004 A 
BRANCH   8  13
ATOM     13  C   UNL A   1      30.091  27.616  23.427  1.00  0.00    -0.018 A 
ATOM     14  C   UNL A   1      28.328  30.977  21.326  1.00  0.00     0.044 C 
ATOM     15  C   UNL A   1      28.952  29.828  22.062  1.00  0.00    -0.051 A 
ATOM     16  C   UNL A   1      28.145  28.915  22.748  1.00  0.00     0.004 A 
ATOM     17  C   UNL A   1      30.331  29.608  22.028  1.00  0.00     0.004 A 
ATOM     18  C   UNL A   1      28.710  27.836  23.439  1.00  0.00     0.009 A 
ATOM     19  C   UNL A   1      30.892  28.513  22.700  1.00  0.00     0.009 A 
ENDBRANCH   8  13
BRANCH  10  20
ATOM     20  C   UNL A   1      31.755  22.885  23.549  1.00  0.00     0.047 C 
BRANCH  20  21
ATOM     21  C   UNL A   1      33.240  22.723  23.190  1.00  0.00     0.060 C 
ATOM     22  C   UNL A   1      34.048  24.017  23.058  1.00  0.00     0.012 C 
ATOM     23  C   UNL A   1      34.044  21.943  24.209  1.00  0.00     0.136 C 
ATOM     24  C   UNL A   1      34.866  24.156  24.334  1.00  0.00     0.009 C 
ATOM     25  C   UNL A   1      35.168  22.745  24.808  1.00  0.00     0.076 C 
ATOM     26  O   UNL A   1      33.836  20.765  24.480  1.00  0.00    -0.299 OA
ENDBRANCH  20  21
ENDBRANCH  10  20
ENDBRANCH   5   7
ENDBRANCH   3   5
ENDBRANCH   2   3
ENDBRANCH   1   2
BRANCH   1  27
ATOM     27  C   UNL A   1      33.959  30.259  27.613  1.00  0.00     0.275 C 
BRANCH  27  28
ATOM     28  O   UNL A   1      35.260  30.866  27.478  1.00  0.00    -0.458 OA
BRANCH  28  29
ATOM     29  C   UNL A   1      36.040  30.870  28.594  1.00  0.00     0.338 C 
ATOM     30  O   UNL A   1      35.709  31.420  29.642  1.00  0.00    -0.246 OA
BRANCH  29  31
ATOM     31  C   UNL A   1      37.107  29.851  28.397  1.00  0.00     0.060 A 
ATOM     32  C   UNL A   1      37.953  29.903  27.278  1.00  0.00     0.016 A 
ATOM     33  C   UNL A   1      37.473  29.099  29.514  1.00  0.00     0.016 A 
ATOM     34  C   UNL A   1      39.234  29.332  27.344  1.00  0.00     0.010 A 
ATOM     35  C   UNL A   1      38.764  28.641  29.619  1.00  0.00     0.010 A 
ATOM     36  C   UNL A   1      39.658  28.750  28.542  1.00  0.00    -0.014 A 
BRANCH  36  37
ATOM     37  C   UNL A   1      40.889  27.979  28.729  1.00  0.00     0.031 A 
ATOM     38  C   UNL A   1      41.102  26.565  28.341  1.00  0.00     0.074 A 
ATOM     39  C   UNL A   1      41.910  28.730  29.199  1.00  0.00     0.049 A 
ATOM     40  N   UNL A   1      42.083  25.838  28.767  1.00  0.00    -0.248 NA
ATOM     41  C   UNL A   1      40.218  25.822  27.458  1.00  0.00     0.031 C 
ATOM     42  C   UNL A   1      43.330  28.437  29.261  1.00  0.00     0.029 A 
ATOM     43  N   UNL A   1      41.775  29.920  29.925  1.00  0.00    -0.354 N 
ATOM     44  C   UNL A   1      42.116  24.671  28.025  1.00  0.00     0.074 A 
ATOM     45  C   UNL A   1      40.878  24.669  27.290  1.00  0.00     0.031 C 
ATOM     46  C   UNL A   1      43.867  29.201  30.230  1.00  0.00     0.029 A 
ATOM     47  C   UNL A   1      42.764  29.884  30.900  1.00  0.00     0.049 A 
ATOM     48  H   UNL A   1      41.116  30.635  29.775  1.00  0.00     0.167 HD
ATOM     49  C   UNL A   1      43.250  23.910  28.022  1.00  0.00     0.031 A 
ATOM     50  C   UNL A   1      42.445  29.793  32.224  1.00  0.00     0.031 A 
ATOM     51  C   UNL A   1      44.208  24.419  29.000  1.00  0.00     0.049 A 
ATOM     52  C   UNL A   1      43.036  28.543  32.824  1.00  0.00     0.074 A 
ATOM     53  C   UNL A   1      45.310  25.247  28.884  1.00  0.00     0.029 A 
ATOM     54  N   UNL A   1      43.890  24.358  30.352  1.00  0.00    -0.354 N 
ATOM     55  N   UNL A   1      43.283  27.453  32.148  1.00  0.00    -0.248 NA
ATOM     56  C   UNL A   1      43.432  28.448  34.222  1.00  0.00     0.031 C 
ATOM     57  C   UNL A   1      45.567  25.798  30.168  1.00  0.00     0.029 A 
ATOM     58  C   UNL A   1      44.654  25.263  31.063  1.00  0.00     0.049 A 
ATOM     59  H   UNL A   1      43.218  23.757  30.746  1.00  0.00     0.167 HD
ATOM     60  C   UNL A   1      43.955  26.575  32.952  1.00  0.00     0.074 A 
ATOM     61  C   UNL A   1      43.990  27.226  34.252  1.00  0.00     0.031 C 
ATOM     62  C   UNL A   1      44.486  25.404  32.500  1.00  0.00     0.031 A 
BRANCH  49  63
ATOM     63  C   UNL A   1      43.623  22.874  26.973  1.00  0.00    -0.014 A 
ATOM     64  C   UNL A   1      42.791  21.744  26.796  1.00  0.00     0.010 A 
ATOM     65  C   UNL A   1      44.794  22.895  26.191  1.00  0.00     0.010 A 
ATOM     66  C   UNL A   1      43.145  20.666  25.966  1.00  0.00     0.020 A 
ATOM     67  C   UNL A   1      45.169  21.818  25.364  1.00  0.00     0.020 A 
ATOM     68  C   UNL A   1      44.351  20.697  25.273  1.00  0.00     0.054 A 
BRANCH  68  69
ATOM     69  S   UNL A   1      44.838  19.262  24.277  1.00  0.00     0.124 S 
ATOM     70  O   UNL A   1      44.391  19.642  22.939  1.00  0.00    -0.237 OA
ATOM     71  O   UNL A   1      46.284  19.216  24.468  1.00  0.00    -0.237 OA
ATOM     72  O   UNL A   1      44.100  18.152  24.880  1.00  0.00    -0.744 OA
ENDBRANCH  68  69
ENDBRANCH  49  63
BRANCH  50  73
ATOM     73  C   UNL A   1      41.130  30.400  32.608  1.00  0.00    -0.014 A 
ATOM     74  C   UNL A   1      40.176  29.558  33.226  1.00  0.00     0.010 A 
ATOM     75  C   UNL A   1      40.958  31.793  32.717  1.00  0.00     0.010 A 
ATOM     76  C   UNL A   1      39.156  30.084  34.026  1.00  0.00     0.020 A 
ATOM     77  C   UNL A   1      39.922  32.324  33.509  1.00  0.00     0.020 A 
ATOM     78  C   UNL A   1      39.056  31.464  34.190  1.00  0.00     0.054 A 
BRANCH  78  79
ATOM     79  S   UNL A   1      37.893  32.092  35.443  1.00  0.00     0.124 S 
ATOM     80  O   UNL A   1      36.708  32.389  34.644  1.00  0.00    -0.237 OA
ATOM     81  O   UNL A   1      37.775  30.950  36.347  1.00  0.00    -0.237 OA
ATOM     82  O   UNL A   1      38.581  33.254  35.997  1.00  0.00    -0.744 OA
ENDBRANCH  78  79
ENDBRANCH  50  73
BRANCH  62  83
ATOM     83  C   UNL A   1      45.026  24.317  33.388  1.00  0.00    -0.014 A 
ATOM     84  C   UNL A   1      44.354  23.106  33.611  1.00  0.00     0.010 A 
ATOM     85  C   UNL A   1      46.330  24.443  33.919  1.00  0.00     0.010 A 
ATOM     86  C   UNL A   1      44.918  22.100  34.401  1.00  0.00     0.020 A 
ATOM     87  C   UNL A   1      46.923  23.426  34.668  1.00  0.00     0.020 A 
ATOM     88  C   UNL A   1      46.197  22.271  34.931  1.00  0.00     0.054 A 
BRANCH  88  89
ATOM     89  S   UNL A   1      46.943  20.946  35.910  1.00  0.00     0.124 S 
ATOM     90  O   UNL A   1      45.764  20.219  36.376  1.00  0.00    -0.237 OA
ATOM     91  O   UNL A   1      47.768  20.238  34.933  1.00  0.00    -0.237 OA
ATOM     92  O   UNL A   1      47.688  21.664  36.940  1.00  0.00    -0.744 OA
ENDBRANCH  88  89
ENDBRANCH  62  83
ENDBRANCH  36  37
ENDBRANCH  29  31
ENDBRANCH  28  29
ENDBRANCH  27  28
ENDBRANCH   1  27
TORSDOF 18
ENDMDL
MODEL 2
REMARK VINA RESULT:     -12.8      1.523      3.895
REMARK SMILES Cc1ccc(-c2cc(C[C@H]3CCCC3=O)ccc2[C@@H](C)C(=O)OCCOC(=O)c2ccc(-c3c4nc(c(-c5ccc(S(=O)(=O)[O-])cc5)c5ccc([nH]5)c(-c5ccc(S(=O)(=O)[O-])cc5)c5nc(c(-c6ccc(S(=O)(=O)[O-])cc6)c6ccc3[nH]6)C=C5)C=C4)cc2)cc1
REMARK SMILES IDX 24 1 23 2 21 3 22 4 19 5 20 6 18 7 6 8 7 9 8 10 17 11 16 12
REMARK SMILES IDX 5 13 1 14 2 15 3 16 90 17 4 18 89 19 9 20 10 21 11 22 14 23
REMARK SMILES IDX 12 24 13 25 15 26 25 27 26 28 27 29 28 30 29 31 30 32 88 33
REMARK SMILES IDX 31 34 87 35 32 36 33 37 34 38 81 39 35 40 86 41 80 42 82 43
REMARK SMILES IDX 36 44 85 45 79 46 78 47 37 49 67 50 48 51 66 52 49 53 52 54
REMARK SMILES IDX 65 55 83 56 50 57 51 58 64 60 84 61 53 62 38 63 39 64 47 65
REMARK SMILES IDX 40 66 46 67 41 68 42 69 43 70 44 71 45 72 68 73 69 74 77 75
REMARK SMILES IDX 70 76 76 77 71 78 72 79 73 80 74 81 75 82 54 83 55 84 63 85
REMARK SMILES IDX 56 86 62 87 57 88 58 89 59 90 60 91 61 92
REMARK H PARENT 82 48 52 59
REMARK Flexibility Score: inf
ROOT
ATOM      1  C   UNL A   1      33.738  30.115  27.119  1.00  0.00     0.274 C 
ENDROOT
BRANCH   1   2
ATOM      2  O   UNL A   1      33.295  28.917  26.462  1.00  0.00    -0.462 OA
BRANCH   2   3
ATOM      3  C   UNL A   1      32.379  29.105  25.466  1.00  0.00     0.313 C 
ATOM      4  O   UNL A   1      31.359  29.768  25.606  1.00  0.00    -0.252 OA
BRANCH   3   5
ATOM      5  C   UNL A   1      32.718  28.255  24.224  1.00  0.00     0.127 C 
ATOM      6  C   UNL A   1      34.029  28.676  23.561  1.00  0.00     0.025 C 
BRANCH   5   7
ATOM      7  C   UNL A   1      31.537  28.354  23.274  1.00  0.00    -0.026 A 
ATOM      8  C   UNL A   1      30.397  27.537  23.412  1.00  0.00    -0.014 A 
ATOM      9  C   UNL A   1      29.194  28.004  22.856  1.00  0.00     0.012 A 
ATOM     10  C   UNL A   1      29.140  29.198  22.119  1.00  0.00    -0.047 A 
ATOM     11  C   UNL A   1      31.515  29.452  22.394  1.00  0.00     0.005 A 
ATOM     12  C   UNL A   1      30.328  29.866  21.818  1.00  0.00     0.004 A 
BRANCH   8  13
ATOM     13  C   UNL A   1      30.413  26.228  24.088  1.00  0.00    -0.018 A 
ATOM     14  C   UNL A   1      30.622  22.423  26.162  1.00  0.00     0.044 C 
ATOM     15  C   UNL A   1      30.562  23.749  25.460  1.00  0.00    -0.051 A 
ATOM     16  C   UNL A   1      30.852  23.830  24.095  1.00  0.00     0.004 A 
ATOM     17  C   UNL A   1      30.159  24.906  26.130  1.00  0.00     0.004 A 
ATOM     18  C   UNL A   1      30.799  25.059  23.424  1.00  0.00     0.009 A 
ATOM     19  C   UNL A   1      30.083  26.129  25.450  1.00  0.00     0.009 A 
ENDBRANCH   8  13
BRANCH  10  20
ATOM     20  C   UNL A   1      27.826  29.789  21.681  1.00  0.00     0.047 C 
BRANCH  20  21
ATOM     21  C   UNL A   1      27.415  31.093  22.381  1.00  0.00     0.060 C 
ATOM     22  C   UNL A   1      27.765  31.201  23.868  1.00  0.00     0.012 C 
ATOM     23  C   UNL A   1      28.058  32.337  21.806  1.00  0.00     0.136 C 
ATOM     24  C   UNL A   1      28.990  32.099  23.966  1.00  0.00     0.009 C 
ATOM     25  C   UNL A   1      28.899  33.080  22.809  1.00  0.00     0.076 C 
ATOM     26  O   UNL A   1      27.873  32.729  20.659  1.00  0.00    -0.299 OA
ENDBRANCH  20  21
ENDBRANCH  10  20
ENDBRANCH   5   7
ENDBRANCH   3   5
ENDBRANCH   2   3
ENDBRANCH   1   2
BRANCH   1  27
ATOM     27  C   UNL A   1      35.264  30.093  27.331  1.00  0.00     0.275 C 
BRANCH  27  28
ATOM     28  O   UNL A   1      35.845  31.208  28.038  1.00  0.00    -0.458 OA
BRANCH  28  29
ATOM     29  C   UNL A   1      36.420  30.924  29.239  1.00  0.00     0.338 C 
ATOM     30  O   UNL A   1      35.942  31.281  30.314  1.00  0.00    -0.246 OA
BRANCH  29  31
ATOM     31  C   UNL A   1      37.452  29.877  29.003  1.00  0.00     0.060 A 
ATOM     32  C   UNL A   1      38.328  29.965  27.910  1.00  0.00     0.016 A 
ATOM     33  C   UNL A   1      37.760  29.044  30.079  1.00  0.00     0.016 A 
ATOM     34  C   UNL A   1      39.584  29.340  27.970  1.00  0.00     0.010 A 
ATOM     35  C   UNL A   1      39.029  28.529  30.186  1.00  0.00     0.010 A 
ATOM     36  C   UNL A   1      39.955  28.668  29.139  1.00  0.00    -0.014 A 
BRANCH  36  37
ATOM     37  C   UNL A   1      41.150  27.838  29.306  1.00  0.00     0.031 A 
ATOM     38  C   UNL A   1      41.329  26.454  28.811  1.00  0.00     0.074 A 
ATOM     39  C   UNL A   1      42.177  28.510  29.874  1.00  0.00     0.049 A 
ATOM     40  N   UNL A   1      42.266  25.658  29.210  1.00  0.00    -0.248 NA
ATOM     41  C   UNL A   1      40.455  25.820  27.837  1.00  0.00     0.031 C 
ATOM     42  C   UNL A   1      43.582  28.159  29.963  1.00  0.00     0.029 A 
ATOM     43  N   UNL A   1      42.055  29.641  30.691  1.00  0.00    -0.354 N 
ATOM     44  C   UNL A   1      42.288  24.556  28.375  1.00  0.00     0.074 A 
ATOM     45  C   UNL A   1      41.081  24.660  27.598  1.00  0.00     0.031 C 
ATOM     46  C   UNL A   1      44.107  28.820  31.011  1.00  0.00     0.029 A 
ATOM     47  C   UNL A   1      43.003  29.488  31.695  1.00  0.00     0.049 A 
ATOM     48  H   UNL A   1      41.427  30.391  30.577  1.00  0.00     0.167 HD
ATOM     49  C   UNL A   1      43.394  23.755  28.351  1.00  0.00     0.031 A 
ATOM     50  C   UNL A   1      42.628  29.301  32.994  1.00  0.00     0.031 A 
ATOM     51  C   UNL A   1      44.330  24.146  29.402  1.00  0.00     0.049 A 
ATOM     52  C   UNL A   1      43.151  27.986  33.510  1.00  0.00     0.074 A 
ATOM     53  C   UNL A   1      45.464  24.939  29.395  1.00  0.00     0.029 A 
ATOM     54  N   UNL A   1      43.957  23.987  30.732  1.00  0.00    -0.354 N 
ATOM     55  N   UNL A   1      43.387  26.946  32.755  1.00  0.00    -0.248 NA
ATOM     56  C   UNL A   1      43.489  27.761  34.909  1.00  0.00     0.031 C 
ATOM     57  C   UNL A   1      45.689  25.373  30.729  1.00  0.00     0.029 A 
ATOM     58  C   UNL A   1      44.724  24.801  31.542  1.00  0.00     0.049 A 
ATOM     59  H   UNL A   1      43.249  23.381  31.050  1.00  0.00     0.167 HD
ATOM     60  C   UNL A   1      43.996  25.980  33.508  1.00  0.00     0.074 A 
ATOM     61  C   UNL A   1      44.002  26.521  34.857  1.00  0.00     0.031 C 
ATOM     62  C   UNL A   1      44.504  24.830  32.979  1.00  0.00     0.031 A 
BRANCH  49  63
ATOM     63  C   UNL A   1      43.773  22.794  27.234  1.00  0.00    -0.014 A 
ATOM     64  C   UNL A   1      42.899  21.727  26.919  1.00  0.00     0.010 A 
ATOM     65  C   UNL A   1      44.981  22.823  26.513  1.00  0.00     0.010 A 
ATOM     66  C   UNL A   1      43.245  20.707  26.016  1.00  0.00     0.020 A 
ATOM     67  C   UNL A   1      45.348  21.803  25.613  1.00  0.00     0.020 A 
ATOM     68  C   UNL A   1      44.485  20.736  25.386  1.00  0.00     0.054 A 
BRANCH  68  69
ATOM     69  S   UNL A   1      44.955  19.368  24.292  1.00  0.00     0.124 S 
ATOM     70  O   UNL A   1      44.274  18.229  24.902  1.00  0.00    -0.237 OA
ATOM     71  O   UNL A   1      44.430  19.797  22.999  1.00  0.00    -0.237 OA
ATOM     72  O   UNL A   1      46.414  19.334  24.385  1.00  0.00    -0.744 OA
ENDBRANCH  68  69
ENDBRANCH  49  63
BRANCH  50  73
ATOM     73  C   UNL A   1      41.321  29.924  33.379  1.00  0.00    -0.014 A 
ATOM     74  C   UNL A   1      40.830  29.664  34.680  1.00  0.00     0.010 A 
ATOM     75  C   UNL A   1      40.777  31.010  32.667  1.00  0.00     0.010 A 
ATOM     76  C   UNL A   1      39.917  30.527  35.296  1.00  0.00     0.020 A 
ATOM     77  C   UNL A   1      39.846  31.871  33.280  1.00  0.00     0.020 A 
ATOM     78  C   UNL A   1      39.457  31.645  34.603  1.00  0.00     0.054 A 
BRANCH  78  79
ATOM     79  S   UNL A   1      38.487  32.880  35.527  1.00  0.00     0.124 S 
ATOM     80  O   UNL A   1      37.281  32.133  35.871  1.00  0.00    -0.237 OA
ATOM     81  O   UNL A   1      39.376  33.191  36.643  1.00  0.00    -0.237 OA
ATOM     82  O   UNL A   1      38.300  33.959  34.561  1.00  0.00    -0.744 OA
ENDBRANCH  78  79
ENDBRANCH  50  73
BRANCH  62  83
ATOM     83  C   UNL A   1      44.970  23.655  33.793  1.00  0.00    -0.014 A 
ATOM     84  C   UNL A   1      44.129  22.592  34.154  1.00  0.00     0.010 A 
ATOM     85  C   UNL A   1      46.344  23.528  34.098  1.00  0.00     0.010 A 
ATOM     86  C   UNL A   1      44.617  21.492  34.865  1.00  0.00     0.020 A 
ATOM     87  C   UNL A   1      46.852  22.412  34.764  1.00  0.00     0.020 A 
ATOM     88  C   UNL A   1      45.976  21.414  35.173  1.00  0.00     0.054 A 
BRANCH  88  89
ATOM     89  S   UNL A   1      46.612  19.965  36.048  1.00  0.00     0.124 S 
ATOM     90  O   UNL A   1      46.325  18.892  35.097  1.00  0.00    -0.237 OA
ATOM     91  O   UNL A   1      48.028  20.280  36.224  1.00  0.00    -0.237 OA
ATOM     92  O   UNL A   1      45.828  19.941  37.280  1.00  0.00    -0.744 OA
ENDBRANCH  88  89
ENDBRANCH  62  83
ENDBRANCH  36  37
ENDBRANCH  29  31
ENDBRANCH  28  29
ENDBRANCH  27  28
ENDBRANCH   1  27
TORSDOF 18
ENDMDL
MODEL 3
REMARK VINA RESULT:     -12.5      4.775     11.140
REMARK SMILES Cc1ccc(-c2cc(C[C@H]3CCCC3=O)ccc2[C@@H](C)C(=O)OCCOC(=O)c2ccc(-c3c4nc(c(-c5ccc(S(=O)(=O)[O-])cc5)c5ccc([nH]5)c(-c5ccc(S(=O)(=O)[O-])cc5)c5nc(c(-c6ccc(S(=O)(=O)[O-])cc6)c6ccc3[nH]6)C=C5)C=C4)cc2)cc1
REMARK SMILES IDX 24 1 23 2 21 3 22 4 19 5 20 6 18 7 6 8 7 9 8 10 17 11 16 12
REMARK SMILES IDX 5 13 1 14 2 15 3 16 90 17 4 18 89 19 9 20 10 21 11 22 14 23
REMARK SMILES IDX 12 24 13 25 15 26 25 27 26 28 27 29 28 30 29 31 30 32 88 33
REMARK SMILES IDX 31 34 87 35 32 36 33 37 34 38 81 39 35 40 86 41 80 42 82 43
REMARK SMILES IDX 36 44 85 45 79 46 78 47 37 49 67 50 48 51 66 52 49 53 52 54
REMARK SMILES IDX 65 55 83 56 50 57 51 58 64 60 84 61 53 62 38 63 39 64 47 65
REMARK SMILES IDX 40 66 46 67 41 68 42 69 43 70 44 71 45 72 68 73 69 74 77 75
REMARK SMILES IDX 70 76 76 77 71 78 72 79 73 80 74 81 75 82 54 83 55 84 63 85
REMARK SMILES IDX 56 86 62 87 57 88 58 89 59 90 60 91 61 92
REMARK H PARENT 82 48 52 59
REMARK Flexibility Score: inf
ROOT
ATOM      1  C   UNL A   1      38.247  21.717  25.640  1.00  0.00     0.274 C 
ENDROOT
BRANCH   1   2
ATOM      2  O   UNL A   1      37.116  22.590  25.784  1.00  0.00    -0.462 OA
BRANCH   2   3
ATOM      3  C   UNL A   1      36.375  22.776  24.652  1.00  0.00     0.313 C 
ATOM      4  O   UNL A   1      36.854  22.764  23.525  1.00  0.00    -0.252 OA
BRANCH   3   5
ATOM      5  C   UNL A   1      34.918  23.151  24.990  1.00  0.00     0.127 C 
ATOM      6  C   UNL A   1      34.764  23.703  26.407  1.00  0.00     0.025 C 
BRANCH   5   7
ATOM      7  C   UNL A   1      34.069  21.913  24.762  1.00  0.00    -0.026 A 
ATOM      8  C   UNL A   1      32.820  21.973  24.111  1.00  0.00    -0.014 A 
ATOM      9  C   UNL A   1      32.348  20.797  23.502  1.00  0.00     0.012 A 
ATOM     10  C   UNL A   1      33.050  19.585  23.604  1.00  0.00    -0.047 A 
ATOM     11  C   UNL A   1      34.676  20.668  25.008  1.00  0.00     0.005 A 
ATOM     12  C   UNL A   1      34.167  19.514  24.438  1.00  0.00     0.004 A 
BRANCH   8  13
ATOM     13  C   UNL A   1      31.991  23.190  24.056  1.00  0.00    -0.018 A 
ATOM     14  C   UNL A   1      29.398  26.664  23.882  1.00  0.00     0.044 C 
ATOM     15  C   UNL A   1      30.278  25.450  23.950  1.00  0.00    -0.051 A 
ATOM     16  C   UNL A   1      31.066  25.096  22.851  1.00  0.00     0.004 A 
ATOM     17  C   UNL A   1      30.378  24.692  25.118  1.00  0.00     0.004 A 
ATOM     18  C   UNL A   1      31.895  23.968  22.898  1.00  0.00     0.009 A 
ATOM     19  C   UNL A   1      31.227  23.578  25.170  1.00  0.00     0.009 A 
ENDBRANCH   8  13
BRANCH  10  20
ATOM     20  C   UNL A   1      32.643  18.376  22.805  1.00  0.00     0.047 C 
BRANCH  20  21
ATOM     21  C   UNL A   1      32.868  17.019  23.489  1.00  0.00     0.060 C 
ATOM     22  C   UNL A   1      34.257  16.397  23.317  1.00  0.00     0.012 C 
ATOM     23  C   UNL A   1      32.711  17.048  24.995  1.00  0.00     0.136 C 
ATOM     24  C   UNL A   1      35.008  16.636  24.618  1.00  0.00     0.009 C 
ATOM     25  C   UNL A   1      33.965  16.646  25.723  1.00  0.00     0.076 C 
ATOM     26  O   UNL A   1      31.658  17.319  25.563  1.00  0.00    -0.299 OA
ENDBRANCH  20  21
ENDBRANCH  10  20
ENDBRANCH   5   7
ENDBRANCH   3   5
ENDBRANCH   2   3
ENDBRANCH   1   2
BRANCH   1  27
ATOM     27  C   UNL A   1      39.443  22.225  26.467  1.00  0.00     0.275 C 
BRANCH  27  28
ATOM     28  O   UNL A   1      39.656  23.651  26.505  1.00  0.00    -0.458 OA
BRANCH  28  29
ATOM     29  C   UNL A   1      40.540  24.102  27.437  1.00  0.00     0.338 C 
ATOM     30  O   UNL A   1      41.634  23.576  27.634  1.00  0.00    -0.246 OA
BRANCH  29  31
ATOM     31  C   UNL A   1      40.090  25.455  27.864  1.00  0.00     0.060 A 
ATOM     32  C   UNL A   1      39.307  25.621  29.017  1.00  0.00     0.016 A 
ATOM     33  C   UNL A   1      40.767  26.545  27.317  1.00  0.00     0.016 A 
ATOM     34  C   UNL A   1      39.334  26.842  29.709  1.00  0.00     0.010 A 
ATOM     35  C   UNL A   1      40.883  27.699  28.053  1.00  0.00     0.010 A 
ATOM     36  C   UNL A   1      40.172  27.864  29.253  1.00  0.00    -0.014 A 
BRANCH  36  37
ATOM     37  C   UNL A   1      40.200  29.238  29.760  1.00  0.00     0.031 A 
ATOM     38  C   UNL A   1      39.104  30.230  29.658  1.00  0.00     0.074 A 
ATOM     39  C   UNL A   1      41.316  29.510  30.472  1.00  0.00     0.049 A 
ATOM     40  N   UNL A   1      39.256  31.498  29.856  1.00  0.00    -0.248 NA
ATOM     41  C   UNL A   1      37.737  29.896  29.296  1.00  0.00     0.031 C 
ATOM     42  C   UNL A   1      41.609  30.622  31.356  1.00  0.00     0.029 A 
ATOM     43  N   UNL A   1      42.540  28.840  30.350  1.00  0.00    -0.354 N 
ATOM     44  C   UNL A   1      38.004  32.082  29.923  1.00  0.00     0.074 A 
ATOM     45  C   UNL A   1      37.097  31.059  29.473  1.00  0.00     0.031 C 
ATOM     46  C   UNL A   1      42.946  30.755  31.424  1.00  0.00     0.029 A 
ATOM     47  C   UNL A   1      43.521  29.818  30.463  1.00  0.00     0.049 A 
ATOM     48  H   UNL A   1      42.678  27.875  30.213  1.00  0.00     0.167 HD
ATOM     49  C   UNL A   1      37.871  33.323  30.478  1.00  0.00     0.031 A 
ATOM     50  C   UNL A   1      44.322  30.137  29.406  1.00  0.00     0.031 A 
ATOM     51  C   UNL A   1      39.185  33.900  30.755  1.00  0.00     0.049 A 
ATOM     52  C   UNL A   1      44.156  31.589  29.038  1.00  0.00     0.074 A 
ATOM     53  C   UNL A   1      39.951  33.967  31.906  1.00  0.00     0.029 A 
ATOM     54  N   UNL A   1      40.025  34.209  29.693  1.00  0.00    -0.354 N 
ATOM     55  N   UNL A   1      43.064  32.275  29.246  1.00  0.00    -0.248 NA
ATOM     56  C   UNL A   1      45.225  32.384  28.450  1.00  0.00     0.031 C 
ATOM     57  C   UNL A   1      41.298  34.182  31.509  1.00  0.00     0.029 A 
ATOM     58  C   UNL A   1      41.333  34.295  30.129  1.00  0.00     0.049 A 
ATOM     59  H   UNL A   1      39.731  34.347  28.763  1.00  0.00     0.167 HD
ATOM     60  C   UNL A   1      43.301  33.588  28.942  1.00  0.00     0.074 A 
ATOM     61  C   UNL A   1      44.654  33.599  28.411  1.00  0.00     0.031 C 
ATOM     62  C   UNL A   1      42.406  34.586  29.192  1.00  0.00     0.031 A 
BRANCH  49  63
ATOM     63  C   UNL A   1      36.583  33.923  31.020  1.00  0.00    -0.014 A 
ATOM     64  C   UNL A   1      35.436  33.949  30.192  1.00  0.00     0.010 A 
ATOM     65  C   UNL A   1      36.440  34.542  32.276  1.00  0.00     0.010 A 
ATOM     66  C   UNL A   1      34.257  34.625  30.554  1.00  0.00     0.020 A 
ATOM     67  C   UNL A   1      35.270  35.232  32.649  1.00  0.00     0.020 A 
ATOM     68  C   UNL A   1      34.190  35.289  31.774  1.00  0.00     0.054 A 
BRANCH  68  69
ATOM     69  S   UNL A   1      32.698  36.231  32.190  1.00  0.00     0.124 S 
ATOM     70  O   UNL A   1      33.122  36.989  33.364  1.00  0.00    -0.237 OA
ATOM     71  O   UNL A   1      32.469  37.019  30.982  1.00  0.00    -0.237 OA
ATOM     72  O   UNL A   1      31.696  35.198  32.452  1.00  0.00    -0.744 OA
ENDBRANCH  68  69
ENDBRANCH  49  63
BRANCH  50  73
ATOM     73  C   UNL A   1      44.579  29.022  28.438  1.00  0.00    -0.014 A 
ATOM     74  C   UNL A   1      44.089  29.175  27.120  1.00  0.00     0.010 A 
ATOM     75  C   UNL A   1      45.566  28.047  28.672  1.00  0.00     0.010 A 
ATOM     76  C   UNL A   1      44.649  28.465  26.052  1.00  0.00     0.020 A 
ATOM     77  C   UNL A   1      46.120  27.320  27.601  1.00  0.00     0.020 A 
ATOM     78  C   UNL A   1      45.686  27.566  26.295  1.00  0.00     0.054 A 
BRANCH  78  79
ATOM     79  S   UNL A   1      46.564  26.869  24.860  1.00  0.00     0.124 S 
ATOM     80  O   UNL A   1      46.304  27.864  23.824  1.00  0.00    -0.237 OA
ATOM     81  O   UNL A   1      47.941  26.809  25.345  1.00  0.00    -0.237 OA
ATOM     82  O   UNL A   1      45.918  25.575  24.661  1.00  0.00    -0.744 OA
ENDBRANCH  78  79
ENDBRANCH  50  73
BRANCH  62  83
ATOM     83  C   UNL A   1      42.533  35.990  28.670  1.00  0.00    -0.014 A 
ATOM     84  C   UNL A   1      42.018  36.396  27.430  1.00  0.00     0.010 A 
ATOM     85  C   UNL A   1      43.067  36.993  29.511  1.00  0.00     0.010 A 
ATOM     86  C   UNL A   1      42.111  37.725  27.008  1.00  0.00     0.020 A 
ATOM     87  C   UNL A   1      43.120  38.332  29.121  1.00  0.00     0.020 A 
ATOM     88  C   UNL A   1      42.669  38.683  27.854  1.00  0.00     0.054 A 
BRANCH  88  89
ATOM     89  S   UNL A   1      42.740  40.412  27.325  1.00  0.00     0.124 S 
ATOM     90  O   UNL A   1      43.654  40.337  26.187  1.00  0.00    -0.237 OA
ATOM     91  O   UNL A   1      41.350  40.713  26.991  1.00  0.00    -0.237 OA
ATOM     92  O   UNL A   1      43.255  41.106  28.502  1.00  0.00    -0.744 OA
ENDBRANCH  88  89
ENDBRANCH  62  83
ENDBRANCH  36  37
ENDBRANCH  29  31
ENDBRANCH  28  29
ENDBRANCH  27  28
ENDBRANCH   1  27
TORSDOF 18
ENDMDL
