MODEL 1
REMARK VINA RESULT:     -10.3      0.000      0.000
REMARK SMILES CCOc1ccccc1[C@H](C(=O)OCCOC(=O)c1ccc(-c2c3nc(c(-c4ccc(S(=O)(=O)[O-])cc4)c4ccc([nH]4)c(-c4ccc(S(=O)(=O)[O-])cc4)c4nc(c(-c5ccc(S(=O)(=O)[O-])cc5)c5ccc2[nH]5)C=C4)C=C3)cc1)[NH+]1CCC([NH+]2CCSCC2)CC1
REMARK SMILES IDX 14 1 13 2 11 3 12 4 10 5 9 6 4 7 5 8 6 9 8 10 7 11 3 12 2 13
REMARK SMILES IDX 1 14 79 15 80 16 90 17 81 19 89 20 82 21 83 22 84 23 88 24
REMARK SMILES IDX 85 26 87 27 86 28 15 29 16 30 17 31 18 32 19 33 20 34 78 35
REMARK SMILES IDX 21 36 77 37 22 38 23 39 24 40 71 41 25 42 76 43 70 44 72 45
REMARK SMILES IDX 26 46 75 47 69 48 68 49 27 51 57 52 38 53 56 54 39 55 42 56
REMARK SMILES IDX 55 57 73 58 40 59 41 60 54 62 74 63 43 64 28 65 29 66 37 67
REMARK SMILES IDX 30 68 36 69 31 70 32 71 33 72 34 73 35 74 58 75 59 76 67 77
REMARK SMILES IDX 60 78 66 79 61 80 62 81 63 82 64 83 65 84 44 85 45 86 53 87
REMARK SMILES IDX 46 88 52 89 47 90 48 91 49 92 50 93 51 94
REMARK H PARENT 79 18 83 25 72 50 42 61
REMARK Flexibility Score: inf
ROOT
ATOM      1  C   UNL A   1      36.735  23.280  24.535  1.00  0.00     0.274 C 
ENDROOT
BRANCH   1   2
ATOM      2  O   UNL A   1      35.971  24.441  24.938  1.00  0.00    -0.457 OA
BRANCH   2   3
ATOM      3  C   UNL A   1      34.752  24.547  24.334  1.00  0.00     0.370 C 
ATOM      4  O   UNL A   1      34.617  24.918  23.176  1.00  0.00    -0.245 OA
BRANCH   3   5
ATOM      5  C   UNL A   1      33.578  24.241  25.280  1.00  0.00     0.330 C 
BRANCH   5   6
ATOM      6  C   UNL A   1      32.401  25.231  25.143  1.00  0.00     0.063 A 
ATOM      7  C   UNL A   1      32.421  26.580  25.570  1.00  0.00     0.129 A 
ATOM      8  C   UNL A   1      31.353  27.427  25.253  1.00  0.00     0.047 A 
ATOM      9  C   UNL A   1      30.291  26.973  24.470  1.00  0.00     0.004 A 
ATOM     10  C   UNL A   1      31.292  24.786  24.386  1.00  0.00     0.014 A 
ATOM     11  C   UNL A   1      30.260  25.654  24.038  1.00  0.00     0.001 A 
BRANCH   7  12
ATOM     12  O   UNL A   1      33.453  27.009  26.358  1.00  0.00    -0.493 OA
BRANCH  12  13
ATOM     13  C   UNL A   1      34.047  28.286  26.093  1.00  0.00     0.226 C 
ATOM     14  C   UNL A   1      33.930  29.238  27.273  1.00  0.00     0.049 C 
ENDBRANCH  12  13
ENDBRANCH   7  12
ENDBRANCH   5   6
BRANCH   5  15
ATOM     15  N   UNL A   1      33.078  22.807  25.168  1.00  0.00    -0.319 N 
ATOM     16  C   UNL A   1      33.417  22.197  23.874  1.00  0.00     0.269 C 
ATOM     17  C   UNL A   1      33.481  21.962  26.305  1.00  0.00     0.269 C 
ATOM     18  H   UNL A   1      32.061  22.866  25.211  1.00  0.00     0.349 HD
ATOM     19  C   UNL A   1      32.837  20.793  23.719  1.00  0.00     0.126 C 
ATOM     20  C   UNL A   1      33.028  20.494  26.175  1.00  0.00     0.126 C 
ATOM     21  C   UNL A   1      33.425  19.896  24.809  1.00  0.00     0.195 C 
BRANCH  21  22
ATOM     22  N   UNL A   1      33.203  18.441  24.657  1.00  0.00    -0.331 N 
ATOM     23  C   UNL A   1      32.608  17.836  25.876  1.00  0.00     0.273 C 
ATOM     24  C   UNL A   1      34.373  17.679  24.191  1.00  0.00     0.273 C 
ATOM     25  H   UNL A   1      32.525  18.367  23.899  1.00  0.00     0.348 HD
ATOM     26  C   UNL A   1      32.148  16.379  25.741  1.00  0.00     0.131 C 
ATOM     27  C   UNL A   1      34.070  16.207  23.863  1.00  0.00     0.131 C 
ATOM     28  S   UNL A   1      33.538  15.287  25.333  1.00  0.00    -0.150 SA
ENDBRANCH  21  22
ENDBRANCH   5  15
ENDBRANCH   3   5
ENDBRANCH   2   3
ENDBRANCH   1   2
BRANCH   1  29
ATOM     29  C   UNL A   1      37.289  22.463  25.710  1.00  0.00     0.275 C 
BRANCH  29  30
ATOM     30  O   UNL A   1      38.678  22.131  25.507  1.00  0.00    -0.458 OA
BRANCH  30  31
ATOM     31  C   UNL A   1      39.515  22.455  26.521  1.00  0.00     0.338 C 
ATOM     32  O   UNL A   1      40.314  21.706  27.060  1.00  0.00    -0.246 OA
BRANCH  31  33
ATOM     33  C   UNL A   1      39.366  23.874  26.934  1.00  0.00     0.060 A 
ATOM     34  C   UNL A   1      39.878  24.902  26.148  1.00  0.00     0.016 A 
ATOM     35  C   UNL A   1      38.903  24.174  28.218  1.00  0.00     0.016 A 
ATOM     36  C   UNL A   1      40.039  26.181  26.672  1.00  0.00     0.010 A 
ATOM     37  C   UNL A   1      39.032  25.477  28.733  1.00  0.00     0.010 A 
ATOM     38  C   UNL A   1      39.678  26.476  27.988  1.00  0.00    -0.014 A 
BRANCH  38  39
ATOM     39  C   UNL A   1      40.198  27.738  28.594  1.00  0.00     0.031 A 
ATOM     40  C   UNL A   1      41.689  27.998  28.574  1.00  0.00     0.074 A 
ATOM     41  C   UNL A   1      39.372  28.744  28.952  1.00  0.00     0.049 A 
ATOM     42  N   UNL A   1      42.361  29.007  29.065  1.00  0.00    -0.248 NA
ATOM     43  C   UNL A   1      42.530  26.998  27.893  1.00  0.00     0.031 C 
ATOM     44  C   UNL A   1      37.916  28.732  28.811  1.00  0.00     0.029 A 
ATOM     45  N   UNL A   1      39.647  30.012  29.409  1.00  0.00    -0.354 N 
ATOM     46  C   UNL A   1      43.702  28.719  28.833  1.00  0.00     0.074 A 
ATOM     47  C   UNL A   1      43.749  27.468  28.112  1.00  0.00     0.031 C 
ATOM     48  C   UNL A   1      37.444  29.969  29.044  1.00  0.00     0.029 A 
ATOM     49  C   UNL A   1      38.544  30.835  29.460  1.00  0.00     0.049 A 
ATOM     50  H   UNL A   1      40.549  30.303  29.677  1.00  0.00     0.167 HD
ATOM     51  C   UNL A   1      44.799  29.414  29.221  1.00  0.00     0.031 A 
ATOM     52  C   UNL A   1      38.436  32.139  29.789  1.00  0.00     0.031 A 
ATOM     53  C   UNL A   1      44.755  30.679  29.901  1.00  0.00     0.049 A 
ATOM     54  C   UNL A   1      39.660  32.881  30.263  1.00  0.00     0.074 A 
ATOM     55  C   UNL A   1      45.796  31.390  30.474  1.00  0.00     0.029 A 
ATOM     56  N   UNL A   1      43.611  31.441  30.067  1.00  0.00    -0.354 N 
ATOM     57  N   UNL A   1      40.917  32.510  30.232  1.00  0.00    -0.248 NA
ATOM     58  C   UNL A   1      39.439  34.209  30.858  1.00  0.00     0.031 C 
ATOM     59  C   UNL A   1      45.271  32.562  31.030  1.00  0.00     0.029 A 
ATOM     60  C   UNL A   1      43.915  32.606  30.750  1.00  0.00     0.049 A 
ATOM     61  H   UNL A   1      42.714  31.191  29.748  1.00  0.00     0.167 HD
ATOM     62  C   UNL A   1      41.634  33.556  30.807  1.00  0.00     0.074 A 
ATOM     63  C   UNL A   1      40.678  34.594  31.131  1.00  0.00     0.031 C 
ATOM     64  C   UNL A   1      42.962  33.636  31.070  1.00  0.00     0.031 A 
BRANCH  51  65
ATOM     65  C   UNL A   1      46.133  28.739  29.054  1.00  0.00    -0.014 A 
ATOM     66  C   UNL A   1      46.710  27.941  30.055  1.00  0.00     0.010 A 
ATOM     67  C   UNL A   1      46.816  28.915  27.835  1.00  0.00     0.010 A 
ATOM     68  C   UNL A   1      47.966  27.359  29.850  1.00  0.00     0.020 A 
ATOM     69  C   UNL A   1      48.058  28.318  27.618  1.00  0.00     0.020 A 
ATOM     70  C   UNL A   1      48.635  27.558  28.636  1.00  0.00     0.054 A 
BRANCH  70  71
ATOM     71  S   UNL A   1      50.262  26.795  28.388  1.00  0.00     0.124 S 
ATOM     72  O   UNL A   1      51.141  27.725  29.092  1.00  0.00    -0.237 OA
ATOM     73  O   UNL A   1      50.101  25.485  29.015  1.00  0.00    -0.237 OA
ATOM     74  O   UNL A   1      50.417  26.771  26.935  1.00  0.00    -0.744 OA
ENDBRANCH  70  71
ENDBRANCH  51  65
BRANCH  52  75
ATOM     75  C   UNL A   1      37.125  32.849  29.706  1.00  0.00    -0.014 A 
ATOM     76  C   UNL A   1      36.707  33.427  28.492  1.00  0.00     0.010 A 
ATOM     77  C   UNL A   1      36.307  32.996  30.841  1.00  0.00     0.010 A 
ATOM     78  C   UNL A   1      35.516  34.157  28.421  1.00  0.00     0.020 A 
ATOM     79  C   UNL A   1      35.097  33.691  30.766  1.00  0.00     0.020 A 
ATOM     80  C   UNL A   1      34.719  34.287  29.561  1.00  0.00     0.054 A 
BRANCH  80  81
ATOM     81  S   UNL A   1      33.162  35.211  29.455  1.00  0.00     0.124 S 
ATOM     82  O   UNL A   1      33.631  36.562  29.165  1.00  0.00    -0.237 OA
ATOM     83  O   UNL A   1      32.459  34.536  28.367  1.00  0.00    -0.237 OA
ATOM     84  O   UNL A   1      32.569  35.023  30.778  1.00  0.00    -0.744 OA
ENDBRANCH  80  81
ENDBRANCH  52  75
BRANCH  64  85
ATOM     85  C   UNL A   1      43.472  34.877  31.757  1.00  0.00    -0.014 A 
ATOM     86  C   UNL A   1      43.945  35.970  31.008  1.00  0.00     0.010 A 
ATOM     87  C   UNL A   1      43.406  34.985  33.158  1.00  0.00     0.010 A 
ATOM     88  C   UNL A   1      44.372  37.136  31.649  1.00  0.00     0.020 A 
ATOM     89  C   UNL A   1      43.807  36.161  33.801  1.00  0.00     0.020 A 
ATOM     90  C   UNL A   1      44.300  37.225  33.042  1.00  0.00     0.054 A 
BRANCH  90  91
ATOM     91  S   UNL A   1      44.806  38.772  33.844  1.00  0.00     0.124 S 
ATOM     92  O   UNL A   1      45.928  38.334  34.671  1.00  0.00    -0.237 OA
ATOM     93  O   UNL A   1      45.158  39.624  32.711  1.00  0.00    -0.237 OA
ATOM     94  O   UNL A   1      43.614  39.188  34.581  1.00  0.00    -0.744 OA
ENDBRANCH  90  91
ENDBRANCH  64  85
ENDBRANCH  38  39
ENDBRANCH  31  33
ENDBRANCH  30  31
ENDBRANCH  29  30
ENDBRANCH   1  29
TORSDOF 19
ENDMDL
MODEL 2
REMARK VINA RESULT:     -10.1      1.931      2.468
REMARK SMILES CCOc1ccccc1[C@H](C(=O)OCCOC(=O)c1ccc(-c2c3nc(c(-c4ccc(S(=O)(=O)[O-])cc4)c4ccc([nH]4)c(-c4ccc(S(=O)(=O)[O-])cc4)c4nc(c(-c5ccc(S(=O)(=O)[O-])cc5)c5ccc2[nH]5)C=C4)C=C3)cc1)[NH+]1CCC([NH+]2CCSCC2)CC1
REMARK SMILES IDX 14 1 13 2 11 3 12 4 10 5 9 6 4 7 5 8 6 9 8 10 7 11 3 12 2 13
REMARK SMILES IDX 1 14 79 15 80 16 90 17 81 19 89 20 82 21 83 22 84 23 88 24
REMARK SMILES IDX 85 26 87 27 86 28 15 29 16 30 17 31 18 32 19 33 20 34 78 35
REMARK SMILES IDX 21 36 77 37 22 38 23 39 24 40 71 41 25 42 76 43 70 44 72 45
REMARK SMILES IDX 26 46 75 47 69 48 68 49 27 51 57 52 38 53 56 54 39 55 42 56
REMARK SMILES IDX 55 57 73 58 40 59 41 60 54 62 74 63 43 64 28 65 29 66 37 67
REMARK SMILES IDX 30 68 36 69 31 70 32 71 33 72 34 73 35 74 58 75 59 76 67 77
REMARK SMILES IDX 60 78 66 79 61 80 62 81 63 82 64 83 65 84 44 85 45 86 53 87
REMARK SMILES IDX 46 88 52 89 47 90 48 91 49 92 50 93 51 94
REMARK H PARENT 79 18 83 25 72 50 42 61
REMARK Flexibility Score: inf
ROOT
ATOM      1  C   UNL A   1      36.277  22.922  23.783  1.00  0.00     0.274 C 
ENDROOT
BRANCH   1   2
ATOM      2  O   UNL A   1      35.791  24.131  24.411  1.00  0.00    -0.457 OA
BRANCH   2   3
ATOM      3  C   UNL A   1      34.554  24.524  23.988  1.00  0.00     0.370 C 
ATOM      4  O   UNL A   1      34.371  25.103  22.926  1.00  0.00    -0.245 OA
BRANCH   3   5
ATOM      5  C   UNL A   1      33.445  24.246  25.017  1.00  0.00     0.330 C 
BRANCH   5   6
ATOM      6  C   UNL A   1      32.233  25.195  24.889  1.00  0.00     0.063 A 
ATOM      7  C   UNL A   1      32.226  26.558  25.269  1.00  0.00     0.129 A 
ATOM      8  C   UNL A   1      31.122  27.361  24.963  1.00  0.00     0.047 A 
ATOM      9  C   UNL A   1      30.047  26.848  24.236  1.00  0.00     0.004 A 
ATOM     10  C   UNL A   1      31.112  24.690  24.190  1.00  0.00     0.014 A 
ATOM     11  C   UNL A   1      30.042  25.513  23.851  1.00  0.00     0.001 A 
BRANCH   7  12
ATOM     12  O   UNL A   1      33.272  27.046  26.002  1.00  0.00    -0.493 OA
BRANCH  12  13
ATOM     13  C   UNL A   1      33.021  28.052  26.992  1.00  0.00     0.226 C 
ATOM     14  C   UNL A   1      34.162  29.050  27.109  1.00  0.00     0.049 C 
ENDBRANCH  12  13
ENDBRANCH   7  12
ENDBRANCH   5   6
BRANCH   5  15
ATOM     15  N   UNL A   1      32.983  22.796  25.020  1.00  0.00    -0.319 N 
ATOM     16  C   UNL A   1      33.089  22.173  23.692  1.00  0.00     0.269 C 
ATOM     17  C   UNL A   1      33.623  21.984  26.069  1.00  0.00     0.269 C 
ATOM     18  H   UNL A   1      31.991  22.824  25.255  1.00  0.00     0.349 HD
ATOM     19  C   UNL A   1      32.539  20.749  23.668  1.00  0.00     0.126 C 
ATOM     20  C   UNL A   1      33.204  20.501  26.045  1.00  0.00     0.126 C 
ATOM     21  C   UNL A   1      33.354  19.891  24.636  1.00  0.00     0.195 C 
BRANCH  21  22
ATOM     22  N   UNL A   1      33.157  18.427  24.547  1.00  0.00    -0.331 N 
ATOM     23  C   UNL A   1      32.595  17.861  25.800  1.00  0.00     0.273 C 
ATOM     24  C   UNL A   1      34.333  17.668  24.090  1.00  0.00     0.273 C 
ATOM     25  H   UNL A   1      32.467  18.310  23.805  1.00  0.00     0.348 HD
ATOM     26  C   UNL A   1      32.161  16.391  25.732  1.00  0.00     0.131 C 
ATOM     27  C   UNL A   1      34.053  16.179  23.827  1.00  0.00     0.131 C 
ATOM     28  S   UNL A   1      33.564  15.309  25.342  1.00  0.00    -0.150 SA
ENDBRANCH  21  22
ENDBRANCH   5  15
ENDBRANCH   3   5
ENDBRANCH   2   3
ENDBRANCH   1   2
BRANCH   1  29
ATOM     29  C   UNL A   1      37.128  22.041  24.706  1.00  0.00     0.275 C 
BRANCH  29  30
ATOM     30  O   UNL A   1      38.397  22.661  24.999  1.00  0.00    -0.458 OA
BRANCH  30  31
ATOM     31  C   UNL A   1      39.008  22.245  26.134  1.00  0.00     0.338 C 
ATOM     32  O   UNL A   1      39.275  21.090  26.424  1.00  0.00    -0.246 OA
BRANCH  31  33
ATOM     33  C   UNL A   1      39.342  23.378  27.034  1.00  0.00     0.060 A 
ATOM     34  C   UNL A   1      38.604  24.557  26.999  1.00  0.00     0.016 A 
ATOM     35  C   UNL A   1      40.531  23.349  27.768  1.00  0.00     0.016 A 
ATOM     36  C   UNL A   1      39.100  25.720  27.581  1.00  0.00     0.010 A 
ATOM     37  C   UNL A   1      41.012  24.516  28.387  1.00  0.00     0.010 A 
ATOM     38  C   UNL A   1      40.336  25.736  28.230  1.00  0.00    -0.014 A 
BRANCH  38  39
ATOM     39  C   UNL A   1      40.966  27.061  28.510  1.00  0.00     0.031 A 
ATOM     40  C   UNL A   1      42.221  27.447  27.756  1.00  0.00     0.074 A 
ATOM     41  C   UNL A   1      40.336  28.005  29.239  1.00  0.00     0.049 A 
ATOM     42  N   UNL A   1      42.950  28.528  27.858  1.00  0.00    -0.248 NA
ATOM     43  C   UNL A   1      42.704  26.497  26.738  1.00  0.00     0.031 C 
ATOM     44  C   UNL A   1      39.009  27.864  29.838  1.00  0.00     0.029 A 
ATOM     45  N   UNL A   1      40.681  29.309  29.511  1.00  0.00    -0.354 N 
ATOM     46  C   UNL A   1      44.021  28.348  26.989  1.00  0.00     0.074 A 
ATOM     47  C   UNL A   1      43.822  27.078  26.328  1.00  0.00     0.031 C 
ATOM     48  C   UNL A   1      38.600  29.063  30.286  1.00  0.00     0.029 A 
ATOM     49  C   UNL A   1      39.676  30.036  30.110  1.00  0.00     0.049 A 
ATOM     50  H   UNL A   1      41.565  29.687  29.300  1.00  0.00     0.167 HD
ATOM     51  C   UNL A   1      45.095  29.148  26.789  1.00  0.00     0.031 A 
ATOM     52  C   UNL A   1      39.623  31.338  30.461  1.00  0.00     0.031 A 
ATOM     53  C   UNL A   1      45.276  30.430  27.413  1.00  0.00     0.049 A 
ATOM     54  C   UNL A   1      40.846  32.199  30.273  1.00  0.00     0.074 A 
ATOM     55  C   UNL A   1      46.391  31.249  27.400  1.00  0.00     0.029 A 
ATOM     56  N   UNL A   1      44.298  31.097  28.131  1.00  0.00    -0.354 N 
ATOM     57  N   UNL A   1      41.951  31.936  29.619  1.00  0.00    -0.248 NA
ATOM     58  C   UNL A   1      40.824  33.526  30.910  1.00  0.00     0.031 C 
ATOM     59  C   UNL A   1      46.103  32.392  28.154  1.00  0.00     0.029 A 
ATOM     60  C   UNL A   1      44.789  32.309  28.583  1.00  0.00     0.049 A 
ATOM     61  H   UNL A   1      43.388  30.759  28.296  1.00  0.00     0.167 HD
ATOM     62  C   UNL A   1      42.757  33.062  29.773  1.00  0.00     0.074 A 
ATOM     63  C   UNL A   1      41.994  34.026  30.537  1.00  0.00     0.031 C 
ATOM     64  C   UNL A   1      44.027  33.266  29.344  1.00  0.00     0.031 A 
BRANCH  51  65
ATOM     65  C   UNL A   1      46.229  28.584  25.976  1.00  0.00    -0.014 A 
ATOM     66  C   UNL A   1      47.417  28.113  26.556  1.00  0.00     0.010 A 
ATOM     67  C   UNL A   1      46.075  28.524  24.578  1.00  0.00     0.010 A 
ATOM     68  C   UNL A   1      48.447  27.622  25.746  1.00  0.00     0.020 A 
ATOM     69  C   UNL A   1      47.090  28.014  23.767  1.00  0.00     0.020 A 
ATOM     70  C   UNL A   1      48.279  27.583  24.356  1.00  0.00     0.054 A 
BRANCH  70  71
ATOM     71  S   UNL A   1      49.624  26.942  23.321  1.00  0.00     0.124 S 
ATOM     72  O   UNL A   1      48.894  26.138  22.343  1.00  0.00    -0.237 OA
ATOM     73  O   UNL A   1      50.237  28.160  22.800  1.00  0.00    -0.237 OA
ATOM     74  O   UNL A   1      50.451  26.183  24.256  1.00  0.00    -0.744 OA
ENDBRANCH  70  71
ENDBRANCH  51  65
BRANCH  52  75
ATOM     75  C   UNL A   1      38.382  31.929  31.045  1.00  0.00    -0.014 A 
ATOM     76  C   UNL A   1      37.472  32.621  30.224  1.00  0.00     0.010 A 
ATOM     77  C   UNL A   1      38.121  31.848  32.425  1.00  0.00     0.010 A 
ATOM     78  C   UNL A   1      36.344  33.241  30.773  1.00  0.00     0.020 A 
ATOM     79  C   UNL A   1      36.975  32.434  32.972  1.00  0.00     0.020 A 
ATOM     80  C   UNL A   1      36.105  33.145  32.146  1.00  0.00     0.054 A 
BRANCH  80  81
ATOM     81  S   UNL A   1      34.626  33.929  32.846  1.00  0.00     0.124 S 
ATOM     82  O   UNL A   1      34.352  33.079  34.001  1.00  0.00    -0.237 OA
ATOM     83  O   UNL A   1      35.090  35.281  33.149  1.00  0.00    -0.237 OA
ATOM     84  O   UNL A   1      33.653  33.844  31.759  1.00  0.00    -0.744 OA
ENDBRANCH  80  81
ENDBRANCH  52  75
BRANCH  64  85
ATOM     85  C   UNL A   1      44.691  34.571  29.698  1.00  0.00    -0.014 A 
ATOM     86  C   UNL A   1      44.493  35.717  28.906  1.00  0.00     0.010 A 
ATOM     87  C   UNL A   1      45.456  34.676  30.874  1.00  0.00     0.010 A 
ATOM     88  C   UNL A   1      45.072  36.936  29.267  1.00  0.00     0.020 A 
ATOM     89  C   UNL A   1      46.016  35.902  31.252  1.00  0.00     0.020 A 
ATOM     90  C   UNL A   1      45.831  37.022  30.438  1.00  0.00     0.054 A 
BRANCH  90  91
ATOM     91  S   UNL A   1      46.524  38.630  30.913  1.00  0.00     0.124 S 
ATOM     92  O   UNL A   1      47.886  38.273  31.299  1.00  0.00    -0.237 OA
ATOM     93  O   UNL A   1      46.404  39.409  29.683  1.00  0.00    -0.237 OA
ATOM     94  O   UNL A   1      45.661  39.070  32.008  1.00  0.00    -0.744 OA
ENDBRANCH  90  91
ENDBRANCH  64  85
ENDBRANCH  38  39
ENDBRANCH  31  33
ENDBRANCH  30  31
ENDBRANCH  29  30
ENDBRANCH   1  29
TORSDOF 19
ENDMDL
MODEL 3
REMARK VINA RESULT:     -10.1      3.815      9.906
REMARK SMILES CCOc1ccccc1[C@H](C(=O)OCCOC(=O)c1ccc(-c2c3nc(c(-c4ccc(S(=O)(=O)[O-])cc4)c4ccc([nH]4)c(-c4ccc(S(=O)(=O)[O-])cc4)c4nc(c(-c5ccc(S(=O)(=O)[O-])cc5)c5ccc2[nH]5)C=C4)C=C3)cc1)[NH+]1CCC([NH+]2CCSCC2)CC1
REMARK SMILES IDX 14 1 13 2 11 3 12 4 10 5 9 6 4 7 5 8 6 9 8 10 7 11 3 12 2 13
REMARK SMILES IDX 1 14 79 15 80 16 90 17 81 19 89 20 82 21 83 22 84 23 88 24
REMARK SMILES IDX 85 26 87 27 86 28 15 29 16 30 17 31 18 32 19 33 20 34 78 35
REMARK SMILES IDX 21 36 77 37 22 38 23 39 24 40 71 41 25 42 76 43 70 44 72 45
REMARK SMILES IDX 26 46 75 47 69 48 68 49 27 51 57 52 38 53 56 54 39 55 42 56
REMARK SMILES IDX 55 57 73 58 40 59 41 60 54 62 74 63 43 64 28 65 29 66 37 67
REMARK SMILES IDX 30 68 36 69 31 70 32 71 33 72 34 73 35 74 58 75 59 76 67 77
REMARK SMILES IDX 60 78 66 79 61 80 62 81 63 82 64 83 65 84 44 85 45 86 53 87
REMARK SMILES IDX 46 88 52 89 47 90 48 91 49 92 50 93 51 94
REMARK H PARENT 79 18 83 25 72 50 42 61
REMARK Flexibility Score: inf
ROOT
ATOM      1  C   UNL A   1      38.385  22.567  26.039  1.00  0.00     0.274 C 
ENDROOT
BRANCH   1   2
ATOM      2  O   UNL A   1      37.288  22.953  25.179  1.00  0.00    -0.457 OA
BRANCH   2   3
ATOM      3  C   UNL A   1      36.053  22.653  25.677  1.00  0.00     0.370 C 
ATOM      4  O   UNL A   1      35.840  22.507  26.873  1.00  0.00    -0.245 OA
BRANCH   3   5
ATOM      5  C   UNL A   1      34.995  22.433  24.582  1.00  0.00     0.330 C 
BRANCH   5   6
ATOM      6  C   UNL A   1      34.217  21.108  24.734  1.00  0.00     0.063 A 
ATOM      7  C   UNL A   1      32.807  20.998  24.801  1.00  0.00     0.129 A 
ATOM      8  C   UNL A   1      32.205  19.736  24.781  1.00  0.00     0.047 A 
ATOM      9  C   UNL A   1      32.975  18.581  24.637  1.00  0.00     0.004 A 
ATOM     10  C   UNL A   1      34.975  19.919  24.630  1.00  0.00     0.014 A 
ATOM     11  C   UNL A   1      34.359  18.672  24.563  1.00  0.00     0.001 A 
BRANCH   7  12
ATOM     12  O   UNL A   1      32.062  22.133  24.966  1.00  0.00    -0.493 OA
BRANCH  12  13
ATOM     13  C   UNL A   1      31.124  22.200  26.047  1.00  0.00     0.226 C 
ATOM     14  C   UNL A   1      30.635  23.617  26.307  1.00  0.00     0.049 C 
ENDBRANCH  12  13
ENDBRANCH   7  12
ENDBRANCH   5   6
BRANCH   5  15
ATOM     15  N   UNL A   1      34.028  23.601  24.443  1.00  0.00    -0.319 N 
ATOM     16  C   UNL A   1      34.311  24.679  25.401  1.00  0.00     0.269 C 
ATOM     17  C   UNL A   1      33.915  24.099  23.062  1.00  0.00     0.269 C 
ATOM     18  H   UNL A   1      33.110  23.227  24.681  1.00  0.00     0.349 HD
ATOM     19  C   UNL A   1      33.289  25.810  25.330  1.00  0.00     0.126 C 
ATOM     20  C   UNL A   1      32.981  25.317  22.918  1.00  0.00     0.126 C 
ATOM     21  C   UNL A   1      33.334  26.426  23.932  1.00  0.00     0.195 C 
BRANCH  21  22
ATOM     22  N   UNL A   1      32.620  27.710  23.752  1.00  0.00    -0.331 N 
ATOM     23  C   UNL A   1      32.095  28.242  25.036  1.00  0.00     0.273 C 
ATOM     24  C   UNL A   1      31.585  27.705  22.705  1.00  0.00     0.273 C 
ATOM     25  H   UNL A   1      33.335  28.350  23.409  1.00  0.00     0.348 HD
ATOM     26  C   UNL A   1      31.526  29.666  24.984  1.00  0.00     0.131 C 
ATOM     27  C   UNL A   1      30.988  29.091  22.409  1.00  0.00     0.131 C 
ATOM     28  S   UNL A   1      30.116  29.768  23.847  1.00  0.00    -0.150 SA
ENDBRANCH  21  22
ENDBRANCH   5  15
ENDBRANCH   3   5
ENDBRANCH   2   3
ENDBRANCH   1   2
BRANCH   1  29
ATOM     29  C   UNL A   1      38.929  21.160  25.758  1.00  0.00     0.275 C 
BRANCH  29  30
ATOM     30  O   UNL A   1      39.866  20.749  26.775  1.00  0.00    -0.458 OA
BRANCH  30  31
ATOM     31  C   UNL A   1      41.029  20.220  26.324  1.00  0.00     0.338 C 
ATOM     32  O   UNL A   1      41.188  19.084  25.908  1.00  0.00    -0.246 OA
BRANCH  31  33
ATOM     33  C   UNL A   1      42.145  21.199  26.382  1.00  0.00     0.060 A 
ATOM     34  C   UNL A   1      42.624  21.661  27.603  1.00  0.00     0.016 A 
ATOM     35  C   UNL A   1      42.576  21.824  25.209  1.00  0.00     0.016 A 
ATOM     36  C   UNL A   1      43.420  22.801  27.665  1.00  0.00     0.010 A 
ATOM     37  C   UNL A   1      43.411  22.953  25.271  1.00  0.00     0.010 A 
ATOM     38  C   UNL A   1      43.776  23.500  26.511  1.00  0.00    -0.014 A 
BRANCH  38  39
ATOM     39  C   UNL A   1      44.314  24.885  26.665  1.00  0.00     0.031 A 
ATOM     40  C   UNL A   1      43.458  25.929  27.350  1.00  0.00     0.074 A 
ATOM     41  C   UNL A   1      45.609  25.174  26.419  1.00  0.00     0.049 A 
ATOM     42  N   UNL A   1      43.709  27.195  27.566  1.00  0.00    -0.248 NA
ATOM     43  C   UNL A   1      42.158  25.481  27.878  1.00  0.00     0.031 C 
ATOM     44  C   UNL A   1      46.619  24.212  25.975  1.00  0.00     0.029 A 
ATOM     45  N   UNL A   1      46.323  26.335  26.607  1.00  0.00    -0.354 N 
ATOM     46  C   UNL A   1      42.567  27.711  28.171  1.00  0.00     0.074 A 
ATOM     47  C   UNL A   1      41.641  26.613  28.335  1.00  0.00     0.031 C 
ATOM     48  C   UNL A   1      47.833  24.784  26.055  1.00  0.00     0.029 A 
ATOM     49  C   UNL A   1      47.682  26.184  26.445  1.00  0.00     0.049 A 
ATOM     50  H   UNL A   1      45.900  27.195  26.834  1.00  0.00     0.167 HD
ATOM     51  C   UNL A   1      42.296  28.991  28.520  1.00  0.00     0.031 A 
ATOM     52  C   UNL A   1      48.690  27.066  26.609  1.00  0.00     0.031 A 
ATOM     53  C   UNL A   1      43.229  30.077  28.396  1.00  0.00     0.049 A 
ATOM     54  C   UNL A   1      48.363  28.498  26.952  1.00  0.00     0.074 A 
ATOM     55  C   UNL A   1      43.009  31.432  28.575  1.00  0.00     0.029 A 
ATOM     56  N   UNL A   1      44.573  29.926  28.100  1.00  0.00    -0.354 N 
ATOM     57  N   UNL A   1      47.219  29.021  27.323  1.00  0.00    -0.248 NA
ATOM     58  C   UNL A   1      49.466  29.468  26.857  1.00  0.00     0.031 C 
ATOM     59  C   UNL A   1      44.212  32.106  28.337  1.00  0.00     0.029 A 
ATOM     60  C   UNL A   1      45.191  31.164  28.070  1.00  0.00     0.049 A 
ATOM     61  H   UNL A   1      45.022  29.066  27.933  1.00  0.00     0.167 HD
ATOM     62  C   UNL A   1      47.465  30.380  27.499  1.00  0.00     0.074 A 
ATOM     63  C   UNL A   1      48.874  30.590  27.243  1.00  0.00     0.031 C 
ATOM     64  C   UNL A   1      46.594  31.370  27.815  1.00  0.00     0.031 A 
BRANCH  51  65
ATOM     65  C   UNL A   1      40.882  29.308  28.923  1.00  0.00    -0.014 A 
ATOM     66  C   UNL A   1      40.507  29.546  30.255  1.00  0.00     0.010 A 
ATOM     67  C   UNL A   1      39.905  29.375  27.911  1.00  0.00     0.010 A 
ATOM     68  C   UNL A   1      39.170  29.812  30.570  1.00  0.00     0.020 A 
ATOM     69  C   UNL A   1      38.575  29.663  28.218  1.00  0.00     0.020 A 
ATOM     70  C   UNL A   1      38.212  29.861  29.550  1.00  0.00     0.054 A 
BRANCH  70  71
ATOM     71  S   UNL A   1      36.483  30.208  29.978  1.00  0.00     0.124 S 
ATOM     72  O   UNL A   1      35.782  29.774  28.772  1.00  0.00    -0.237 OA
ATOM     73  O   UNL A   1      36.272  29.378  31.161  1.00  0.00    -0.237 OA
ATOM     74  O   UNL A   1      36.468  31.649  30.221  1.00  0.00    -0.744 OA
ENDBRANCH  70  71
ENDBRANCH  51  65
BRANCH  52  75
ATOM     75  C   UNL A   1      50.114  26.651  26.440  1.00  0.00    -0.014 A 
ATOM     76  C   UNL A   1      50.882  26.279  27.559  1.00  0.00     0.010 A 
ATOM     77  C   UNL A   1      50.728  26.667  25.174  1.00  0.00     0.010 A 
ATOM     78  C   UNL A   1      52.236  25.958  27.421  1.00  0.00     0.020 A 
ATOM     79  C   UNL A   1      52.072  26.311  25.026  1.00  0.00     0.020 A 
ATOM     80  C   UNL A   1      52.824  25.979  26.154  1.00  0.00     0.054 A 
BRANCH  80  81
ATOM     81  S   UNL A   1      54.574  25.536  25.978  1.00  0.00     0.124 S 
ATOM     82  O   UNL A   1      55.158  26.789  25.511  1.00  0.00    -0.237 OA
ATOM     83  O   UNL A   1      54.942  25.131  27.333  1.00  0.00    -0.237 OA
ATOM     84  O   UNL A   1      54.550  24.451  24.999  1.00  0.00    -0.744 OA
ENDBRANCH  80  81
ENDBRANCH  52  75
BRANCH  64  85
ATOM     85  C   UNL A   1      47.123  32.779  27.890  1.00  0.00    -0.014 A 
ATOM     86  C   UNL A   1      47.075  33.625  26.767  1.00  0.00     0.010 A 
ATOM     87  C   UNL A   1      47.601  33.288  29.110  1.00  0.00     0.010 A 
ATOM     88  C   UNL A   1      47.523  34.946  26.856  1.00  0.00     0.020 A 
ATOM     89  C   UNL A   1      48.026  34.618  29.209  1.00  0.00     0.020 A 
ATOM     90  C   UNL A   1      47.996  35.435  28.077  1.00  0.00     0.054 A 
BRANCH  90  91
ATOM     91  S   UNL A   1      48.517  37.170  28.178  1.00  0.00     0.124 S 
ATOM     92  O   UNL A   1      49.836  37.129  27.553  1.00  0.00    -0.237 OA
ATOM     93  O   UNL A   1      47.482  37.863  27.416  1.00  0.00    -0.237 OA
ATOM     94  O   UNL A   1      48.517  37.449  29.613  1.00  0.00    -0.744 OA
ENDBRANCH  90  91
ENDBRANCH  64  85
ENDBRANCH  38  39
ENDBRANCH  31  33
ENDBRANCH  30  31
ENDBRANCH  29  30
ENDBRANCH   1  29
TORSDOF 19
ENDMDL
