MODEL 1
REMARK VINA RESULT:     -11.4      0.000      0.000
REMARK SMILES CC1(C)S[C@H](c2ccc(-c3ccccc3)o2)[NH2+][C@H]1C(=O)OCCOC(=O)c1ccc(-c2c3nc(c(-c4ccc(S(=O)(=O)[O-])cc4)c4ccc([nH]4)c(-c4ccc(S(=O)(=O)[O-])cc4)c4nc(c(-c5ccc(S(=O)(=O)[O-])cc5)c5ccc2[nH]5)C=C4)C=C3)cc1
REMARK SMILES IDX 23 1 22 2 21 3 19 4 20 5 18 6 1 7 2 8 3 9 4 10 5 11 17 12
REMARK SMILES IDX 6 15 7 16 16 17 8 18 9 19 10 20 11 21 15 22 12 23 14 24
REMARK SMILES IDX 13 25 24 26 25 27 26 28 27 29 28 30 86 31 29 32 85 33 30 34
REMARK SMILES IDX 31 35 32 36 79 37 33 38 84 39 78 40 80 41 34 42 83 43 77 44
REMARK SMILES IDX 76 45 35 47 65 48 46 49 64 50 47 51 50 52 63 53 81 54 48 55
REMARK SMILES IDX 49 56 62 58 82 59 51 60 36 61 37 62 45 63 38 64 44 65 39 66
REMARK SMILES IDX 40 67 41 68 42 69 43 70 66 71 67 72 75 73 68 74 74 75 69 76
REMARK SMILES IDX 70 77 71 78 72 79 73 80 52 81 53 82 61 83 54 84 60 85 55 86
REMARK SMILES IDX 56 87 57 88 58 89 59 90
REMARK H PARENT 17 13 17 14 80 46 50 57
REMARK Flexibility Score: inf
ROOT
ATOM      1  C   UNL A   1      34.401  30.469  27.510  1.00  0.00     0.275 C 
ENDROOT
BRANCH   1   2
ATOM      2  C   UNL A   1      33.347  29.583  26.842  1.00  0.00     0.274 C 
BRANCH   2   3
ATOM      3  O   UNL A   1      33.922  28.394  26.259  1.00  0.00    -0.458 OA
BRANCH   3   4
ATOM      4  C   UNL A   1      33.660  28.184  24.944  1.00  0.00     0.366 C 
ATOM      5  O   UNL A   1      33.808  29.045  24.082  1.00  0.00    -0.245 OA
BRANCH   4   6
ATOM      6  C   UNL A   1      33.076  26.791  24.629  1.00  0.00     0.310 C 
ATOM      7  C   UNL A   1      30.610  27.630  24.202  1.00  0.00     0.030 C 
ATOM      8  C   UNL A   1      31.547  26.548  24.748  1.00  0.00     0.079 C 
ATOM      9  C   UNL A   1      31.139  26.160  26.171  1.00  0.00     0.030 C 
ATOM     10  S   UNL A   1      31.280  25.074  23.674  1.00  0.00    -0.078 SA
ATOM     11  C   UNL A   1      32.985  25.033  23.051  1.00  0.00     0.311 C 
ATOM     12  N   UNL A   1      33.536  26.370  23.277  1.00  0.00    -0.316 N 
ATOM     13  H   UNL A   1      33.191  27.018  22.569  1.00  0.00     0.348 HD
ATOM     14  H   UNL A   1      34.554  26.365  23.217  1.00  0.00     0.348 HD
BRANCH  11  15
ATOM     15  C   UNL A   1      33.735  23.875  23.650  1.00  0.00     0.172 A 
ATOM     16  C   UNL A   1      33.441  22.522  23.658  1.00  0.00     0.054 A 
ATOM     17  O   UNL A   1      34.930  24.083  24.297  1.00  0.00    -0.454 OA
ATOM     18  C   UNL A   1      34.506  21.872  24.314  1.00  0.00     0.051 A 
ATOM     19  C   UNL A   1      35.397  22.855  24.682  1.00  0.00     0.134 A 
BRANCH  19  20
ATOM     20  C   UNL A   1      36.690  22.795  25.343  1.00  0.00     0.017 A 
ATOM     21  C   UNL A   1      37.492  21.651  25.268  1.00  0.00     0.012 A 
ATOM     22  C   UNL A   1      37.197  23.937  25.983  1.00  0.00     0.012 A 
ATOM     23  C   UNL A   1      38.782  21.654  25.810  1.00  0.00     0.001 A 
ATOM     24  C   UNL A   1      38.479  23.935  26.537  1.00  0.00     0.001 A 
ATOM     25  C   UNL A   1      39.273  22.794  26.444  1.00  0.00     0.000 A 
ENDBRANCH  19  20
ENDBRANCH  11  15
ENDBRANCH   4   6
ENDBRANCH   3   4
ENDBRANCH   2   3
ENDBRANCH   1   2
BRANCH   1  26
ATOM     26  O   UNL A   1      35.589  29.722  27.824  1.00  0.00    -0.458 OA
BRANCH  26  27
ATOM     27  C   UNL A   1      36.247  30.122  28.936  1.00  0.00     0.338 C 
ATOM     28  O   UNL A   1      35.761  30.579  29.956  1.00  0.00    -0.246 OA
BRANCH  27  29
ATOM     29  C   UNL A   1      37.680  29.832  28.786  1.00  0.00     0.060 A 
ATOM     30  C   UNL A   1      38.202  29.680  27.500  1.00  0.00     0.016 A 
ATOM     31  C   UNL A   1      38.482  29.621  29.906  1.00  0.00     0.016 A 
ATOM     32  C   UNL A   1      39.530  29.308  27.323  1.00  0.00     0.010 A 
ATOM     33  C   UNL A   1      39.824  29.268  29.726  1.00  0.00     0.010 A 
ATOM     34  C   UNL A   1      40.353  29.101  28.434  1.00  0.00    -0.014 A 
BRANCH  34  35
ATOM     35  C   UNL A   1      41.759  28.682  28.239  1.00  0.00     0.031 A 
ATOM     36  C   UNL A   1      42.862  29.698  28.324  1.00  0.00     0.074 A 
ATOM     37  C   UNL A   1      42.044  27.388  27.997  1.00  0.00     0.049 A 
ATOM     38  N   UNL A   1      44.135  29.554  28.068  1.00  0.00    -0.248 NA
ATOM     39  C   UNL A   1      42.479  31.053  28.753  1.00  0.00     0.031 C 
ATOM     40  C   UNL A   1      41.066  26.300  27.949  1.00  0.00     0.029 A 
ATOM     41  N   UNL A   1      43.243  26.773  27.741  1.00  0.00    -0.354 N 
ATOM     42  C   UNL A   1      44.705  30.805  28.273  1.00  0.00     0.074 A 
ATOM     43  C   UNL A   1      43.636  31.696  28.673  1.00  0.00     0.031 C 
ATOM     44  C   UNL A   1      41.704  25.150  27.677  1.00  0.00     0.029 A 
ATOM     45  C   UNL A   1      43.124  25.429  27.480  1.00  0.00     0.049 A 
ATOM     46  H   UNL A   1      44.105  27.248  27.744  1.00  0.00     0.167 HD
ATOM     47  C   UNL A   1      45.999  31.177  28.136  1.00  0.00     0.031 A 
ATOM     48  C   UNL A   1      44.048  24.530  27.089  1.00  0.00     0.031 A 
ATOM     49  C   UNL A   1      47.058  30.285  27.739  1.00  0.00     0.049 A 
ATOM     50  C   UNL A   1      45.466  24.979  26.881  1.00  0.00     0.074 A 
ATOM     51  C   UNL A   1      48.402  30.567  27.568  1.00  0.00     0.029 A 
ATOM     52  N   UNL A   1      46.891  28.938  27.456  1.00  0.00    -0.354 N 
ATOM     53  N   UNL A   1      45.985  26.172  27.053  1.00  0.00    -0.248 NA
ATOM     54  C   UNL A   1      46.423  23.965  26.417  1.00  0.00     0.031 C 
ATOM     55  C   UNL A   1      49.042  29.397  27.142  1.00  0.00     0.029 A 
ATOM     56  C   UNL A   1      48.103  28.378  27.093  1.00  0.00     0.049 A 
ATOM     57  H   UNL A   1      46.037  28.452  27.506  1.00  0.00     0.167 HD
ATOM     58  C   UNL A   1      47.332  26.049  26.731  1.00  0.00     0.074 A 
ATOM     59  C   UNL A   1      47.550  24.661  26.369  1.00  0.00     0.031 C 
ATOM     60  C   UNL A   1      48.301  26.997  26.734  1.00  0.00     0.031 A 
BRANCH  47  61
ATOM     61  C   UNL A   1      46.331  32.625  28.369  1.00  0.00    -0.014 A 
ATOM     62  C   UNL A   1      46.263  33.566  27.328  1.00  0.00     0.010 A 
ATOM     63  C   UNL A   1      46.694  33.052  29.659  1.00  0.00     0.010 A 
ATOM     64  C   UNL A   1      46.591  34.905  27.564  1.00  0.00     0.020 A 
ATOM     65  C   UNL A   1      47.002  34.393  29.905  1.00  0.00     0.020 A 
ATOM     66  C   UNL A   1      46.966  35.308  28.851  1.00  0.00     0.054 A 
BRANCH  66  67
ATOM     67  S   UNL A   1      47.377  37.051  29.138  1.00  0.00     0.124 S 
ATOM     68  O   UNL A   1      48.520  36.945  30.041  1.00  0.00    -0.237 OA
ATOM     69  O   UNL A   1      47.684  37.537  27.795  1.00  0.00    -0.237 OA
ATOM     70  O   UNL A   1      46.162  37.601  29.732  1.00  0.00    -0.744 OA
ENDBRANCH  66  67
ENDBRANCH  47  61
BRANCH  48  71
ATOM     71  C   UNL A   1      43.644  23.123  26.830  1.00  0.00    -0.014 A 
ATOM     72  C   UNL A   1      44.055  22.466  25.658  1.00  0.00     0.010 A 
ATOM     73  C   UNL A   1      42.857  22.428  27.767  1.00  0.00     0.010 A 
ATOM     74  C   UNL A   1      43.680  21.140  25.423  1.00  0.00     0.020 A 
ATOM     75  C   UNL A   1      42.501  21.095  27.547  1.00  0.00     0.020 A 
ATOM     76  C   UNL A   1      42.905  20.463  26.371  1.00  0.00     0.054 A 
BRANCH  76  77
ATOM     77  S   UNL A   1      42.479  18.723  26.077  1.00  0.00     0.124 S 
ATOM     78  O   UNL A   1      41.056  18.810  25.766  1.00  0.00    -0.237 OA
ATOM     79  O   UNL A   1      43.350  18.365  24.961  1.00  0.00    -0.237 OA
ATOM     80  O   UNL A   1      42.805  18.075  27.346  1.00  0.00    -0.744 OA
ENDBRANCH  76  77
ENDBRANCH  48  71
BRANCH  60  81
ATOM     81  C   UNL A   1      49.690  26.562  26.360  1.00  0.00    -0.014 A 
ATOM     82  C   UNL A   1      50.175  26.734  25.052  1.00  0.00     0.010 A 
ATOM     83  C   UNL A   1      50.538  26.024  27.344  1.00  0.00     0.010 A 
ATOM     84  C   UNL A   1      51.479  26.352  24.728  1.00  0.00     0.020 A 
ATOM     85  C   UNL A   1      51.849  25.659  27.029  1.00  0.00     0.020 A 
ATOM     86  C   UNL A   1      52.307  25.814  25.718  1.00  0.00     0.054 A 
BRANCH  86  87
ATOM     87  S   UNL A   1      54.013  25.367  25.289  1.00  0.00     0.124 S 
ATOM     88  O   UNL A   1      54.081  25.749  23.882  1.00  0.00    -0.237 OA
ATOM     89  O   UNL A   1      54.802  26.189  26.202  1.00  0.00    -0.237 OA
ATOM     90  O   UNL A   1      54.068  23.930  25.549  1.00  0.00    -0.744 OA
ENDBRANCH  86  87
ENDBRANCH  60  81
ENDBRANCH  34  35
ENDBRANCH  27  29
ENDBRANCH  26  27
ENDBRANCH   1  26
TORSDOF 16
ENDMDL
MODEL 2
REMARK VINA RESULT:     -11.4      2.768      3.829
REMARK SMILES CC1(C)S[C@H](c2ccc(-c3ccccc3)o2)[NH2+][C@H]1C(=O)OCCOC(=O)c1ccc(-c2c3nc(c(-c4ccc(S(=O)(=O)[O-])cc4)c4ccc([nH]4)c(-c4ccc(S(=O)(=O)[O-])cc4)c4nc(c(-c5ccc(S(=O)(=O)[O-])cc5)c5ccc2[nH]5)C=C4)C=C3)cc1
REMARK SMILES IDX 23 1 22 2 21 3 19 4 20 5 18 6 1 7 2 8 3 9 4 10 5 11 17 12
REMARK SMILES IDX 6 15 7 16 16 17 8 18 9 19 10 20 11 21 15 22 12 23 14 24
REMARK SMILES IDX 13 25 24 26 25 27 26 28 27 29 28 30 86 31 29 32 85 33 30 34
REMARK SMILES IDX 31 35 32 36 79 37 33 38 84 39 78 40 80 41 34 42 83 43 77 44
REMARK SMILES IDX 76 45 35 47 65 48 46 49 64 50 47 51 50 52 63 53 81 54 48 55
REMARK SMILES IDX 49 56 62 58 82 59 51 60 36 61 37 62 45 63 38 64 44 65 39 66
REMARK SMILES IDX 40 67 41 68 42 69 43 70 66 71 67 72 75 73 68 74 74 75 69 76
REMARK SMILES IDX 70 77 71 78 72 79 73 80 52 81 53 82 61 83 54 84 60 85 55 86
REMARK SMILES IDX 56 87 57 88 58 89 59 90
REMARK H PARENT 17 13 17 14 80 46 50 57
REMARK Flexibility Score: inf
ROOT
ATOM      1  C   UNL A   1      32.418  29.717  27.081  1.00  0.00     0.275 C 
ENDROOT
BRANCH   1   2
ATOM      2  C   UNL A   1      31.833  28.309  27.215  1.00  0.00     0.274 C 
BRANCH   2   3
ATOM      3  O   UNL A   1      32.343  27.407  26.210  1.00  0.00    -0.458 OA
BRANCH   3   4
ATOM      4  C   UNL A   1      31.591  26.307  25.955  1.00  0.00     0.366 C 
ATOM      5  O   UNL A   1      30.490  26.112  26.462  1.00  0.00    -0.245 OA
BRANCH   4   6
ATOM      6  C   UNL A   1      32.273  25.272  25.035  1.00  0.00     0.310 C 
ATOM      7  C   UNL A   1      31.562  26.429  22.771  1.00  0.00     0.030 C 
ATOM      8  C   UNL A   1      31.822  25.138  23.555  1.00  0.00     0.079 C 
ATOM      9  C   UNL A   1      30.642  24.176  23.402  1.00  0.00     0.030 C 
ATOM     10  S   UNL A   1      33.284  24.356  22.749  1.00  0.00    -0.078 SA
ATOM     11  C   UNL A   1      34.339  24.457  24.224  1.00  0.00     0.311 C 
ATOM     12  N   UNL A   1      33.747  25.484  25.082  1.00  0.00    -0.316 N 
ATOM     13  H   UNL A   1      33.981  26.413  24.733  1.00  0.00     0.348 HD
ATOM     14  H   UNL A   1      34.100  25.417  26.037  1.00  0.00     0.348 HD
BRANCH  11  15
ATOM     15  C   UNL A   1      34.530  23.091  24.826  1.00  0.00     0.172 A 
ATOM     16  C   UNL A   1      35.067  22.714  26.046  1.00  0.00     0.054 A 
ATOM     17  O   UNL A   1      34.116  21.970  24.147  1.00  0.00    -0.454 OA
ATOM     18  C   UNL A   1      34.957  21.311  26.129  1.00  0.00     0.051 A 
ATOM     19  C   UNL A   1      34.367  20.895  24.956  1.00  0.00     0.134 A 
BRANCH  19  20
ATOM     20  C   UNL A   1      33.962  19.580  24.487  1.00  0.00     0.017 A 
ATOM     21  C   UNL A   1      32.733  19.382  23.848  1.00  0.00     0.012 A 
ATOM     22  C   UNL A   1      34.859  18.504  24.579  1.00  0.00     0.012 A 
ATOM     23  C   UNL A   1      32.413  18.135  23.299  1.00  0.00     0.001 A 
ATOM     24  C   UNL A   1      34.533  17.256  24.044  1.00  0.00     0.001 A 
ATOM     25  C   UNL A   1      33.312  17.074  23.399  1.00  0.00     0.000 A 
ENDBRANCH  19  20
ENDBRANCH  11  15
ENDBRANCH   4   6
ENDBRANCH   3   4
ENDBRANCH   2   3
ENDBRANCH   1   2
BRANCH   1  26
ATOM     26  O   UNL A   1      33.855  29.686  27.057  1.00  0.00    -0.458 OA
BRANCH  26  27
ATOM     27  C   UNL A   1      34.466  30.536  27.914  1.00  0.00     0.338 C 
ATOM     28  O   UNL A   1      33.972  31.496  28.479  1.00  0.00    -0.246 OA
BRANCH  27  29
ATOM     29  C   UNL A   1      35.840  30.075  28.162  1.00  0.00     0.060 A 
ATOM     30  C   UNL A   1      36.189  29.673  29.452  1.00  0.00     0.016 A 
ATOM     31  C   UNL A   1      36.798  30.123  27.151  1.00  0.00     0.016 A 
ATOM     32  C   UNL A   1      37.503  29.324  29.746  1.00  0.00     0.010 A 
ATOM     33  C   UNL A   1      38.115  29.752  27.443  1.00  0.00     0.010 A 
ATOM     34  C   UNL A   1      38.477  29.359  28.744  1.00  0.00    -0.014 A 
BRANCH  34  35
ATOM     35  C   UNL A   1      39.878  29.010  29.068  1.00  0.00     0.031 A 
ATOM     36  C   UNL A   1      40.776  30.032  29.702  1.00  0.00     0.074 A 
ATOM     37  C   UNL A   1      40.337  27.772  28.804  1.00  0.00     0.049 A 
ATOM     38  N   UNL A   1      42.058  29.961  29.952  1.00  0.00    -0.248 NA
ATOM     39  C   UNL A   1      40.150  31.301  30.106  1.00  0.00     0.031 C 
ATOM     40  C   UNL A   1      39.544  26.676  28.244  1.00  0.00     0.029 A 
ATOM     41  N   UNL A   1      41.587  27.231  28.967  1.00  0.00    -0.354 N 
ATOM     42  C   UNL A   1      42.401  31.185  30.514  1.00  0.00     0.074 A 
ATOM     43  C   UNL A   1      41.193  31.981  30.565  1.00  0.00     0.031 C 
ATOM     44  C   UNL A   1      40.329  25.594  28.108  1.00  0.00     0.029 A 
ATOM     45  C   UNL A   1      41.687  25.936  28.519  1.00  0.00     0.049 A 
ATOM     46  H   UNL A   1      42.340  27.724  29.366  1.00  0.00     0.167 HD
ATOM     47  C   UNL A   1      43.614  31.606  30.941  1.00  0.00     0.031 A 
ATOM     48  C   UNL A   1      42.759  25.127  28.418  1.00  0.00     0.031 A 
ATOM     49  C   UNL A   1      44.812  30.809  30.889  1.00  0.00     0.049 A 
ATOM     50  C   UNL A   1      44.107  25.639  28.840  1.00  0.00     0.074 A 
ATOM     51  C   UNL A   1      46.091  31.148  31.295  1.00  0.00     0.029 A 
ATOM     52  N   UNL A   1      44.877  29.512  30.402  1.00  0.00    -0.354 N 
ATOM     53  N   UNL A   1      44.421  26.809  29.344  1.00  0.00    -0.248 NA
ATOM     54  C   UNL A   1      45.247  24.727  28.670  1.00  0.00     0.031 C 
ATOM     55  C   UNL A   1      46.937  30.069  31.017  1.00  0.00     0.029 A 
ATOM     56  C   UNL A   1      46.176  29.043  30.480  1.00  0.00     0.049 A 
ATOM     57  H   UNL A   1      44.111  29.002  30.053  1.00  0.00     0.167 HD
ATOM     58  C   UNL A   1      45.793  26.769  29.566  1.00  0.00     0.074 A 
ATOM     59  C   UNL A   1      46.245  25.454  29.154  1.00  0.00     0.031 C 
ATOM     60  C   UNL A   1      46.607  27.732  30.063  1.00  0.00     0.031 A 
BRANCH  47  61
ATOM     61  C   UNL A   1      43.713  33.015  31.460  1.00  0.00    -0.014 A 
ATOM     62  C   UNL A   1      43.527  33.306  32.822  1.00  0.00     0.010 A 
ATOM     63  C   UNL A   1      44.020  34.059  30.569  1.00  0.00     0.010 A 
ATOM     64  C   UNL A   1      43.609  34.625  33.279  1.00  0.00     0.020 A 
ATOM     65  C   UNL A   1      44.123  35.376  31.025  1.00  0.00     0.020 A 
ATOM     66  C   UNL A   1      43.899  35.653  32.375  1.00  0.00     0.054 A 
BRANCH  66  67
ATOM     67  S   UNL A   1      44.009  37.356  32.991  1.00  0.00     0.124 S 
ATOM     68  O   UNL A   1      45.309  37.350  33.658  1.00  0.00    -0.237 OA
ATOM     69  O   UNL A   1      43.938  38.149  31.766  1.00  0.00    -0.237 OA
ATOM     70  O   UNL A   1      42.855  37.480  33.876  1.00  0.00    -0.744 OA
ENDBRANCH  66  67
ENDBRANCH  47  61
BRANCH  48  71
ATOM     71  C   UNL A   1      42.601  23.761  27.853  1.00  0.00    -0.014 A 
ATOM     72  C   UNL A   1      42.347  22.664  28.693  1.00  0.00     0.010 A 
ATOM     73  C   UNL A   1      42.687  23.557  26.463  1.00  0.00     0.010 A 
ATOM     74  C   UNL A   1      42.190  21.384  28.155  1.00  0.00     0.020 A 
ATOM     75  C   UNL A   1      42.506  22.282  25.920  1.00  0.00     0.020 A 
ATOM     76  C   UNL A   1      42.270  21.202  26.770  1.00  0.00     0.054 A 
BRANCH  76  77
ATOM     77  S   UNL A   1      42.004  19.542  26.085  1.00  0.00     0.124 S 
ATOM     78  O   UNL A   1      42.845  19.569  24.894  1.00  0.00    -0.237 OA
ATOM     79  O   UNL A   1      42.464  18.673  27.165  1.00  0.00    -0.237 OA
ATOM     80  O   UNL A   1      40.564  19.505  25.836  1.00  0.00    -0.744 OA
ENDBRANCH  76  77
ENDBRANCH  48  71
BRANCH  60  81
ATOM     81  C   UNL A   1      48.063  27.393  30.215  1.00  0.00    -0.014 A 
ATOM     82  C   UNL A   1      49.009  27.821  29.268  1.00  0.00     0.010 A 
ATOM     83  C   UNL A   1      48.495  26.683  31.349  1.00  0.00     0.010 A 
ATOM     84  C   UNL A   1      50.363  27.521  29.440  1.00  0.00     0.020 A 
ATOM     85  C   UNL A   1      49.850  26.400  31.535  1.00  0.00     0.020 A 
ATOM     86  C   UNL A   1      50.775  26.811  30.571  1.00  0.00     0.054 A 
BRANCH  86  87
ATOM     87  S   UNL A   1      52.543  26.473  30.801  1.00  0.00     0.124 S 
ATOM     88  O   UNL A   1      53.024  27.738  31.347  1.00  0.00    -0.237 OA
ATOM     89  O   UNL A   1      52.540  25.348  31.731  1.00  0.00    -0.237 OA
ATOM     90  O   UNL A   1      53.011  26.157  29.453  1.00  0.00    -0.744 OA
ENDBRANCH  86  87
ENDBRANCH  60  81
ENDBRANCH  34  35
ENDBRANCH  27  29
ENDBRANCH  26  27
ENDBRANCH   1  26
TORSDOF 16
ENDMDL
MODEL 3
REMARK VINA RESULT:     -11.3      2.370      3.162
REMARK SMILES CC1(C)S[C@H](c2ccc(-c3ccccc3)o2)[NH2+][C@H]1C(=O)OCCOC(=O)c1ccc(-c2c3nc(c(-c4ccc(S(=O)(=O)[O-])cc4)c4ccc([nH]4)c(-c4ccc(S(=O)(=O)[O-])cc4)c4nc(c(-c5ccc(S(=O)(=O)[O-])cc5)c5ccc2[nH]5)C=C4)C=C3)cc1
REMARK SMILES IDX 23 1 22 2 21 3 19 4 20 5 18 6 1 7 2 8 3 9 4 10 5 11 17 12
REMARK SMILES IDX 6 15 7 16 16 17 8 18 9 19 10 20 11 21 15 22 12 23 14 24
REMARK SMILES IDX 13 25 24 26 25 27 26 28 27 29 28 30 86 31 29 32 85 33 30 34
REMARK SMILES IDX 31 35 32 36 79 37 33 38 84 39 78 40 80 41 34 42 83 43 77 44
REMARK SMILES IDX 76 45 35 47 65 48 46 49 64 50 47 51 50 52 63 53 81 54 48 55
REMARK SMILES IDX 49 56 62 58 82 59 51 60 36 61 37 62 45 63 38 64 44 65 39 66
REMARK SMILES IDX 40 67 41 68 42 69 43 70 66 71 67 72 75 73 68 74 74 75 69 76
REMARK SMILES IDX 70 77 71 78 72 79 73 80 52 81 53 82 61 83 54 84 60 85 55 86
REMARK SMILES IDX 56 87 57 88 58 89 59 90
REMARK H PARENT 17 13 17 14 80 46 50 57
REMARK Flexibility Score: inf
ROOT
ATOM      1  C   UNL A   1      32.423  29.766  27.061  1.00  0.00     0.275 C 
ENDROOT
BRANCH   1   2
ATOM      2  C   UNL A   1      32.367  29.499  25.555  1.00  0.00     0.274 C 
BRANCH   2   3
ATOM      3  O   UNL A   1      33.414  28.607  25.118  1.00  0.00    -0.458 OA
BRANCH   3   4
ATOM      4  C   UNL A   1      33.354  28.202  23.824  1.00  0.00     0.366 C 
ATOM      5  O   UNL A   1      33.666  28.919  22.879  1.00  0.00    -0.245 OA
BRANCH   4   6
ATOM      6  C   UNL A   1      32.778  26.783  23.630  1.00  0.00     0.310 C 
ATOM      7  C   UNL A   1      30.407  27.576  22.786  1.00  0.00     0.030 C 
ATOM      8  C   UNL A   1      31.241  26.572  23.588  1.00  0.00     0.079 C 
ATOM      9  C   UNL A   1      30.650  26.387  24.987  1.00  0.00     0.030 C 
ATOM     10  S   UNL A   1      31.071  24.965  22.698  1.00  0.00    -0.078 SA
ATOM     11  C   UNL A   1      32.839  24.825  22.306  1.00  0.00     0.311 C 
ATOM     12  N   UNL A   1      33.391  26.175  22.416  1.00  0.00    -0.316 N 
ATOM     13  H   UNL A   1      33.153  26.722  21.589  1.00  0.00     0.348 HD
ATOM     14  H   UNL A   1      34.409  26.154  22.487  1.00  0.00     0.348 HD
BRANCH  11  15
ATOM     15  C   UNL A   1      33.478  23.754  23.148  1.00  0.00     0.172 A 
ATOM     16  C   UNL A   1      33.064  22.462  23.426  1.00  0.00     0.054 A 
ATOM     17  O   UNL A   1      34.684  23.986  23.766  1.00  0.00    -0.454 OA
ATOM     18  C   UNL A   1      34.063  21.871  24.225  1.00  0.00     0.051 A 
ATOM     19  C   UNL A   1      35.038  22.829  24.404  1.00  0.00     0.134 A 
BRANCH  19  20
ATOM     20  C   UNL A   1      36.317  22.794  25.094  1.00  0.00     0.017 A 
ATOM     21  C   UNL A   1      37.145  21.668  25.032  1.00  0.00     0.012 A 
ATOM     22  C   UNL A   1      36.784  23.944  25.748  1.00  0.00     0.012 A 
ATOM     23  C   UNL A   1      38.423  21.696  25.602  1.00  0.00     0.001 A 
ATOM     24  C   UNL A   1      38.053  23.967  26.331  1.00  0.00     0.001 A 
ATOM     25  C   UNL A   1      38.875  22.845  26.251  1.00  0.00     0.000 A 
ENDBRANCH  19  20
ENDBRANCH  11  15
ENDBRANCH   4   6
ENDBRANCH   3   4
ENDBRANCH   2   3
ENDBRANCH   1   2
BRANCH   1  26
ATOM     26  O   UNL A   1      33.711  29.428  27.604  1.00  0.00    -0.458 OA
BRANCH  26  27
ATOM     27  C   UNL A   1      34.438  30.472  28.062  1.00  0.00     0.338 C 
ATOM     28  O   UNL A   1      34.032  31.584  28.349  1.00  0.00    -0.246 OA
BRANCH  27  29
ATOM     29  C   UNL A   1      35.829  30.044  28.270  1.00  0.00     0.060 A 
ATOM     30  C   UNL A   1      36.223  29.642  29.548  1.00  0.00     0.016 A 
ATOM     31  C   UNL A   1      36.758  30.124  27.235  1.00  0.00     0.016 A 
ATOM     32  C   UNL A   1      37.552  29.325  29.804  1.00  0.00     0.010 A 
ATOM     33  C   UNL A   1      38.092  29.785  27.489  1.00  0.00     0.010 A 
ATOM     34  C   UNL A   1      38.498  29.392  28.777  1.00  0.00    -0.014 A 
BRANCH  34  35
ATOM     35  C   UNL A   1      39.916  29.076  29.061  1.00  0.00     0.031 A 
ATOM     36  C   UNL A   1      40.811  30.125  29.656  1.00  0.00     0.074 A 
ATOM     37  C   UNL A   1      40.394  27.846  28.796  1.00  0.00     0.049 A 
ATOM     38  N   UNL A   1      42.100  30.084  29.867  1.00  0.00    -0.248 NA
ATOM     39  C   UNL A   1      40.169  31.385  30.067  1.00  0.00     0.031 C 
ATOM     40  C   UNL A   1      39.607  26.727  28.272  1.00  0.00     0.029 A 
ATOM     41  N   UNL A   1      41.659  27.334  28.926  1.00  0.00    -0.354 N 
ATOM     42  C   UNL A   1      42.434  31.321  30.405  1.00  0.00     0.074 A 
ATOM     43  C   UNL A   1      41.211  32.091  30.486  1.00  0.00     0.031 C 
ATOM     44  C   UNL A   1      40.411  25.661  28.123  1.00  0.00     0.029 A 
ATOM     45  C   UNL A   1      41.773  26.036  28.489  1.00  0.00     0.049 A 
ATOM     46  H   UNL A   1      42.414  27.847  29.296  1.00  0.00     0.167 HD
ATOM     47  C   UNL A   1      43.650  31.773  30.791  1.00  0.00     0.031 A 
ATOM     48  C   UNL A   1      42.859  25.249  28.363  1.00  0.00     0.031 A 
ATOM     49  C   UNL A   1      44.863  31.001  30.710  1.00  0.00     0.049 A 
ATOM     50  C   UNL A   1      44.208  25.795  28.737  1.00  0.00     0.074 A 
ATOM     51  C   UNL A   1      46.146  31.372  31.072  1.00  0.00     0.029 A 
ATOM     52  N   UNL A   1      44.941  29.701  30.235  1.00  0.00    -0.354 N 
ATOM     53  N   UNL A   1      44.512  26.976  29.220  1.00  0.00    -0.248 NA
ATOM     54  C   UNL A   1      45.362  24.906  28.542  1.00  0.00     0.031 C 
ATOM     55  C   UNL A   1      47.006  30.308  30.780  1.00  0.00     0.029 A 
ATOM     56  C   UNL A   1      46.251  29.260  30.277  1.00  0.00     0.049 A 
ATOM     57  H   UNL A   1      44.176  29.170  29.915  1.00  0.00     0.167 HD
ATOM     58  C   UNL A   1      45.891  26.968  29.399  1.00  0.00     0.074 A 
ATOM     59  C   UNL A   1      46.359  25.659  28.987  1.00  0.00     0.031 C 
ATOM     60  C   UNL A   1      46.698  27.955  29.861  1.00  0.00     0.031 A 
BRANCH  47  61
ATOM     61  C   UNL A   1      43.734  33.189  31.291  1.00  0.00    -0.014 A 
ATOM     62  C   UNL A   1      43.476  33.504  32.636  1.00  0.00     0.010 A 
ATOM     63  C   UNL A   1      44.101  34.216  30.403  1.00  0.00     0.010 A 
ATOM     64  C   UNL A   1      43.545  34.830  33.076  1.00  0.00     0.020 A 
ATOM     65  C   UNL A   1      44.192  35.539  30.843  1.00  0.00     0.020 A 
ATOM     66  C   UNL A   1      43.895  35.841  32.174  1.00  0.00     0.054 A 
BRANCH  66  67
ATOM     67  S   UNL A   1      43.989  37.552  32.767  1.00  0.00     0.124 S 
ATOM     68  O   UNL A   1      43.682  38.307  31.555  1.00  0.00    -0.237 OA
ATOM     69  O   UNL A   1      42.961  37.591  33.805  1.00  0.00    -0.237 OA
ATOM     70  O   UNL A   1      45.361  37.678  33.250  1.00  0.00    -0.744 OA
ENDBRANCH  66  67
ENDBRANCH  47  61
BRANCH  48  71
ATOM     71  C   UNL A   1      42.714  23.874  27.817  1.00  0.00    -0.014 A 
ATOM     72  C   UNL A   1      42.383  22.801  28.661  1.00  0.00     0.010 A 
ATOM     73  C   UNL A   1      42.889  23.637  26.441  1.00  0.00     0.010 A 
ATOM     74  C   UNL A   1      42.238  21.512  28.140  1.00  0.00     0.020 A 
ATOM     75  C   UNL A   1      42.721  22.355  25.913  1.00  0.00     0.020 A 
ATOM     76  C   UNL A   1      42.408  21.298  26.768  1.00  0.00     0.054 A 
BRANCH  76  77
ATOM     77  S   UNL A   1      42.157  19.628  26.101  1.00  0.00     0.124 S 
ATOM     78  O   UNL A   1      42.522  18.791  27.239  1.00  0.00    -0.237 OA
ATOM     79  O   UNL A   1      40.739  19.635  25.749  1.00  0.00    -0.237 OA
ATOM     80  O   UNL A   1      43.073  19.577  24.964  1.00  0.00    -0.744 OA
ENDBRANCH  76  77
ENDBRANCH  48  71
BRANCH  60  81
ATOM     81  C   UNL A   1      48.165  27.648  29.972  1.00  0.00    -0.014 A 
ATOM     82  C   UNL A   1      48.665  26.866  31.028  1.00  0.00     0.010 A 
ATOM     83  C   UNL A   1      49.046  28.105  28.976  1.00  0.00     0.010 A 
ATOM     84  C   UNL A   1      50.027  26.567  31.099  1.00  0.00     0.020 A 
ATOM     85  C   UNL A   1      50.406  27.791  29.032  1.00  0.00     0.020 A 
ATOM     86  C   UNL A   1      50.890  27.033  30.102  1.00  0.00     0.054 A 
BRANCH  86  87
ATOM     87  S   UNL A   1      52.649  26.594  30.187  1.00  0.00     0.124 S 
ATOM     88  O   UNL A   1      53.269  27.882  30.485  1.00  0.00    -0.237 OA
ATOM     89  O   UNL A   1      52.686  25.614  31.269  1.00  0.00    -0.237 OA
ATOM     90  O   UNL A   1      52.934  26.056  28.859  1.00  0.00    -0.744 OA
ENDBRANCH  86  87
ENDBRANCH  60  81
ENDBRANCH  34  35
ENDBRANCH  27  29
ENDBRANCH  26  27
ENDBRANCH   1  26
TORSDOF 16
ENDMDL
