MODEL 1
REMARK VINA RESULT:      -9.9      0.000      0.000
REMARK SMILES CC[C@@H](C)SCc1cc(F)cc(/C=C/C(=O)OCCOC(=O)c2ccc(-c3c4nc(c(-c5ccc(S(=O)(=O)[O-])cc5)c5ccc([nH]5)c(-c5ccc(S(=O)(=O)[O-])cc5)c5nc(c(-c6ccc(S(=O)(=O)[O-])cc6)c6ccc3[nH]6)C=C5)C=C4)cc2)c1
REMARK SMILES IDX 18 1 17 2 15 3 16 4 14 5 13 6 12 7 7 8 8 9 83 10 9 11 10 12
REMARK SMILES IDX 11 13 6 14 5 15 3 16 4 17 2 18 1 19 19 20 20 21 21 22 22 23
REMARK SMILES IDX 23 24 24 25 82 26 25 27 81 28 26 29 27 30 28 31 75 32 29 33
REMARK SMILES IDX 80 34 74 35 76 36 30 37 79 38 73 39 72 40 31 42 61 43 42 44
REMARK SMILES IDX 60 45 43 46 46 47 59 48 77 49 44 50 45 51 58 53 78 54 47 55
REMARK SMILES IDX 32 56 33 57 41 58 34 59 40 60 35 61 36 62 37 63 38 64 39 65
REMARK SMILES IDX 62 66 63 67 71 68 64 69 70 70 65 71 66 72 67 73 68 74 69 75
REMARK SMILES IDX 48 76 49 77 57 78 50 79 56 80 51 81 52 82 53 83 54 84 55 85
REMARK H PARENT 76 41 46 52
REMARK Flexibility Score: inf
ROOT
ATOM      1  C   UNL A   1      41.182  22.845  26.279  1.00  0.00     0.275 C 
ENDROOT
BRANCH   1   2
ATOM      2  O   UNL A   1      40.800  21.608  26.907  1.00  0.00    -0.459 OA
BRANCH   2   3
ATOM      3  C   UNL A   1      40.096  20.755  26.126  1.00  0.00     0.330 C 
ATOM      4  O   UNL A   1      40.449  19.637  25.779  1.00  0.00    -0.247 OA
BRANCH   3   5
ATOM      5  C   UNL A   1      38.775  21.285  25.737  1.00  0.00     0.094 C 
ATOM      6  C   UNL A   1      37.751  20.579  25.234  1.00  0.00     0.016 C 
BRANCH   6   7
ATOM      7  C   UNL A   1      36.494  21.217  24.808  1.00  0.00    -0.022 A 
ATOM      8  C   UNL A   1      34.052  21.137  24.605  1.00  0.00    -0.035 A 
ATOM      9  C   UNL A   1      34.070  22.420  24.046  1.00  0.00     0.043 A 
ATOM     10  C   UNL A   1      35.272  20.548  24.992  1.00  0.00     0.013 A 
ATOM     11  C   UNL A   1      35.281  23.058  23.816  1.00  0.00     0.124 A 
ATOM     12  F   UNL A   1      35.286  24.259  23.223  1.00  0.00    -0.207 F 
ATOM     13  C   UNL A   1      36.485  22.467  24.175  1.00  0.00     0.047 A 
BRANCH   8  14
ATOM     14  C   UNL A   1      32.746  20.410  24.784  1.00  0.00     0.105 C 
BRANCH  14  15
ATOM     15  S   UNL A   1      32.906  18.637  25.172  1.00  0.00    -0.154 SA
BRANCH  15  16
ATOM     16  C   UNL A   1      33.497  17.883  23.591  1.00  0.00     0.043 C 
ATOM     17  C   UNL A   1      32.493  18.070  22.455  1.00  0.00     0.019 C 
BRANCH  16  18
ATOM     18  C   UNL A   1      33.993  16.439  23.764  1.00  0.00     0.011 C 
ATOM     19  C   UNL A   1      33.998  15.971  25.214  1.00  0.00     0.005 C 
ENDBRANCH  16  18
ENDBRANCH  15  16
ENDBRANCH  14  15
ENDBRANCH   8  14
ENDBRANCH   6   7
ENDBRANCH   3   5
ENDBRANCH   2   3
ENDBRANCH   1   2
BRANCH   1  20
ATOM     20  C   UNL A   1      41.242  23.994  27.289  1.00  0.00     0.275 C 
BRANCH  20  21
ATOM     21  O   UNL A   1      40.652  25.201  26.776  1.00  0.00    -0.458 OA
BRANCH  21  22
ATOM     22  C   UNL A   1      39.409  25.482  27.237  1.00  0.00     0.338 C 
ATOM     23  O   UNL A   1      38.363  24.955  26.901  1.00  0.00    -0.246 OA
BRANCH  22  24
ATOM     24  C   UNL A   1      39.498  26.487  28.311  1.00  0.00     0.060 A 
ATOM     25  C   UNL A   1      40.288  27.623  28.102  1.00  0.00     0.016 A 
ATOM     26  C   UNL A   1      38.864  26.278  29.537  1.00  0.00     0.016 A 
ATOM     27  C   UNL A   1      40.450  28.556  29.127  1.00  0.00     0.010 A 
ATOM     28  C   UNL A   1      39.029  27.212  30.561  1.00  0.00     0.010 A 
ATOM     29  C   UNL A   1      39.831  28.352  30.367  1.00  0.00    -0.014 A 
BRANCH  29  30
ATOM     30  C   UNL A   1      40.045  29.292  31.494  1.00  0.00     0.031 A 
ATOM     31  C   UNL A   1      41.204  29.081  32.425  1.00  0.00     0.074 A 
ATOM     32  C   UNL A   1      39.176  30.297  31.709  1.00  0.00     0.049 A 
ATOM     33  N   UNL A   1      41.475  29.678  33.556  1.00  0.00    -0.248 NA
ATOM     34  C   UNL A   1      42.186  28.057  32.031  1.00  0.00     0.031 C 
ATOM     35  C   UNL A   1      38.040  30.633  30.850  1.00  0.00     0.029 A 
ATOM     36  N   UNL A   1      39.103  31.209  32.733  1.00  0.00    -0.354 N 
ATOM     37  C   UNL A   1      42.643  29.086  34.025  1.00  0.00     0.074 A 
ATOM     38  C   UNL A   1      43.023  28.077  33.060  1.00  0.00     0.031 C 
ATOM     39  C   UNL A   1      37.374  31.666  31.391  1.00  0.00     0.029 A 
ATOM     40  C   UNL A   1      38.002  32.030  32.659  1.00  0.00     0.049 A 
ATOM     41  H   UNL A   1      39.773  31.269  33.452  1.00  0.00     0.167 HD
ATOM     42  C   UNL A   1      43.330  29.360  35.160  1.00  0.00     0.031 A 
ATOM     43  C   UNL A   1      37.530  32.943  33.531  1.00  0.00     0.031 A 
ATOM     44  C   UNL A   1      42.941  30.361  36.116  1.00  0.00     0.049 A 
ATOM     45  C   UNL A   1      38.270  33.177  34.822  1.00  0.00     0.074 A 
ATOM     46  C   UNL A   1      43.576  30.719  37.293  1.00  0.00     0.029 A 
ATOM     47  N   UNL A   1      41.814  31.161  36.009  1.00  0.00    -0.354 N 
ATOM     48  N   UNL A   1      39.373  32.612  35.253  1.00  0.00    -0.248 NA
ATOM     49  C   UNL A   1      37.701  34.169  35.747  1.00  0.00     0.031 C 
ATOM     50  C   UNL A   1      42.805  31.702  37.922  1.00  0.00     0.029 A 
ATOM     51  C   UNL A   1      41.722  31.997  37.108  1.00  0.00     0.049 A 
ATOM     52  H   UNL A   1      41.173  31.139  35.261  1.00  0.00     0.167 HD
ATOM     53  C   UNL A   1      39.646  33.202  36.482  1.00  0.00     0.074 A 
ATOM     54  C   UNL A   1      38.595  34.169  36.727  1.00  0.00     0.031 C 
ATOM     55  C   UNL A   1      40.679  32.968  37.328  1.00  0.00     0.031 A 
BRANCH  42  56
ATOM     56  C   UNL A   1      44.555  28.534  35.449  1.00  0.00    -0.014 A 
ATOM     57  C   UNL A   1      44.482  27.370  36.236  1.00  0.00     0.010 A 
ATOM     58  C   UNL A   1      45.792  28.906  34.891  1.00  0.00     0.010 A 
ATOM     59  C   UNL A   1      45.632  26.618  36.493  1.00  0.00     0.020 A 
ATOM     60  C   UNL A   1      46.939  28.141  35.124  1.00  0.00     0.020 A 
ATOM     61  C   UNL A   1      46.854  27.012  35.940  1.00  0.00     0.054 A 
BRANCH  61  62
ATOM     62  S   UNL A   1      48.328  26.010  36.279  1.00  0.00     0.124 S 
ATOM     63  O   UNL A   1      48.720  25.590  34.935  1.00  0.00    -0.237 OA
ATOM     64  O   UNL A   1      49.225  26.963  36.924  1.00  0.00    -0.237 OA
ATOM     65  O   UNL A   1      47.831  24.941  37.143  1.00  0.00    -0.744 OA
ENDBRANCH  61  62
ENDBRANCH  42  56
BRANCH  43  66
ATOM     66  C   UNL A   1      36.275  33.680  33.225  1.00  0.00    -0.014 A 
ATOM     67  C   UNL A   1      36.313  34.904  32.537  1.00  0.00     0.010 A 
ATOM     68  C   UNL A   1      35.028  33.151  33.611  1.00  0.00     0.010 A 
ATOM     69  C   UNL A   1      35.130  35.593  32.251  1.00  0.00     0.020 A 
ATOM     70  C   UNL A   1      33.842  33.823  33.303  1.00  0.00     0.020 A 
ATOM     71  C   UNL A   1      33.901  35.046  32.634  1.00  0.00     0.054 A 
BRANCH  71  72
ATOM     72  S   UNL A   1      32.376  35.931  32.205  1.00  0.00     0.124 S 
ATOM     73  O   UNL A   1      32.477  37.129  33.032  1.00  0.00    -0.237 OA
ATOM     74  O   UNL A   1      32.525  36.139  30.767  1.00  0.00    -0.237 OA
ATOM     75  O   UNL A   1      31.320  34.995  32.584  1.00  0.00    -0.744 OA
ENDBRANCH  71  72
ENDBRANCH  43  66
BRANCH  55  76
ATOM     76  C   UNL A   1      40.768  33.801  38.578  1.00  0.00    -0.014 A 
ATOM     77  C   UNL A   1      41.296  35.103  38.552  1.00  0.00     0.010 A 
ATOM     78  C   UNL A   1      40.213  33.307  39.774  1.00  0.00     0.010 A 
ATOM     79  C   UNL A   1      41.268  35.896  39.703  1.00  0.00     0.020 A 
ATOM     80  C   UNL A   1      40.164  34.104  40.919  1.00  0.00     0.020 A 
ATOM     81  C   UNL A   1      40.695  35.395  40.877  1.00  0.00     0.054 A 
BRANCH  81  82
ATOM     82  S   UNL A   1      40.587  36.477  42.330  1.00  0.00     0.124 S 
ATOM     83  O   UNL A   1      41.962  36.950  42.460  1.00  0.00    -0.237 OA
ATOM     84  O   UNL A   1      39.614  37.482  41.909  1.00  0.00    -0.237 OA
ATOM     85  O   UNL A   1      40.131  35.585  43.393  1.00  0.00    -0.744 OA
ENDBRANCH  81  82
ENDBRANCH  55  76
ENDBRANCH  29  30
ENDBRANCH  22  24
ENDBRANCH  21  22
ENDBRANCH  20  21
ENDBRANCH   1  20
TORSDOF 19
ENDMDL
MODEL 2
REMARK VINA RESULT:      -9.8      6.561     11.787
REMARK SMILES CC[C@@H](C)SCc1cc(F)cc(/C=C/C(=O)OCCOC(=O)c2ccc(-c3c4nc(c(-c5ccc(S(=O)(=O)[O-])cc5)c5ccc([nH]5)c(-c5ccc(S(=O)(=O)[O-])cc5)c5nc(c(-c6ccc(S(=O)(=O)[O-])cc6)c6ccc3[nH]6)C=C5)C=C4)cc2)c1
REMARK SMILES IDX 18 1 17 2 15 3 16 4 14 5 13 6 12 7 7 8 8 9 83 10 9 11 10 12
REMARK SMILES IDX 11 13 6 14 5 15 3 16 4 17 2 18 1 19 19 20 20 21 21 22 22 23
REMARK SMILES IDX 23 24 24 25 82 26 25 27 81 28 26 29 27 30 28 31 75 32 29 33
REMARK SMILES IDX 80 34 74 35 76 36 30 37 79 38 73 39 72 40 31 42 61 43 42 44
REMARK SMILES IDX 60 45 43 46 46 47 59 48 77 49 44 50 45 51 58 53 78 54 47 55
REMARK SMILES IDX 32 56 33 57 41 58 34 59 40 60 35 61 36 62 37 63 38 64 39 65
REMARK SMILES IDX 62 66 63 67 71 68 64 69 70 70 65 71 66 72 67 73 68 74 69 75
REMARK SMILES IDX 48 76 49 77 57 78 50 79 56 80 51 81 52 82 53 83 54 84 55 85
REMARK H PARENT 76 41 46 52
REMARK Flexibility Score: inf
ROOT
ATOM      1  C   UNL A   1      38.948  21.051  25.595  1.00  0.00     0.275 C 
ENDROOT
BRANCH   1   2
ATOM      2  O   UNL A   1      39.212  22.155  26.480  1.00  0.00    -0.459 OA
BRANCH   2   3
ATOM      3  C   UNL A   1      38.581  23.311  26.167  1.00  0.00     0.330 C 
ATOM      4  O   UNL A   1      38.943  24.437  26.477  1.00  0.00    -0.247 OA
BRANCH   3   5
ATOM      5  C   UNL A   1      37.377  23.105  25.339  1.00  0.00     0.094 C 
ATOM      6  C   UNL A   1      36.111  23.029  25.780  1.00  0.00     0.016 C 
BRANCH   6   7
ATOM      7  C   UNL A   1      34.983  22.748  24.876  1.00  0.00    -0.022 A 
ATOM      8  C   UNL A   1      33.066  21.345  24.270  1.00  0.00    -0.035 A 
ATOM      9  C   UNL A   1      32.795  22.202  23.197  1.00  0.00     0.043 A 
ATOM     10  C   UNL A   1      34.160  21.634  25.111  1.00  0.00     0.013 A 
ATOM     11  C   UNL A   1      33.641  23.271  22.935  1.00  0.00     0.124 A 
ATOM     12  F   UNL A   1      33.405  24.047  21.869  1.00  0.00    -0.207 F 
ATOM     13  C   UNL A   1      34.732  23.542  23.749  1.00  0.00     0.047 A 
BRANCH   8  14
ATOM     14  C   UNL A   1      32.196  20.140  24.511  1.00  0.00     0.105 C 
BRANCH  14  15
ATOM     15  S   UNL A   1      32.369  18.815  23.272  1.00  0.00    -0.154 SA
BRANCH  15  16
ATOM     16  C   UNL A   1      33.359  17.516  24.138  1.00  0.00     0.043 C 
ATOM     17  C   UNL A   1      34.061  16.579  23.156  1.00  0.00     0.019 C 
BRANCH  16  18
ATOM     18  C   UNL A   1      32.570  16.797  25.242  1.00  0.00     0.011 C 
ATOM     19  C   UNL A   1      32.939  15.325  25.389  1.00  0.00     0.005 C 
ENDBRANCH  16  18
ENDBRANCH  15  16
ENDBRANCH  14  15
ENDBRANCH   8  14
ENDBRANCH   6   7
ENDBRANCH   3   5
ENDBRANCH   2   3
ENDBRANCH   1   2
BRANCH   1  20
ATOM     20  C   UNL A   1      39.653  19.774  26.063  1.00  0.00     0.275 C 
BRANCH  20  21
ATOM     21  O   UNL A   1      40.935  19.599  25.436  1.00  0.00    -0.458 OA
BRANCH  21  22
ATOM     22  C   UNL A   1      41.993  19.544  26.282  1.00  0.00     0.338 C 
ATOM     23  O   UNL A   1      42.567  18.546  26.678  1.00  0.00    -0.246 OA
BRANCH  22  24
ATOM     24  C   UNL A   1      42.436  20.912  26.604  1.00  0.00     0.060 A 
ATOM     25  C   UNL A   1      42.749  21.780  25.552  1.00  0.00     0.016 A 
ATOM     26  C   UNL A   1      42.609  21.311  27.930  1.00  0.00     0.016 A 
ATOM     27  C   UNL A   1      43.242  23.056  25.826  1.00  0.00     0.010 A 
ATOM     28  C   UNL A   1      43.104  22.588  28.201  1.00  0.00     0.010 A 
ATOM     29  C   UNL A   1      43.433  23.466  27.152  1.00  0.00    -0.014 A 
BRANCH  29  30
ATOM     30  C   UNL A   1      44.021  24.790  27.468  1.00  0.00     0.031 A 
ATOM     31  C   UNL A   1      43.125  25.914  27.904  1.00  0.00     0.074 A 
ATOM     32  C   UNL A   1      45.343  24.996  27.315  1.00  0.00     0.049 A 
ATOM     33  N   UNL A   1      43.407  27.180  28.066  1.00  0.00    -0.248 NA
ATOM     34  C   UNL A   1      41.724  25.564  28.190  1.00  0.00     0.031 C 
ATOM     35  C   UNL A   1      46.321  23.974  26.944  1.00  0.00     0.029 A 
ATOM     36  N   UNL A   1      46.086  26.144  27.435  1.00  0.00    -0.354 N 
ATOM     37  C   UNL A   1      42.215  27.786  28.449  1.00  0.00     0.074 A 
ATOM     38  C   UNL A   1      41.205  26.750  28.483  1.00  0.00     0.031 C 
ATOM     39  C   UNL A   1      47.534  24.543  26.850  1.00  0.00     0.029 A 
ATOM     40  C   UNL A   1      47.410  25.977  27.102  1.00  0.00     0.049 A 
ATOM     41  H   UNL A   1      45.708  27.004  27.731  1.00  0.00     0.167 HD
ATOM     42  C   UNL A   1      41.987  29.089  28.738  1.00  0.00     0.031 A 
ATOM     43  C   UNL A   1      48.401  26.882  26.974  1.00  0.00     0.031 A 
ATOM     44  C   UNL A   1      42.996  30.114  28.694  1.00  0.00     0.049 A 
ATOM     45  C   UNL A   1      48.106  28.336  27.228  1.00  0.00     0.074 A 
ATOM     46  C   UNL A   1      42.865  31.462  28.978  1.00  0.00     0.029 A 
ATOM     47  N   UNL A   1      44.320  29.904  28.340  1.00  0.00    -0.354 N 
ATOM     48  N   UNL A   1      46.975  28.896  27.589  1.00  0.00    -0.248 NA
ATOM     49  C   UNL A   1      49.218  29.283  27.055  1.00  0.00     0.031 C 
ATOM     50  C   UNL A   1      44.100  32.077  28.748  1.00  0.00     0.029 A 
ATOM     51  C   UNL A   1      45.013  31.101  28.378  1.00  0.00     0.049 A 
ATOM     52  H   UNL A   1      44.710  29.033  28.098  1.00  0.00     0.167 HD
ATOM     53  C   UNL A   1      47.248  30.254  27.716  1.00  0.00     0.074 A 
ATOM     54  C   UNL A   1      48.650  30.432  27.396  1.00  0.00     0.031 C 
ATOM     55  C   UNL A   1      46.413  31.260  28.073  1.00  0.00     0.031 A 
BRANCH  42  56
ATOM     56  C   UNL A   1      40.578  29.488  29.089  1.00  0.00    -0.014 A 
ATOM     57  C   UNL A   1      39.596  29.652  28.096  1.00  0.00     0.010 A 
ATOM     58  C   UNL A   1      40.222  29.664  30.439  1.00  0.00     0.010 A 
ATOM     59  C   UNL A   1      38.295  30.025  28.444  1.00  0.00     0.020 A 
ATOM     60  C   UNL A   1      38.915  30.010  30.793  1.00  0.00     0.020 A 
ATOM     61  C   UNL A   1      37.964  30.207  29.790  1.00  0.00     0.054 A 
BRANCH  61  62
ATOM     62  S   UNL A   1      36.264  30.676  30.214  1.00  0.00     0.124 S 
ATOM     63  O   UNL A   1      36.116  30.096  31.547  1.00  0.00    -0.237 OA
ATOM     64  O   UNL A   1      36.311  32.135  30.167  1.00  0.00    -0.237 OA
ATOM     65  O   UNL A   1      35.458  30.047  29.170  1.00  0.00    -0.744 OA
ENDBRANCH  61  62
ENDBRANCH  42  56
BRANCH  43  66
ATOM     66  C   UNL A   1      49.758  26.439  26.555  1.00  0.00    -0.014 A 
ATOM     67  C   UNL A   1      50.681  25.964  27.502  1.00  0.00     0.010 A 
ATOM     68  C   UNL A   1      50.131  26.478  25.198  1.00  0.00     0.010 A 
ATOM     69  C   UNL A   1      51.955  25.547  27.103  1.00  0.00     0.020 A 
ATOM     70  C   UNL A   1      51.393  26.039  24.791  1.00  0.00     0.020 A 
ATOM     71  C   UNL A   1      52.302  25.585  25.748  1.00  0.00     0.054 A 
BRANCH  71  72
ATOM     72  S   UNL A   1      53.942  24.991  25.247  1.00  0.00     0.124 S 
ATOM     73  O   UNL A   1      54.719  25.179  26.467  1.00  0.00    -0.237 OA
ATOM     74  O   UNL A   1      53.675  23.604  24.874  1.00  0.00    -0.237 OA
ATOM     75  O   UNL A   1      54.297  25.869  24.135  1.00  0.00    -0.744 OA
ENDBRANCH  71  72
ENDBRANCH  43  66
BRANCH  55  76
ATOM     76  C   UNL A   1      46.990  32.645  28.194  1.00  0.00    -0.014 A 
ATOM     77  C   UNL A   1      47.592  33.084  29.385  1.00  0.00     0.010 A 
ATOM     78  C   UNL A   1      47.025  33.476  27.058  1.00  0.00     0.010 A 
ATOM     79  C   UNL A   1      48.217  34.334  29.439  1.00  0.00     0.020 A 
ATOM     80  C   UNL A   1      47.667  34.715  27.102  1.00  0.00     0.020 A 
ATOM     81  C   UNL A   1      48.258  35.138  28.293  1.00  0.00     0.054 A 
BRANCH  81  82
ATOM     82  S   UNL A   1      49.155  36.714  28.362  1.00  0.00     0.124 S 
ATOM     83  O   UNL A   1      50.226  36.413  29.309  1.00  0.00    -0.237 OA
ATOM     84  O   UNL A   1      49.577  36.903  26.977  1.00  0.00    -0.237 OA
ATOM     85  O   UNL A   1      48.152  37.663  28.837  1.00  0.00    -0.744 OA
ENDBRANCH  81  82
ENDBRANCH  55  76
ENDBRANCH  29  30
ENDBRANCH  22  24
ENDBRANCH  21  22
ENDBRANCH  20  21
ENDBRANCH   1  20
TORSDOF 19
ENDMDL
MODEL 3
REMARK VINA RESULT:      -9.7      6.878     12.427
REMARK SMILES CC[C@@H](C)SCc1cc(F)cc(/C=C/C(=O)OCCOC(=O)c2ccc(-c3c4nc(c(-c5ccc(S(=O)(=O)[O-])cc5)c5ccc([nH]5)c(-c5ccc(S(=O)(=O)[O-])cc5)c5nc(c(-c6ccc(S(=O)(=O)[O-])cc6)c6ccc3[nH]6)C=C5)C=C4)cc2)c1
REMARK SMILES IDX 18 1 17 2 15 3 16 4 14 5 13 6 12 7 7 8 8 9 83 10 9 11 10 12
REMARK SMILES IDX 11 13 6 14 5 15 3 16 4 17 2 18 1 19 19 20 20 21 21 22 22 23
REMARK SMILES IDX 23 24 24 25 82 26 25 27 81 28 26 29 27 30 28 31 75 32 29 33
REMARK SMILES IDX 80 34 74 35 76 36 30 37 79 38 73 39 72 40 31 42 61 43 42 44
REMARK SMILES IDX 60 45 43 46 46 47 59 48 77 49 44 50 45 51 58 53 78 54 47 55
REMARK SMILES IDX 32 56 33 57 41 58 34 59 40 60 35 61 36 62 37 63 38 64 39 65
REMARK SMILES IDX 62 66 63 67 71 68 64 69 70 70 65 71 66 72 67 73 68 74 69 75
REMARK SMILES IDX 48 76 49 77 57 78 50 79 56 80 51 81 52 82 53 83 54 84 55 85
REMARK H PARENT 76 41 46 52
REMARK Flexibility Score: inf
ROOT
ATOM      1  C   UNL A   1      35.014  33.201  30.406  1.00  0.00     0.275 C 
ENDROOT
BRANCH   1   2
ATOM      2  O   UNL A   1      34.178  32.456  29.502  1.00  0.00    -0.459 OA
BRANCH   2   3
ATOM      3  C   UNL A   1      34.738  32.160  28.306  1.00  0.00     0.330 C 
ATOM      4  O   UNL A   1      35.792  32.604  27.873  1.00  0.00    -0.247 OA
BRANCH   3   5
ATOM      5  C   UNL A   1      33.961  31.172  27.533  1.00  0.00     0.094 C 
ATOM      6  C   UNL A   1      34.350  29.928  27.213  1.00  0.00     0.016 C 
BRANCH   6   7
ATOM      7  C   UNL A   1      33.527  29.042  26.373  1.00  0.00    -0.022 A 
ATOM      8  C   UNL A   1      33.106  26.814  25.440  1.00  0.00    -0.035 A 
ATOM      9  C   UNL A   1      31.957  27.309  24.812  1.00  0.00     0.043 A 
ATOM     10  C   UNL A   1      33.880  27.689  26.228  1.00  0.00     0.013 A 
ATOM     11  C   UNL A   1      31.639  28.656  24.913  1.00  0.00     0.124 A 
ATOM     12  F   UNL A   1      30.571  29.128  24.257  1.00  0.00    -0.207 F 
ATOM     13  C   UNL A   1      32.415  29.523  25.670  1.00  0.00     0.047 A 
BRANCH   8  14
ATOM     14  C   UNL A   1      33.497  25.370  25.269  1.00  0.00     0.105 C 
BRANCH  14  15
ATOM     15  S   UNL A   1      32.773  24.233  26.494  1.00  0.00    -0.154 SA
BRANCH  15  16
ATOM     16  C   UNL A   1      31.089  23.863  25.825  1.00  0.00     0.043 C 
ATOM     17  C   UNL A   1      30.214  23.135  26.844  1.00  0.00     0.019 C 
BRANCH  16  18
ATOM     18  C   UNL A   1      31.127  23.202  24.439  1.00  0.00     0.011 C 
ATOM     19  C   UNL A   1      30.667  24.125  23.317  1.00  0.00     0.005 C 
ENDBRANCH  16  18
ENDBRANCH  15  16
ENDBRANCH  14  15
ENDBRANCH   8  14
ENDBRANCH   6   7
ENDBRANCH   3   5
ENDBRANCH   2   3
ENDBRANCH   1   2
BRANCH   1  20
ATOM     20  C   UNL A   1      35.433  32.355  31.611  1.00  0.00     0.275 C 
BRANCH  20  21
ATOM     21  O   UNL A   1      36.817  31.966  31.550  1.00  0.00    -0.458 OA
BRANCH  21  22
ATOM     22  C   UNL A   1      37.041  30.639  31.387  1.00  0.00     0.338 C 
ATOM     23  O   UNL A   1      36.271  29.727  31.635  1.00  0.00    -0.246 OA
BRANCH  22  24
ATOM     24  C   UNL A   1      38.358  30.436  30.760  1.00  0.00     0.060 A 
ATOM     25  C   UNL A   1      38.511  30.754  29.406  1.00  0.00     0.016 A 
ATOM     26  C   UNL A   1      39.412  29.871  31.480  1.00  0.00     0.016 A 
ATOM     27  C   UNL A   1      39.725  30.503  28.764  1.00  0.00     0.010 A 
ATOM     28  C   UNL A   1      40.624  29.620  30.837  1.00  0.00     0.010 A 
ATOM     29  C   UNL A   1      40.787  29.925  29.472  1.00  0.00    -0.014 A 
BRANCH  29  30
ATOM     30  C   UNL A   1      42.062  29.584  28.797  1.00  0.00     0.031 A 
ATOM     31  C   UNL A   1      42.300  28.177  28.328  1.00  0.00     0.074 A 
ATOM     32  C   UNL A   1      43.021  30.518  28.653  1.00  0.00     0.049 A 
ATOM     33  N   UNL A   1      43.396  27.632  27.871  1.00  0.00    -0.248 NA
ATOM     34  C   UNL A   1      41.148  27.261  28.388  1.00  0.00     0.031 C 
ATOM     35  C   UNL A   1      42.892  31.927  29.024  1.00  0.00     0.029 A 
ATOM     36  N   UNL A   1      44.303  30.414  28.171  1.00  0.00    -0.354 N 
ATOM     37  C   UNL A   1      43.078  26.303  27.612  1.00  0.00     0.074 A 
ATOM     38  C   UNL A   1      41.688  26.123  27.973  1.00  0.00     0.031 C 
ATOM     39  C   UNL A   1      44.054  32.553  28.772  1.00  0.00     0.029 A 
ATOM     40  C   UNL A   1      45.023  31.581  28.273  1.00  0.00     0.049 A 
ATOM     41  H   UNL A   1      44.671  29.583  27.790  1.00  0.00     0.167 HD
ATOM     42  C   UNL A   1      43.876  25.325  27.122  1.00  0.00     0.031 A 
ATOM     43  C   UNL A   1      46.325  31.829  28.031  1.00  0.00     0.031 A 
ATOM     44  C   UNL A   1      45.259  25.512  26.772  1.00  0.00     0.049 A 
ATOM     45  C   UNL A   1      47.212  30.707  27.558  1.00  0.00     0.074 A 
ATOM     46  C   UNL A   1      46.150  24.585  26.260  1.00  0.00     0.029 A 
ATOM     47  N   UNL A   1      45.952  26.706  26.902  1.00  0.00    -0.354 N 
ATOM     48  N   UNL A   1      46.899  29.456  27.317  1.00  0.00    -0.248 NA
ATOM     49  C   UNL A   1      48.629  31.028  27.328  1.00  0.00     0.031 C 
ATOM     50  C   UNL A   1      47.395  25.206  26.126  1.00  0.00     0.029 A 
ATOM     51  C   UNL A   1      47.265  26.535  26.500  1.00  0.00     0.049 A 
ATOM     52  H   UNL A   1      45.568  27.551  27.231  1.00  0.00     0.167 HD
ATOM     53  C   UNL A   1      48.071  28.850  26.877  1.00  0.00     0.074 A 
ATOM     54  C   UNL A   1      49.099  29.871  26.884  1.00  0.00     0.031 C 
ATOM     55  C   UNL A   1      48.273  27.566  26.495  1.00  0.00     0.031 A 
BRANCH  42  56
ATOM     56  C   UNL A   1      43.282  23.950  26.974  1.00  0.00    -0.014 A 
ATOM     57  C   UNL A   1      43.174  23.079  28.073  1.00  0.00     0.010 A 
ATOM     58  C   UNL A   1      42.788  23.537  25.723  1.00  0.00     0.010 A 
ATOM     59  C   UNL A   1      42.620  21.805  27.913  1.00  0.00     0.020 A 
ATOM     60  C   UNL A   1      42.209  22.275  25.565  1.00  0.00     0.020 A 
ATOM     61  C   UNL A   1      42.146  21.410  26.658  1.00  0.00     0.054 A 
BRANCH  61  62
ATOM     62  S   UNL A   1      41.420  19.756  26.482  1.00  0.00     0.124 S 
ATOM     63  O   UNL A   1      41.679  19.173  27.797  1.00  0.00    -0.237 OA
ATOM     64  O   UNL A   1      40.020  20.049  26.191  1.00  0.00    -0.237 OA
ATOM     65  O   UNL A   1      42.172  19.161  25.379  1.00  0.00    -0.744 OA
ENDBRANCH  61  62
ENDBRANCH  42  56
BRANCH  43  66
ATOM     66  C   UNL A   1      46.875  33.192  28.263  1.00  0.00    -0.014 A 
ATOM     67  C   UNL A   1      46.871  34.150  27.235  1.00  0.00     0.010 A 
ATOM     68  C   UNL A   1      47.395  33.544  29.523  1.00  0.00     0.010 A 
ATOM     69  C   UNL A   1      47.387  35.431  27.458  1.00  0.00     0.020 A 
ATOM     70  C   UNL A   1      47.888  34.830  29.758  1.00  0.00     0.020 A 
ATOM     71  C   UNL A   1      47.891  35.763  28.720  1.00  0.00     0.054 A 
BRANCH  71  72
ATOM     72  S   UNL A   1      48.507  37.446  29.002  1.00  0.00     0.124 S 
ATOM     73  O   UNL A   1      47.270  38.192  29.206  1.00  0.00    -0.237 OA
ATOM     74  O   UNL A   1      49.349  37.281  30.184  1.00  0.00    -0.237 OA
ATOM     75  O   UNL A   1      49.230  37.755  27.771  1.00  0.00    -0.744 OA
ENDBRANCH  71  72
ENDBRANCH  43  66
BRANCH  55  76
ATOM     76  C   UNL A   1      49.643  27.186  25.999  1.00  0.00    -0.014 A 
ATOM     77  C   UNL A   1      50.592  26.599  26.852  1.00  0.00     0.010 A 
ATOM     78  C   UNL A   1      49.938  27.321  24.628  1.00  0.00     0.010 A 
ATOM     79  C   UNL A   1      51.816  26.156  26.343  1.00  0.00     0.020 A 
ATOM     80  C   UNL A   1      51.151  26.859  24.113  1.00  0.00     0.020 A 
ATOM     81  C   UNL A   1      52.085  26.281  24.974  1.00  0.00     0.054 A 
BRANCH  81  82
ATOM     82  S   UNL A   1      53.641  25.613  24.323  1.00  0.00     0.124 S 
ATOM     83  O   UNL A   1      53.546  25.946  22.905  1.00  0.00    -0.237 OA
ATOM     84  O   UNL A   1      54.649  26.357  25.076  1.00  0.00    -0.237 OA
ATOM     85  O   UNL A   1      53.564  24.189  24.636  1.00  0.00    -0.744 OA
ENDBRANCH  81  82
ENDBRANCH  55  76
ENDBRANCH  29  30
ENDBRANCH  22  24
ENDBRANCH  21  22
ENDBRANCH  20  21
ENDBRANCH   1  20
TORSDOF 19
ENDMDL
