MODEL 1
REMARK VINA RESULT:     -12.3      0.000      0.000
REMARK SMILES O=C(Cn1c2ccccc2c(=O)c2ccccc21)N[C@@H](Cc1ccccc1)C(=O)OCCOC(=O)c1ccc(-c2c3nc(c(-c4ccc(S(=O)(=O)[O-])cc4)c4ccc([nH]4)c(-c4ccc(S(=O)(=O)[O-])cc4)c4nc(c(-c5ccc(S(=O)(=O)[O-])cc5)c5ccc2[nH]5)C=C4)C=C3)cc1
REMARK SMILES IDX 31 1 30 2 28 3 29 4 20 5 19 6 1 7 2 8 3 10 4 11 5 12 18 13
REMARK SMILES IDX 6 14 10 15 13 16 17 17 7 18 9 19 11 20 14 21 16 22 8 23
REMARK SMILES IDX 12 24 15 25 21 26 22 27 23 28 27 29 24 30 26 31 25 32 32 33
REMARK SMILES IDX 33 34 34 35 35 36 36 37 37 38 95 39 38 40 94 41 39 42 40 43
REMARK SMILES IDX 41 44 88 45 42 46 93 47 87 48 89 49 43 50 92 51 86 52 85 53
REMARK SMILES IDX 44 55 74 56 55 57 73 58 56 59 59 60 72 61 90 62 57 63 58 64
REMARK SMILES IDX 71 66 91 67 60 68 45 69 46 70 54 71 47 72 53 73 48 74 49 75
REMARK SMILES IDX 50 76 51 77 52 78 75 79 76 80 84 81 77 82 83 83 78 84 79 85
REMARK SMILES IDX 80 86 81 87 82 88 61 89 62 90 70 91 63 92 69 93 64 94 65 95
REMARK SMILES IDX 66 96 67 97 68 98
REMARK H PARENT 19 9 89 54 59 65
REMARK Flexibility Score: inf
ROOT
ATOM      1  C   UNL A   1      31.873  28.016  26.588  1.00  0.00     0.274 C 
ENDROOT
BRANCH   1   2
ATOM      2  O   UNL A   1      31.028  26.965  27.110  1.00  0.00    -0.461 OA
BRANCH   2   3
ATOM      3  C   UNL A   1      30.854  25.877  26.313  1.00  0.00     0.329 C 
ATOM      4  O   UNL A   1      30.625  24.746  26.732  1.00  0.00    -0.250 OA
BRANCH   3   5
ATOM      5  C   UNL A   1      31.169  26.145  24.823  1.00  0.00     0.196 C 
BRANCH   5   6
ATOM      6  N   UNL A   1      32.155  25.290  24.142  1.00  0.00    -0.341 N 
ATOM      7  O   UNL A   1      33.703  25.176  25.817  1.00  0.00    -0.273 OA
ATOM      8  C   UNL A   1      33.338  24.832  24.697  1.00  0.00     0.240 C 
ATOM      9  H   UNL A   1      31.958  25.022  23.215  1.00  0.00     0.164 HD
BRANCH   8  10
ATOM     10  C   UNL A   1      34.240  24.038  23.729  1.00  0.00     0.222 C 
BRANCH  10  11
ATOM     11  N   UNL A   1      34.929  22.793  24.188  1.00  0.00    -0.331 N 
ATOM     12  C   UNL A   1      34.140  21.596  24.189  1.00  0.00     0.053 A 
ATOM     13  C   UNL A   1      36.193  22.805  24.823  1.00  0.00     0.053 A 
ATOM     14  C   UNL A   1      32.760  21.547  23.913  1.00  0.00     0.027 A 
ATOM     15  C   UNL A   1      34.730  20.368  24.551  1.00  0.00     0.046 A 
ATOM     16  C   UNL A   1      36.853  21.598  25.125  1.00  0.00     0.046 A 
ATOM     17  C   UNL A   1      36.858  23.948  25.268  1.00  0.00     0.027 A 
ATOM     18  C   UNL A   1      32.018  20.357  24.024  1.00  0.00     0.002 A 
ATOM     19  C   UNL A   1      33.995  19.176  24.668  1.00  0.00     0.014 A 
ATOM     20  C   UNL A   1      36.161  20.321  24.893  1.00  0.00     0.197 A 
ATOM     21  C   UNL A   1      38.117  21.546  25.747  1.00  0.00     0.014 A 
ATOM     22  C   UNL A   1      38.106  23.917  25.908  1.00  0.00     0.002 A 
ATOM     23  C   UNL A   1      32.632  19.173  24.412  1.00  0.00     0.001 A 
ATOM     24  O   UNL A   1      36.732  19.250  25.075  1.00  0.00    -0.288 OA
ATOM     25  C   UNL A   1      38.751  22.715  26.130  1.00  0.00     0.001 A 
ENDBRANCH  10  11
ENDBRANCH   8  10
ENDBRANCH   5   6
BRANCH   5  26
ATOM     26  C   UNL A   1      29.810  26.106  24.073  1.00  0.00     0.072 C 
BRANCH  26  27
ATOM     27  C   UNL A   1      29.469  27.407  23.363  1.00  0.00    -0.045 A 
ATOM     28  C   UNL A   1      28.150  27.885  23.340  1.00  0.00     0.004 A 
ATOM     29  C   UNL A   1      30.478  28.189  22.783  1.00  0.00     0.004 A 
ATOM     30  C   UNL A   1      27.859  29.145  22.817  1.00  0.00     0.000 A 
ATOM     31  C   UNL A   1      30.182  29.440  22.239  1.00  0.00     0.000 A 
ATOM     32  C   UNL A   1      28.876  29.924  22.271  1.00  0.00     0.000 A 
ENDBRANCH  26  27
ENDBRANCH   5  26
ENDBRANCH   3   5
ENDBRANCH   2   3
ENDBRANCH   1   2
BRANCH   1  33
ATOM     33  C   UNL A   1      32.765  28.622  27.671  1.00  0.00     0.275 C 
BRANCH  33  34
ATOM     34  O   UNL A   1      33.928  29.214  27.084  1.00  0.00    -0.458 OA
BRANCH  34  35
ATOM     35  C   UNL A   1      34.399  30.299  27.740  1.00  0.00     0.338 C 
ATOM     36  O   UNL A   1      33.782  31.293  28.082  1.00  0.00    -0.246 OA
BRANCH  35  37
ATOM     37  C   UNL A   1      35.790  30.018  28.082  1.00  0.00     0.060 A 
ATOM     38  C   UNL A   1      36.784  30.189  27.125  1.00  0.00     0.016 A 
ATOM     39  C   UNL A   1      36.086  29.550  29.364  1.00  0.00     0.016 A 
ATOM     40  C   UNL A   1      38.091  29.850  27.454  1.00  0.00     0.010 A 
ATOM     41  C   UNL A   1      37.393  29.247  29.706  1.00  0.00     0.010 A 
ATOM     42  C   UNL A   1      38.394  29.369  28.741  1.00  0.00    -0.014 A 
BRANCH  42  43
ATOM     43  C   UNL A   1      39.776  28.989  29.075  1.00  0.00     0.031 A 
ATOM     44  C   UNL A   1      40.627  29.921  29.879  1.00  0.00     0.074 A 
ATOM     45  C   UNL A   1      40.220  27.788  28.663  1.00  0.00     0.049 A 
ATOM     46  N   UNL A   1      41.810  29.709  30.386  1.00  0.00    -0.248 NA
ATOM     47  C   UNL A   1      40.087  31.266  30.146  1.00  0.00     0.031 C 
ATOM     48  C   UNL A   1      39.449  26.853  27.840  1.00  0.00     0.029 A 
ATOM     49  N   UNL A   1      41.401  27.139  28.898  1.00  0.00    -0.354 N 
ATOM     50  C   UNL A   1      42.147  30.880  31.053  1.00  0.00     0.074 A 
ATOM     51  C   UNL A   1      41.076  31.824  30.833  1.00  0.00     0.031 C 
ATOM     52  C   UNL A   1      40.155  25.723  27.690  1.00  0.00     0.029 A 
ATOM     53  C   UNL A   1      41.436  25.868  28.377  1.00  0.00     0.049 A 
ATOM     54  H   UNL A   1      42.150  27.542  29.394  1.00  0.00     0.167 HD
ATOM     55  C   UNL A   1      43.243  31.121  31.807  1.00  0.00     0.031 A 
ATOM     56  C   UNL A   1      42.388  24.919  28.464  1.00  0.00     0.031 A 
ATOM     57  C   UNL A   1      44.291  30.152  31.994  1.00  0.00     0.049 A 
ATOM     58  C   UNL A   1      43.606  25.218  29.293  1.00  0.00     0.074 A 
ATOM     59  C   UNL A   1      45.441  30.269  32.752  1.00  0.00     0.029 A 
ATOM     60  N   UNL A   1      44.315  28.888  31.418  1.00  0.00    -0.354 N 
ATOM     61  N   UNL A   1      43.884  26.304  29.978  1.00  0.00    -0.248 NA
ATOM     62  C   UNL A   1      44.628  24.169  29.382  1.00  0.00     0.031 C 
ATOM     63  C   UNL A   1      46.193  29.106  32.578  1.00  0.00     0.029 A 
ATOM     64  C   UNL A   1      45.475  28.227  31.778  1.00  0.00     0.049 A 
ATOM     65  H   UNL A   1      43.610  28.517  30.839  1.00  0.00     0.167 HD
ATOM     66  C   UNL A   1      45.108  26.067  30.588  1.00  0.00     0.074 A 
ATOM     67  C   UNL A   1      45.505  24.724  30.213  1.00  0.00     0.031 C 
ATOM     68  C   UNL A   1      45.842  26.887  31.382  1.00  0.00     0.031 A 
BRANCH  55  69
ATOM     69  C   UNL A   1      43.362  32.453  32.501  1.00  0.00    -0.014 A 
ATOM     70  C   UNL A   1      42.616  32.713  33.665  1.00  0.00     0.010 A 
ATOM     71  C   UNL A   1      44.122  33.494  31.935  1.00  0.00     0.010 A 
ATOM     72  C   UNL A   1      42.596  33.992  34.228  1.00  0.00     0.020 A 
ATOM     73  C   UNL A   1      44.130  34.767  32.511  1.00  0.00     0.020 A 
ATOM     74  C   UNL A   1      43.343  35.016  33.639  1.00  0.00     0.054 A 
BRANCH  74  75
ATOM     75  S   UNL A   1      43.266  36.680  34.355  1.00  0.00     0.124 S 
ATOM     76  O   UNL A   1      43.299  37.529  33.168  1.00  0.00    -0.237 OA
ATOM     77  O   UNL A   1      41.998  36.658  35.081  1.00  0.00    -0.237 OA
ATOM     78  O   UNL A   1      44.456  36.745  35.203  1.00  0.00    -0.744 OA
ENDBRANCH  74  75
ENDBRANCH  55  69
BRANCH  56  79
ATOM     79  C   UNL A   1      42.162  23.605  27.803  1.00  0.00    -0.014 A 
ATOM     80  C   UNL A   1      41.646  22.520  28.539  1.00  0.00     0.010 A 
ATOM     81  C   UNL A   1      42.575  23.390  26.477  1.00  0.00     0.010 A 
ATOM     82  C   UNL A   1      41.610  21.236  27.988  1.00  0.00     0.020 A 
ATOM     83  C   UNL A   1      42.509  22.111  25.910  1.00  0.00     0.020 A 
ATOM     84  C   UNL A   1      42.057  21.038  26.680  1.00  0.00     0.054 A 
BRANCH  84  85
ATOM     85  S   UNL A   1      42.066  19.350  26.012  1.00  0.00     0.124 S 
ATOM     86  O   UNL A   1      40.650  19.131  25.729  1.00  0.00    -0.237 OA
ATOM     87  O   UNL A   1      42.928  19.478  24.839  1.00  0.00    -0.237 OA
ATOM     88  O   UNL A   1      42.617  18.552  27.102  1.00  0.00    -0.744 OA
ENDBRANCH  84  85
ENDBRANCH  56  79
BRANCH  68  89
ATOM     89  C   UNL A   1      47.163  26.377  31.891  1.00  0.00    -0.014 A 
ATOM     90  C   UNL A   1      48.322  26.538  31.109  1.00  0.00     0.010 A 
ATOM     91  C   UNL A   1      47.225  25.599  33.060  1.00  0.00     0.010 A 
ATOM     92  C   UNL A   1      49.507  25.889  31.457  1.00  0.00     0.020 A 
ATOM     93  C   UNL A   1      48.419  24.976  33.432  1.00  0.00     0.020 A 
ATOM     94  C   UNL A   1      49.543  25.100  32.610  1.00  0.00     0.054 A 
BRANCH  94  95
ATOM     95  S   UNL A   1      51.073  24.216  33.015  1.00  0.00     0.124 S 
ATOM     96  O   UNL A   1      51.323  24.646  34.387  1.00  0.00    -0.237 OA
ATOM     97  O   UNL A   1      50.686  22.816  32.853  1.00  0.00    -0.237 OA
ATOM     98  O   UNL A   1      52.026  24.709  32.022  1.00  0.00    -0.744 OA
ENDBRANCH  94  95
ENDBRANCH  68  89
ENDBRANCH  42  43
ENDBRANCH  35  37
ENDBRANCH  34  35
ENDBRANCH  33  34
ENDBRANCH   1  33
TORSDOF 19
ENDMDL
MODEL 2
REMARK VINA RESULT:     -12.1      1.624      8.070
REMARK SMILES O=C(Cn1c2ccccc2c(=O)c2ccccc21)N[C@@H](Cc1ccccc1)C(=O)OCCOC(=O)c1ccc(-c2c3nc(c(-c4ccc(S(=O)(=O)[O-])cc4)c4ccc([nH]4)c(-c4ccc(S(=O)(=O)[O-])cc4)c4nc(c(-c5ccc(S(=O)(=O)[O-])cc5)c5ccc2[nH]5)C=C4)C=C3)cc1
REMARK SMILES IDX 31 1 30 2 28 3 29 4 20 5 19 6 1 7 2 8 3 10 4 11 5 12 18 13
REMARK SMILES IDX 6 14 10 15 13 16 17 17 7 18 9 19 11 20 14 21 16 22 8 23
REMARK SMILES IDX 12 24 15 25 21 26 22 27 23 28 27 29 24 30 26 31 25 32 32 33
REMARK SMILES IDX 33 34 34 35 35 36 36 37 37 38 95 39 38 40 94 41 39 42 40 43
REMARK SMILES IDX 41 44 88 45 42 46 93 47 87 48 89 49 43 50 92 51 86 52 85 53
REMARK SMILES IDX 44 55 74 56 55 57 73 58 56 59 59 60 72 61 90 62 57 63 58 64
REMARK SMILES IDX 71 66 91 67 60 68 45 69 46 70 54 71 47 72 53 73 48 74 49 75
REMARK SMILES IDX 50 76 51 77 52 78 75 79 76 80 84 81 77 82 83 83 78 84 79 85
REMARK SMILES IDX 80 86 81 87 82 88 61 89 62 90 70 91 63 92 69 93 64 94 65 95
REMARK SMILES IDX 66 96 67 97 68 98
REMARK H PARENT 19 9 89 54 59 65
REMARK Flexibility Score: inf
ROOT
ATOM      1  C   UNL A   1      33.092  29.696  25.410  1.00  0.00     0.274 C 
ENDROOT
BRANCH   1   2
ATOM      2  O   UNL A   1      33.157  28.382  24.810  1.00  0.00    -0.461 OA
BRANCH   2   3
ATOM      3  C   UNL A   1      33.516  28.333  23.499  1.00  0.00     0.329 C 
ATOM      4  O   UNL A   1      33.640  29.322  22.783  1.00  0.00    -0.250 OA
BRANCH   3   5
ATOM      5  C   UNL A   1      33.566  26.900  22.923  1.00  0.00     0.196 C 
BRANCH   5   6
ATOM      6  N   UNL A   1      33.624  25.762  23.857  1.00  0.00    -0.341 N 
ATOM      7  O   UNL A   1      34.102  24.121  22.343  1.00  0.00    -0.273 OA
ATOM      8  C   UNL A   1      33.925  24.456  23.510  1.00  0.00     0.240 C 
ATOM      9  H   UNL A   1      33.433  25.945  24.805  1.00  0.00     0.164 HD
BRANCH   8  10
ATOM     10  C   UNL A   1      33.813  23.440  24.665  1.00  0.00     0.222 C 
BRANCH  10  11
ATOM     11  N   UNL A   1      34.826  22.349  24.812  1.00  0.00    -0.331 N 
ATOM     12  C   UNL A   1      34.334  21.008  24.689  1.00  0.00     0.053 A 
ATOM     13  C   UNL A   1      36.137  22.579  25.290  1.00  0.00     0.053 A 
ATOM     14  C   UNL A   1      32.974  20.661  24.569  1.00  0.00     0.027 A 
ATOM     15  C   UNL A   1      35.233  19.923  24.755  1.00  0.00     0.046 A 
ATOM     16  C   UNL A   1      37.089  21.540  25.293  1.00  0.00     0.046 A 
ATOM     17  C   UNL A   1      36.590  23.772  25.853  1.00  0.00     0.027 A 
ATOM     18  C   UNL A   1      32.544  19.322  24.548  1.00  0.00     0.002 A 
ATOM     19  C   UNL A   1      34.809  18.583  24.740  1.00  0.00     0.014 A 
ATOM     20  C   UNL A   1      36.673  20.181  24.916  1.00  0.00     0.197 A 
ATOM     21  C   UNL A   1      38.412  21.710  25.746  1.00  0.00     0.014 A 
ATOM     22  C   UNL A   1      37.897  23.956  26.330  1.00  0.00     0.002 A 
ATOM     23  C   UNL A   1      33.459  18.283  24.645  1.00  0.00     0.001 A 
ATOM     24  O   UNL A   1      37.490  19.268  24.838  1.00  0.00    -0.288 OA
ATOM     25  C   UNL A   1      38.821  22.930  26.257  1.00  0.00     0.001 A 
ENDBRANCH  10  11
ENDBRANCH   8  10
ENDBRANCH   5   6
BRANCH   5  26
ATOM     26  C   UNL A   1      32.342  26.763  21.978  1.00  0.00     0.072 C 
BRANCH  26  27
ATOM     27  C   UNL A   1      31.012  27.039  22.661  1.00  0.00    -0.045 A 
ATOM     28  C   UNL A   1      30.326  28.241  22.431  1.00  0.00     0.004 A 
ATOM     29  C   UNL A   1      30.412  26.068  23.476  1.00  0.00     0.004 A 
ATOM     30  C   UNL A   1      29.041  28.436  22.939  1.00  0.00     0.000 A 
ATOM     31  C   UNL A   1      29.136  26.274  24.003  1.00  0.00     0.000 A 
ATOM     32  C   UNL A   1      28.445  27.451  23.722  1.00  0.00     0.000 A 
ENDBRANCH  26  27
ENDBRANCH   5  26
ENDBRANCH   3   5
ENDBRANCH   2   3
ENDBRANCH   1   2
BRANCH   1  33
ATOM     33  C   UNL A   1      32.800  29.624  26.909  1.00  0.00     0.275 C 
BRANCH  33  34
ATOM     34  O   UNL A   1      33.996  29.319  27.634  1.00  0.00    -0.458 OA
BRANCH  34  35
ATOM     35  C   UNL A   1      34.656  30.399  28.111  1.00  0.00     0.338 C 
ATOM     36  O   UNL A   1      34.202  31.501  28.368  1.00  0.00    -0.246 OA
BRANCH  35  37
ATOM     37  C   UNL A   1      36.024  29.973  28.386  1.00  0.00     0.060 A 
ATOM     38  C   UNL A   1      36.373  29.553  29.666  1.00  0.00     0.016 A 
ATOM     39  C   UNL A   1      36.966  30.027  27.357  1.00  0.00     0.016 A 
ATOM     40  C   UNL A   1      37.697  29.218  29.919  1.00  0.00     0.010 A 
ATOM     41  C   UNL A   1      38.278  29.657  27.597  1.00  0.00     0.010 A 
ATOM     42  C   UNL A   1      38.652  29.279  28.888  1.00  0.00    -0.014 A 
BRANCH  42  43
ATOM     43  C   UNL A   1      40.058  28.946  29.169  1.00  0.00     0.031 A 
ATOM     44  C   UNL A   1      40.582  27.589  28.816  1.00  0.00     0.074 A 
ATOM     45  C   UNL A   1      40.837  29.895  29.717  1.00  0.00     0.049 A 
ATOM     46  N   UNL A   1      41.812  27.156  28.857  1.00  0.00    -0.248 NA
ATOM     47  C   UNL A   1      39.604  26.585  28.360  1.00  0.00     0.031 C 
ATOM     48  C   UNL A   1      40.372  31.224  30.121  1.00  0.00     0.029 A 
ATOM     49  N   UNL A   1      42.176  29.905  29.998  1.00  0.00    -0.354 N 
ATOM     50  C   UNL A   1      41.761  25.842  28.412  1.00  0.00     0.074 A 
ATOM     51  C   UNL A   1      40.374  25.523  28.167  1.00  0.00     0.031 C 
ATOM     52  C   UNL A   1      41.422  31.942  30.544  1.00  0.00     0.029 A 
ATOM     53  C   UNL A   1      42.624  31.116  30.470  1.00  0.00     0.049 A 
ATOM     54  H   UNL A   1      42.761  29.122  29.874  1.00  0.00     0.167 HD
ATOM     55  C   UNL A   1      42.796  24.997  28.199  1.00  0.00     0.031 A 
ATOM     56  C   UNL A   1      43.870  31.518  30.784  1.00  0.00     0.031 A 
ATOM     57  C   UNL A   1      44.165  25.354  28.464  1.00  0.00     0.049 A 
ATOM     58  C   UNL A   1      45.000  30.554  30.556  1.00  0.00     0.074 A 
ATOM     59  C   UNL A   1      45.302  24.593  28.269  1.00  0.00     0.029 A 
ATOM     60  N   UNL A   1      44.580  26.575  28.980  1.00  0.00    -0.354 N 
ATOM     61  N   UNL A   1      44.951  29.335  30.068  1.00  0.00    -0.248 NA
ATOM     62  C   UNL A   1      46.351  31.014  30.898  1.00  0.00     0.031 C 
ATOM     63  C   UNL A   1      46.395  25.326  28.733  1.00  0.00     0.029 A 
ATOM     64  C   UNL A   1      45.953  26.578  29.140  1.00  0.00     0.049 A 
ATOM     65  H   UNL A   1      43.985  27.328  29.199  1.00  0.00     0.167 HD
ATOM     66  C   UNL A   1      46.263  28.884  30.034  1.00  0.00     0.074 A 
ATOM     67  C   UNL A   1      47.087  29.972  30.526  1.00  0.00     0.031 C 
ATOM     68  C   UNL A   1      46.744  27.679  29.638  1.00  0.00     0.031 A 
BRANCH  55  69
ATOM     69  C   UNL A   1      42.504  23.629  27.638  1.00  0.00    -0.014 A 
ATOM     70  C   UNL A   1      42.243  22.552  28.505  1.00  0.00     0.010 A 
ATOM     71  C   UNL A   1      42.606  23.380  26.257  1.00  0.00     0.010 A 
ATOM     72  C   UNL A   1      42.127  21.250  28.009  1.00  0.00     0.020 A 
ATOM     73  C   UNL A   1      42.461  22.084  25.752  1.00  0.00     0.020 A 
ATOM     74  C   UNL A   1      42.250  21.023  26.635  1.00  0.00     0.054 A 
BRANCH  74  75
ATOM     75  S   UNL A   1      42.145  19.321  26.016  1.00  0.00     0.124 S 
ATOM     76  O   UNL A   1      40.720  19.185  25.730  1.00  0.00    -0.237 OA
ATOM     77  O   UNL A   1      43.024  19.350  24.850  1.00  0.00    -0.237 OA
ATOM     78  O   UNL A   1      42.637  18.517  27.134  1.00  0.00    -0.744 OA
ENDBRANCH  74  75
ENDBRANCH  55  69
BRANCH  56  79
ATOM     79  C   UNL A   1      44.079  32.909  31.270  1.00  0.00    -0.014 A 
ATOM     80  C   UNL A   1      43.928  33.213  32.638  1.00  0.00     0.010 A 
ATOM     81  C   UNL A   1      44.303  33.959  30.362  1.00  0.00     0.010 A 
ATOM     82  C   UNL A   1      43.931  34.539  33.079  1.00  0.00     0.020 A 
ATOM     83  C   UNL A   1      44.339  35.288  30.806  1.00  0.00     0.020 A 
ATOM     84  C   UNL A   1      44.121  35.569  32.155  1.00  0.00     0.054 A 
BRANCH  84  85
ATOM     85  S   UNL A   1      44.049  37.286  32.742  1.00  0.00     0.124 S 
ATOM     86  O   UNL A   1      45.389  37.471  33.294  1.00  0.00    -0.237 OA
ATOM     87  O   UNL A   1      43.766  38.029  31.516  1.00  0.00    -0.237 OA
ATOM     88  O   UNL A   1      42.966  37.269  33.720  1.00  0.00    -0.744 OA
ENDBRANCH  84  85
ENDBRANCH  56  79
BRANCH  68  89
ATOM     89  C   UNL A   1      48.228  27.448  29.733  1.00  0.00    -0.014 A 
ATOM     90  C   UNL A   1      48.789  27.001  30.945  1.00  0.00     0.010 A 
ATOM     91  C   UNL A   1      49.079  27.827  28.681  1.00  0.00     0.010 A 
ATOM     92  C   UNL A   1      50.173  26.987  31.121  1.00  0.00     0.020 A 
ATOM     93  C   UNL A   1      50.466  27.781  28.842  1.00  0.00     0.020 A 
ATOM     94  C   UNL A   1      51.002  27.391  30.072  1.00  0.00     0.054 A 
BRANCH  94  95
ATOM     95  S   UNL A   1      52.795  27.423  30.339  1.00  0.00     0.124 S 
ATOM     96  O   UNL A   1      52.887  27.641  31.779  1.00  0.00    -0.237 OA
ATOM     97  O   UNL A   1      53.212  26.102  29.873  1.00  0.00    -0.237 OA
ATOM     98  O   UNL A   1      53.245  28.538  29.509  1.00  0.00    -0.744 OA
ENDBRANCH  94  95
ENDBRANCH  68  89
ENDBRANCH  42  43
ENDBRANCH  35  37
ENDBRANCH  34  35
ENDBRANCH  33  34
ENDBRANCH   1  33
TORSDOF 19
ENDMDL
MODEL 3
REMARK VINA RESULT:     -11.5      2.631      9.882
REMARK SMILES O=C(Cn1c2ccccc2c(=O)c2ccccc21)N[C@@H](Cc1ccccc1)C(=O)OCCOC(=O)c1ccc(-c2c3nc(c(-c4ccc(S(=O)(=O)[O-])cc4)c4ccc([nH]4)c(-c4ccc(S(=O)(=O)[O-])cc4)c4nc(c(-c5ccc(S(=O)(=O)[O-])cc5)c5ccc2[nH]5)C=C4)C=C3)cc1
REMARK SMILES IDX 31 1 30 2 28 3 29 4 20 5 19 6 1 7 2 8 3 10 4 11 5 12 18 13
REMARK SMILES IDX 6 14 10 15 13 16 17 17 7 18 9 19 11 20 14 21 16 22 8 23
REMARK SMILES IDX 12 24 15 25 21 26 22 27 23 28 27 29 24 30 26 31 25 32 32 33
REMARK SMILES IDX 33 34 34 35 35 36 36 37 37 38 95 39 38 40 94 41 39 42 40 43
REMARK SMILES IDX 41 44 88 45 42 46 93 47 87 48 89 49 43 50 92 51 86 52 85 53
REMARK SMILES IDX 44 55 74 56 55 57 73 58 56 59 59 60 72 61 90 62 57 63 58 64
REMARK SMILES IDX 71 66 91 67 60 68 45 69 46 70 54 71 47 72 53 73 48 74 49 75
REMARK SMILES IDX 50 76 51 77 52 78 75 79 76 80 84 81 77 82 83 83 78 84 79 85
REMARK SMILES IDX 80 86 81 87 82 88 61 89 62 90 70 91 63 92 69 93 64 94 65 95
REMARK SMILES IDX 66 96 67 97 68 98
REMARK H PARENT 19 9 89 54 59 65
REMARK Flexibility Score: inf
ROOT
ATOM      1  C   UNL A   1      36.238  22.769  23.960  1.00  0.00     0.274 C 
ENDROOT
BRANCH   1   2
ATOM      2  O   UNL A   1      35.086  23.628  24.121  1.00  0.00    -0.461 OA
BRANCH   2   3
ATOM      3  C   UNL A   1      34.122  23.532  23.167  1.00  0.00     0.329 C 
ATOM      4  O   UNL A   1      34.348  23.315  21.980  1.00  0.00    -0.250 OA
BRANCH   3   5
ATOM      5  C   UNL A   1      32.712  23.919  23.669  1.00  0.00     0.196 C 
BRANCH   5   6
ATOM      6  N   UNL A   1      32.159  25.230  23.289  1.00  0.00    -0.341 N 
ATOM      7  O   UNL A   1      30.734  25.508  25.052  1.00  0.00    -0.273 OA
ATOM      8  C   UNL A   1      31.236  25.953  24.024  1.00  0.00     0.240 C 
ATOM      9  H   UNL A   1      32.470  25.624  22.442  1.00  0.00     0.164 HD
BRANCH   8  10
ATOM     10  C   UNL A   1      30.743  27.249  23.346  1.00  0.00     0.222 C 
BRANCH  10  11
ATOM     11  N   UNL A   1      30.849  28.561  24.056  1.00  0.00    -0.331 N 
ATOM     12  C   UNL A   1      29.953  29.591  23.620  1.00  0.00     0.053 A 
ATOM     13  C   UNL A   1      31.917  28.876  24.928  1.00  0.00     0.053 A 
ATOM     14  C   UNL A   1      29.091  29.486  22.510  1.00  0.00     0.027 A 
ATOM     15  C   UNL A   1      29.946  30.838  24.277  1.00  0.00     0.046 A 
ATOM     16  C   UNL A   1      31.905  30.076  25.666  1.00  0.00     0.046 A 
ATOM     17  C   UNL A   1      33.075  28.116  25.089  1.00  0.00     0.027 A 
ATOM     18  C   UNL A   1      28.304  30.566  22.072  1.00  0.00     0.002 A 
ATOM     19  C   UNL A   1      29.165  31.923  23.842  1.00  0.00     0.014 A 
ATOM     20  C   UNL A   1      30.838  31.059  25.427  1.00  0.00     0.197 A 
ATOM     21  C   UNL A   1      32.934  30.442  26.557  1.00  0.00     0.014 A 
ATOM     22  C   UNL A   1      34.120  28.472  25.955  1.00  0.00     0.002 A 
ATOM     23  C   UNL A   1      28.348  31.788  22.730  1.00  0.00     0.001 A 
ATOM     24  O   UNL A   1      30.756  32.081  26.102  1.00  0.00    -0.288 OA
ATOM     25  C   UNL A   1      34.043  29.627  26.710  1.00  0.00     0.001 A 
ENDBRANCH  10  11
ENDBRANCH   8  10
ENDBRANCH   5   6
BRANCH   5  26
ATOM     26  C   UNL A   1      31.758  22.779  23.223  1.00  0.00     0.072 C 
BRANCH  26  27
ATOM     27  C   UNL A   1      32.122  21.419  23.798  1.00  0.00    -0.045 A 
ATOM     28  C   UNL A   1      32.238  20.297  22.964  1.00  0.00     0.004 A 
ATOM     29  C   UNL A   1      32.420  21.278  25.162  1.00  0.00     0.004 A 
ATOM     30  C   UNL A   1      32.713  19.085  23.465  1.00  0.00     0.000 A 
ATOM     31  C   UNL A   1      32.872  20.057  25.666  1.00  0.00     0.000 A 
ATOM     32  C   UNL A   1      33.034  18.966  24.815  1.00  0.00     0.000 A 
ENDBRANCH  26  27
ENDBRANCH   5  26
ENDBRANCH   3   5
ENDBRANCH   2   3
ENDBRANCH   1   2
BRANCH   1  33
ATOM     33  C   UNL A   1      36.747  22.240  25.302  1.00  0.00     0.275 C 
BRANCH  33  34
ATOM     34  O   UNL A   1      37.412  23.280  26.025  1.00  0.00    -0.458 OA
BRANCH  34  35
ATOM     35  C   UNL A   1      38.732  23.067  26.230  1.00  0.00     0.338 C 
ATOM     36  O   UNL A   1      39.408  22.128  25.845  1.00  0.00    -0.246 OA
BRANCH  35  37
ATOM     37  C   UNL A   1      39.252  24.248  26.913  1.00  0.00     0.060 A 
ATOM     38  C   UNL A   1      38.970  24.445  28.261  1.00  0.00     0.016 A 
ATOM     39  C   UNL A   1      39.999  25.174  26.182  1.00  0.00     0.016 A 
ATOM     40  C   UNL A   1      39.418  25.610  28.870  1.00  0.00     0.010 A 
ATOM     41  C   UNL A   1      40.478  26.317  26.797  1.00  0.00     0.010 A 
ATOM     42  C   UNL A   1      40.163  26.552  28.137  1.00  0.00    -0.014 A 
BRANCH  42  43
ATOM     43  C   UNL A   1      40.614  27.795  28.783  1.00  0.00     0.031 A 
ATOM     44  C   UNL A   1      42.048  27.943  29.185  1.00  0.00     0.074 A 
ATOM     45  C   UNL A   1      39.713  28.776  28.967  1.00  0.00     0.049 A 
ATOM     46  N   UNL A   1      42.661  29.003  29.636  1.00  0.00    -0.248 NA
ATOM     47  C   UNL A   1      42.907  26.751  29.071  1.00  0.00     0.031 C 
ATOM     48  C   UNL A   1      38.290  28.674  28.633  1.00  0.00     0.029 A 
ATOM     49  N   UNL A   1      39.858  30.050  29.445  1.00  0.00    -0.354 N 
ATOM     50  C   UNL A   1      43.979  28.616  29.836  1.00  0.00     0.074 A 
ATOM     51  C   UNL A   1      44.068  27.209  29.522  1.00  0.00     0.031 C 
ATOM     52  C   UNL A   1      37.704  29.858  28.860  1.00  0.00     0.029 A 
ATOM     53  C   UNL A   1      38.700  30.789  29.384  1.00  0.00     0.049 A 
ATOM     54  H   UNL A   1      40.707  30.402  29.796  1.00  0.00     0.167 HD
ATOM     55  C   UNL A   1      45.022  29.388  30.217  1.00  0.00     0.031 A 
ATOM     56  C   UNL A   1      38.476  32.079  29.696  1.00  0.00     0.031 A 
ATOM     57  C   UNL A   1      44.887  30.787  30.528  1.00  0.00     0.049 A 
ATOM     58  C   UNL A   1      39.649  32.911  30.136  1.00  0.00     0.074 A 
ATOM     59  C   UNL A   1      45.873  31.679  30.906  1.00  0.00     0.029 A 
ATOM     60  N   UNL A   1      43.693  31.495  30.497  1.00  0.00    -0.354 N 
ATOM     61  N   UNL A   1      40.907  32.554  30.256  1.00  0.00    -0.248 NA
ATOM     62  C   UNL A   1      39.386  34.317  30.464  1.00  0.00     0.031 C 
ATOM     63  C   UNL A   1      45.264  32.907  31.170  1.00  0.00     0.029 A 
ATOM     64  C   UNL A   1      43.911  32.806  30.878  1.00  0.00     0.049 A 
ATOM     65  H   UNL A   1      42.820  31.119  30.240  1.00  0.00     0.167 HD
ATOM     66  C   UNL A   1      41.590  33.691  30.664  1.00  0.00     0.074 A 
ATOM     67  C   UNL A   1      40.608  34.756  30.744  1.00  0.00     0.031 C 
ATOM     68  C   UNL A   1      42.907  33.842  30.952  1.00  0.00     0.031 A 
BRANCH  55  69
ATOM     69  C   UNL A   1      46.390  28.761  30.299  1.00  0.00    -0.014 A 
ATOM     70  C   UNL A   1      47.222  28.731  29.166  1.00  0.00     0.010 A 
ATOM     71  C   UNL A   1      46.808  28.093  31.466  1.00  0.00     0.010 A 
ATOM     72  C   UNL A   1      48.425  28.017  29.183  1.00  0.00     0.020 A 
ATOM     73  C   UNL A   1      48.023  27.403  31.498  1.00  0.00     0.020 A 
ATOM     74  C   UNL A   1      48.810  27.346  30.346  1.00  0.00     0.054 A 
BRANCH  74  75
ATOM     75  S   UNL A   1      50.349  26.386  30.333  1.00  0.00     0.124 S 
ATOM     76  O   UNL A   1      49.909  25.091  30.845  1.00  0.00    -0.237 OA
ATOM     77  O   UNL A   1      50.730  26.411  28.923  1.00  0.00    -0.237 OA
ATOM     78  O   UNL A   1      51.233  27.140  31.220  1.00  0.00    -0.744 OA
ENDBRANCH  74  75
ENDBRANCH  55  69
BRANCH  56  79
ATOM     79  C   UNL A   1      37.108  32.638  29.524  1.00  0.00    -0.014 A 
ATOM     80  C   UNL A   1      36.670  33.066  28.254  1.00  0.00     0.010 A 
ATOM     81  C   UNL A   1      36.281  32.865  30.638  1.00  0.00     0.010 A 
ATOM     82  C   UNL A   1      35.469  33.765  28.112  1.00  0.00     0.020 A 
ATOM     83  C   UNL A   1      35.061  33.537  30.493  1.00  0.00     0.020 A 
ATOM     84  C   UNL A   1      34.680  34.010  29.237  1.00  0.00     0.054 A 
BRANCH  84  85
ATOM     85  S   UNL A   1      33.160  34.982  29.037  1.00  0.00     0.124 S 
ATOM     86  O   UNL A   1      32.436  34.207  28.032  1.00  0.00    -0.237 OA
ATOM     87  O   UNL A   1      32.588  34.958  30.382  1.00  0.00    -0.237 OA
ATOM     88  O   UNL A   1      33.642  36.286  28.592  1.00  0.00    -0.744 OA
ENDBRANCH  84  85
ENDBRANCH  56  79
BRANCH  68  89
ATOM     89  C   UNL A   1      43.378  35.199  31.403  1.00  0.00    -0.014 A 
ATOM     90  C   UNL A   1      43.231  35.576  32.751  1.00  0.00     0.010 A 
ATOM     91  C   UNL A   1      43.812  36.152  30.465  1.00  0.00     0.010 A 
ATOM     92  C   UNL A   1      43.459  36.895  33.145  1.00  0.00     0.020 A 
ATOM     93  C   UNL A   1      44.076  37.465  30.863  1.00  0.00     0.020 A 
ATOM     94  C   UNL A   1      43.867  37.834  32.194  1.00  0.00     0.054 A 
BRANCH  94  95
ATOM     95  S   UNL A   1      44.100  39.556  32.713  1.00  0.00     0.124 S 
ATOM     96  O   UNL A   1      44.134  40.259  31.435  1.00  0.00    -0.237 OA
ATOM     97  O   UNL A   1      42.919  39.804  33.538  1.00  0.00    -0.237 OA
ATOM     98  O   UNL A   1      45.365  39.525  33.444  1.00  0.00    -0.744 OA
ENDBRANCH  94  95
ENDBRANCH  68  89
ENDBRANCH  42  43
ENDBRANCH  35  37
ENDBRANCH  34  35
ENDBRANCH  33  34
ENDBRANCH   1  33
TORSDOF 19
ENDMDL
