MODEL 1
REMARK VINA RESULT:     -13.1      0.000      0.000
REMARK SMILES Cc1ccc(C)c(-c2cc(C(=O)OCCOC(=O)c3ccc(-c4c5nc(c(-c6ccc(S(=O)(=O)[O-])cc6)c6ccc([nH]6)c(-c6ccc(S(=O)(=O)[O-])cc6)c6nc(c(-c7ccc(S(=O)(=O)[O-])cc7)c7ccc4[nH]7)C=C6)C=C5)cc3)c3cc(C)ccc3n2)c1
REMARK SMILES IDX 15 1 14 2 13 3 11 4 12 5 10 6 8 7 9 8 86 9 85 10 79 11 84 12
REMARK SMILES IDX 80 13 83 14 81 15 82 16 7 17 1 18 2 19 3 20 87 21 4 22 5 23
REMARK SMILES IDX 6 24 16 25 17 26 18 27 19 28 20 29 78 30 21 31 77 32 22 33
REMARK SMILES IDX 23 34 24 35 71 36 25 37 76 38 70 39 72 40 26 41 75 42 69 43
REMARK SMILES IDX 68 44 27 46 57 47 38 48 56 49 39 50 42 51 55 52 73 53 40 54
REMARK SMILES IDX 41 55 54 57 74 58 43 59 28 60 29 61 37 62 30 63 36 64 31 65
REMARK SMILES IDX 32 66 33 67 34 68 35 69 58 70 59 71 67 72 60 73 66 74 61 75
REMARK SMILES IDX 62 76 63 77 64 78 65 79 44 80 45 81 53 82 46 83 52 84 47 85
REMARK SMILES IDX 48 86 49 87 50 88 51 89
REMARK H PARENT 72 45 42 56
REMARK Flexibility Score: inf
ROOT
ATOM      1  C   UNL A   1      40.125  21.552  26.901  1.00  0.00     0.275 C 
ENDROOT
BRANCH   1   2
ATOM      2  C   UNL A   1      38.861  21.726  26.060  1.00  0.00     0.275 C 
BRANCH   2   3
ATOM      3  O   UNL A   1      38.789  23.107  25.703  1.00  0.00    -0.458 OA
BRANCH   3   4
ATOM      4  C   UNL A   1      37.560  23.875  26.111  1.00  0.00     0.339 C 
ATOM      5  O   UNL A   1      38.091  24.636  26.970  1.00  0.00    -0.246 OA
BRANCH   4   6
ATOM      6  C   UNL A   1      35.561  23.633  25.318  1.00  0.00     0.071 A 
ATOM      7  C   UNL A   1      33.629  21.887  24.546  1.00  0.00     0.072 A 
ATOM      8  C   UNL A   1      34.968  22.364  24.593  1.00  0.00     0.045 A 
ATOM      9  N   UNL A   1      32.620  22.657  24.920  1.00  0.00    -0.248 NA
ATOM     10  C   UNL A   1      32.850  23.904  25.280  1.00  0.00     0.072 A 
ATOM     11  C   UNL A   1      34.148  24.521  25.528  1.00  0.00     0.015 A 
ATOM     12  C   UNL A   1      31.606  24.529  25.429  1.00  0.00     0.029 A 
ATOM     13  C   UNL A   1      33.817  25.901  25.987  1.00  0.00     0.014 A 
ATOM     14  C   UNL A   1      31.436  25.840  25.836  1.00  0.00     0.005 A 
ATOM     15  C   UNL A   1      32.565  26.548  26.130  1.00  0.00    -0.050 A 
ATOM     16  C   UNL A   1      32.519  27.963  26.628  1.00  0.00     0.044 C 
BRANCH   7  17
ATOM     17  C   UNL A   1      33.197  20.490  24.178  1.00  0.00     0.003 A 
ATOM     18  C   UNL A   1      33.244  16.920  25.720  1.00  0.00     0.044 C 
ATOM     19  C   UNL A   1      33.003  18.076  24.787  1.00  0.00    -0.050 A 
ATOM     20  C   UNL A   1      32.355  17.814  23.581  1.00  0.00     0.004 A 
ATOM     21  C   UNL A   1      33.419  19.402  25.073  1.00  0.00     0.014 A 
ATOM     22  C   UNL A   1      32.068  18.861  22.715  1.00  0.00     0.004 A 
ATOM     23  C   UNL A   1      32.447  20.191  23.012  1.00  0.00    -0.042 A 
ATOM     24  C   UNL A   1      31.986  21.235  22.031  1.00  0.00     0.045 C 
ENDBRANCH   7  17
ENDBRANCH   4   6
ENDBRANCH   3   4
ENDBRANCH   2   3
ENDBRANCH   1   2
BRANCH   1  25
ATOM     25  O   UNL A   1      41.090  22.646  26.811  1.00  0.00    -0.458 OA
BRANCH  25  26
ATOM     26  C   UNL A   1      42.223  22.564  26.050  1.00  0.00     0.338 C 
ATOM     27  O   UNL A   1      42.610  21.553  25.489  1.00  0.00    -0.246 OA
BRANCH  26  28
ATOM     28  C   UNL A   1      43.102  23.745  26.198  1.00  0.00     0.060 A 
ATOM     29  C   UNL A   1      44.000  23.875  27.774  1.00  0.00     0.016 A 
ATOM     30  C   UNL A   1      42.457  25.230  25.411  1.00  0.00     0.016 A 
ATOM     31  C   UNL A   1      44.187  25.528  28.599  1.00  0.00     0.010 A 
ATOM     32  C   UNL A   1      42.596  26.852  26.291  1.00  0.00     0.010 A 
ATOM     33  C   UNL A   1      43.378  26.987  27.909  1.00  0.00    -0.014 A 
BRANCH  33  34
ATOM     34  C   UNL A   1      42.668  28.116  28.712  1.00  0.00     0.031 A 
ATOM     35  C   UNL A   1      43.556  29.306  28.607  1.00  0.00     0.074 A 
ATOM     36  C   UNL A   1      41.391  28.349  29.202  1.00  0.00     0.049 A 
ATOM     37  N   UNL A   1      44.563  29.526  29.387  1.00  0.00    -0.248 NA
ATOM     38  C   UNL A   1      43.569  30.129  27.379  1.00  0.00     0.031 C 
ATOM     39  C   UNL A   1      40.177  27.512  29.239  1.00  0.00     0.029 A 
ATOM     40  N   UNL A   1      40.875  29.513  29.791  1.00  0.00    -0.354 N 
ATOM     41  C   UNL A   1      45.154  30.665  28.875  1.00  0.00     0.074 A 
ATOM     42  C   UNL A   1      44.759  30.721  27.495  1.00  0.00     0.031 C 
ATOM     43  C   UNL A   1      39.073  28.237  29.597  1.00  0.00     0.029 A 
ATOM     44  C   UNL A   1      39.462  29.590  29.967  1.00  0.00     0.049 A 
ATOM     45  H   UNL A   1      41.466  30.249  30.074  1.00  0.00     0.167 HD
ATOM     46  C   UNL A   1      45.567  31.680  29.681  1.00  0.00     0.031 A 
ATOM     47  C   UNL A   1      38.682  30.614  30.485  1.00  0.00     0.031 A 
ATOM     48  C   UNL A   1      45.477  31.307  31.073  1.00  0.00     0.049 A 
ATOM     49  C   UNL A   1      39.581  31.439  31.323  1.00  0.00     0.074 A 
ATOM     50  C   UNL A   1      45.996  30.281  31.837  1.00  0.00     0.029 A 
ATOM     51  N   UNL A   1      44.380  31.775  31.761  1.00  0.00    -0.354 N 
ATOM     52  N   UNL A   1      40.131  30.989  32.412  1.00  0.00    -0.248 NA
ATOM     53  C   UNL A   1      40.269  32.529  30.656  1.00  0.00     0.031 C 
ATOM     54  C   UNL A   1      44.922  29.867  32.679  1.00  0.00     0.029 A 
ATOM     55  C   UNL A   1      43.849  30.737  32.485  1.00  0.00     0.049 A 
ATOM     56  H   UNL A   1      44.035  32.697  31.739  1.00  0.00     0.167 HD
ATOM     57  C   UNL A   1      41.455  31.373  32.296  1.00  0.00     0.074 A 
ATOM     58  C   UNL A   1      41.474  32.352  31.203  1.00  0.00     0.031 C 
ATOM     59  C   UNL A   1      42.455  30.637  32.861  1.00  0.00     0.031 A 
BRANCH  46  60
ATOM     60  C   UNL A   1      45.630  33.121  29.245  1.00  0.00    -0.014 A 
ATOM     61  C   UNL A   1      44.475  33.908  29.380  1.00  0.00     0.010 A 
ATOM     62  C   UNL A   1      46.703  33.678  28.513  1.00  0.00     0.010 A 
ATOM     63  C   UNL A   1      44.386  35.173  28.787  1.00  0.00     0.020 A 
ATOM     64  C   UNL A   1      46.643  34.954  27.955  1.00  0.00     0.020 A 
ATOM     65  C   UNL A   1      45.473  35.687  28.079  1.00  0.00     0.054 A 
BRANCH  65  66
ATOM     66  S   UNL A   1      45.326  37.303  27.283  1.00  0.00     0.124 S 
ATOM     67  O   UNL A   1      43.938  37.291  26.831  1.00  0.00    -0.237 OA
ATOM     68  O   UNL A   1      45.628  38.213  28.385  1.00  0.00    -0.237 OA
ATOM     69  O   UNL A   1      46.332  37.257  26.225  1.00  0.00    -0.744 OA
ENDBRANCH  65  66
ENDBRANCH  46  60
BRANCH  47  70
ATOM     70  C   UNL A   1      37.315  31.187  30.117  1.00  0.00    -0.014 A 
ATOM     71  C   UNL A   1      36.361  31.672  31.066  1.00  0.00     0.010 A 
ATOM     72  C   UNL A   1      37.091  31.583  28.788  1.00  0.00     0.010 A 
ATOM     73  C   UNL A   1      35.281  32.532  30.700  1.00  0.00     0.020 A 
ATOM     74  C   UNL A   1      36.030  32.442  28.419  1.00  0.00     0.020 A 
ATOM     75  C   UNL A   1      35.135  32.929  29.371  1.00  0.00     0.054 A 
BRANCH  75  76
ATOM     76  S   UNL A   1      33.867  34.162  28.883  1.00  0.00     0.124 S 
ATOM     77  O   UNL A   1      33.256  34.518  30.161  1.00  0.00    -0.237 OA
ATOM     78  O   UNL A   1      34.655  35.212  28.247  1.00  0.00    -0.237 OA
ATOM     79  O   UNL A   1      32.996  33.414  27.974  1.00  0.00    -0.744 OA
ENDBRANCH  75  76
ENDBRANCH  47  70
BRANCH  59  80
ATOM     80  C   UNL A   1      42.088  29.513  33.810  1.00  0.00    -0.014 A 
ATOM     81  C   UNL A   1      41.768  28.197  33.410  1.00  0.00     0.010 A 
ATOM     82  C   UNL A   1      42.257  29.766  35.181  1.00  0.00     0.010 A 
ATOM     83  C   UNL A   1      41.624  27.169  34.361  1.00  0.00     0.020 A 
ATOM     84  C   UNL A   1      42.134  28.747  36.128  1.00  0.00     0.020 A 
ATOM     85  C   UNL A   1      41.814  27.454  35.717  1.00  0.00     0.054 A 
BRANCH  85  86
ATOM     86  S   UNL A   1      41.697  26.122  36.949  1.00  0.00     0.124 S 
ATOM     87  O   UNL A   1      40.340  26.283  37.463  1.00  0.00    -0.237 OA
ATOM     88  O   UNL A   1      41.929  24.920  36.151  1.00  0.00    -0.237 OA
ATOM     89  O   UNL A   1      42.760  26.435  37.902  1.00  0.00    -0.744 OA
ENDBRANCH  85  86
ENDBRANCH  59  80
ENDBRANCH  33  34
ENDBRANCH  26  28
ENDBRANCH  25  26
ENDBRANCH   1  25
TORSDOF 15
ENDMDL
MODEL 2
REMARK VINA RESULT:     -13.1      3.240      9.930
REMARK SMILES Cc1ccc(C)c(-c2cc(C(=O)OCCOC(=O)c3ccc(-c4c5nc(c(-c6ccc(S(=O)(=O)[O-])cc6)c6ccc([nH]6)c(-c6ccc(S(=O)(=O)[O-])cc6)c6nc(c(-c7ccc(S(=O)(=O)[O-])cc7)c7ccc4[nH]7)C=C6)C=C5)cc3)c3cc(C)ccc3n2)c1
REMARK SMILES IDX 15 1 14 2 13 3 11 4 12 5 10 6 8 7 9 8 86 9 85 10 79 11 84 12
REMARK SMILES IDX 80 13 83 14 81 15 82 16 7 17 1 18 2 19 3 20 87 21 4 22 5 23
REMARK SMILES IDX 6 24 16 25 17 26 18 27 19 28 20 29 78 30 21 31 77 32 22 33
REMARK SMILES IDX 23 34 24 35 71 36 25 37 76 38 70 39 72 40 26 41 75 42 69 43
REMARK SMILES IDX 68 44 27 46 57 47 38 48 56 49 39 50 42 51 55 52 73 53 40 54
REMARK SMILES IDX 41 55 54 57 74 58 43 59 28 60 29 61 37 62 30 63 36 64 31 65
REMARK SMILES IDX 32 66 33 67 34 68 35 69 58 70 59 71 67 72 60 73 66 74 61 75
REMARK SMILES IDX 62 76 63 77 64 78 65 79 44 80 45 81 53 82 46 83 52 84 47 85
REMARK SMILES IDX 48 86 49 87 50 88 51 89
REMARK H PARENT 72 45 42 56
REMARK Flexibility Score: inf
ROOT
ATOM      1  C   UNL A   1      35.011  32.458  28.757  1.00  0.00     0.275 C 
ENDROOT
BRANCH   1   2
ATOM      2  C   UNL A   1      35.233  31.481  27.604  1.00  0.00     0.275 C 
BRANCH   2   3
ATOM      3  O   UNL A   1      34.206  30.492  27.696  1.00  0.00    -0.458 OA
BRANCH   3   4
ATOM      4  C   UNL A   1      34.494  29.126  27.133  1.00  0.00     0.339 C 
ATOM      5  O   UNL A   1      35.656  28.970  27.606  1.00  0.00    -0.246 OA
BRANCH   4   6
ATOM      6  C   UNL A   1      33.167  27.920  25.922  1.00  0.00     0.071 A 
ATOM      7  C   UNL A   1      31.005  27.889  24.277  1.00  0.00     0.072 A 
ATOM      8  C   UNL A   1      31.708  28.286  25.449  1.00  0.00     0.045 A 
ATOM      9  N   UNL A   1      31.442  26.888  23.531  1.00  0.00    -0.248 NA
ATOM     10  C   UNL A   1      32.504  26.206  23.909  1.00  0.00     0.072 A 
ATOM     11  C   UNL A   1      33.428  26.547  24.985  1.00  0.00     0.015 A 
ATOM     12  C   UNL A   1      32.616  25.103  23.054  1.00  0.00     0.029 A 
ATOM     13  C   UNL A   1      34.479  25.492  24.914  1.00  0.00     0.014 A 
ATOM     14  C   UNL A   1      33.635  24.170  23.116  1.00  0.00     0.005 A 
ATOM     15  C   UNL A   1      34.598  24.365  24.063  1.00  0.00    -0.050 A 
ATOM     16  C   UNL A   1      35.782  23.455  24.205  1.00  0.00     0.044 C 
BRANCH   7  17
ATOM     17  C   UNL A   1      29.790  28.570  23.698  1.00  0.00     0.003 A 
ATOM     18  C   UNL A   1      28.877  31.931  21.969  1.00  0.00     0.044 C 
ATOM     19  C   UNL A   1      28.784  30.546  22.552  1.00  0.00    -0.050 A 
ATOM     20  C   UNL A   1      27.544  29.910  22.523  1.00  0.00     0.004 A 
ATOM     21  C   UNL A   1      29.889  29.877  23.137  1.00  0.00     0.014 A 
ATOM     22  C   UNL A   1      27.428  28.613  23.003  1.00  0.00     0.004 A 
ATOM     23  C   UNL A   1      28.535  27.926  23.554  1.00  0.00    -0.042 A 
ATOM     24  C   UNL A   1      28.285  26.495  23.946  1.00  0.00     0.045 C 
ENDBRANCH   7  17
ENDBRANCH   4   6
ENDBRANCH   3   4
ENDBRANCH   2   3
ENDBRANCH   1   2
BRANCH   1  25
ATOM     25  O   UNL A   1      35.885  32.269  29.913  1.00  0.00    -0.458 OA
BRANCH  25  26
ATOM     26  C   UNL A   1      35.407  32.214  31.193  1.00  0.00     0.338 C 
ATOM     27  O   UNL A   1      34.373  32.737  31.569  1.00  0.00    -0.246 OA
BRANCH  26  28
ATOM     28  C   UNL A   1      36.404  31.699  32.158  1.00  0.00     0.060 A 
ATOM     29  C   UNL A   1      37.972  32.615  32.245  1.00  0.00     0.016 A 
ATOM     30  C   UNL A   1      36.407  29.905  32.307  1.00  0.00     0.016 A 
ATOM     31  C   UNL A   1      39.575  31.693  32.417  1.00  0.00     0.010 A 
ATOM     32  C   UNL A   1      38.023  29.009  32.407  1.00  0.00     0.010 A 
ATOM     33  C   UNL A   1      39.596  29.889  32.376  1.00  0.00    -0.014 A 
BRANCH  33  34
ATOM     34  C   UNL A   1      40.652  28.993  31.665  1.00  0.00     0.031 A 
ATOM     35  C   UNL A   1      41.585  28.542  32.734  1.00  0.00     0.074 A 
ATOM     36  C   UNL A   1      40.755  28.334  30.448  1.00  0.00     0.049 A 
ATOM     37  N   UNL A   1      42.598  29.232  33.147  1.00  0.00    -0.248 NA
ATOM     38  C   UNL A   1      41.207  27.444  33.649  1.00  0.00     0.031 C 
ATOM     39  C   UNL A   1      39.889  28.321  29.254  1.00  0.00     0.029 A 
ATOM     40  N   UNL A   1      41.739  27.430  30.019  1.00  0.00    -0.354 N 
ATOM     41  C   UNL A   1      43.112  28.496  34.197  1.00  0.00     0.074 A 
ATOM     42  C   UNL A   1      42.025  27.688  34.674  1.00  0.00     0.031 C 
ATOM     43  C   UNL A   1      40.252  27.336  28.377  1.00  0.00     0.029 A 
ATOM     44  C   UNL A   1      41.475  26.688  28.831  1.00  0.00     0.049 A 
ATOM     45  H   UNL A   1      42.580  27.314  30.518  1.00  0.00     0.167 HD
ATOM     46  C   UNL A   1      44.450  28.288  34.337  1.00  0.00     0.031 A 
ATOM     47  C   UNL A   1      42.239  25.719  28.197  1.00  0.00     0.031 A 
ATOM     48  C   UNL A   1      45.200  29.078  33.388  1.00  0.00     0.049 A 
ATOM     49  C   UNL A   1      43.633  25.925  28.650  1.00  0.00     0.074 A 
ATOM     50  C   UNL A   1      45.281  30.425  33.098  1.00  0.00     0.029 A 
ATOM     51  N   UNL A   1      45.646  28.420  32.264  1.00  0.00    -0.354 N 
ATOM     52  N   UNL A   1      44.315  26.992  28.354  1.00  0.00    -0.248 NA
ATOM     53  C   UNL A   1      44.035  25.214  29.851  1.00  0.00     0.031 C 
ATOM     54  C   UNL A   1      45.303  30.496  31.675  1.00  0.00     0.029 A 
ATOM     55  C   UNL A   1      45.365  29.198  31.168  1.00  0.00     0.049 A 
ATOM     56  H   UNL A   1      46.091  27.541  32.247  1.00  0.00     0.167 HD
ATOM     57  C   UNL A   1      44.878  27.368  29.560  1.00  0.00     0.074 A 
ATOM     58  C   UNL A   1      44.695  26.211  30.445  1.00  0.00     0.031 C 
ATOM     59  C   UNL A   1      45.144  28.677  29.836  1.00  0.00     0.031 A 
BRANCH  46  60
ATOM     60  C   UNL A   1      45.041  27.077  35.009  1.00  0.00    -0.014 A 
ATOM     61  C   UNL A   1      44.948  25.839  34.351  1.00  0.00     0.010 A 
ATOM     62  C   UNL A   1      45.491  27.058  36.348  1.00  0.00     0.010 A 
ATOM     63  C   UNL A   1      45.260  24.644  35.008  1.00  0.00     0.020 A 
ATOM     64  C   UNL A   1      45.847  25.878  36.999  1.00  0.00     0.020 A 
ATOM     65  C   UNL A   1      45.709  24.672  36.330  1.00  0.00     0.054 A 
BRANCH  65  66
ATOM     66  S   UNL A   1      46.065  23.116  37.176  1.00  0.00     0.124 S 
ATOM     67  O   UNL A   1      45.361  22.149  36.340  1.00  0.00    -0.237 OA
ATOM     68  O   UNL A   1      47.523  23.065  37.118  1.00  0.00    -0.237 OA
ATOM     69  O   UNL A   1      45.506  23.318  38.511  1.00  0.00    -0.744 OA
ENDBRANCH  65  66
ENDBRANCH  46  60
BRANCH  47  70
ATOM     70  C   UNL A   1      41.901  24.413  27.479  1.00  0.00    -0.014 A 
ATOM     71  C   UNL A   1      42.590  23.926  26.324  1.00  0.00     0.010 A 
ATOM     72  C   UNL A   1      41.115  23.464  28.152  1.00  0.00     0.010 A 
ATOM     73  C   UNL A   1      42.521  22.561  25.906  1.00  0.00     0.020 A 
ATOM     74  C   UNL A   1      41.048  22.109  27.751  1.00  0.00     0.020 A 
ATOM     75  C   UNL A   1      41.759  21.653  26.641  1.00  0.00     0.054 A 
BRANCH  75  76
ATOM     76  S   UNL A   1      41.772  19.862  26.241  1.00  0.00     0.124 S 
ATOM     77  O   UNL A   1      42.167  19.252  27.508  1.00  0.00    -0.237 OA
ATOM     78  O   UNL A   1      40.398  19.607  25.821  1.00  0.00    -0.237 OA
ATOM     79  O   UNL A   1      42.769  19.758  25.174  1.00  0.00    -0.744 OA
ENDBRANCH  75  76
ENDBRANCH  47  70
BRANCH  59  80
ATOM     80  C   UNL A   1      45.024  29.698  28.721  1.00  0.00    -0.014 A 
ATOM     81  C   UNL A   1      43.806  30.236  28.252  1.00  0.00     0.010 A 
ATOM     82  C   UNL A   1      46.222  30.268  28.258  1.00  0.00     0.010 A 
ATOM     83  C   UNL A   1      43.795  31.314  27.347  1.00  0.00     0.020 A 
ATOM     84  C   UNL A   1      46.218  31.348  27.374  1.00  0.00     0.020 A 
ATOM     85  C   UNL A   1      45.006  31.867  26.919  1.00  0.00     0.054 A 
BRANCH  85  86
ATOM     86  S   UNL A   1      45.005  33.301  25.802  1.00  0.00     0.124 S 
ATOM     87  O   UNL A   1      44.350  32.774  24.609  1.00  0.00    -0.237 OA
ATOM     88  O   UNL A   1      44.240  34.295  26.552  1.00  0.00    -0.237 OA
ATOM     89  O   UNL A   1      46.422  33.618  25.641  1.00  0.00    -0.744 OA
ENDBRANCH  85  86
ENDBRANCH  59  80
ENDBRANCH  33  34
ENDBRANCH  26  28
ENDBRANCH  25  26
ENDBRANCH   1  25
TORSDOF 15
ENDMDL
MODEL 3
REMARK VINA RESULT:     -12.8      1.254      3.454
REMARK SMILES Cc1ccc(C)c(-c2cc(C(=O)OCCOC(=O)c3ccc(-c4c5nc(c(-c6ccc(S(=O)(=O)[O-])cc6)c6ccc([nH]6)c(-c6ccc(S(=O)(=O)[O-])cc6)c6nc(c(-c7ccc(S(=O)(=O)[O-])cc7)c7ccc4[nH]7)C=C6)C=C5)cc3)c3cc(C)ccc3n2)c1
REMARK SMILES IDX 15 1 14 2 13 3 11 4 12 5 10 6 8 7 9 8 86 9 85 10 79 11 84 12
REMARK SMILES IDX 80 13 83 14 81 15 82 16 7 17 1 18 2 19 3 20 87 21 4 22 5 23
REMARK SMILES IDX 6 24 16 25 17 26 18 27 19 28 20 29 78 30 21 31 77 32 22 33
REMARK SMILES IDX 23 34 24 35 71 36 25 37 76 38 70 39 72 40 26 41 75 42 69 43
REMARK SMILES IDX 68 44 27 46 57 47 38 48 56 49 39 50 42 51 55 52 73 53 40 54
REMARK SMILES IDX 41 55 54 57 74 58 43 59 28 60 29 61 37 62 30 63 36 64 31 65
REMARK SMILES IDX 32 66 33 67 34 68 35 69 58 70 59 71 67 72 60 73 66 74 61 75
REMARK SMILES IDX 62 76 63 77 64 78 65 79 44 80 45 81 53 82 46 83 52 84 47 85
REMARK SMILES IDX 48 86 49 87 50 88 51 89
REMARK H PARENT 72 45 42 56
REMARK Flexibility Score: inf
ROOT
ATOM      1  C   UNL A   1      41.198  22.576  27.374  1.00  0.00     0.275 C 
ENDROOT
BRANCH   1   2
ATOM      2  C   UNL A   1      40.348  21.385  26.932  1.00  0.00     0.275 C 
BRANCH   2   3
ATOM      3  O   UNL A   1      39.104  21.914  26.470  1.00  0.00    -0.458 OA
BRANCH   3   4
ATOM      4  C   UNL A   1      38.177  20.985  25.734  1.00  0.00     0.339 C 
ATOM      5  O   UNL A   1      39.027  20.126  25.363  1.00  0.00    -0.246 OA
BRANCH   4   6
ATOM      6  C   UNL A   1      36.035  21.201  25.515  1.00  0.00     0.071 A 
ATOM      7  C   UNL A   1      33.971  22.892  25.006  1.00  0.00     0.072 A 
ATOM      8  C   UNL A   1      35.190  22.527  25.641  1.00  0.00     0.045 A 
ATOM      9  N   UNL A   1      33.226  21.985  24.395  1.00  0.00    -0.248 NA
ATOM     10  C   UNL A   1      33.583  20.717  24.427  1.00  0.00     0.072 A 
ATOM     11  C   UNL A   1      34.853  20.175  24.896  1.00  0.00     0.015 A 
ATOM     12  C   UNL A   1      32.528  19.975  23.883  1.00  0.00     0.029 A 
ATOM     13  C   UNL A   1      34.750  18.712  24.626  1.00  0.00     0.014 A 
ATOM     14  C   UNL A   1      32.548  18.602  23.714  1.00  0.00     0.005 A 
ATOM     15  C   UNL A   1      33.686  17.948  24.087  1.00  0.00    -0.050 A 
ATOM     16  C   UNL A   1      33.856  16.468  23.912  1.00  0.00     0.044 C 
BRANCH   7  17
ATOM     17  C   UNL A   1      33.430  24.293  24.863  1.00  0.00     0.003 A 
ATOM     18  C   UNL A   1      33.670  27.272  22.376  1.00  0.00     0.044 C 
ATOM     19  C   UNL A   1      33.284  26.409  23.548  1.00  0.00    -0.050 A 
ATOM     20  C   UNL A   1      32.400  26.942  24.484  1.00  0.00     0.004 A 
ATOM     21  C   UNL A   1      33.791  25.099  23.744  1.00  0.00     0.014 A 
ATOM     22  C   UNL A   1      31.979  26.160  25.552  1.00  0.00     0.004 A 
ATOM     23  C   UNL A   1      32.452  24.839  25.732  1.00  0.00    -0.042 A 
ATOM     24  C   UNL A   1      31.838  24.078  26.876  1.00  0.00     0.045 C 
ENDBRANCH   7  17
ENDBRANCH   4   6
ENDBRANCH   3   4
ENDBRANCH   2   3
ENDBRANCH   1   2
BRANCH   1  25
ATOM     25  O   UNL A   1      41.451  23.580  26.342  1.00  0.00    -0.458 OA
BRANCH  25  26
ATOM     26  C   UNL A   1      42.594  23.589  25.592  1.00  0.00     0.338 C 
ATOM     27  O   UNL A   1      43.100  22.601  25.088  1.00  0.00    -0.246 OA
BRANCH  26  28
ATOM     28  C   UNL A   1      43.331  24.869  25.683  1.00  0.00     0.060 A 
ATOM     29  C   UNL A   1      44.323  25.110  27.188  1.00  0.00     0.016 A 
ATOM     30  C   UNL A   1      42.451  26.263  24.959  1.00  0.00     0.016 A 
ATOM     31  C   UNL A   1      44.368  26.774  28.010  1.00  0.00     0.010 A 
ATOM     32  C   UNL A   1      42.457  27.890  25.839  1.00  0.00     0.010 A 
ATOM     33  C   UNL A   1      43.337  28.122  27.395  1.00  0.00    -0.014 A 
BRANCH  33  34
ATOM     34  C   UNL A   1      42.557  29.156  28.258  1.00  0.00     0.031 A 
ATOM     35  C   UNL A   1      43.386  30.393  28.254  1.00  0.00     0.074 A 
ATOM     36  C   UNL A   1      41.262  29.293  28.736  1.00  0.00     0.049 A 
ATOM     37  N   UNL A   1      44.367  30.607  29.068  1.00  0.00    -0.248 NA
ATOM     38  C   UNL A   1      43.380  31.299  27.085  1.00  0.00     0.031 C 
ATOM     39  C   UNL A   1      40.091  28.396  28.690  1.00  0.00     0.029 A 
ATOM     40  N   UNL A   1      40.678  30.386  29.393  1.00  0.00    -0.354 N 
ATOM     41  C   UNL A   1      44.909  31.807  28.648  1.00  0.00     0.074 A 
ATOM     42  C   UNL A   1      44.537  31.939  27.267  1.00  0.00     0.031 C 
ATOM     43  C   UNL A   1      38.946  29.040  29.073  1.00  0.00     0.029 A 
ATOM     44  C   UNL A   1      39.260  30.382  29.544  1.00  0.00     0.049 A 
ATOM     45  H   UNL A   1      41.226  31.128  29.738  1.00  0.00     0.167 HD
ATOM     46  C   UNL A   1      45.257  32.782  29.530  1.00  0.00     0.031 A 
ATOM     47  C   UNL A   1      38.421  31.327  30.114  1.00  0.00     0.031 A 
ATOM     48  C   UNL A   1      45.161  32.309  30.891  1.00  0.00     0.049 A 
ATOM     49  C   UNL A   1      39.263  32.135  31.026  1.00  0.00     0.074 A 
ATOM     50  C   UNL A   1      45.717  31.258  31.594  1.00  0.00     0.029 A 
ATOM     51  N   UNL A   1      44.030  32.674  31.587  1.00  0.00    -0.354 N 
ATOM     52  N   UNL A   1      39.815  31.638  32.093  1.00  0.00    -0.248 NA
ATOM     53  C   UNL A   1      39.906  33.302  30.450  1.00  0.00     0.031 C 
ATOM     54  C   UNL A   1      44.651  30.736  32.382  1.00  0.00     0.029 A 
ATOM     55  C   UNL A   1      43.539  31.563  32.226  1.00  0.00     0.049 A 
ATOM     56  H   UNL A   1      43.639  33.578  31.620  1.00  0.00     0.167 HD
ATOM     57  C   UNL A   1      41.120  32.093  32.031  1.00  0.00     0.074 A 
ATOM     58  C   UNL A   1      41.109  33.146  31.008  1.00  0.00     0.031 C 
ATOM     59  C   UNL A   1      42.145  31.370  32.565  1.00  0.00     0.031 A 
BRANCH  46  60
ATOM     60  C   UNL A   1      45.255  34.251  29.195  1.00  0.00    -0.014 A 
ATOM     61  C   UNL A   1      46.450  34.829  28.734  1.00  0.00     0.010 A 
ATOM     62  C   UNL A   1      44.198  35.133  29.514  1.00  0.00     0.010 A 
ATOM     63  C   UNL A   1      46.589  36.217  28.628  1.00  0.00     0.020 A 
ATOM     64  C   UNL A   1      44.310  36.515  29.370  1.00  0.00     0.020 A 
ATOM     65  C   UNL A   1      45.516  37.051  28.947  1.00  0.00     0.054 A 
BRANCH  65  66
ATOM     66  S   UNL A   1      45.728  38.843  28.845  1.00  0.00     0.124 S 
ATOM     67  O   UNL A   1      44.721  39.320  29.789  1.00  0.00    -0.237 OA
ATOM     68  O   UNL A   1      47.118  39.009  29.260  1.00  0.00    -0.237 OA
ATOM     69  O   UNL A   1      45.462  39.140  27.439  1.00  0.00    -0.744 OA
ENDBRANCH  65  66
ENDBRANCH  46  60
BRANCH  47  70
ATOM     70  C   UNL A   1      37.034  31.858  29.758  1.00  0.00    -0.014 A 
ATOM     71  C   UNL A   1      35.962  32.007  30.693  1.00  0.00     0.010 A 
ATOM     72  C   UNL A   1      36.873  32.553  28.548  1.00  0.00     0.010 A 
ATOM     73  C   UNL A   1      34.827  32.838  30.437  1.00  0.00     0.020 A 
ATOM     74  C   UNL A   1      35.759  33.385  28.290  1.00  0.00     0.020 A 
ATOM     75  C   UNL A   1      34.745  33.541  29.236  1.00  0.00     0.054 A 
BRANCH  75  76
ATOM     76  S   UNL A   1      33.394  34.746  28.933  1.00  0.00     0.124 S 
ATOM     77  O   UNL A   1      34.107  35.898  28.388  1.00  0.00    -0.237 OA
ATOM     78  O   UNL A   1      32.528  34.041  27.994  1.00  0.00    -0.237 OA
ATOM     79  O   UNL A   1      32.817  34.953  30.262  1.00  0.00    -0.744 OA
ENDBRANCH  75  76
ENDBRANCH  47  70
BRANCH  59  80
ATOM     80  C   UNL A   1      41.819  30.165  33.427  1.00  0.00    -0.014 A 
ATOM     81  C   UNL A   1      41.576  28.865  32.931  1.00  0.00     0.010 A 
ATOM     82  C   UNL A   1      41.946  30.331  34.816  1.00  0.00     0.010 A 
ATOM     83  C   UNL A   1      41.467  27.769  33.807  1.00  0.00     0.020 A 
ATOM     84  C   UNL A   1      41.857  29.245  35.688  1.00  0.00     0.020 A 
ATOM     85  C   UNL A   1      41.614  27.968  35.183  1.00  0.00     0.054 A 
BRANCH  85  86
ATOM     86  S   UNL A   1      41.542  26.551  36.318  1.00  0.00     0.124 S 
ATOM     87  O   UNL A   1      42.952  26.284  36.585  1.00  0.00    -0.237 OA
ATOM     88  O   UNL A   1      40.778  27.078  37.447  1.00  0.00    -0.237 OA
ATOM     89  O   UNL A   1      40.854  25.520  35.545  1.00  0.00    -0.744 OA
ENDBRANCH  85  86
ENDBRANCH  59  80
ENDBRANCH  33  34
ENDBRANCH  26  28
ENDBRANCH  25  26
ENDBRANCH   1  25
TORSDOF 15
ENDMDL
