MODEL 1
REMARK VINA RESULT:     -10.4      0.000      0.000
REMARK SMILES CC[C@@H]1CCCCN1c1ccc(NC(=O)CCC(=O)OCCOC(=O)c2ccc(-c3c4nc(c(-c5ccc(S(=O)(=O)[O-])cc5)c5ccc([nH]5)c(-c5ccc(S(=O)(=O)[O-])cc5)c5nc(c(-c6ccc(S(=O)(=O)[O-])cc6)c6ccc3[nH]6)C=C5)C=C4)cc2)cc1
REMARK SMILES IDX 21 1 20 2 18 3 19 4 17 5 16 6 14 7 13 8 15 10 12 11 9 12
REMARK SMILES IDX 10 13 87 14 11 15 86 16 8 17 3 18 4 19 5 20 7 21 6 22 2 23
REMARK SMILES IDX 1 24 22 25 23 26 24 27 25 28 26 29 27 30 85 31 28 32 84 33
REMARK SMILES IDX 29 34 30 35 31 36 78 37 32 38 83 39 77 40 79 41 33 42 82 43
REMARK SMILES IDX 76 44 75 45 34 47 64 48 45 49 63 50 46 51 49 52 62 53 80 54
REMARK SMILES IDX 47 55 48 56 61 58 81 59 50 60 35 61 36 62 44 63 37 64 43 65
REMARK SMILES IDX 38 66 39 67 40 68 41 69 42 70 65 71 66 72 74 73 67 74 73 75
REMARK SMILES IDX 68 76 69 77 70 78 71 79 72 80 51 81 52 82 60 83 53 84 59 85
REMARK SMILES IDX 54 86 55 87 56 88 57 89 58 90
REMARK H PARENT 13 9 79 46 49 57
REMARK Flexibility Score: inf
ROOT
ATOM      1  C   UNL A   1      36.334  21.441  24.916  1.00  0.00     0.274 C 
ENDROOT
BRANCH   1   2
ATOM      2  O   UNL A   1      35.473  22.215  25.768  1.00  0.00    -0.462 OA
BRANCH   2   3
ATOM      3  C   UNL A   1      34.277  21.648  26.059  1.00  0.00     0.306 C 
ATOM      4  O   UNL A   1      33.627  21.878  27.073  1.00  0.00    -0.252 OA
BRANCH   3   5
ATOM      5  C   UNL A   1      33.862  20.634  25.017  1.00  0.00     0.132 C 
BRANCH   5   6
ATOM      6  C   UNL A   1      32.375  20.580  24.626  1.00  0.00     0.112 C 
BRANCH   6   7
ATOM      7  C   UNL A   1      32.123  20.839  23.157  1.00  0.00     0.224 C 
ATOM      8  N   UNL A   1      31.897  22.058  22.584  1.00  0.00    -0.326 N 
ATOM      9  H   UNL A   1      31.752  21.984  21.613  1.00  0.00     0.169 HD
ATOM     10  O   UNL A   1      32.172  19.874  22.378  1.00  0.00    -0.275 OA
BRANCH   8  11
ATOM     11  C   UNL A   1      31.815  23.394  23.028  1.00  0.00     0.041 A 
ATOM     12  C   UNL A   1      31.894  25.912  24.402  1.00  0.00     0.037 A 
ATOM     13  C   UNL A   1      30.703  25.373  23.885  1.00  0.00     0.028 A 
ATOM     14  C   UNL A   1      33.068  25.245  24.059  1.00  0.00     0.028 A 
ATOM     15  C   UNL A   1      30.655  24.129  23.215  1.00  0.00     0.028 A 
ATOM     16  C   UNL A   1      33.031  24.023  23.351  1.00  0.00     0.028 A 
BRANCH  12  17
ATOM     17  N   UNL A   1      31.860  27.109  25.100  1.00  0.00    -0.369 N 
ATOM     18  C   UNL A   1      31.912  28.505  24.563  1.00  0.00     0.082 C 
ATOM     19  C   UNL A   1      32.683  29.347  25.602  1.00  0.00     0.025 C 
ATOM     20  C   UNL A   1      31.994  29.300  26.964  1.00  0.00     0.004 C 
ATOM     21  C   UNL A   1      31.083  27.015  26.347  1.00  0.00     0.117 C 
ATOM     22  C   UNL A   1      31.751  27.865  27.424  1.00  0.00     0.021 C 
BRANCH  18  23
ATOM     23  C   UNL A   1      32.429  28.699  23.126  1.00  0.00     0.021 C 
ATOM     24  C   UNL A   1      33.937  28.788  22.895  1.00  0.00     0.006 C 
ENDBRANCH  18  23
ENDBRANCH  12  17
ENDBRANCH   8  11
ENDBRANCH   6   7
ENDBRANCH   5   6
ENDBRANCH   3   5
ENDBRANCH   2   3
ENDBRANCH   1   2
BRANCH   1  25
ATOM     25  C   UNL A   1      37.787  21.590  25.349  1.00  0.00     0.275 C 
BRANCH  25  26
ATOM     26  O   UNL A   1      38.162  22.889  25.856  1.00  0.00    -0.458 OA
BRANCH  26  27
ATOM     27  C   UNL A   1      39.462  23.011  26.198  1.00  0.00     0.338 C 
ATOM     28  O   UNL A   1      40.357  22.219  25.988  1.00  0.00    -0.246 OA
BRANCH  27  29
ATOM     29  C   UNL A   1      39.785  24.238  26.905  1.00  0.00     0.060 A 
ATOM     30  C   UNL A   1      39.178  24.463  28.136  1.00  0.00     0.016 A 
ATOM     31  C   UNL A   1      40.505  25.243  26.253  1.00  0.00     0.016 A 
ATOM     32  C   UNL A   1      39.369  25.690  28.756  1.00  0.00     0.010 A 
ATOM     33  C   UNL A   1      40.746  26.449  26.900  1.00  0.00     0.010 A 
ATOM     34  C   UNL A   1      40.194  26.667  28.165  1.00  0.00    -0.014 A 
BRANCH  34  35
ATOM     35  C   UNL A   1      40.607  27.826  28.981  1.00  0.00     0.031 A 
ATOM     36  C   UNL A   1      39.705  28.996  29.203  1.00  0.00     0.074 A 
ATOM     37  C   UNL A   1      41.830  27.759  29.538  1.00  0.00     0.049 A 
ATOM     38  N   UNL A   1      39.845  29.978  30.055  1.00  0.00    -0.248 NA
ATOM     39  C   UNL A   1      38.506  29.094  28.359  1.00  0.00     0.031 C 
ATOM     40  C   UNL A   1      42.803  26.686  29.296  1.00  0.00     0.029 A 
ATOM     41  N   UNL A   1      42.448  28.568  30.450  1.00  0.00    -0.354 N 
ATOM     42  C   UNL A   1      38.751  30.809  29.858  1.00  0.00     0.074 A 
ATOM     43  C   UNL A   1      37.978  30.238  28.774  1.00  0.00     0.031 C 
ATOM     44  C   UNL A   1      43.859  26.861  30.102  1.00  0.00     0.029 A 
ATOM     45  C   UNL A   1      43.647  28.064  30.894  1.00  0.00     0.049 A 
ATOM     46  H   UNL A   1      42.073  29.426  30.756  1.00  0.00     0.167 HD
ATOM     47  C   UNL A   1      38.424  31.937  30.533  1.00  0.00     0.031 A 
ATOM     48  C   UNL A   1      44.467  28.505  31.865  1.00  0.00     0.031 A 
ATOM     49  C   UNL A   1      39.230  32.488  31.593  1.00  0.00     0.049 A 
ATOM     50  C   UNL A   1      44.049  29.716  32.644  1.00  0.00     0.074 A 
ATOM     51  C   UNL A   1      38.992  33.607  32.372  1.00  0.00     0.029 A 
ATOM     52  N   UNL A   1      40.440  31.954  32.020  1.00  0.00    -0.354 N 
ATOM     53  N   UNL A   1      42.965  30.444  32.507  1.00  0.00    -0.248 NA
ATOM     54  C   UNL A   1      44.950  30.155  33.714  1.00  0.00     0.031 C 
ATOM     55  C   UNL A   1      40.076  33.768  33.246  1.00  0.00     0.029 A 
ATOM     56  C   UNL A   1      40.969  32.726  33.040  1.00  0.00     0.049 A 
ATOM     57  H   UNL A   1      40.860  31.143  31.651  1.00  0.00     0.167 HD
ATOM     58  C   UNL A   1      43.053  31.432  33.477  1.00  0.00     0.074 A 
ATOM     59  C   UNL A   1      44.279  31.184  34.213  1.00  0.00     0.031 C 
ATOM     60  C   UNL A   1      42.204  32.459  33.733  1.00  0.00     0.031 A 
BRANCH  47  61
ATOM     61  C   UNL A   1      37.155  32.644  30.134  1.00  0.00    -0.014 A 
ATOM     62  C   UNL A   1      37.144  33.563  29.069  1.00  0.00     0.010 A 
ATOM     63  C   UNL A   1      35.954  32.378  30.816  1.00  0.00     0.010 A 
ATOM     64  C   UNL A   1      35.969  34.240  28.726  1.00  0.00     0.020 A 
ATOM     65  C   UNL A   1      34.770  33.036  30.462  1.00  0.00     0.020 A 
ATOM     66  C   UNL A   1      34.791  33.980  29.433  1.00  0.00     0.054 A 
BRANCH  66  67
ATOM     67  S   UNL A   1      33.280  34.875  28.973  1.00  0.00     0.124 S 
ATOM     68  O   UNL A   1      32.684  33.974  27.990  1.00  0.00    -0.237 OA
ATOM     69  O   UNL A   1      32.566  34.978  30.243  1.00  0.00    -0.237 OA
ATOM     70  O   UNL A   1      33.777  36.140  28.438  1.00  0.00    -0.744 OA
ENDBRANCH  66  67
ENDBRANCH  47  61
BRANCH  48  71
ATOM     71  C   UNL A   1      45.715  27.757  32.170  1.00  0.00    -0.014 A 
ATOM     72  C   UNL A   1      45.697  26.658  33.046  1.00  0.00     0.010 A 
ATOM     73  C   UNL A   1      46.920  28.105  31.532  1.00  0.00     0.010 A 
ATOM     74  C   UNL A   1      46.864  25.930  33.290  1.00  0.00     0.020 A 
ATOM     75  C   UNL A   1      48.084  27.365  31.756  1.00  0.00     0.020 A 
ATOM     76  C   UNL A   1      48.051  26.288  32.643  1.00  0.00     0.054 A 
BRANCH  76  77
ATOM     77  S   UNL A   1      49.543  25.295  32.926  1.00  0.00     0.124 S 
ATOM     78  O   UNL A   1      50.421  26.252  33.592  1.00  0.00    -0.237 OA
ATOM     79  O   UNL A   1      49.048  24.203  33.761  1.00  0.00    -0.237 OA
ATOM     80  O   UNL A   1      49.950  24.901  31.579  1.00  0.00    -0.744 OA
ENDBRANCH  76  77
ENDBRANCH  48  71
BRANCH  60  81
ATOM     81  C   UNL A   1      42.598  33.386  34.846  1.00  0.00    -0.014 A 
ATOM     82  C   UNL A   1      42.173  33.145  36.164  1.00  0.00     0.010 A 
ATOM     83  C   UNL A   1      43.417  34.496  34.574  1.00  0.00     0.010 A 
ATOM     84  C   UNL A   1      42.527  34.024  37.189  1.00  0.00     0.020 A 
ATOM     85  C   UNL A   1      43.792  35.364  35.601  1.00  0.00     0.020 A 
ATOM     86  C   UNL A   1      43.330  35.132  36.900  1.00  0.00     0.054 A 
BRANCH  86  87
ATOM     87  S   UNL A   1      43.800  36.246  38.249  1.00  0.00     0.124 S 
ATOM     88  O   UNL A   1      43.282  37.528  37.777  1.00  0.00    -0.237 OA
ATOM     89  O   UNL A   1      43.105  35.674  39.400  1.00  0.00    -0.237 OA
ATOM     90  O   UNL A   1      45.257  36.138  38.293  1.00  0.00    -0.744 OA
ENDBRANCH  86  87
ENDBRANCH  60  81
ENDBRANCH  34  35
ENDBRANCH  27  29
ENDBRANCH  26  27
ENDBRANCH  25  26
ENDBRANCH   1  25
TORSDOF 19
ENDMDL
MODEL 2
REMARK VINA RESULT:     -10.4      4.825     11.701
REMARK SMILES CC[C@@H]1CCCCN1c1ccc(NC(=O)CCC(=O)OCCOC(=O)c2ccc(-c3c4nc(c(-c5ccc(S(=O)(=O)[O-])cc5)c5ccc([nH]5)c(-c5ccc(S(=O)(=O)[O-])cc5)c5nc(c(-c6ccc(S(=O)(=O)[O-])cc6)c6ccc3[nH]6)C=C5)C=C4)cc2)cc1
REMARK SMILES IDX 21 1 20 2 18 3 19 4 17 5 16 6 14 7 13 8 15 10 12 11 9 12
REMARK SMILES IDX 10 13 87 14 11 15 86 16 8 17 3 18 4 19 5 20 7 21 6 22 2 23
REMARK SMILES IDX 1 24 22 25 23 26 24 27 25 28 26 29 27 30 85 31 28 32 84 33
REMARK SMILES IDX 29 34 30 35 31 36 78 37 32 38 83 39 77 40 79 41 33 42 82 43
REMARK SMILES IDX 76 44 75 45 34 47 64 48 45 49 63 50 46 51 49 52 62 53 80 54
REMARK SMILES IDX 47 55 48 56 61 58 81 59 50 60 35 61 36 62 44 63 37 64 43 65
REMARK SMILES IDX 38 66 39 67 40 68 41 69 42 70 65 71 66 72 74 73 67 74 73 75
REMARK SMILES IDX 68 76 69 77 70 78 71 79 72 80 51 81 52 82 60 83 53 84 59 85
REMARK SMILES IDX 54 86 55 87 56 88 57 89 58 90
REMARK H PARENT 13 9 79 46 49 57
REMARK Flexibility Score: inf
ROOT
ATOM      1  C   UNL A   1      35.029  34.210  28.955  1.00  0.00     0.274 C 
ENDROOT
BRANCH   1   2
ATOM      2  O   UNL A   1      33.722  34.803  28.879  1.00  0.00    -0.462 OA
BRANCH   2   3
ATOM      3  C   UNL A   1      33.694  36.158  28.893  1.00  0.00     0.306 C 
ATOM      4  O   UNL A   1      34.234  36.874  28.057  1.00  0.00    -0.252 OA
BRANCH   3   5
ATOM      5  C   UNL A   1      32.975  36.697  30.109  1.00  0.00     0.132 C 
BRANCH   5   6
ATOM      6  C   UNL A   1      32.721  35.728  31.277  1.00  0.00     0.112 C 
BRANCH   6   7
ATOM      7  C   UNL A   1      32.957  36.341  32.639  1.00  0.00     0.224 C 
ATOM      8  N   UNL A   1      33.958  36.010  33.507  1.00  0.00    -0.326 N 
ATOM      9  H   UNL A   1      33.912  36.537  34.337  1.00  0.00     0.169 HD
ATOM     10  O   UNL A   1      32.212  37.267  32.998  1.00  0.00    -0.275 OA
BRANCH   8  11
ATOM     11  C   UNL A   1      35.039  35.105  33.518  1.00  0.00     0.041 A 
ATOM     12  C   UNL A   1      37.388  33.534  34.016  1.00  0.00     0.037 A 
ATOM     13  C   UNL A   1      37.174  34.204  32.799  1.00  0.00     0.028 A 
ATOM     14  C   UNL A   1      36.318  33.525  34.908  1.00  0.00     0.028 A 
ATOM     15  C   UNL A   1      36.024  34.987  32.551  1.00  0.00     0.028 A 
ATOM     16  C   UNL A   1      35.146  34.270  34.646  1.00  0.00     0.028 A 
BRANCH  12  17
ATOM     17  N   UNL A   1      38.567  32.831  34.216  1.00  0.00    -0.369 N 
ATOM     18  C   UNL A   1      39.862  33.321  34.782  1.00  0.00     0.082 C 
ATOM     19  C   UNL A   1      40.982  32.558  34.042  1.00  0.00     0.025 C 
ATOM     20  C   UNL A   1      40.830  31.050  34.227  1.00  0.00     0.004 C 
ATOM     21  C   UNL A   1      38.334  31.405  34.499  1.00  0.00     0.117 C 
ATOM     22  C   UNL A   1      39.431  30.573  33.843  1.00  0.00     0.021 C 
BRANCH  18  23
ATOM     23  C   UNL A   1      40.093  34.843  34.821  1.00  0.00     0.021 C 
ATOM     24  C   UNL A   1      39.776  35.601  36.110  1.00  0.00     0.006 C 
ENDBRANCH  18  23
ENDBRANCH  12  17
ENDBRANCH   8  11
ENDBRANCH   6   7
ENDBRANCH   5   6
ENDBRANCH   3   5
ENDBRANCH   2   3
ENDBRANCH   1   2
BRANCH   1  25
ATOM     25  C   UNL A   1      34.921  32.697  29.095  1.00  0.00     0.275 C 
BRANCH  25  26
ATOM     26  O   UNL A   1      34.436  31.991  27.932  1.00  0.00    -0.458 OA
BRANCH  26  27
ATOM     27  C   UNL A   1      34.599  30.652  27.973  1.00  0.00     0.338 C 
ATOM     28  O   UNL A   1      33.750  29.800  27.808  1.00  0.00    -0.246 OA
BRANCH  27  29
ATOM     29  C   UNL A   1      35.956  30.220  28.258  1.00  0.00     0.060 A 
ATOM     30  C   UNL A   1      36.883  30.247  27.222  1.00  0.00     0.016 A 
ATOM     31  C   UNL A   1      36.241  29.594  29.475  1.00  0.00     0.016 A 
ATOM     32  C   UNL A   1      38.142  29.709  27.442  1.00  0.00     0.010 A 
ATOM     33  C   UNL A   1      37.520  29.108  29.717  1.00  0.00     0.010 A 
ATOM     34  C   UNL A   1      38.482  29.185  28.705  1.00  0.00    -0.014 A 
BRANCH  34  35
ATOM     35  C   UNL A   1      39.902  28.896  28.989  1.00  0.00     0.031 A 
ATOM     36  C   UNL A   1      40.530  27.590  28.627  1.00  0.00     0.074 A 
ATOM     37  C   UNL A   1      40.610  29.885  29.565  1.00  0.00     0.049 A 
ATOM     38  N   UNL A   1      41.798  27.272  28.621  1.00  0.00    -0.248 NA
ATOM     39  C   UNL A   1      39.630  26.494  28.239  1.00  0.00     0.031 C 
ATOM     40  C   UNL A   1      40.044  31.160  30.026  1.00  0.00     0.029 A 
ATOM     41  N   UNL A   1      41.947  30.005  29.818  1.00  0.00    -0.354 N 
ATOM     42  C   UNL A   1      41.854  25.944  28.223  1.00  0.00     0.074 A 
ATOM     43  C   UNL A   1      40.487  25.501  28.038  1.00  0.00     0.031 C 
ATOM     44  C   UNL A   1      41.039  31.961  30.430  1.00  0.00     0.029 A 
ATOM     45  C   UNL A   1      42.301  31.251  30.277  1.00  0.00     0.049 A 
ATOM     46  H   UNL A   1      42.592  29.271  29.686  1.00  0.00     0.167 HD
ATOM     47  C   UNL A   1      42.952  25.176  28.022  1.00  0.00     0.031 A 
ATOM     48  C   UNL A   1      43.517  31.776  30.511  1.00  0.00     0.031 A 
ATOM     49  C   UNL A   1      44.297  25.645  28.237  1.00  0.00     0.049 A 
ATOM     50  C   UNL A   1      44.718  30.929  30.215  1.00  0.00     0.074 A 
ATOM     51  C   UNL A   1      45.492  24.975  28.041  1.00  0.00     0.029 A 
ATOM     52  N   UNL A   1      44.623  26.913  28.703  1.00  0.00    -0.354 N 
ATOM     53  N   UNL A   1      44.761  29.701  29.754  1.00  0.00    -0.248 NA
ATOM     54  C   UNL A   1      46.030  31.539  30.454  1.00  0.00     0.031 C 
ATOM     55  C   UNL A   1      46.538  25.826  28.423  1.00  0.00     0.029 A 
ATOM     56  C   UNL A   1      45.997  27.041  28.816  1.00  0.00     0.049 A 
ATOM     57  H   UNL A   1      43.972  27.619  28.921  1.00  0.00     0.167 HD
ATOM     58  C   UNL A   1      46.109  29.388  29.646  1.00  0.00     0.074 A 
ATOM     59  C   UNL A   1      46.844  30.570  30.058  1.00  0.00     0.031 C 
ATOM     60  C   UNL A   1      46.690  28.227  29.252  1.00  0.00     0.031 A 
BRANCH  47  61
ATOM     61  C   UNL A   1      42.735  23.759  27.560  1.00  0.00    -0.014 A 
ATOM     62  C   UNL A   1      42.556  23.462  26.196  1.00  0.00     0.010 A 
ATOM     63  C   UNL A   1      42.725  22.706  28.492  1.00  0.00     0.010 A 
ATOM     64  C   UNL A   1      42.323  22.148  25.779  1.00  0.00     0.020 A 
ATOM     65  C   UNL A   1      42.513  21.386  28.077  1.00  0.00     0.020 A 
ATOM     66  C   UNL A   1      42.292  21.118  26.724  1.00  0.00     0.054 A 
BRANCH  66  67
ATOM     67  S   UNL A   1      41.979  19.422  26.159  1.00  0.00     0.124 S 
ATOM     68  O   UNL A   1      40.528  19.423  25.994  1.00  0.00    -0.237 OA
ATOM     69  O   UNL A   1      42.751  19.346  24.921  1.00  0.00    -0.237 OA
ATOM     70  O   UNL A   1      42.481  18.594  27.253  1.00  0.00    -0.744 OA
ENDBRANCH  66  67
ENDBRANCH  47  61
BRANCH  48  71
ATOM     71  C   UNL A   1      43.633  33.177  30.994  1.00  0.00    -0.014 A 
ATOM     72  C   UNL A   1      43.717  33.456  32.369  1.00  0.00     0.010 A 
ATOM     73  C   UNL A   1      43.721  34.237  30.073  1.00  0.00     0.010 A 
ATOM     74  C   UNL A   1      43.875  34.772  32.815  1.00  0.00     0.020 A 
ATOM     75  C   UNL A   1      43.902  35.550  30.514  1.00  0.00     0.020 A 
ATOM     76  C   UNL A   1      43.966  35.811  31.884  1.00  0.00     0.054 A 
BRANCH  76  77
ATOM     77  S   UNL A   1      44.230  37.505  32.477  1.00  0.00     0.124 S 
ATOM     78  O   UNL A   1      43.299  37.580  33.599  1.00  0.00    -0.237 OA
ATOM     79  O   UNL A   1      45.647  37.504  32.829  1.00  0.00    -0.237 OA
ATOM     80  O   UNL A   1      43.886  38.328  31.320  1.00  0.00    -0.744 OA
ENDBRANCH  76  77
ENDBRANCH  48  71
BRANCH  60  81
ATOM     81  C   UNL A   1      48.191  28.196  29.270  1.00  0.00    -0.014 A 
ATOM     82  C   UNL A   1      48.929  28.510  28.115  1.00  0.00     0.010 A 
ATOM     83  C   UNL A   1      48.869  27.868  30.457  1.00  0.00     0.010 A 
ATOM     84  C   UNL A   1      50.323  28.457  28.136  1.00  0.00     0.020 A 
ATOM     85  C   UNL A   1      50.264  27.837  30.487  1.00  0.00     0.020 A 
ATOM     86  C   UNL A   1      50.982  28.115  29.321  1.00  0.00     0.054 A 
BRANCH  86  87
ATOM     87  S   UNL A   1      52.794  28.078  29.333  1.00  0.00     0.124 S 
ATOM     88  O   UNL A   1      53.075  27.500  30.645  1.00  0.00    -0.237 OA
ATOM     89  O   UNL A   1      53.109  27.225  28.191  1.00  0.00    -0.237 OA
ATOM     90  O   UNL A   1      53.168  29.482  29.175  1.00  0.00    -0.744 OA
ENDBRANCH  86  87
ENDBRANCH  60  81
ENDBRANCH  34  35
ENDBRANCH  27  29
ENDBRANCH  26  27
ENDBRANCH  25  26
ENDBRANCH   1  25
TORSDOF 19
ENDMDL
MODEL 3
REMARK VINA RESULT:     -10.3      2.634      8.855
REMARK SMILES CC[C@@H]1CCCCN1c1ccc(NC(=O)CCC(=O)OCCOC(=O)c2ccc(-c3c4nc(c(-c5ccc(S(=O)(=O)[O-])cc5)c5ccc([nH]5)c(-c5ccc(S(=O)(=O)[O-])cc5)c5nc(c(-c6ccc(S(=O)(=O)[O-])cc6)c6ccc3[nH]6)C=C5)C=C4)cc2)cc1
REMARK SMILES IDX 21 1 20 2 18 3 19 4 17 5 16 6 14 7 13 8 15 10 12 11 9 12
REMARK SMILES IDX 10 13 87 14 11 15 86 16 8 17 3 18 4 19 5 20 7 21 6 22 2 23
REMARK SMILES IDX 1 24 22 25 23 26 24 27 25 28 26 29 27 30 85 31 28 32 84 33
REMARK SMILES IDX 29 34 30 35 31 36 78 37 32 38 83 39 77 40 79 41 33 42 82 43
REMARK SMILES IDX 76 44 75 45 34 47 64 48 45 49 63 50 46 51 49 52 62 53 80 54
REMARK SMILES IDX 47 55 48 56 61 58 81 59 50 60 35 61 36 62 44 63 37 64 43 65
REMARK SMILES IDX 38 66 39 67 40 68 41 69 42 70 65 71 66 72 74 73 67 74 73 75
REMARK SMILES IDX 68 76 69 77 70 78 71 79 72 80 51 81 52 82 60 83 53 84 59 85
REMARK SMILES IDX 54 86 55 87 56 88 57 89 58 90
REMARK H PARENT 13 9 79 46 49 57
REMARK Flexibility Score: inf
ROOT
ATOM      1  C   UNL A   1      42.069  22.646  26.488  1.00  0.00     0.274 C 
ENDROOT
BRANCH   1   2
ATOM      2  O   UNL A   1      41.516  21.628  25.637  1.00  0.00    -0.462 OA
BRANCH   2   3
ATOM      3  C   UNL A   1      40.462  20.947  26.149  1.00  0.00     0.306 C 
ATOM      4  O   UNL A   1      40.426  19.730  26.297  1.00  0.00    -0.252 OA
BRANCH   3   5
ATOM      5  C   UNL A   1      39.295  21.857  26.456  1.00  0.00     0.132 C 
BRANCH   5   6
ATOM      6  C   UNL A   1      38.411  22.306  25.279  1.00  0.00     0.112 C 
BRANCH   6   7
ATOM      7  C   UNL A   1      37.183  21.447  25.079  1.00  0.00     0.224 C 
ATOM      8  N   UNL A   1      35.922  21.896  24.814  1.00  0.00    -0.326 N 
ATOM      9  H   UNL A   1      35.279  21.156  24.727  1.00  0.00     0.169 HD
ATOM     10  O   UNL A   1      37.324  20.213  25.105  1.00  0.00    -0.275 OA
BRANCH   8  11
ATOM     11  C   UNL A   1      35.304  23.152  24.634  1.00  0.00     0.041 A 
ATOM     12  C   UNL A   1      33.664  25.507  24.635  1.00  0.00     0.037 A 
ATOM     13  C   UNL A   1      34.003  24.826  23.454  1.00  0.00     0.028 A 
ATOM     14  C   UNL A   1      34.311  25.083  25.795  1.00  0.00     0.028 A 
ATOM     15  C   UNL A   1      34.803  23.660  23.447  1.00  0.00     0.028 A 
ATOM     16  C   UNL A   1      35.147  23.944  25.787  1.00  0.00     0.028 A 
BRANCH  12  17
ATOM     17  N   UNL A   1      32.827  26.610  24.577  1.00  0.00    -0.369 N 
ATOM     18  C   UNL A   1      31.361  26.687  24.866  1.00  0.00     0.082 C 
ATOM     19  C   UNL A   1      30.777  27.740  23.900  1.00  0.00     0.025 C 
ATOM     20  C   UNL A   1      31.454  29.095  24.095  1.00  0.00     0.004 C 
ATOM     21  C   UNL A   1      33.527  27.868  24.887  1.00  0.00     0.117 C 
ATOM     22  C   UNL A   1      32.974  28.985  24.007  1.00  0.00     0.021 C 
BRANCH  18  23
ATOM     23  C   UNL A   1      30.566  25.369  24.872  1.00  0.00     0.021 C 
ATOM     24  C   UNL A   1      30.706  24.432  26.072  1.00  0.00     0.006 C 
ENDBRANCH  18  23
ENDBRANCH  12  17
ENDBRANCH   8  11
ENDBRANCH   6   7
ENDBRANCH   5   6
ENDBRANCH   3   5
ENDBRANCH   2   3
ENDBRANCH   1   2
BRANCH   1  25
ATOM     25  C   UNL A   1      42.819  23.683  25.663  1.00  0.00     0.275 C 
BRANCH  25  26
ATOM     26  O   UNL A   1      42.987  24.977  26.282  1.00  0.00    -0.458 OA
BRANCH  26  27
ATOM     27  C   UNL A   1      41.956  25.829  26.104  1.00  0.00     0.338 C 
ATOM     28  O   UNL A   1      41.296  25.988  25.098  1.00  0.00    -0.246 OA
BRANCH  27  29
ATOM     29  C   UNL A   1      41.635  26.636  27.268  1.00  0.00     0.060 A 
ATOM     30  C   UNL A   1      40.637  26.182  28.124  1.00  0.00     0.016 A 
ATOM     31  C   UNL A   1      42.164  27.925  27.384  1.00  0.00     0.016 A 
ATOM     32  C   UNL A   1      40.225  27.008  29.160  1.00  0.00     0.010 A 
ATOM     33  C   UNL A   1      41.795  28.727  28.456  1.00  0.00     0.010 A 
ATOM     34  C   UNL A   1      40.838  28.260  29.361  1.00  0.00    -0.014 A 
BRANCH  34  35
ATOM     35  C   UNL A   1      40.585  28.973  30.629  1.00  0.00     0.031 A 
ATOM     36  C   UNL A   1      41.463  28.793  31.824  1.00  0.00     0.074 A 
ATOM     37  C   UNL A   1      39.536  29.816  30.642  1.00  0.00     0.049 A 
ATOM     38  N   UNL A   1      41.491  29.499  32.924  1.00  0.00    -0.248 NA
ATOM     39  C   UNL A   1      42.418  27.675  31.798  1.00  0.00     0.031 C 
ATOM     40  C   UNL A   1      38.580  29.981  29.540  1.00  0.00     0.029 A 
ATOM     41  N   UNL A   1      39.123  30.722  31.578  1.00  0.00    -0.354 N 
ATOM     42  C   UNL A   1      42.470  28.920  33.721  1.00  0.00     0.074 A 
ATOM     43  C   UNL A   1      42.982  27.776  32.995  1.00  0.00     0.031 C 
ATOM     44  C   UNL A   1      37.744  30.986  29.830  1.00  0.00     0.029 A 
ATOM     45  C   UNL A   1      38.089  31.516  31.141  1.00  0.00     0.049 A 
ATOM     46  H   UNL A   1      39.524  30.798  32.474  1.00  0.00     0.167 HD
ATOM     47  C   UNL A   1      42.902  29.322  34.940  1.00  0.00     0.031 A 
ATOM     48  C   UNL A   1      37.510  32.583  31.721  1.00  0.00     0.031 A 
ATOM     49  C   UNL A   1      42.353  30.454  35.643  1.00  0.00     0.049 A 
ATOM     50  C   UNL A   1      38.052  33.048  33.038  1.00  0.00     0.074 A 
ATOM     51  C   UNL A   1      42.724  30.978  36.868  1.00  0.00     0.029 A 
ATOM     52  N   UNL A   1      41.306  31.238  35.174  1.00  0.00    -0.354 N 
ATOM     53  N   UNL A   1      39.039  32.545  33.743  1.00  0.00    -0.248 NA
ATOM     54  C   UNL A   1      37.418  34.231  33.632  1.00  0.00     0.031 C 
ATOM     55  C   UNL A   1      41.877  32.057  37.156  1.00  0.00     0.029 A 
ATOM     56  C   UNL A   1      41.006  32.231  36.090  1.00  0.00     0.049 A 
ATOM     57  H   UNL A   1      40.844  31.106  34.314  1.00  0.00     0.167 HD
ATOM     58  C   UNL A   1      39.146  33.351  34.867  1.00  0.00     0.074 A 
ATOM     59  C   UNL A   1      38.146  34.393  34.728  1.00  0.00     0.031 C 
ATOM     60  C   UNL A   1      39.987  33.237  35.925  1.00  0.00     0.031 A 
BRANCH  47  61
ATOM     61  C   UNL A   1      44.006  28.525  35.584  1.00  0.00    -0.014 A 
ATOM     62  C   UNL A   1      43.715  27.436  36.427  1.00  0.00     0.010 A 
ATOM     63  C   UNL A   1      45.351  28.851  35.335  1.00  0.00     0.010 A 
ATOM     64  C   UNL A   1      44.745  26.722  37.047  1.00  0.00     0.020 A 
ATOM     65  C   UNL A   1      46.386  28.125  35.936  1.00  0.00     0.020 A 
ATOM     66  C   UNL A   1      46.075  27.078  36.806  1.00  0.00     0.054 A 
BRANCH  66  67
ATOM     67  S   UNL A   1      47.394  26.140  37.628  1.00  0.00     0.124 S 
ATOM     68  O   UNL A   1      46.979  26.203  39.027  1.00  0.00    -0.237 OA
ATOM     69  O   UNL A   1      47.294  24.824  37.002  1.00  0.00    -0.237 OA
ATOM     70  O   UNL A   1      48.606  26.889  37.304  1.00  0.00    -0.744 OA
ENDBRANCH  66  67
ENDBRANCH  47  61
BRANCH  48  71
ATOM     71  C   UNL A   1      36.405  33.290  31.022  1.00  0.00    -0.014 A 
ATOM     72  C   UNL A   1      35.164  33.484  31.654  1.00  0.00     0.010 A 
ATOM     73  C   UNL A   1      36.612  33.829  29.739  1.00  0.00     0.010 A 
ATOM     74  C   UNL A   1      34.146  34.192  31.009  1.00  0.00     0.020 A 
ATOM     75  C   UNL A   1      35.605  34.558  29.102  1.00  0.00     0.020 A 
ATOM     76  C   UNL A   1      34.373  34.725  29.737  1.00  0.00     0.054 A 
BRANCH  76  77
ATOM     77  S   UNL A   1      33.061  35.693  28.940  1.00  0.00     0.124 S 
ATOM     78  O   UNL A   1      32.430  34.695  28.081  1.00  0.00    -0.237 OA
ATOM     79  O   UNL A   1      32.262  36.145  30.076  1.00  0.00    -0.237 OA
ATOM     80  O   UNL A   1      33.792  36.749  28.244  1.00  0.00    -0.744 OA
ENDBRANCH  76  77
ENDBRANCH  48  71
BRANCH  60  81
ATOM     81  C   UNL A   1      39.834  34.265  37.010  1.00  0.00    -0.014 A 
ATOM     82  C   UNL A   1      39.073  33.986  38.159  1.00  0.00     0.010 A 
ATOM     83  C   UNL A   1      40.472  35.511  36.887  1.00  0.00     0.010 A 
ATOM     84  C   UNL A   1      38.919  34.955  39.151  1.00  0.00     0.020 A 
ATOM     85  C   UNL A   1      40.339  36.473  37.889  1.00  0.00     0.020 A 
ATOM     86  C   UNL A   1      39.548  36.196  39.007  1.00  0.00     0.054 A 
BRANCH  86  87
ATOM     87  S   UNL A   1      39.357  37.430  40.320  1.00  0.00     0.124 S 
ATOM     88  O   UNL A   1      38.562  38.458  39.654  1.00  0.00    -0.237 OA
ATOM     89  O   UNL A   1      38.667  36.684  41.369  1.00  0.00    -0.237 OA
ATOM     90  O   UNL A   1      40.732  37.811  40.637  1.00  0.00    -0.744 OA
ENDBRANCH  86  87
ENDBRANCH  60  81
ENDBRANCH  34  35
ENDBRANCH  27  29
ENDBRANCH  26  27
ENDBRANCH  25  26
ENDBRANCH   1  25
TORSDOF 19
ENDMDL
