MODEL 1
REMARK VINA RESULT:     -10.2      0.000      0.000
REMARK SMILES C[C@@H]1CC[N@@H+]1[C@@H]1CCC[C@@H]1C(=O)OCCOC(=O)c1ccc(-c2c3nc(c(-c4ccc(S(=O)(=O)[O-])cc4)c4ccc([nH]4)c(-c4ccc(S(=O)(=O)[O-])cc4)c4nc(c(-c5ccc(S(=O)(=O)[O-])cc5)c5ccc2[nH]5)C=C4)C=C3)cc1
REMARK SMILES IDX 15 1 14 2 13 3 11 4 12 5 10 6 6 7 7 8 8 9 9 10 5 11 1 12
REMARK SMILES IDX 2 13 3 14 4 15 16 17 17 18 18 19 19 20 20 21 78 22 21 23
REMARK SMILES IDX 77 24 22 25 23 26 24 27 71 28 25 29 76 30 70 31 72 32 26 33
REMARK SMILES IDX 75 34 69 35 68 36 27 38 57 39 38 40 56 41 39 42 42 43 55 44
REMARK SMILES IDX 73 45 40 46 41 47 54 49 74 50 43 51 28 52 29 53 37 54 30 55
REMARK SMILES IDX 36 56 31 57 32 58 33 59 34 60 35 61 58 62 59 63 67 64 60 65
REMARK SMILES IDX 66 66 61 67 62 68 63 69 64 70 65 71 44 72 45 73 53 74 46 75
REMARK SMILES IDX 52 76 47 77 48 78 49 79 50 80 51 81
REMARK H PARENT 5 16 72 37 42 48
REMARK Flexibility Score: inf
ROOT
ATOM      1  C   UNL A   1      34.053  30.808  27.349  1.00  0.00     0.275 C 
ENDROOT
BRANCH   1   2
ATOM      2  C   UNL A   1      32.703  30.078  27.202  1.00  0.00     0.274 C 
BRANCH   2   3
ATOM      3  O   UNL A   1      32.863  28.908  26.386  1.00  0.00    -0.462 OA
BRANCH   3   4
ATOM      4  C   UNL A   1      31.820  28.033  26.273  1.00  0.00     0.315 C 
ATOM      5  O   UNL A   1      31.342  27.364  27.177  1.00  0.00    -0.252 OA
BRANCH   4   6
ATOM      6  C   UNL A   1      31.331  28.042  24.843  1.00  0.00     0.157 C 
ATOM      7  C   UNL A   1      31.760  26.782  24.080  1.00  0.00     0.198 C 
ATOM      8  C   UNL A   1      32.976  27.235  23.208  1.00  0.00     0.066 C 
ATOM      9  C   UNL A   1      33.086  28.746  23.300  1.00  0.00     0.007 C 
ATOM     10  C   UNL A   1      31.844  29.226  24.021  1.00  0.00     0.022 C 
BRANCH   7  11
ATOM     11  N   UNL A   1      31.629  25.541  24.930  1.00  0.00    -0.329 N 
ATOM     12  C   UNL A   1      34.482  25.192  25.733  1.00  0.00     0.075 C 
ATOM     13  C   UNL A   1      33.169  24.483  25.461  1.00  0.00     0.186 C 
ATOM     14  C   UNL A   1      32.519  22.753  24.514  1.00  0.00     0.126 C 
ATOM     15  C   UNL A   1      30.702  24.095  23.922  1.00  0.00     0.268 C 
ATOM     16  H   UNL A   1      31.209  25.998  25.739  1.00  0.00     0.348 HD
ENDBRANCH   7  11
ENDBRANCH   4   6
ENDBRANCH   3   4
ENDBRANCH   2   3
ENDBRANCH   1   2
BRANCH   1  17
ATOM     17  O   UNL A   1      35.097  29.948  27.840  1.00  0.00    -0.458 OA
BRANCH  17  18
ATOM     18  C   UNL A   1      35.833  30.324  28.921  1.00  0.00     0.338 C 
ATOM     19  O   UNL A   1      35.456  31.119  29.771  1.00  0.00    -0.246 OA
BRANCH  18  20
ATOM     20  C   UNL A   1      37.325  29.643  28.939  1.00  0.00     0.060 A 
ATOM     21  C   UNL A   1      38.835  29.358  30.372  1.00  0.00     0.016 A 
ATOM     22  C   UNL A   1      37.878  29.618  27.388  1.00  0.00     0.016 A 
ATOM     23  C   UNL A   1      40.333  29.267  29.926  1.00  0.00     0.010 A 
ATOM     24  C   UNL A   1      39.419  29.325  27.220  1.00  0.00     0.010 A 
ATOM     25  C   UNL A   1      40.566  29.171  28.409  1.00  0.00    -0.014 A 
BRANCH  25  26
ATOM     26  C   UNL A   1      41.956  28.777  28.070  1.00  0.00     0.031 A 
ATOM     27  C   UNL A   1      43.030  29.802  28.195  1.00  0.00     0.074 A 
ATOM     28  C   UNL A   1      42.213  27.483  27.749  1.00  0.00     0.049 A 
ATOM     29  N   UNL A   1      44.287  29.690  27.886  1.00  0.00    -0.248 NA
ATOM     30  C   UNL A   1      42.646  31.140  28.681  1.00  0.00     0.031 C 
ATOM     31  C   UNL A   1      41.215  26.403  27.622  1.00  0.00     0.029 A 
ATOM     32  N   UNL A   1      43.390  26.813  27.550  1.00  0.00    -0.354 N 
ATOM     33  C   UNL A   1      44.821  30.956  28.067  1.00  0.00     0.074 A 
ATOM     34  C   UNL A   1      43.749  31.834  28.460  1.00  0.00     0.031 C 
ATOM     35  C   UNL A   1      41.818  25.216  27.546  1.00  0.00     0.029 A 
ATOM     36  C   UNL A   1      43.233  25.452  27.389  1.00  0.00     0.049 A 
ATOM     37  H   UNL A   1      44.267  27.261  27.523  1.00  0.00     0.167 HD
ATOM     38  C   UNL A   1      46.107  31.329  27.923  1.00  0.00     0.031 A 
ATOM     39  C   UNL A   1      44.118  24.493  27.075  1.00  0.00     0.031 A 
ATOM     40  C   UNL A   1      47.139  30.397  27.572  1.00  0.00     0.049 A 
ATOM     41  C   UNL A   1      45.521  24.953  26.869  1.00  0.00     0.074 A 
ATOM     42  C   UNL A   1      48.487  30.632  27.404  1.00  0.00     0.029 A 
ATOM     43  N   UNL A   1      46.925  29.042  27.341  1.00  0.00    -0.354 N 
ATOM     44  N   UNL A   1      46.008  26.161  27.029  1.00  0.00    -0.248 NA
ATOM     45  C   UNL A   1      46.486  23.947  26.429  1.00  0.00     0.031 C 
ATOM     46  C   UNL A   1      49.074  29.438  26.982  1.00  0.00     0.029 A 
ATOM     47  C   UNL A   1      48.113  28.434  26.986  1.00  0.00     0.049 A 
ATOM     48  H   UNL A   1      46.057  28.584  27.417  1.00  0.00     0.167 HD
ATOM     49  C   UNL A   1      47.350  26.063  26.719  1.00  0.00     0.074 A 
ATOM     50  C   UNL A   1      47.599  24.666  26.406  1.00  0.00     0.031 C 
ATOM     51  C   UNL A   1      48.292  27.036  26.683  1.00  0.00     0.031 A 
BRANCH  38  52
ATOM     52  C   UNL A   1      46.434  32.786  28.084  1.00  0.00    -0.014 A 
ATOM     53  C   UNL A   1      46.643  33.373  29.345  1.00  0.00     0.010 A 
ATOM     54  C   UNL A   1      46.550  33.579  26.929  1.00  0.00     0.010 A 
ATOM     55  C   UNL A   1      46.955  34.730  29.446  1.00  0.00     0.020 A 
ATOM     56  C   UNL A   1      46.901  34.926  27.023  1.00  0.00     0.020 A 
ATOM     57  C   UNL A   1      47.101  35.492  28.284  1.00  0.00     0.054 A 
BRANCH  57  58
ATOM     58  S   UNL A   1      47.615  37.221  28.441  1.00  0.00     0.124 S 
ATOM     59  O   UNL A   1      48.694  37.309  27.461  1.00  0.00    -0.237 OA
ATOM     60  O   UNL A   1      46.393  37.942  28.097  1.00  0.00    -0.237 OA
ATOM     61  O   UNL A   1      48.032  37.336  29.837  1.00  0.00    -0.744 OA
ENDBRANCH  57  58
ENDBRANCH  38  52
BRANCH  39  62
ATOM     62  C   UNL A   1      43.679  23.087  26.843  1.00  0.00    -0.014 A 
ATOM     63  C   UNL A   1      42.942  22.384  27.809  1.00  0.00     0.010 A 
ATOM     64  C   UNL A   1      43.986  22.442  25.627  1.00  0.00     0.010 A 
ATOM     65  C   UNL A   1      42.549  21.060  27.577  1.00  0.00     0.020 A 
ATOM     66  C   UNL A   1      43.555  21.140  25.369  1.00  0.00     0.020 A 
ATOM     67  C   UNL A   1      42.857  20.449  26.356  1.00  0.00     0.054 A 
BRANCH  67  68
ATOM     68  S   UNL A   1      42.325  18.739  26.075  1.00  0.00     0.124 S 
ATOM     69  O   UNL A   1      40.905  18.908  25.782  1.00  0.00    -0.237 OA
ATOM     70  O   UNL A   1      43.161  18.334  24.949  1.00  0.00    -0.237 OA
ATOM     71  O   UNL A   1      42.627  18.073  27.340  1.00  0.00    -0.744 OA
ENDBRANCH  67  68
ENDBRANCH  39  62
BRANCH  51  72
ATOM     72  C   UNL A   1      49.676  26.589  26.332  1.00  0.00    -0.014 A 
ATOM     73  C   UNL A   1      50.498  25.958  27.280  1.00  0.00     0.010 A 
ATOM     74  C   UNL A   1      50.136  26.774  25.017  1.00  0.00     0.010 A 
ATOM     75  C   UNL A   1      51.783  25.560  26.928  1.00  0.00     0.020 A 
ATOM     76  C   UNL A   1      51.398  26.326  24.646  1.00  0.00     0.020 A 
ATOM     77  C   UNL A   1      52.218  25.737  25.610  1.00  0.00     0.054 A 
BRANCH  77  78
ATOM     78  S   UNL A   1      53.870  25.150  25.167  1.00  0.00     0.124 S 
ATOM     79  O   UNL A   1      54.682  25.684  26.256  1.00  0.00    -0.237 OA
ATOM     80  O   UNL A   1      53.695  23.700  25.162  1.00  0.00    -0.237 OA
ATOM     81  O   UNL A   1      54.112  25.750  23.857  1.00  0.00    -0.744 OA
ENDBRANCH  77  78
ENDBRANCH  51  72
ENDBRANCH  25  26
ENDBRANCH  18  20
ENDBRANCH  17  18
ENDBRANCH   1  17
TORSDOF 15
ENDMDL
MODEL 2
REMARK VINA RESULT:     -10.0      2.427      9.054
REMARK SMILES C[C@@H]1CC[N@@H+]1[C@@H]1CCC[C@@H]1C(=O)OCCOC(=O)c1ccc(-c2c3nc(c(-c4ccc(S(=O)(=O)[O-])cc4)c4ccc([nH]4)c(-c4ccc(S(=O)(=O)[O-])cc4)c4nc(c(-c5ccc(S(=O)(=O)[O-])cc5)c5ccc2[nH]5)C=C4)C=C3)cc1
REMARK SMILES IDX 15 1 14 2 13 3 11 4 12 5 10 6 6 7 7 8 8 9 9 10 5 11 1 12
REMARK SMILES IDX 2 13 3 14 4 15 16 17 17 18 18 19 19 20 20 21 78 22 21 23
REMARK SMILES IDX 77 24 22 25 23 26 24 27 71 28 25 29 76 30 70 31 72 32 26 33
REMARK SMILES IDX 75 34 69 35 68 36 27 38 57 39 38 40 56 41 39 42 42 43 55 44
REMARK SMILES IDX 73 45 40 46 41 47 54 49 74 50 43 51 28 52 29 53 37 54 30 55
REMARK SMILES IDX 36 56 31 57 32 58 33 59 34 60 35 61 58 62 59 63 67 64 60 65
REMARK SMILES IDX 66 66 61 67 62 68 63 69 64 70 65 71 44 72 45 73 53 74 46 75
REMARK SMILES IDX 52 76 47 77 48 78 49 79 50 80 51 81
REMARK H PARENT 5 16 72 37 42 48
REMARK Flexibility Score: inf
ROOT
ATOM      1  C   UNL A   1      32.813  28.651  27.213  1.00  0.00     0.275 C 
ENDROOT
BRANCH   1   2
ATOM      2  C   UNL A   1      31.714  28.544  26.136  1.00  0.00     0.274 C 
BRANCH   2   3
ATOM      3  O   UNL A   1      32.292  28.674  24.829  1.00  0.00    -0.462 OA
BRANCH   3   4
ATOM      4  C   UNL A   1      32.837  27.573  24.233  1.00  0.00     0.315 C 
ATOM      5  O   UNL A   1      34.027  27.297  24.183  1.00  0.00    -0.252 OA
BRANCH   4   6
ATOM      6  C   UNL A   1      31.723  26.729  23.660  1.00  0.00     0.157 C 
ATOM      7  C   UNL A   1      31.841  25.258  24.080  1.00  0.00     0.198 C 
ATOM      8  C   UNL A   1      32.443  24.531  22.834  1.00  0.00     0.066 C 
ATOM      9  C   UNL A   1      32.451  25.511  21.675  1.00  0.00     0.007 C 
ATOM     10  C   UNL A   1      31.671  26.726  22.132  1.00  0.00     0.022 C 
BRANCH   7  11
ATOM     11  N   UNL A   1      32.244  25.120  25.529  1.00  0.00    -0.329 N 
ATOM     12  C   UNL A   1      35.034  24.126  25.170  1.00  0.00     0.075 C 
ATOM     13  C   UNL A   1      33.817  24.120  26.075  1.00  0.00     0.186 C 
ATOM     14  C   UNL A   1      32.758  22.753  27.224  1.00  0.00     0.126 C 
ATOM     15  C   UNL A   1      30.921  24.011  26.523  1.00  0.00     0.268 C 
ATOM     16  H   UNL A   1      32.367  26.115  25.711  1.00  0.00     0.348 HD
ENDBRANCH   7  11
ENDBRANCH   4   6
ENDBRANCH   3   4
ENDBRANCH   2   3
ENDBRANCH   1   2
BRANCH   1  17
ATOM     17  O   UNL A   1      33.806  29.643  26.893  1.00  0.00    -0.458 OA
BRANCH  17  18
ATOM     18  C   UNL A   1      34.387  30.365  27.889  1.00  0.00     0.338 C 
ATOM     19  O   UNL A   1      33.925  31.399  28.353  1.00  0.00    -0.246 OA
BRANCH  18  20
ATOM     20  C   UNL A   1      35.825  29.740  28.369  1.00  0.00     0.060 A 
ATOM     21  C   UNL A   1      36.748  29.321  30.211  1.00  0.00     0.016 A 
ATOM     22  C   UNL A   1      36.891  29.936  27.130  1.00  0.00     0.016 A 
ATOM     23  C   UNL A   1      38.309  29.340  30.328  1.00  0.00     0.010 A 
ATOM     24  C   UNL A   1      38.410  29.721  27.498  1.00  0.00     0.010 A 
ATOM     25  C   UNL A   1      39.070  29.451  28.996  1.00  0.00    -0.014 A 
BRANCH  25  26
ATOM     26  C   UNL A   1      40.517  29.153  29.140  1.00  0.00     0.031 A 
ATOM     27  C   UNL A   1      41.023  27.850  28.623  1.00  0.00     0.074 A 
ATOM     28  C   UNL A   1      41.338  30.106  29.649  1.00  0.00     0.049 A 
ATOM     29  N   UNL A   1      42.226  27.365  28.709  1.00  0.00    -0.248 NA
ATOM     30  C   UNL A   1      40.055  26.950  27.969  1.00  0.00     0.031 C 
ATOM     31  C   UNL A   1      40.923  31.426  30.164  1.00  0.00     0.029 A 
ATOM     32  N   UNL A   1      42.701  30.172  29.751  1.00  0.00    -0.354 N 
ATOM     33  C   UNL A   1      42.138  26.081  28.193  1.00  0.00     0.074 A 
ATOM     34  C   UNL A   1      40.761  25.839  27.844  1.00  0.00     0.031 C 
ATOM     35  C   UNL A   1      41.986  32.209  30.353  1.00  0.00     0.029 A 
ATOM     36  C   UNL A   1      43.165  31.393  30.196  1.00  0.00     0.049 A 
ATOM     37  H   UNL A   1      43.295  29.419  29.528  1.00  0.00     0.167 HD
ATOM     38  C   UNL A   1      43.141  25.199  28.020  1.00  0.00     0.031 A 
ATOM     39  C   UNL A   1      44.403  31.801  30.518  1.00  0.00     0.031 A 
ATOM     40  C   UNL A   1      44.502  25.516  28.346  1.00  0.00     0.049 A 
ATOM     41  C   UNL A   1      45.478  30.780  30.368  1.00  0.00     0.074 A 
ATOM     42  C   UNL A   1      45.622  24.724  28.212  1.00  0.00     0.029 A 
ATOM     43  N   UNL A   1      44.919  26.736  28.868  1.00  0.00    -0.354 N 
ATOM     44  N   UNL A   1      45.376  29.561  29.891  1.00  0.00    -0.248 NA
ATOM     45  C   UNL A   1      46.819  31.165  30.805  1.00  0.00     0.031 C 
ATOM     46  C   UNL A   1      46.704  25.432  28.739  1.00  0.00     0.029 A 
ATOM     47  C   UNL A   1      46.279  26.703  29.106  1.00  0.00     0.049 A 
ATOM     48  H   UNL A   1      44.333  27.507  29.043  1.00  0.00     0.167 HD
ATOM     49  C   UNL A   1      46.649  29.029  29.960  1.00  0.00     0.074 A 
ATOM     50  C   UNL A   1      47.506  30.079  30.483  1.00  0.00     0.031 C 
ATOM     51  C   UNL A   1      47.073  27.784  29.633  1.00  0.00     0.031 A 
BRANCH  38  52
ATOM     52  C   UNL A   1      42.787  23.827  27.526  1.00  0.00    -0.014 A 
ATOM     53  C   UNL A   1      42.835  23.485  26.162  1.00  0.00     0.010 A 
ATOM     54  C   UNL A   1      42.412  22.851  28.465  1.00  0.00     0.010 A 
ATOM     55  C   UNL A   1      42.507  22.193  25.748  1.00  0.00     0.020 A 
ATOM     56  C   UNL A   1      42.122  21.547  28.060  1.00  0.00     0.020 A 
ATOM     57  C   UNL A   1      42.172  21.228  26.702  1.00  0.00     0.054 A 
BRANCH  57  58
ATOM     58  S   UNL A   1      41.860  19.533  26.146  1.00  0.00     0.124 S 
ATOM     59  O   UNL A   1      40.436  19.575  25.826  1.00  0.00    -0.237 OA
ATOM     60  O   UNL A   1      42.759  19.410  25.002  1.00  0.00    -0.237 OA
ATOM     61  O   UNL A   1      42.214  18.716  27.304  1.00  0.00    -0.744 OA
ENDBRANCH  57  58
ENDBRANCH  38  52
BRANCH  39  62
ATOM     62  C   UNL A   1      44.640  33.156  31.093  1.00  0.00    -0.014 A 
ATOM     63  C   UNL A   1      44.596  33.380  32.478  1.00  0.00     0.010 A 
ATOM     64  C   UNL A   1      44.935  34.242  30.242  1.00  0.00     0.010 A 
ATOM     65  C   UNL A   1      44.810  34.662  32.997  1.00  0.00     0.020 A 
ATOM     66  C   UNL A   1      45.199  35.513  30.757  1.00  0.00     0.020 A 
ATOM     67  C   UNL A   1      45.113  35.719  32.131  1.00  0.00     0.054 A 
BRANCH  67  68
ATOM     68  S   UNL A   1      45.400  37.368  32.830  1.00  0.00     0.124 S 
ATOM     69  O   UNL A   1      44.376  38.162  32.159  1.00  0.00    -0.237 OA
ATOM     70  O   UNL A   1      45.194  37.141  34.257  1.00  0.00    -0.237 OA
ATOM     71  O   UNL A   1      46.777  37.669  32.445  1.00  0.00    -0.744 OA
ENDBRANCH  67  68
ENDBRANCH  39  62
BRANCH  51  72
ATOM     72  C   UNL A   1      48.538  27.532  29.799  1.00  0.00    -0.014 A 
ATOM     73  C   UNL A   1      49.055  27.021  31.001  1.00  0.00     0.010 A 
ATOM     74  C   UNL A   1      49.396  27.779  28.714  1.00  0.00     0.010 A 
ATOM     75  C   UNL A   1      50.423  26.804  31.129  1.00  0.00     0.020 A 
ATOM     76  C   UNL A   1      50.756  27.509  28.821  1.00  0.00     0.020 A 
ATOM     77  C   UNL A   1      51.261  27.039  30.034  1.00  0.00     0.054 A 
BRANCH  77  78
ATOM     78  S   UNL A   1      53.024  26.685  30.212  1.00  0.00     0.124 S 
ATOM     79  O   UNL A   1      53.528  27.936  30.772  1.00  0.00    -0.237 OA
ATOM     80  O   UNL A   1      53.024  25.542  31.122  1.00  0.00    -0.237 OA
ATOM     81  O   UNL A   1      53.460  26.393  28.849  1.00  0.00    -0.744 OA
ENDBRANCH  77  78
ENDBRANCH  51  72
ENDBRANCH  25  26
ENDBRANCH  18  20
ENDBRANCH  17  18
ENDBRANCH   1  17
TORSDOF 15
ENDMDL
MODEL 3
REMARK VINA RESULT:     -10.0      7.001     12.636
REMARK SMILES C[C@@H]1CC[N@@H+]1[C@@H]1CCC[C@@H]1C(=O)OCCOC(=O)c1ccc(-c2c3nc(c(-c4ccc(S(=O)(=O)[O-])cc4)c4ccc([nH]4)c(-c4ccc(S(=O)(=O)[O-])cc4)c4nc(c(-c5ccc(S(=O)(=O)[O-])cc5)c5ccc2[nH]5)C=C4)C=C3)cc1
REMARK SMILES IDX 15 1 14 2 13 3 11 4 12 5 10 6 6 7 7 8 8 9 9 10 5 11 1 12
REMARK SMILES IDX 2 13 3 14 4 15 16 17 17 18 18 19 19 20 20 21 78 22 21 23
REMARK SMILES IDX 77 24 22 25 23 26 24 27 71 28 25 29 76 30 70 31 72 32 26 33
REMARK SMILES IDX 75 34 69 35 68 36 27 38 57 39 38 40 56 41 39 42 42 43 55 44
REMARK SMILES IDX 73 45 40 46 41 47 54 49 74 50 43 51 28 52 29 53 37 54 30 55
REMARK SMILES IDX 36 56 31 57 32 58 33 59 34 60 35 61 58 62 59 63 67 64 60 65
REMARK SMILES IDX 66 66 61 67 62 68 63 69 64 70 65 71 44 72 45 73 53 74 46 75
REMARK SMILES IDX 52 76 47 77 48 78 49 79 50 80 51 81
REMARK H PARENT 5 16 72 37 42 48
REMARK Flexibility Score: inf
ROOT
ATOM      1  C   UNL A   1      38.148  22.819  25.775  1.00  0.00     0.275 C 
ENDROOT
BRANCH   1   2
ATOM      2  C   UNL A   1      36.988  22.793  24.759  1.00  0.00     0.274 C 
BRANCH   2   3
ATOM      3  O   UNL A   1      36.041  23.826  25.067  1.00  0.00    -0.462 OA
BRANCH   3   4
ATOM      4  C   UNL A   1      34.749  23.479  25.342  1.00  0.00     0.315 C 
ATOM      5  O   UNL A   1      34.266  23.329  26.455  1.00  0.00    -0.252 OA
BRANCH   4   6
ATOM      6  C   UNL A   1      33.997  23.331  24.040  1.00  0.00     0.157 C 
ATOM      7  C   UNL A   1      32.704  24.156  24.025  1.00  0.00     0.198 C 
ATOM      8  C   UNL A   1      31.564  23.121  24.296  1.00  0.00     0.066 C 
ATOM      9  C   UNL A   1      32.168  21.729  24.237  1.00  0.00     0.007 C 
ATOM     10  C   UNL A   1      33.583  21.893  23.724  1.00  0.00     0.022 C 
BRANCH   7  11
ATOM     11  N   UNL A   1      32.900  25.517  24.651  1.00  0.00    -0.329 N 
ATOM     12  C   UNL A   1      30.222  25.865  25.918  1.00  0.00     0.075 C 
ATOM     13  C   UNL A   1      31.412  26.578  25.306  1.00  0.00     0.186 C 
ATOM     14  C   UNL A   1      31.760  28.169  24.017  1.00  0.00     0.126 C 
ATOM     15  C   UNL A   1      33.528  26.829  23.291  1.00  0.00     0.268 C 
ATOM     16  H   UNL A   1      33.490  25.206  25.422  1.00  0.00     0.348 HD
ENDBRANCH   7  11
ENDBRANCH   4   6
ENDBRANCH   3   4
ENDBRANCH   2   3
ENDBRANCH   1   2
BRANCH   1  17
ATOM     17  O   UNL A   1      38.783  24.108  25.857  1.00  0.00    -0.458 OA
BRANCH  17  18
ATOM     18  C   UNL A   1      39.957  24.244  26.531  1.00  0.00     0.338 C 
ATOM     19  O   UNL A   1      40.849  23.407  26.540  1.00  0.00    -0.246 OA
BRANCH  18  20
ATOM     20  C   UNL A   1      40.033  25.636  27.396  1.00  0.00     0.060 A 
ATOM     21  C   UNL A   1      41.433  27.184  27.640  1.00  0.00     0.016 A 
ATOM     22  C   UNL A   1      38.982  25.495  28.656  1.00  0.00     0.016 A 
ATOM     23  C   UNL A   1      41.480  27.995  28.979  1.00  0.00     0.010 A 
ATOM     24  C   UNL A   1      39.145  26.568  29.801  1.00  0.00     0.010 A 
ATOM     25  C   UNL A   1      40.320  27.730  29.953  1.00  0.00    -0.014 A 
BRANCH  25  26
ATOM     26  C   UNL A   1      40.249  28.735  31.042  1.00  0.00     0.031 A 
ATOM     27  C   UNL A   1      41.257  28.662  32.137  1.00  0.00     0.074 A 
ATOM     28  C   UNL A   1      39.335  29.735  30.956  1.00  0.00     0.049 A 
ATOM     29  N   UNL A   1      41.333  29.391  33.210  1.00  0.00    -0.248 NA
ATOM     30  C   UNL A   1      42.285  27.608  32.051  1.00  0.00     0.031 C 
ATOM     31  C   UNL A   1      38.317  29.893  29.900  1.00  0.00     0.029 A 
ATOM     32  N   UNL A   1      39.147  30.862  31.710  1.00  0.00    -0.354 N 
ATOM     33  C   UNL A   1      42.361  28.837  33.956  1.00  0.00     0.074 A 
ATOM     34  C   UNL A   1      42.848  27.682  33.245  1.00  0.00     0.031 C 
ATOM     35  C   UNL A   1      37.753  31.100  29.972  1.00  0.00     0.029 A 
ATOM     36  C   UNL A   1      38.191  31.716  31.200  1.00  0.00     0.049 A 
ATOM     37  H   UNL A   1      39.648  31.046  32.538  1.00  0.00     0.167 HD
ATOM     38  C   UNL A   1      42.852  29.281  35.129  1.00  0.00     0.031 A 
ATOM     39  C   UNL A   1      37.663  32.845  31.697  1.00  0.00     0.031 A 
ATOM     40  C   UNL A   1      42.354  30.465  35.766  1.00  0.00     0.049 A 
ATOM     41  C   UNL A   1      38.190  33.275  33.024  1.00  0.00     0.074 A 
ATOM     42  C   UNL A   1      42.765  31.040  36.950  1.00  0.00     0.029 A 
ATOM     43  N   UNL A   1      41.332  31.259  35.256  1.00  0.00    -0.354 N 
ATOM     44  N   UNL A   1      39.156  32.729  33.726  1.00  0.00    -0.248 NA
ATOM     45  C   UNL A   1      37.563  34.445  33.635  1.00  0.00     0.031 C 
ATOM     46  C   UNL A   1      41.929  32.129  37.203  1.00  0.00     0.029 A 
ATOM     47  C   UNL A   1      41.065  32.296  36.127  1.00  0.00     0.049 A 
ATOM     48  H   UNL A   1      40.866  31.104  34.403  1.00  0.00     0.167 HD
ATOM     49  C   UNL A   1      39.264  33.498  34.868  1.00  0.00     0.074 A 
ATOM     50  C   UNL A   1      38.293  34.571  34.734  1.00  0.00     0.031 C 
ATOM     51  C   UNL A   1      40.080  33.331  35.936  1.00  0.00     0.031 A 
BRANCH  38  52
ATOM     52  C   UNL A   1      43.913  28.457  35.799  1.00  0.00    -0.014 A 
ATOM     53  C   UNL A   1      45.284  28.738  35.654  1.00  0.00     0.010 A 
ATOM     54  C   UNL A   1      43.515  27.380  36.610  1.00  0.00     0.010 A 
ATOM     55  C   UNL A   1      46.236  27.951  36.304  1.00  0.00     0.020 A 
ATOM     56  C   UNL A   1      44.461  26.616  37.294  1.00  0.00     0.020 A 
ATOM     57  C   UNL A   1      45.817  26.908  37.135  1.00  0.00     0.054 A 
BRANCH  57  58
ATOM     58  S   UNL A   1      47.069  25.976  38.052  1.00  0.00     0.124 S 
ATOM     59  O   UNL A   1      46.315  24.806  38.495  1.00  0.00    -0.237 OA
ATOM     60  O   UNL A   1      48.081  25.722  37.030  1.00  0.00    -0.237 OA
ATOM     61  O   UNL A   1      47.477  26.892  39.115  1.00  0.00    -0.744 OA
ENDBRANCH  57  58
ENDBRANCH  38  52
BRANCH  39  62
ATOM     62  C   UNL A   1      36.543  33.542  31.002  1.00  0.00    -0.014 A 
ATOM     63  C   UNL A   1      36.690  34.037  29.696  1.00  0.00     0.010 A 
ATOM     64  C   UNL A   1      35.298  33.699  31.647  1.00  0.00     0.010 A 
ATOM     65  C   UNL A   1      35.630  34.700  29.065  1.00  0.00     0.020 A 
ATOM     66  C   UNL A   1      34.222  34.313  31.004  1.00  0.00     0.020 A 
ATOM     67  C   UNL A   1      34.403  34.830  29.723  1.00  0.00     0.054 A 
BRANCH  67  68
ATOM     68  S   UNL A   1      33.042  35.679  28.878  1.00  0.00     0.124 S 
ATOM     69  O   UNL A   1      32.515  34.624  28.019  1.00  0.00    -0.237 OA
ATOM     70  O   UNL A   1      32.185  36.078  29.991  1.00  0.00    -0.237 OA
ATOM     71  O   UNL A   1      33.703  36.780  28.182  1.00  0.00    -0.744 OA
ENDBRANCH  67  68
ENDBRANCH  39  62
BRANCH  51  72
ATOM     72  C   UNL A   1      39.968  34.369  37.008  1.00  0.00    -0.014 A 
ATOM     73  C   UNL A   1      40.690  35.572  36.933  1.00  0.00     0.010 A 
ATOM     74  C   UNL A   1      39.093  34.141  38.083  1.00  0.00     0.010 A 
ATOM     75  C   UNL A   1      40.571  36.515  37.948  1.00  0.00     0.020 A 
ATOM     76  C   UNL A   1      38.930  35.106  39.070  1.00  0.00     0.020 A 
ATOM     77  C   UNL A   1      39.683  36.279  39.003  1.00  0.00     0.054 A 
BRANCH  77  78
ATOM     78  S   UNL A   1      39.504  37.553  40.273  1.00  0.00     0.124 S 
ATOM     79  O   UNL A   1      38.995  36.782  41.404  1.00  0.00    -0.237 OA
ATOM     80  O   UNL A   1      40.870  38.050  40.413  1.00  0.00    -0.237 OA
ATOM     81  O   UNL A   1      38.556  38.497  39.686  1.00  0.00    -0.744 OA
ENDBRANCH  77  78
ENDBRANCH  51  72
ENDBRANCH  25  26
ENDBRANCH  18  20
ENDBRANCH  17  18
ENDBRANCH   1  17
TORSDOF 15
ENDMDL
