MODEL 1
REMARK VINA RESULT:     -11.5      0.000      0.000
REMARK SMILES O=C(OCCOC(=O)c1ccc(-c2c3nc(c(-c4ccc(S(=O)(=O)[O-])cc4)c4ccc([nH]4)c(-c4ccc(S(=O)(=O)[O-])cc4)c4nc(c(-c5ccc(S(=O)(=O)[O-])cc5)c5ccc2[nH]5)C=C4)C=C3)cc1)C1=Cc2c(ccc(Cl)c2Oc2ccccc2)O[C@H]1C(F)(F)F
REMARK SMILES IDX 5 1 4 2 3 3 2 4 1 5 69 6 70 7 86 8 71 9 85 10 72 11 77 12
REMARK SMILES IDX 73 13 75 14 74 15 76 16 87 17 88 18 89 19 90 20 78 21 79 22
REMARK SMILES IDX 80 23 84 24 81 25 83 26 82 27 6 28 7 29 8 30 9 31 10 32
REMARK SMILES IDX 68 33 11 34 67 35 12 36 13 37 14 38 61 39 15 40 66 41 60 42
REMARK SMILES IDX 62 43 16 44 65 45 59 46 58 47 17 49 47 50 28 51 46 52 29 53
REMARK SMILES IDX 32 54 45 55 63 56 30 57 31 58 44 60 64 61 33 62 18 63 19 64
REMARK SMILES IDX 27 65 20 66 26 67 21 68 22 69 23 70 24 71 25 72 48 73 49 74
REMARK SMILES IDX 57 75 50 76 56 77 51 78 52 79 53 80 54 81 55 82 34 83 35 84
REMARK SMILES IDX 43 85 36 86 42 87 37 88 38 89 39 90 40 91 41 92
REMARK H PARENT 62 48 32 59
REMARK Flexibility Score: inf
ROOT
ATOM      1  C   UNL A   1      33.289  28.526  26.462  1.00  0.00     0.275 C 
ENDROOT
BRANCH   1   2
ATOM      2  C   UNL A   1      32.483  27.217  26.503  1.00  0.00     0.275 C 
BRANCH   2   3
ATOM      3  O   UNL A   1      33.246  26.038  26.234  1.00  0.00    -0.459 OA
BRANCH   3   4
ATOM      4  C   UNL A   1      32.584  24.910  25.919  1.00  0.00     0.338 C 
ATOM      5  O   UNL A   1      31.941  24.279  26.746  1.00  0.00    -0.246 OA
BRANCH   4   6
ATOM      6  C   UNL A   1      32.845  24.386  24.568  1.00  0.00     0.088 C 
ATOM      7  C   UNL A   1      33.003  23.095  24.226  1.00  0.00     0.031 C 
ATOM      8  C   UNL A   1      33.408  25.365  23.599  1.00  0.00     0.316 C 
ATOM      9  C   UNL A   1      34.421  22.690  24.338  1.00  0.00     0.062 A 
ATOM     10  O   UNL A   1      34.570  24.744  22.915  1.00  0.00    -0.475 OA
ATOM     11  C   UNL A   1      35.156  23.622  23.530  1.00  0.00     0.131 A 
ATOM     12  C   UNL A   1      35.010  21.495  24.944  1.00  0.00     0.156 A 
ATOM     13  C   UNL A   1      36.455  23.318  23.189  1.00  0.00     0.049 A 
ATOM     14  C   UNL A   1      36.344  21.272  24.574  1.00  0.00     0.084 A 
ATOM     15  C   UNL A   1      37.035  22.149  23.700  1.00  0.00     0.028 A 
ATOM     16  Cl  UNL A   1      37.166  19.811  25.019  1.00  0.00    -0.080 Cl
BRANCH   8  17
ATOM     17  C   UNL A   1      32.224  25.795  22.696  1.00  0.00     0.430 C 
ATOM     18  F   UNL A   1      32.323  25.242  21.456  1.00  0.00    -0.167 F 
ATOM     19  F   UNL A   1      31.027  25.420  23.192  1.00  0.00    -0.167 F 
ATOM     20  F   UNL A   1      32.199  27.137  22.514  1.00  0.00    -0.167 F 
ENDBRANCH   8  17
BRANCH  12  21
ATOM     21  O   UNL A   1      34.335  20.317  25.358  1.00  0.00    -0.455 OA
BRANCH  21  22
ATOM     22  C   UNL A   1      33.596  19.331  24.666  1.00  0.00     0.127 A 
ATOM     23  C   UNL A   1      32.488  19.444  23.816  1.00  0.00     0.047 A 
ATOM     24  C   UNL A   1      34.302  18.090  24.620  1.00  0.00     0.047 A 
ATOM     25  C   UNL A   1      32.284  18.477  22.774  1.00  0.00     0.004 A 
ATOM     26  C   UNL A   1      34.117  17.152  23.572  1.00  0.00     0.004 A 
ATOM     27  C   UNL A   1      33.142  17.381  22.608  1.00  0.00     0.000 A 
ENDBRANCH  21  22
ENDBRANCH  12  21
ENDBRANCH   4   6
ENDBRANCH   3   4
ENDBRANCH   2   3
ENDBRANCH   1   2
BRANCH   1  28
ATOM     28  O   UNL A   1      34.430  28.484  27.219  1.00  0.00    -0.458 OA
BRANCH  28  29
ATOM     29  C   UNL A   1      34.666  29.723  27.651  1.00  0.00     0.338 C 
ATOM     30  O   UNL A   1      33.913  30.659  27.902  1.00  0.00    -0.246 OA
BRANCH  29  31
ATOM     31  C   UNL A   1      35.987  29.555  28.095  1.00  0.00     0.060 A 
ATOM     32  C   UNL A   1      36.924  29.833  27.113  1.00  0.00     0.016 A 
ATOM     33  C   UNL A   1      36.219  29.355  29.470  1.00  0.00     0.016 A 
ATOM     34  C   UNL A   1      38.208  29.778  27.508  1.00  0.00     0.010 A 
ATOM     35  C   UNL A   1      37.502  29.400  29.883  1.00  0.00     0.010 A 
ATOM     36  C   UNL A   1      38.451  29.550  28.873  1.00  0.00    -0.014 A 
BRANCH  36  37
ATOM     37  C   UNL A   1      39.814  29.316  29.210  1.00  0.00     0.031 A 
ATOM     38  C   UNL A   1      40.345  28.003  28.796  1.00  0.00     0.074 A 
ATOM     39  C   UNL A   1      40.420  30.380  29.737  1.00  0.00     0.049 A 
ATOM     40  N   UNL A   1      41.555  27.569  28.921  1.00  0.00    -0.248 NA
ATOM     41  C   UNL A   1      39.411  27.043  28.158  1.00  0.00     0.031 C 
ATOM     42  C   UNL A   1      39.773  31.668  30.049  1.00  0.00     0.029 A 
ATOM     43  N   UNL A   1      41.713  30.559  30.055  1.00  0.00    -0.354 N 
ATOM     44  C   UNL A   1      41.529  26.287  28.405  1.00  0.00     0.074 A 
ATOM     45  C   UNL A   1      40.188  25.988  27.978  1.00  0.00     0.031 C 
ATOM     46  C   UNL A   1      40.705  32.518  30.499  1.00  0.00     0.029 A 
ATOM     47  C   UNL A   1      41.965  31.800  30.568  1.00  0.00     0.049 A 
ATOM     48  H   UNL A   1      42.406  29.870  29.932  1.00  0.00     0.167 HD
ATOM     49  C   UNL A   1      42.584  25.461  28.324  1.00  0.00     0.031 A 
ATOM     50  C   UNL A   1      43.117  32.243  31.079  1.00  0.00     0.031 A 
ATOM     51  C   UNL A   1      43.872  25.878  28.794  1.00  0.00     0.049 A 
ATOM     52  C   UNL A   1      44.252  31.265  31.022  1.00  0.00     0.074 A 
ATOM     53  C   UNL A   1      45.058  25.182  28.801  1.00  0.00     0.029 A 
ATOM     54  N   UNL A   1      44.122  27.130  29.357  1.00  0.00    -0.354 N 
ATOM     55  N   UNL A   1      44.261  30.051  30.506  1.00  0.00    -0.248 NA
ATOM     56  C   UNL A   1      45.518  31.692  31.604  1.00  0.00     0.031 C 
ATOM     57  C   UNL A   1      46.010  25.991  29.430  1.00  0.00     0.029 A 
ATOM     58  C   UNL A   1      45.436  27.217  29.754  1.00  0.00     0.049 A 
ATOM     59  H   UNL A   1      43.455  27.847  29.456  1.00  0.00     0.167 HD
ATOM     60  C   UNL A   1      45.538  29.565  30.696  1.00  0.00     0.074 A 
ATOM     61  C   UNL A   1      46.281  30.639  31.341  1.00  0.00     0.031 C 
ATOM     62  C   UNL A   1      46.066  28.352  30.388  1.00  0.00     0.031 A 
BRANCH  49  63
ATOM     63  C   UNL A   1      42.351  24.081  27.799  1.00  0.00    -0.014 A 
ATOM     64  C   UNL A   1      42.493  23.775  26.434  1.00  0.00     0.010 A 
ATOM     65  C   UNL A   1      41.980  23.067  28.698  1.00  0.00     0.010 A 
ATOM     66  C   UNL A   1      42.284  22.471  25.980  1.00  0.00     0.020 A 
ATOM     67  C   UNL A   1      41.792  21.758  28.252  1.00  0.00     0.020 A 
ATOM     68  C   UNL A   1      41.950  21.468  26.896  1.00  0.00     0.054 A 
BRANCH  68  69
ATOM     69  S   UNL A   1      41.793  19.764  26.297  1.00  0.00     0.124 S 
ATOM     70  O   UNL A   1      40.365  19.676  26.000  1.00  0.00    -0.237 OA
ATOM     71  O   UNL A   1      42.677  19.755  25.135  1.00  0.00    -0.237 OA
ATOM     72  O   UNL A   1      42.243  18.955  27.427  1.00  0.00    -0.744 OA
ENDBRANCH  68  69
ENDBRANCH  49  63
BRANCH  50  73
ATOM     73  C   UNL A   1      43.183  33.574  31.715  1.00  0.00    -0.014 A 
ATOM     74  C   UNL A   1      43.456  34.722  30.961  1.00  0.00     0.010 A 
ATOM     75  C   UNL A   1      42.942  33.701  33.099  1.00  0.00     0.010 A 
ATOM     76  C   UNL A   1      43.553  35.967  31.587  1.00  0.00     0.020 A 
ATOM     77  C   UNL A   1      43.002  34.947  33.723  1.00  0.00     0.020 A 
ATOM     78  C   UNL A   1      43.340  36.068  32.967  1.00  0.00     0.054 A 
BRANCH  78  79
ATOM     79  S   UNL A   1      43.525  37.685  33.762  1.00  0.00     0.124 S 
ATOM     80  O   UNL A   1      44.607  37.430  34.706  1.00  0.00    -0.237 OA
ATOM     81  O   UNL A   1      43.856  38.553  32.636  1.00  0.00    -0.237 OA
ATOM     82  O   UNL A   1      42.214  37.925  34.362  1.00  0.00    -0.744 OA
ENDBRANCH  78  79
ENDBRANCH  50  73
BRANCH  62  83
ATOM     83  C   UNL A   1      47.504  28.174  30.748  1.00  0.00    -0.014 A 
ATOM     84  C   UNL A   1      47.863  27.678  32.012  1.00  0.00     0.010 A 
ATOM     85  C   UNL A   1      48.486  28.426  29.777  1.00  0.00     0.010 A 
ATOM     86  C   UNL A   1      49.202  27.457  32.308  1.00  0.00     0.020 A 
ATOM     87  C   UNL A   1      49.822  28.165  30.058  1.00  0.00     0.020 A 
ATOM     88  C   UNL A   1      50.171  27.693  31.326  1.00  0.00     0.054 A 
BRANCH  88  89
ATOM     89  S   UNL A   1      51.896  27.317  31.714  1.00  0.00     0.124 S 
ATOM     90  O   UNL A   1      51.879  25.857  31.771  1.00  0.00    -0.237 OA
ATOM     91  O   UNL A   1      52.610  27.897  30.580  1.00  0.00    -0.237 OA
ATOM     92  O   UNL A   1      52.117  27.988  32.993  1.00  0.00    -0.744 OA
ENDBRANCH  88  89
ENDBRANCH  62  83
ENDBRANCH  36  37
ENDBRANCH  29  31
ENDBRANCH  28  29
ENDBRANCH   1  28
TORSDOF 17
ENDMDL
MODEL 2
REMARK VINA RESULT:     -11.4      3.108      8.010
REMARK SMILES O=C(OCCOC(=O)c1ccc(-c2c3nc(c(-c4ccc(S(=O)(=O)[O-])cc4)c4ccc([nH]4)c(-c4ccc(S(=O)(=O)[O-])cc4)c4nc(c(-c5ccc(S(=O)(=O)[O-])cc5)c5ccc2[nH]5)C=C4)C=C3)cc1)C1=Cc2c(ccc(Cl)c2Oc2ccccc2)O[C@H]1C(F)(F)F
REMARK SMILES IDX 5 1 4 2 3 3 2 4 1 5 69 6 70 7 86 8 71 9 85 10 72 11 77 12
REMARK SMILES IDX 73 13 75 14 74 15 76 16 87 17 88 18 89 19 90 20 78 21 79 22
REMARK SMILES IDX 80 23 84 24 81 25 83 26 82 27 6 28 7 29 8 30 9 31 10 32
REMARK SMILES IDX 68 33 11 34 67 35 12 36 13 37 14 38 61 39 15 40 66 41 60 42
REMARK SMILES IDX 62 43 16 44 65 45 59 46 58 47 17 49 47 50 28 51 46 52 29 53
REMARK SMILES IDX 32 54 45 55 63 56 30 57 31 58 44 60 64 61 33 62 18 63 19 64
REMARK SMILES IDX 27 65 20 66 26 67 21 68 22 69 23 70 24 71 25 72 48 73 49 74
REMARK SMILES IDX 57 75 50 76 56 77 51 78 52 79 53 80 54 81 55 82 34 83 35 84
REMARK SMILES IDX 43 85 36 86 42 87 37 88 38 89 39 90 40 91 41 92
REMARK H PARENT 62 48 32 59
REMARK Flexibility Score: inf
ROOT
ATOM      1  C   UNL A   1      36.953  23.600  24.560  1.00  0.00     0.275 C 
ENDROOT
BRANCH   1   2
ATOM      2  C   UNL A   1      35.451  23.560  24.232  1.00  0.00     0.275 C 
BRANCH   2   3
ATOM      3  O   UNL A   1      34.772  24.807  24.394  1.00  0.00    -0.459 OA
BRANCH   3   4
ATOM      4  C   UNL A   1      33.684  25.042  23.639  1.00  0.00     0.338 C 
ATOM      5  O   UNL A   1      33.763  25.322  22.451  1.00  0.00    -0.246 OA
BRANCH   4   6
ATOM      6  C   UNL A   1      32.413  25.129  24.378  1.00  0.00     0.088 C 
ATOM      7  C   UNL A   1      31.479  26.089  24.255  1.00  0.00     0.031 C 
ATOM      8  C   UNL A   1      32.359  24.360  25.650  1.00  0.00     0.316 C 
ATOM      9  C   UNL A   1      31.753  27.212  25.177  1.00  0.00     0.062 A 
ATOM     10  O   UNL A   1      31.817  25.240  26.716  1.00  0.00    -0.475 OA
ATOM     11  C   UNL A   1      31.849  26.628  26.485  1.00  0.00     0.131 A 
ATOM     12  C   UNL A   1      31.739  28.654  24.928  1.00  0.00     0.156 A 
ATOM     13  C   UNL A   1      31.790  27.456  27.584  1.00  0.00     0.049 A 
ATOM     14  C   UNL A   1      31.712  29.430  26.096  1.00  0.00     0.084 A 
ATOM     15  C   UNL A   1      31.713  28.841  27.385  1.00  0.00     0.028 A 
ATOM     16  Cl  UNL A   1      31.492  31.149  26.027  1.00  0.00    -0.080 Cl
BRANCH   8  17
ATOM     17  C   UNL A   1      31.547  23.078  25.334  1.00  0.00     0.430 C 
ATOM     18  F   UNL A   1      30.847  22.656  26.423  1.00  0.00    -0.167 F 
ATOM     19  F   UNL A   1      30.650  23.259  24.344  1.00  0.00    -0.167 F 
ATOM     20  F   UNL A   1      32.357  22.051  24.981  1.00  0.00    -0.167 F 
ENDBRANCH   8  17
BRANCH  12  21
ATOM     21  O   UNL A   1      31.217  29.328  23.792  1.00  0.00    -0.455 OA
BRANCH  21  22
ATOM     22  C   UNL A   1      29.923  29.422  23.232  1.00  0.00     0.127 A 
ATOM     23  C   UNL A   1      28.949  28.441  23.003  1.00  0.00     0.047 A 
ATOM     24  C   UNL A   1      29.475  30.778  23.187  1.00  0.00     0.047 A 
ATOM     25  C   UNL A   1      27.557  28.796  23.020  1.00  0.00     0.004 A 
ATOM     26  C   UNL A   1      28.099  31.123  23.233  1.00  0.00     0.004 A 
ATOM     27  C   UNL A   1      27.138  30.119  23.212  1.00  0.00     0.000 A 
ENDBRANCH  21  22
ENDBRANCH  12  21
ENDBRANCH   4   6
ENDBRANCH   3   4
ENDBRANCH   2   3
ENDBRANCH   1   2
BRANCH   1  28
ATOM     28  O   UNL A   1      37.222  24.081  25.814  1.00  0.00    -0.458 OA
BRANCH  28  29
ATOM     29  C   UNL A   1      38.351  23.507  26.227  1.00  0.00     0.338 C 
ATOM     30  O   UNL A   1      38.900  22.458  25.905  1.00  0.00    -0.246 OA
BRANCH  29  31
ATOM     31  C   UNL A   1      38.938  24.607  26.873  1.00  0.00     0.060 A 
ATOM     32  C   UNL A   1      38.669  24.640  28.232  1.00  0.00     0.016 A 
ATOM     33  C   UNL A   1      39.868  25.391  26.162  1.00  0.00     0.016 A 
ATOM     34  C   UNL A   1      39.280  25.622  28.916  1.00  0.00     0.010 A 
ATOM     35  C   UNL A   1      40.556  26.309  26.872  1.00  0.00     0.010 A 
ATOM     36  C   UNL A   1      40.189  26.428  28.211  1.00  0.00    -0.014 A 
BRANCH  36  37
ATOM     37  C   UNL A   1      40.668  27.562  28.927  1.00  0.00     0.031 A 
ATOM     38  C   UNL A   1      42.059  27.454  29.410  1.00  0.00     0.074 A 
ATOM     39  C   UNL A   1      39.815  28.585  28.933  1.00  0.00     0.049 A 
ATOM     40  N   UNL A   1      42.750  28.355  30.024  1.00  0.00    -0.248 NA
ATOM     41  C   UNL A   1      42.780  26.177  29.183  1.00  0.00     0.031 C 
ATOM     42  C   UNL A   1      38.459  28.575  28.353  1.00  0.00     0.029 A 
ATOM     43  N   UNL A   1      39.980  29.835  29.398  1.00  0.00    -0.354 N 
ATOM     44  C   UNL A   1      43.970  27.758  30.278  1.00  0.00     0.074 A 
ATOM     45  C   UNL A   1      43.938  26.410  29.777  1.00  0.00     0.031 C 
ATOM     46  C   UNL A   1      37.927  29.796  28.485  1.00  0.00     0.029 A 
ATOM     47  C   UNL A   1      38.875  30.618  29.216  1.00  0.00     0.049 A 
ATOM     48  H   UNL A   1      40.808  30.154  29.825  1.00  0.00     0.167 HD
ATOM     49  C   UNL A   1      45.008  28.344  30.896  1.00  0.00     0.031 A 
ATOM     50  C   UNL A   1      38.685  31.861  29.666  1.00  0.00     0.031 A 
ATOM     51  C   UNL A   1      44.910  29.698  31.358  1.00  0.00     0.049 A 
ATOM     52  C   UNL A   1      39.848  32.453  30.403  1.00  0.00     0.074 A 
ATOM     53  C   UNL A   1      45.851  30.460  32.009  1.00  0.00     0.029 A 
ATOM     54  N   UNL A   1      43.767  30.485  31.210  1.00  0.00    -0.354 N 
ATOM     55  N   UNL A   1      41.032  31.916  30.629  1.00  0.00    -0.248 NA
ATOM     56  C   UNL A   1      39.670  33.793  30.944  1.00  0.00     0.031 C 
ATOM     57  C   UNL A   1      45.252  31.687  32.314  1.00  0.00     0.029 A 
ATOM     58  C   UNL A   1      43.961  31.715  31.793  1.00  0.00     0.049 A 
ATOM     59  H   UNL A   1      42.942  30.200  30.755  1.00  0.00     0.167 HD
ATOM     60  C   UNL A   1      41.748  32.858  31.339  1.00  0.00     0.074 A 
ATOM     61  C   UNL A   1      40.870  34.013  31.467  1.00  0.00     0.031 C 
ATOM     62  C   UNL A   1      43.003  32.795  31.855  1.00  0.00     0.031 A 
BRANCH  49  63
ATOM     63  C   UNL A   1      46.227  27.517  31.147  1.00  0.00    -0.014 A 
ATOM     64  C   UNL A   1      47.308  27.501  30.246  1.00  0.00     0.010 A 
ATOM     65  C   UNL A   1      46.291  26.738  32.314  1.00  0.00     0.010 A 
ATOM     66  C   UNL A   1      48.440  26.730  30.521  1.00  0.00     0.020 A 
ATOM     67  C   UNL A   1      47.429  25.984  32.602  1.00  0.00     0.020 A 
ATOM     68  C   UNL A   1      48.499  25.989  31.705  1.00  0.00     0.054 A 
BRANCH  68  69
ATOM     69  S   UNL A   1      50.023  25.085  32.088  1.00  0.00     0.124 S 
ATOM     70  O   UNL A   1      50.340  24.465  30.804  1.00  0.00    -0.237 OA
ATOM     71  O   UNL A   1      50.926  26.154  32.509  1.00  0.00    -0.237 OA
ATOM     72  O   UNL A   1      49.622  24.159  33.144  1.00  0.00    -0.744 OA
ENDBRANCH  68  69
ENDBRANCH  49  63
BRANCH  50  73
ATOM     73  C   UNL A   1      37.373  32.519  29.493  1.00  0.00    -0.014 A 
ATOM     74  C   UNL A   1      37.005  33.083  28.265  1.00  0.00     0.010 A 
ATOM     75  C   UNL A   1      36.463  32.560  30.570  1.00  0.00     0.010 A 
ATOM     76  C   UNL A   1      35.777  33.735  28.132  1.00  0.00     0.020 A 
ATOM     77  C   UNL A   1      35.221  33.179  30.433  1.00  0.00     0.020 A 
ATOM     78  C   UNL A   1      34.900  33.791  29.222  1.00  0.00     0.054 A 
BRANCH  78  79
ATOM     79  S   UNL A   1      33.338  34.690  29.039  1.00  0.00     0.124 S 
ATOM     80  O   UNL A   1      32.607  33.831  28.113  1.00  0.00    -0.237 OA
ATOM     81  O   UNL A   1      32.831  34.723  30.409  1.00  0.00    -0.237 OA
ATOM     82  O   UNL A   1      33.747  35.985  28.501  1.00  0.00    -0.744 OA
ENDBRANCH  78  79
ENDBRANCH  50  73
BRANCH  62  83
ATOM     83  C   UNL A   1      43.457  34.019  32.577  1.00  0.00    -0.014 A 
ATOM     84  C   UNL A   1      44.045  35.082  31.873  1.00  0.00     0.010 A 
ATOM     85  C   UNL A   1      43.209  34.129  33.955  1.00  0.00     0.010 A 
ATOM     86  C   UNL A   1      44.403  36.241  32.551  1.00  0.00     0.020 A 
ATOM     87  C   UNL A   1      43.529  35.303  34.626  1.00  0.00     0.020 A 
ATOM     88  C   UNL A   1      44.134  36.347  33.920  1.00  0.00     0.054 A 
BRANCH  88  89
ATOM     89  S   UNL A   1      44.536  37.898  34.757  1.00  0.00     0.124 S 
ATOM     90  O   UNL A   1      45.969  38.016  34.498  1.00  0.00    -0.237 OA
ATOM     91  O   UNL A   1      43.687  38.862  34.062  1.00  0.00    -0.237 OA
ATOM     92  O   UNL A   1      44.172  37.644  36.149  1.00  0.00    -0.744 OA
ENDBRANCH  88  89
ENDBRANCH  62  83
ENDBRANCH  36  37
ENDBRANCH  29  31
ENDBRANCH  28  29
ENDBRANCH   1  28
TORSDOF 17
ENDMDL
MODEL 3
REMARK VINA RESULT:     -11.3      2.269      8.673
REMARK SMILES O=C(OCCOC(=O)c1ccc(-c2c3nc(c(-c4ccc(S(=O)(=O)[O-])cc4)c4ccc([nH]4)c(-c4ccc(S(=O)(=O)[O-])cc4)c4nc(c(-c5ccc(S(=O)(=O)[O-])cc5)c5ccc2[nH]5)C=C4)C=C3)cc1)C1=Cc2c(ccc(Cl)c2Oc2ccccc2)O[C@H]1C(F)(F)F
REMARK SMILES IDX 5 1 4 2 3 3 2 4 1 5 69 6 70 7 86 8 71 9 85 10 72 11 77 12
REMARK SMILES IDX 73 13 75 14 74 15 76 16 87 17 88 18 89 19 90 20 78 21 79 22
REMARK SMILES IDX 80 23 84 24 81 25 83 26 82 27 6 28 7 29 8 30 9 31 10 32
REMARK SMILES IDX 68 33 11 34 67 35 12 36 13 37 14 38 61 39 15 40 66 41 60 42
REMARK SMILES IDX 62 43 16 44 65 45 59 46 58 47 17 49 47 50 28 51 46 52 29 53
REMARK SMILES IDX 32 54 45 55 63 56 30 57 31 58 44 60 64 61 33 62 18 63 19 64
REMARK SMILES IDX 27 65 20 66 26 67 21 68 22 69 23 70 24 71 25 72 48 73 49 74
REMARK SMILES IDX 57 75 50 76 56 77 51 78 52 79 53 80 54 81 55 82 34 83 35 84
REMARK SMILES IDX 43 85 36 86 42 87 37 88 38 89 39 90 40 91 41 92
REMARK H PARENT 62 48 32 59
REMARK Flexibility Score: inf
ROOT
ATOM      1  C   UNL A   1      33.686  29.472  27.023  1.00  0.00     0.275 C 
ENDROOT
BRANCH   1   2
ATOM      2  C   UNL A   1      33.168  28.229  26.281  1.00  0.00     0.275 C 
BRANCH   2   3
ATOM      3  O   UNL A   1      31.752  28.192  26.093  1.00  0.00    -0.459 OA
BRANCH   3   4
ATOM      4  C   UNL A   1      31.227  28.898  25.076  1.00  0.00     0.338 C 
ATOM      5  O   UNL A   1      31.251  30.120  25.051  1.00  0.00    -0.246 OA
BRANCH   4   6
ATOM      6  C   UNL A   1      30.454  28.112  24.099  1.00  0.00     0.088 C 
ATOM      7  C   UNL A   1      30.253  26.783  24.120  1.00  0.00     0.031 C 
ATOM      8  C   UNL A   1      30.257  28.757  22.773  1.00  0.00     0.316 C 
ATOM      9  C   UNL A   1      31.331  26.076  23.394  1.00  0.00     0.062 A 
ATOM     10  O   UNL A   1      30.588  27.774  21.711  1.00  0.00    -0.475 OA
ATOM     11  C   UNL A   1      31.366  26.661  22.083  1.00  0.00     0.131 A 
ATOM     12  C   UNL A   1      32.099  24.892  23.778  1.00  0.00     0.156 A 
ATOM     13  C   UNL A   1      32.052  26.005  21.086  1.00  0.00     0.049 A 
ATOM     14  C   UNL A   1      32.796  24.299  22.715  1.00  0.00     0.084 A 
ATOM     15  C   UNL A   1      32.750  24.832  21.402  1.00  0.00     0.028 A 
ATOM     16  Cl  UNL A   1      33.606  22.778  22.910  1.00  0.00    -0.080 Cl
BRANCH   8  17
ATOM     17  C   UNL A   1      28.806  29.302  22.780  1.00  0.00     0.430 C 
ATOM     18  F   UNL A   1      28.453  29.782  21.555  1.00  0.00    -0.167 F 
ATOM     19  F   UNL A   1      27.896  28.361  23.104  1.00  0.00    -0.167 F 
ATOM     20  F   UNL A   1      28.666  30.334  23.647  1.00  0.00    -0.167 F 
ENDBRANCH   8  17
BRANCH  12  21
ATOM     21  O   UNL A   1      31.822  23.992  24.841  1.00  0.00    -0.455 OA
BRANCH  21  22
ATOM     22  C   UNL A   1      32.488  23.688  26.051  1.00  0.00     0.127 A 
ATOM     23  C   UNL A   1      32.121  22.852  27.114  1.00  0.00     0.047 A 
ATOM     24  C   UNL A   1      33.862  24.077  25.999  1.00  0.00     0.047 A 
ATOM     25  C   UNL A   1      33.136  22.212  27.904  1.00  0.00     0.004 A 
ATOM     26  C   UNL A   1      34.863  23.422  26.760  1.00  0.00     0.004 A 
ATOM     27  C   UNL A   1      34.499  22.439  27.674  1.00  0.00     0.000 A 
ENDBRANCH  21  22
ENDBRANCH  12  21
ENDBRANCH   4   6
ENDBRANCH   3   4
ENDBRANCH   2   3
ENDBRANCH   1   2
BRANCH   1  28
ATOM     28  O   UNL A   1      34.721  29.202  27.878  1.00  0.00    -0.458 OA
BRANCH  28  29
ATOM     29  C   UNL A   1      35.196  30.370  28.309  1.00  0.00     0.338 C 
ATOM     30  O   UNL A   1      34.636  31.369  28.748  1.00  0.00    -0.246 OA
BRANCH  29  31
ATOM     31  C   UNL A   1      36.546  30.017  28.468  1.00  0.00     0.060 A 
ATOM     32  C   UNL A   1      36.804  29.409  29.686  1.00  0.00     0.016 A 
ATOM     33  C   UNL A   1      37.404  30.104  27.354  1.00  0.00     0.016 A 
ATOM     34  C   UNL A   1      38.061  28.967  29.856  1.00  0.00     0.010 A 
ATOM     35  C   UNL A   1      38.634  29.569  27.491  1.00  0.00     0.010 A 
ATOM     36  C   UNL A   1      38.934  29.076  28.760  1.00  0.00    -0.014 A 
BRANCH  36  37
ATOM     37  C   UNL A   1      40.295  28.768  29.042  1.00  0.00     0.031 A 
ATOM     38  C   UNL A   1      41.046  29.834  29.734  1.00  0.00     0.074 A 
ATOM     39  C   UNL A   1      40.629  27.513  28.742  1.00  0.00     0.049 A 
ATOM     40  N   UNL A   1      42.265  29.788  30.159  1.00  0.00    -0.248 NA
ATOM     41  C   UNL A   1      40.356  31.121  29.990  1.00  0.00     0.031 C 
ATOM     42  C   UNL A   1      39.748  26.523  28.096  1.00  0.00     0.029 A 
ATOM     43  N   UNL A   1      41.773  26.850  28.982  1.00  0.00    -0.354 N 
ATOM     44  C   UNL A   1      42.498  31.034  30.708  1.00  0.00     0.074 A 
ATOM     45  C   UNL A   1      41.314  31.836  30.555  1.00  0.00     0.031 C 
ATOM     46  C   UNL A   1      40.400  25.357  28.017  1.00  0.00     0.029 A 
ATOM     47  C   UNL A   1      41.741  25.560  28.534  1.00  0.00     0.049 A 
ATOM     48  H   UNL A   1      42.552  27.251  29.433  1.00  0.00     0.167 HD
ATOM     49  C   UNL A   1      43.647  31.427  31.283  1.00  0.00     0.031 A 
ATOM     50  C   UNL A   1      42.751  24.686  28.521  1.00  0.00     0.031 A 
ATOM     51  C   UNL A   1      44.763  30.531  31.366  1.00  0.00     0.049 A 
ATOM     52  C   UNL A   1      44.031  25.189  29.119  1.00  0.00     0.074 A 
ATOM     53  C   UNL A   1      46.008  30.748  31.907  1.00  0.00     0.029 A 
ATOM     54  N   UNL A   1      44.746  29.226  30.871  1.00  0.00    -0.354 N 
ATOM     55  N   UNL A   1      44.268  26.360  29.677  1.00  0.00    -0.248 NA
ATOM     56  C   UNL A   1      45.170  24.281  29.091  1.00  0.00     0.031 C 
ATOM     57  C   UNL A   1      46.766  29.595  31.678  1.00  0.00     0.029 A 
ATOM     58  C   UNL A   1      45.973  28.634  31.055  1.00  0.00     0.049 A 
ATOM     59  H   UNL A   1      43.968  28.793  30.450  1.00  0.00     0.167 HD
ATOM     60  C   UNL A   1      45.590  26.331  30.075  1.00  0.00     0.074 A 
ATOM     61  C   UNL A   1      46.083  25.007  29.724  1.00  0.00     0.031 C 
ATOM     62  C   UNL A   1      46.346  27.294  30.662  1.00  0.00     0.031 A 
BRANCH  49  63
ATOM     63  C   UNL A   1      43.740  32.840  31.760  1.00  0.00    -0.014 A 
ATOM     64  C   UNL A   1      44.022  33.900  30.879  1.00  0.00     0.010 A 
ATOM     65  C   UNL A   1      43.539  33.112  33.123  1.00  0.00     0.010 A 
ATOM     66  C   UNL A   1      44.084  35.212  31.355  1.00  0.00     0.020 A 
ATOM     67  C   UNL A   1      43.578  34.423  33.599  1.00  0.00     0.020 A 
ATOM     68  C   UNL A   1      43.846  35.466  32.710  1.00  0.00     0.054 A 
BRANCH  68  69
ATOM     69  S   UNL A   1      43.824  37.186  33.280  1.00  0.00     0.124 S 
ATOM     70  O   UNL A   1      43.798  37.924  32.019  1.00  0.00    -0.237 OA
ATOM     71  O   UNL A   1      42.594  37.243  34.066  1.00  0.00    -0.237 OA
ATOM     72  O   UNL A   1      45.059  37.314  34.050  1.00  0.00    -0.744 OA
ENDBRANCH  68  69
ENDBRANCH  49  63
BRANCH  50  73
ATOM     73  C   UNL A   1      42.583  23.368  27.876  1.00  0.00    -0.014 A 
ATOM     74  C   UNL A   1      42.109  22.266  28.599  1.00  0.00     0.010 A 
ATOM     75  C   UNL A   1      42.876  23.217  26.505  1.00  0.00     0.010 A 
ATOM     76  C   UNL A   1      41.993  21.019  27.982  1.00  0.00     0.020 A 
ATOM     77  C   UNL A   1      42.729  21.982  25.875  1.00  0.00     0.020 A 
ATOM     78  C   UNL A   1      42.318  20.882  26.627  1.00  0.00     0.054 A 
BRANCH  78  79
ATOM     79  S   UNL A   1      42.211  19.243  25.865  1.00  0.00     0.124 S 
ATOM     80  O   UNL A   1      42.695  18.382  26.940  1.00  0.00    -0.237 OA
ATOM     81  O   UNL A   1      40.788  19.131  25.555  1.00  0.00    -0.237 OA
ATOM     82  O   UNL A   1      43.090  19.345  24.703  1.00  0.00    -0.744 OA
ENDBRANCH  78  79
ENDBRANCH  50  73
BRANCH  62  83
ATOM     83  C   UNL A   1      47.758  26.907  30.951  1.00  0.00    -0.014 A 
ATOM     84  C   UNL A   1      48.782  27.231  30.047  1.00  0.00     0.010 A 
ATOM     85  C   UNL A   1      48.059  26.294  32.178  1.00  0.00     0.010 A 
ATOM     86  C   UNL A   1      50.099  26.920  30.361  1.00  0.00     0.020 A 
ATOM     87  C   UNL A   1      49.381  26.021  32.511  1.00  0.00     0.020 A 
ATOM     88  C   UNL A   1      50.390  26.327  31.594  1.00  0.00     0.054 A 
BRANCH  88  89
ATOM     89  S   UNL A   1      52.121  26.012  32.007  1.00  0.00     0.124 S 
ATOM     90  O   UNL A   1      52.425  27.128  32.898  1.00  0.00    -0.237 OA
ATOM     91  O   UNL A   1      52.062  24.697  32.640  1.00  0.00    -0.237 OA
ATOM     92  O   UNL A   1      52.798  26.044  30.712  1.00  0.00    -0.744 OA
ENDBRANCH  88  89
ENDBRANCH  62  83
ENDBRANCH  36  37
ENDBRANCH  29  31
ENDBRANCH  28  29
ENDBRANCH   1  28
TORSDOF 17
ENDMDL
