MODEL 1
REMARK VINA RESULT:      -9.9      0.000      0.000
REMARK SMILES COC(=O)[C@@H]1CCN(C(=O)NC(=O)COCC(=O)OCCOC(=O)c2ccc(-c3c4nc(c(-c5ccc(S(=O)(=O)[O-])cc5)c5ccc([nH]5)c(-c5ccc(S(=O)(=O)[O-])cc5)c5nc(c(-c6ccc(S(=O)(=O)[O-])cc6)c6ccc3[nH]6)C=C5)C=C4)cc2)C1
REMARK SMILES IDX 19 1 17 2 18 3 16 4 15 5 14 6 12 7 9 8 10 9 11 10 13 12 8 13
REMARK SMILES IDX 5 14 6 15 85 16 7 17 3 18 4 19 2 20 1 21 20 22 21 23 22 24
REMARK SMILES IDX 23 25 24 26 25 27 26 28 84 29 27 30 83 31 28 32 29 33 30 34
REMARK SMILES IDX 77 35 31 36 82 37 76 38 78 39 32 40 81 41 75 42 74 43 33 45
REMARK SMILES IDX 63 46 44 47 62 48 45 49 48 50 61 51 79 52 46 53 47 54 60 56
REMARK SMILES IDX 80 57 49 58 34 59 35 60 43 61 36 62 42 63 37 64 38 65 39 66
REMARK SMILES IDX 40 67 41 68 64 69 65 70 73 71 66 72 72 73 67 74 68 75 69 76
REMARK SMILES IDX 70 77 71 78 50 79 51 80 59 81 52 82 58 83 53 84 54 85 55 86
REMARK SMILES IDX 56 87 57 88
REMARK H PARENT 11 11 78 44 48 55
REMARK Flexibility Score: inf
ROOT
ATOM      1  O   UNL A   1      31.020  29.493  25.321  1.00  0.00    -0.460 OA
ENDROOT
BRANCH   1   2
ATOM      2  C   UNL A   1      30.604  29.364  24.031  1.00  0.00     0.332 C 
ATOM      3  O   UNL A   1      29.823  30.118  23.464  1.00  0.00    -0.250 OA
BRANCH   2   4
ATOM      4  C   UNL A   1      31.243  28.161  23.343  1.00  0.00     0.283 C 
BRANCH   4   5
ATOM      5  O   UNL A   1      31.665  27.138  24.229  1.00  0.00    -0.360 OA
BRANCH   5   6
ATOM      6  C   UNL A   1      32.998  26.712  24.095  1.00  0.00     0.261 C 
BRANCH   6   7
ATOM      7  C   UNL A   1      33.545  26.389  22.714  1.00  0.00     0.254 C 
ATOM      8  C   UNL A   1      33.240  23.784  22.305  1.00  0.00     0.324 C 
ATOM      9  O   UNL A   1      33.285  23.132  21.252  1.00  0.00    -0.248 OA
ATOM     10  N   UNL A   1      33.564  25.112  22.176  1.00  0.00    -0.276 N 
ATOM     11  H   UNL A   1      34.015  25.196  21.305  1.00  0.00     0.174 HD
ATOM     12  O   UNL A   1      34.000  27.300  22.011  1.00  0.00    -0.272 OA
BRANCH   8  13
ATOM     13  N   UNL A   1      32.900  23.175  23.465  1.00  0.00    -0.324 N 
ATOM     14  C   UNL A   1      31.454  22.608  25.279  1.00  0.00     0.120 C 
ATOM     15  C   UNL A   1      32.557  21.563  25.163  1.00  0.00     0.039 C 
ATOM     16  C   UNL A   1      31.543  23.370  23.968  1.00  0.00     0.136 C 
ATOM     17  C   UNL A   1      33.619  22.265  24.331  1.00  0.00     0.122 C 
BRANCH  14  18
ATOM     18  C   UNL A   1      31.650  23.554  26.443  1.00  0.00     0.310 C 
ATOM     19  O   UNL A   1      32.415  24.507  26.467  1.00  0.00    -0.252 OA
BRANCH  18  20
ATOM     20  O   UNL A   1      30.835  23.184  27.474  1.00  0.00    -0.469 OA
ATOM     21  C   UNL A   1      29.542  22.733  27.069  1.00  0.00     0.282 C 
ENDBRANCH  18  20
ENDBRANCH  14  18
ENDBRANCH   8  13
ENDBRANCH   6   7
ENDBRANCH   5   6
ENDBRANCH   4   5
ENDBRANCH   2   4
ENDBRANCH   1   2
BRANCH   1  22
ATOM     22  C   UNL A   1      32.335  30.045  25.508  1.00  0.00     0.274 C 
BRANCH  22  23
ATOM     23  C   UNL A   1      32.655  30.075  26.999  1.00  0.00     0.275 C 
BRANCH  23  24
ATOM     24  O   UNL A   1      34.058  29.811  27.186  1.00  0.00    -0.458 OA
BRANCH  24  25
ATOM     25  C   UNL A   1      34.676  30.560  28.131  1.00  0.00     0.338 C 
ATOM     26  O   UNL A   1      34.205  31.510  28.735  1.00  0.00    -0.246 OA
BRANCH  25  27
ATOM     27  C   UNL A   1      36.046  30.058  28.374  1.00  0.00     0.060 A 
ATOM     28  C   UNL A   1      36.457  29.643  29.645  1.00  0.00     0.016 A 
ATOM     29  C   UNL A   1      36.972  30.125  27.333  1.00  0.00     0.016 A 
ATOM     30  C   UNL A   1      37.803  29.369  29.889  1.00  0.00     0.010 A 
ATOM     31  C   UNL A   1      38.299  29.752  27.558  1.00  0.00     0.010 A 
ATOM     32  C   UNL A   1      38.737  29.387  28.843  1.00  0.00    -0.014 A 
BRANCH  32  33
ATOM     33  C   UNL A   1      40.159  28.996  29.045  1.00  0.00     0.031 A 
ATOM     34  C   UNL A   1      41.183  30.028  29.438  1.00  0.00     0.074 A 
ATOM     35  C   UNL A   1      40.560  27.735  28.781  1.00  0.00     0.049 A 
ATOM     36  N   UNL A   1      42.487  29.980  29.339  1.00  0.00    -0.248 NA
ATOM     37  C   UNL A   1      40.667  31.291  29.990  1.00  0.00     0.031 C 
ATOM     38  C   UNL A   1      39.682  26.616  28.435  1.00  0.00     0.029 A 
ATOM     39  N   UNL A   1      41.822  27.193  28.732  1.00  0.00    -0.354 N 
ATOM     40  C   UNL A   1      42.946  31.226  29.752  1.00  0.00     0.074 A 
ATOM     41  C   UNL A   1      41.779  32.006  30.109  1.00  0.00     0.031 C 
ATOM     42  C   UNL A   1      40.427  25.523  28.215  1.00  0.00     0.029 A 
ATOM     43  C   UNL A   1      41.836  25.885  28.311  1.00  0.00     0.049 A 
ATOM     44  H   UNL A   1      42.634  27.692  28.976  1.00  0.00     0.167 HD
ATOM     45  C   UNL A   1      44.223  31.678  29.815  1.00  0.00     0.031 A 
ATOM     46  C   UNL A   1      42.858  25.077  27.970  1.00  0.00     0.031 A 
ATOM     47  C   UNL A   1      45.380  30.881  29.500  1.00  0.00     0.049 A 
ATOM     48  C   UNL A   1      44.261  25.602  28.015  1.00  0.00     0.074 A 
ATOM     49  C   UNL A   1      46.717  31.240  29.555  1.00  0.00     0.029 A 
ATOM     50  N   UNL A   1      45.342  29.558  29.086  1.00  0.00    -0.354 N 
ATOM     51  N   UNL A   1      44.679  26.800  28.347  1.00  0.00    -0.248 NA
ATOM     52  C   UNL A   1      45.331  24.672  27.629  1.00  0.00     0.031 C 
ATOM     53  C   UNL A   1      47.483  30.145  29.140  1.00  0.00     0.029 A 
ATOM     54  C   UNL A   1      46.627  29.089  28.872  1.00  0.00     0.049 A 
ATOM     55  H   UNL A   1      44.520  29.028  28.963  1.00  0.00     0.167 HD
ATOM     56  C   UNL A   1      46.063  26.763  28.225  1.00  0.00     0.074 A 
ATOM     57  C   UNL A   1      46.411  25.423  27.798  1.00  0.00     0.031 C 
ATOM     58  C   UNL A   1      46.961  27.753  28.449  1.00  0.00     0.031 A 
BRANCH  45  59
ATOM     59  C   UNL A   1      44.435  33.121  30.196  1.00  0.00    -0.014 A 
ATOM     60  C   UNL A   1      44.605  34.123  29.226  1.00  0.00     0.010 A 
ATOM     61  C   UNL A   1      44.426  33.481  31.557  1.00  0.00     0.010 A 
ATOM     62  C   UNL A   1      44.809  35.453  29.612  1.00  0.00     0.020 A 
ATOM     63  C   UNL A   1      44.605  34.812  31.946  1.00  0.00     0.020 A 
ATOM     64  C   UNL A   1      44.817  35.787  30.970  1.00  0.00     0.054 A 
BRANCH  64  65
ATOM     65  S   UNL A   1      45.081  37.518  31.447  1.00  0.00     0.124 S 
ATOM     66  O   UNL A   1      46.284  37.423  32.271  1.00  0.00    -0.237 OA
ATOM     67  O   UNL A   1      45.255  38.186  30.159  1.00  0.00    -0.237 OA
ATOM     68  O   UNL A   1      43.860  37.870  32.166  1.00  0.00    -0.744 OA
ENDBRANCH  64  65
ENDBRANCH  45  59
BRANCH  46  69
ATOM     69  C   UNL A   1      42.565  23.694  27.509  1.00  0.00    -0.014 A 
ATOM     70  C   UNL A   1      42.474  23.407  26.137  1.00  0.00     0.010 A 
ATOM     71  C   UNL A   1      42.448  22.645  28.441  1.00  0.00     0.010 A 
ATOM     72  C   UNL A   1      42.281  22.092  25.703  1.00  0.00     0.020 A 
ATOM     73  C   UNL A   1      42.280  21.327  28.010  1.00  0.00     0.020 A 
ATOM     74  C   UNL A   1      42.194  21.059  26.643  1.00  0.00     0.054 A 
BRANCH  74  75
ATOM     75  S   UNL A   1      42.044  19.349  26.055  1.00  0.00     0.124 S 
ATOM     76  O   UNL A   1      42.881  19.365  24.860  1.00  0.00    -0.237 OA
ATOM     77  O   UNL A   1      42.563  18.577  27.181  1.00  0.00    -0.237 OA
ATOM     78  O   UNL A   1      40.610  19.198  25.815  1.00  0.00    -0.744 OA
ENDBRANCH  74  75
ENDBRANCH  46  69
BRANCH  58  79
ATOM     79  C   UNL A   1      48.415  27.412  28.280  1.00  0.00    -0.014 A 
ATOM     80  C   UNL A   1      49.101  27.716  27.092  1.00  0.00     0.010 A 
ATOM     81  C   UNL A   1      49.118  26.827  29.350  1.00  0.00     0.010 A 
ATOM     82  C   UNL A   1      50.462  27.421  26.968  1.00  0.00     0.020 A 
ATOM     83  C   UNL A   1      50.481  26.550  29.237  1.00  0.00     0.020 A 
ATOM     84  C   UNL A   1      51.143  26.839  28.042  1.00  0.00     0.054 A 
BRANCH  84  85
ATOM     85  S   UNL A   1      52.920  26.511  27.879  1.00  0.00     0.124 S 
ATOM     86  O   UNL A   1      53.411  27.768  27.322  1.00  0.00    -0.237 OA
ATOM     87  O   UNL A   1      53.325  26.231  29.254  1.00  0.00    -0.237 OA
ATOM     88  O   UNL A   1      52.978  25.365  26.974  1.00  0.00    -0.744 OA
ENDBRANCH  84  85
ENDBRANCH  58  79
ENDBRANCH  32  33
ENDBRANCH  25  27
ENDBRANCH  24  25
ENDBRANCH  23  24
ENDBRANCH  22  23
ENDBRANCH   1  22
TORSDOF 20
ENDMDL
MODEL 2
REMARK VINA RESULT:      -9.9      1.710      2.683
REMARK SMILES COC(=O)[C@@H]1CCN(C(=O)NC(=O)COCC(=O)OCCOC(=O)c2ccc(-c3c4nc(c(-c5ccc(S(=O)(=O)[O-])cc5)c5ccc([nH]5)c(-c5ccc(S(=O)(=O)[O-])cc5)c5nc(c(-c6ccc(S(=O)(=O)[O-])cc6)c6ccc3[nH]6)C=C5)C=C4)cc2)C1
REMARK SMILES IDX 19 1 17 2 18 3 16 4 15 5 14 6 12 7 9 8 10 9 11 10 13 12 8 13
REMARK SMILES IDX 5 14 6 15 85 16 7 17 3 18 4 19 2 20 1 21 20 22 21 23 22 24
REMARK SMILES IDX 23 25 24 26 25 27 26 28 84 29 27 30 83 31 28 32 29 33 30 34
REMARK SMILES IDX 77 35 31 36 82 37 76 38 78 39 32 40 81 41 75 42 74 43 33 45
REMARK SMILES IDX 63 46 44 47 62 48 45 49 48 50 61 51 79 52 46 53 47 54 60 56
REMARK SMILES IDX 80 57 49 58 34 59 35 60 43 61 36 62 42 63 37 64 38 65 39 66
REMARK SMILES IDX 40 67 41 68 64 69 65 70 73 71 66 72 72 73 67 74 68 75 69 76
REMARK SMILES IDX 70 77 71 78 50 79 51 80 59 81 52 82 58 83 53 84 54 85 55 86
REMARK SMILES IDX 56 87 57 88
REMARK H PARENT 11 11 78 44 48 55
REMARK Flexibility Score: inf
ROOT
ATOM      1  O   UNL A   1      32.882  29.465  25.026  1.00  0.00    -0.460 OA
ENDROOT
BRANCH   1   2
ATOM      2  C   UNL A   1      32.743  28.477  24.099  1.00  0.00     0.332 C 
ATOM      3  O   UNL A   1      31.937  28.485  23.176  1.00  0.00    -0.250 OA
BRANCH   2   4
ATOM      4  C   UNL A   1      33.733  27.338  24.326  1.00  0.00     0.283 C 
BRANCH   4   5
ATOM      5  O   UNL A   1      33.129  26.084  24.594  1.00  0.00    -0.360 OA
BRANCH   5   6
ATOM      6  C   UNL A   1      32.945  25.760  25.949  1.00  0.00     0.261 C 
BRANCH   6   7
ATOM      7  C   UNL A   1      31.539  25.561  26.488  1.00  0.00     0.254 C 
ATOM      8  C   UNL A   1      30.818  23.057  25.982  1.00  0.00     0.324 C 
ATOM      9  O   UNL A   1      29.898  22.380  26.461  1.00  0.00    -0.248 OA
ATOM     10  N   UNL A   1      30.838  24.371  26.381  1.00  0.00    -0.276 N 
ATOM     11  H   UNL A   1      29.949  24.547  26.767  1.00  0.00     0.174 HD
ATOM     12  O   UNL A   1      30.968  26.497  27.063  1.00  0.00    -0.272 OA
BRANCH   8  13
ATOM     13  N   UNL A   1      31.702  22.490  25.127  1.00  0.00    -0.324 N 
ATOM     14  C   UNL A   1      33.617  21.199  24.521  1.00  0.00     0.120 C 
ATOM     15  C   UNL A   1      32.667  21.286  23.333  1.00  0.00     0.039 C 
ATOM     16  C   UNL A   1      32.773  21.672  25.691  1.00  0.00     0.136 C 
ATOM     17  C   UNL A   1      31.778  22.469  23.682  1.00  0.00     0.122 C 
BRANCH  14  18
ATOM     18  C   UNL A   1      34.839  22.078  24.373  1.00  0.00     0.310 C 
ATOM     19  O   UNL A   1      35.107  22.767  23.399  1.00  0.00    -0.252 OA
BRANCH  18  20
ATOM     20  O   UNL A   1      35.604  21.991  25.499  1.00  0.00    -0.469 OA
ATOM     21  C   UNL A   1      36.028  23.251  26.021  1.00  0.00     0.282 C 
ENDBRANCH  18  20
ENDBRANCH  14  18
ENDBRANCH   8  13
ENDBRANCH   6   7
ENDBRANCH   5   6
ENDBRANCH   4   5
ENDBRANCH   2   4
ENDBRANCH   1   2
BRANCH   1  22
ATOM     22  C   UNL A   1      33.296  29.046  26.338  1.00  0.00     0.274 C 
BRANCH  22  23
ATOM     23  C   UNL A   1      34.449  29.930  26.803  1.00  0.00     0.275 C 
BRANCH  23  24
ATOM     24  O   UNL A   1      34.963  29.419  28.047  1.00  0.00    -0.458 OA
BRANCH  24  25
ATOM     25  C   UNL A   1      35.797  30.245  28.721  1.00  0.00     0.338 C 
ATOM     26  O   UNL A   1      35.500  31.289  29.279  1.00  0.00    -0.246 OA
BRANCH  25  27
ATOM     27  C   UNL A   1      37.173  29.703  28.722  1.00  0.00     0.060 A 
ATOM     28  C   UNL A   1      37.763  29.208  29.889  1.00  0.00     0.016 A 
ATOM     29  C   UNL A   1      37.930  29.809  27.555  1.00  0.00     0.016 A 
ATOM     30  C   UNL A   1      39.123  28.894  29.907  1.00  0.00     0.010 A 
ATOM     31  C   UNL A   1      39.264  29.397  27.550  1.00  0.00     0.010 A 
ATOM     32  C   UNL A   1      39.884  28.951  28.731  1.00  0.00    -0.014 A 
BRANCH  32  33
ATOM     33  C   UNL A   1      41.309  28.520  28.688  1.00  0.00     0.031 A 
ATOM     34  C   UNL A   1      42.414  29.534  28.826  1.00  0.00     0.074 A 
ATOM     35  C   UNL A   1      41.621  27.234  28.426  1.00  0.00     0.049 A 
ATOM     36  N   UNL A   1      43.675  29.434  28.490  1.00  0.00    -0.248 NA
ATOM     37  C   UNL A   1      42.043  30.840  29.392  1.00  0.00     0.031 C 
ATOM     38  C   UNL A   1      40.665  26.131  28.313  1.00  0.00     0.029 A 
ATOM     39  N   UNL A   1      42.837  26.646  28.176  1.00  0.00    -0.354 N 
ATOM     40  C   UNL A   1      44.235  30.683  28.741  1.00  0.00     0.074 A 
ATOM     41  C   UNL A   1      43.175  31.521  29.262  1.00  0.00     0.031 C 
ATOM     42  C   UNL A   1      41.328  25.002  28.021  1.00  0.00     0.029 A 
ATOM     43  C   UNL A   1      42.739  25.318  27.834  1.00  0.00     0.049 A 
ATOM     44  H   UNL A   1      43.693  27.127  28.237  1.00  0.00     0.167 HD
ATOM     45  C   UNL A   1      45.512  31.091  28.542  1.00  0.00     0.031 A 
ATOM     46  C   UNL A   1      43.658  24.458  27.356  1.00  0.00     0.031 A 
ATOM     47  C   UNL A   1      46.570  30.238  28.063  1.00  0.00     0.049 A 
ATOM     48  C   UNL A   1      45.059  24.934  27.112  1.00  0.00     0.074 A 
ATOM     49  C   UNL A   1      47.902  30.552  27.850  1.00  0.00     0.029 A 
ATOM     50  N   UNL A   1      46.421  28.898  27.740  1.00  0.00    -0.354 N 
ATOM     51  N   UNL A   1      45.561  26.132  27.292  1.00  0.00    -0.248 NA
ATOM     52  C   UNL A   1      46.013  23.947  26.588  1.00  0.00     0.031 C 
ATOM     53  C   UNL A   1      48.549  29.411  27.364  1.00  0.00     0.029 A 
ATOM     54  C   UNL A   1      47.631  28.373  27.319  1.00  0.00     0.049 A 
ATOM     55  H   UNL A   1      45.578  28.392  27.800  1.00  0.00     0.167 HD
ATOM     56  C   UNL A   1      46.897  26.039  26.919  1.00  0.00     0.074 A 
ATOM     57  C   UNL A   1      47.124  24.667  26.512  1.00  0.00     0.031 C 
ATOM     58  C   UNL A   1      47.846  27.006  26.917  1.00  0.00     0.031 A 
BRANCH  45  59
ATOM     59  C   UNL A   1      45.829  32.543  28.794  1.00  0.00    -0.014 A 
ATOM     60  C   UNL A   1      46.298  32.990  30.041  1.00  0.00     0.010 A 
ATOM     61  C   UNL A   1      45.688  33.470  27.744  1.00  0.00     0.010 A 
ATOM     62  C   UNL A   1      46.575  34.346  30.248  1.00  0.00     0.020 A 
ATOM     63  C   UNL A   1      45.987  34.822  27.939  1.00  0.00     0.020 A 
ATOM     64  C   UNL A   1      46.408  35.255  29.197  1.00  0.00     0.054 A 
BRANCH  64  65
ATOM     65  S   UNL A   1      46.775  37.009  29.487  1.00  0.00     0.124 S 
ATOM     66  O   UNL A   1      47.789  37.275  28.470  1.00  0.00    -0.237 OA
ATOM     67  O   UNL A   1      45.482  37.652  29.267  1.00  0.00    -0.237 OA
ATOM     68  O   UNL A   1      47.254  37.039  30.867  1.00  0.00    -0.744 OA
ENDBRANCH  64  65
ENDBRANCH  45  59
BRANCH  46  69
ATOM     69  C   UNL A   1      43.249  23.064  27.036  1.00  0.00    -0.014 A 
ATOM     70  C   UNL A   1      43.384  22.567  25.730  1.00  0.00     0.010 A 
ATOM     71  C   UNL A   1      42.790  22.207  28.056  1.00  0.00     0.010 A 
ATOM     72  C   UNL A   1      43.077  21.232  25.449  1.00  0.00     0.020 A 
ATOM     73  C   UNL A   1      42.507  20.868  27.783  1.00  0.00     0.020 A 
ATOM     74  C   UNL A   1      42.648  20.389  26.479  1.00  0.00     0.054 A 
BRANCH  74  75
ATOM     75  S   UNL A   1      42.351  18.637  26.112  1.00  0.00     0.124 S 
ATOM     76  O   UNL A   1      40.936  18.637  25.758  1.00  0.00    -0.237 OA
ATOM     77  O   UNL A   1      43.278  18.379  25.014  1.00  0.00    -0.237 OA
ATOM     78  O   UNL A   1      42.684  17.966  27.367  1.00  0.00    -0.744 OA
ENDBRANCH  74  75
ENDBRANCH  46  69
BRANCH  58  79
ATOM     79  C   UNL A   1      49.234  26.606  26.502  1.00  0.00    -0.014 A 
ATOM     80  C   UNL A   1      50.121  26.004  27.410  1.00  0.00     0.010 A 
ATOM     81  C   UNL A   1      49.635  26.788  25.165  1.00  0.00     0.010 A 
ATOM     82  C   UNL A   1      51.396  25.609  26.993  1.00  0.00     0.020 A 
ATOM     83  C   UNL A   1      50.900  26.376  24.741  1.00  0.00     0.020 A 
ATOM     84  C   UNL A   1      51.778  25.799  25.662  1.00  0.00     0.054 A 
BRANCH  84  85
ATOM     85  S   UNL A   1      53.418  25.233  25.130  1.00  0.00     0.124 S 
ATOM     86  O   UNL A   1      54.296  25.916  26.076  1.00  0.00    -0.237 OA
ATOM     87  O   UNL A   1      53.327  23.784  25.289  1.00  0.00    -0.237 OA
ATOM     88  O   UNL A   1      53.511  25.696  23.748  1.00  0.00    -0.744 OA
ENDBRANCH  84  85
ENDBRANCH  58  79
ENDBRANCH  32  33
ENDBRANCH  25  27
ENDBRANCH  24  25
ENDBRANCH  23  24
ENDBRANCH  22  23
ENDBRANCH   1  22
TORSDOF 20
ENDMDL
MODEL 3
REMARK VINA RESULT:      -9.4      1.354      1.995
REMARK SMILES COC(=O)[C@@H]1CCN(C(=O)NC(=O)COCC(=O)OCCOC(=O)c2ccc(-c3c4nc(c(-c5ccc(S(=O)(=O)[O-])cc5)c5ccc([nH]5)c(-c5ccc(S(=O)(=O)[O-])cc5)c5nc(c(-c6ccc(S(=O)(=O)[O-])cc6)c6ccc3[nH]6)C=C5)C=C4)cc2)C1
REMARK SMILES IDX 19 1 17 2 18 3 16 4 15 5 14 6 12 7 9 8 10 9 11 10 13 12 8 13
REMARK SMILES IDX 5 14 6 15 85 16 7 17 3 18 4 19 2 20 1 21 20 22 21 23 22 24
REMARK SMILES IDX 23 25 24 26 25 27 26 28 84 29 27 30 83 31 28 32 29 33 30 34
REMARK SMILES IDX 77 35 31 36 82 37 76 38 78 39 32 40 81 41 75 42 74 43 33 45
REMARK SMILES IDX 63 46 44 47 62 48 45 49 48 50 61 51 79 52 46 53 47 54 60 56
REMARK SMILES IDX 80 57 49 58 34 59 35 60 43 61 36 62 42 63 37 64 38 65 39 66
REMARK SMILES IDX 40 67 41 68 64 69 65 70 73 71 66 72 72 73 67 74 68 75 69 76
REMARK SMILES IDX 70 77 71 78 50 79 51 80 59 81 52 82 58 83 53 84 54 85 55 86
REMARK SMILES IDX 56 87 57 88
REMARK H PARENT 11 11 78 44 48 55
REMARK Flexibility Score: inf
ROOT
ATOM      1  O   UNL A   1      32.694  29.221  27.126  1.00  0.00    -0.460 OA
ENDROOT
BRANCH   1   2
ATOM      2  C   UNL A   1      33.183  28.185  26.390  1.00  0.00     0.332 C 
ATOM      3  O   UNL A   1      34.277  28.168  25.838  1.00  0.00    -0.250 OA
BRANCH   2   4
ATOM      4  C   UNL A   1      32.209  27.012  26.338  1.00  0.00     0.283 C 
BRANCH   4   5
ATOM      5  O   UNL A   1      32.117  26.385  25.070  1.00  0.00    -0.360 OA
BRANCH   5   6
ATOM      6  C   UNL A   1      31.085  26.835  24.229  1.00  0.00     0.261 C 
BRANCH   6   7
ATOM      7  C   UNL A   1      31.430  27.445  22.880  1.00  0.00     0.254 C 
ATOM      8  C   UNL A   1      32.885  25.678  21.536  1.00  0.00     0.324 C 
ATOM      9  O   UNL A   1      33.155  25.621  20.328  1.00  0.00    -0.248 OA
ATOM     10  N   UNL A   1      32.200  26.803  21.923  1.00  0.00    -0.276 N 
ATOM     11  H   UNL A   1      32.299  27.446  21.184  1.00  0.00     0.174 HD
ATOM     12  O   UNL A   1      31.008  28.573  22.595  1.00  0.00    -0.272 OA
BRANCH   8  13
ATOM     13  N   UNL A   1      33.274  24.679  22.364  1.00  0.00    -0.324 N 
ATOM     14  C   UNL A   1      33.310  22.445  23.205  1.00  0.00     0.120 C 
ATOM     15  C   UNL A   1      34.572  23.174  23.646  1.00  0.00     0.039 C 
ATOM     16  C   UNL A   1      32.737  23.343  22.122  1.00  0.00     0.136 C 
ATOM     17  C   UNL A   1      34.212  24.640  23.464  1.00  0.00     0.122 C 
BRANCH  14  18
ATOM     18  C   UNL A   1      32.303  22.269  24.320  1.00  0.00     0.310 C 
ATOM     19  O   UNL A   1      31.497  23.110  24.692  1.00  0.00    -0.252 OA
BRANCH  18  20
ATOM     20  O   UNL A   1      32.426  21.019  24.854  1.00  0.00    -0.469 OA
ATOM     21  C   UNL A   1      33.263  20.953  26.009  1.00  0.00     0.282 C 
ENDBRANCH  18  20
ENDBRANCH  14  18
ENDBRANCH   8  13
ENDBRANCH   6   7
ENDBRANCH   5   6
ENDBRANCH   4   5
ENDBRANCH   2   4
ENDBRANCH   1   2
BRANCH   1  22
ATOM     22  C   UNL A   1      32.874  30.534  26.566  1.00  0.00     0.274 C 
BRANCH  22  23
ATOM     23  C   UNL A   1      33.866  31.310  27.427  1.00  0.00     0.275 C 
BRANCH  23  24
ATOM     24  O   UNL A   1      34.705  30.378  28.136  1.00  0.00    -0.458 OA
BRANCH  24  25
ATOM     25  C   UNL A   1      35.405  30.892  29.175  1.00  0.00     0.338 C 
ATOM     26  O   UNL A   1      35.002  31.691  30.004  1.00  0.00    -0.246 OA
BRANCH  25  27
ATOM     27  C   UNL A   1      36.773  30.330  29.206  1.00  0.00     0.060 A 
ATOM     28  C   UNL A   1      37.374  29.935  30.405  1.00  0.00     0.016 A 
ATOM     29  C   UNL A   1      37.512  30.317  28.022  1.00  0.00     0.016 A 
ATOM     30  C   UNL A   1      38.729  29.602  30.431  1.00  0.00     0.010 A 
ATOM     31  C   UNL A   1      38.840  29.885  28.037  1.00  0.00     0.010 A 
ATOM     32  C   UNL A   1      39.472  29.539  29.244  1.00  0.00    -0.014 A 
BRANCH  32  33
ATOM     33  C   UNL A   1      40.889  29.084  29.221  1.00  0.00     0.031 A 
ATOM     34  C   UNL A   1      42.008  30.071  29.423  1.00  0.00     0.074 A 
ATOM     35  C   UNL A   1      41.185  27.803  28.918  1.00  0.00     0.049 A 
ATOM     36  N   UNL A   1      43.276  29.960  29.115  1.00  0.00    -0.248 NA
ATOM     37  C   UNL A   1      41.646  31.362  30.029  1.00  0.00     0.031 C 
ATOM     38  C   UNL A   1      40.213  26.723  28.740  1.00  0.00     0.029 A 
ATOM     39  N   UNL A   1      42.396  27.202  28.676  1.00  0.00    -0.354 N 
ATOM     40  C   UNL A   1      43.851  31.188  29.426  1.00  0.00     0.074 A 
ATOM     41  C   UNL A   1      42.793  32.026  29.952  1.00  0.00     0.031 C 
ATOM     42  C   UNL A   1      40.863  25.594  28.422  1.00  0.00     0.029 A 
ATOM     43  C   UNL A   1      42.284  25.890  28.282  1.00  0.00     0.049 A 
ATOM     44  H   UNL A   1      43.260  27.665  28.776  1.00  0.00     0.167 HD
ATOM     45  C   UNL A   1      45.140  31.580  29.274  1.00  0.00     0.031 A 
ATOM     46  C   UNL A   1      43.199  25.031  27.795  1.00  0.00     0.031 A 
ATOM     47  C   UNL A   1      46.194  30.726  28.790  1.00  0.00     0.049 A 
ATOM     48  C   UNL A   1      44.614  25.490  27.603  1.00  0.00     0.074 A 
ATOM     49  C   UNL A   1      47.536  31.022  28.622  1.00  0.00     0.029 A 
ATOM     50  N   UNL A   1      46.029  29.401  28.413  1.00  0.00    -0.354 N 
ATOM     51  N   UNL A   1      45.133  26.670  27.841  1.00  0.00    -0.248 NA
ATOM     52  C   UNL A   1      45.564  24.506  27.066  1.00  0.00     0.031 C 
ATOM     53  C   UNL A   1      48.176  29.888  28.109  1.00  0.00     0.029 A 
ATOM     54  C   UNL A   1      47.241  28.870  28.002  1.00  0.00     0.049 A 
ATOM     55  H   UNL A   1      45.176  28.910  28.433  1.00  0.00     0.167 HD
ATOM     56  C   UNL A   1      46.475  26.567  27.498  1.00  0.00     0.074 A 
ATOM     57  C   UNL A   1      46.689  25.207  27.045  1.00  0.00     0.031 C 
ATOM     58  C   UNL A   1      47.442  27.515  27.556  1.00  0.00     0.031 A 
BRANCH  45  59
ATOM     59  C   UNL A   1      45.476  33.015  29.589  1.00  0.00    -0.014 A 
ATOM     60  C   UNL A   1      45.916  33.408  30.864  1.00  0.00     0.010 A 
ATOM     61  C   UNL A   1      45.382  33.983  28.570  1.00  0.00     0.010 A 
ATOM     62  C   UNL A   1      46.211  34.750  31.128  1.00  0.00     0.020 A 
ATOM     63  C   UNL A   1      45.700  35.321  28.822  1.00  0.00     0.020 A 
ATOM     64  C   UNL A   1      46.092  35.699  30.107  1.00  0.00     0.054 A 
BRANCH  64  65
ATOM     65  S   UNL A   1      46.483  37.434  30.471  1.00  0.00     0.124 S 
ATOM     66  O   UNL A   1      45.773  38.132  29.403  1.00  0.00    -0.237 OA
ATOM     67  O   UNL A   1      45.934  37.615  31.813  1.00  0.00    -0.237 OA
ATOM     68  O   UNL A   1      47.940  37.486  30.387  1.00  0.00    -0.744 OA
ENDBRANCH  64  65
ENDBRANCH  45  59
BRANCH  46  69
ATOM     69  C   UNL A   1      42.774  23.658  27.413  1.00  0.00    -0.014 A 
ATOM     70  C   UNL A   1      42.414  23.369  26.087  1.00  0.00     0.010 A 
ATOM     71  C   UNL A   1      42.798  22.617  28.363  1.00  0.00     0.010 A 
ATOM     72  C   UNL A   1      42.094  22.061  25.712  1.00  0.00     0.020 A 
ATOM     73  C   UNL A   1      42.504  21.305  27.985  1.00  0.00     0.020 A 
ATOM     74  C   UNL A   1      42.149  21.036  26.663  1.00  0.00     0.054 A 
BRANCH  74  75
ATOM     75  S   UNL A   1      41.828  19.331  26.132  1.00  0.00     0.124 S 
ATOM     76  O   UNL A   1      42.675  19.217  24.950  1.00  0.00    -0.237 OA
ATOM     77  O   UNL A   1      42.252  18.550  27.291  1.00  0.00    -0.237 OA
ATOM     78  O   UNL A   1      40.389  19.320  25.877  1.00  0.00    -0.744 OA
ENDBRANCH  74  75
ENDBRANCH  46  69
BRANCH  58  79
ATOM     79  C   UNL A   1      48.833  27.105  27.160  1.00  0.00    -0.014 A 
ATOM     80  C   UNL A   1      49.772  26.696  28.121  1.00  0.00     0.010 A 
ATOM     81  C   UNL A   1      49.184  27.078  25.797  1.00  0.00     0.010 A 
ATOM     82  C   UNL A   1      51.050  26.287  27.727  1.00  0.00     0.020 A 
ATOM     83  C   UNL A   1      50.452  26.650  25.399  1.00  0.00     0.020 A 
ATOM     84  C   UNL A   1      51.382  26.268  26.368  1.00  0.00     0.054 A 
BRANCH  84  85
ATOM     85  S   UNL A   1      53.028  25.684  25.876  1.00  0.00     0.124 S 
ATOM     86  O   UNL A   1      53.303  26.508  24.703  1.00  0.00    -0.237 OA
ATOM     87  O   UNL A   1      53.840  25.976  27.054  1.00  0.00    -0.237 OA
ATOM     88  O   UNL A   1      52.823  24.263  25.606  1.00  0.00    -0.744 OA
ENDBRANCH  84  85
ENDBRANCH  58  79
ENDBRANCH  32  33
ENDBRANCH  25  27
ENDBRANCH  24  25
ENDBRANCH  23  24
ENDBRANCH  22  23
ENDBRANCH   1  22
TORSDOF 20
ENDMDL
