MODEL 1
REMARK VINA RESULT:     -10.4      0.000      0.000
REMARK SMILES O=C(OCCOC(=O)c1ccnc(S[C@@H]2CCO[C@]3(CCOC3)C2)c1)c1ccc(-c2c3nc(c(-c4ccc(S(=O)(=O)[O-])cc4)c4ccc([nH]4)c(-c4ccc(S(=O)(=O)[O-])cc4)c4nc(c(-c5ccc(S(=O)(=O)[O-])cc5)c5ccc2[nH]5)C=C4)C=C3)cc1
REMARK SMILES IDX 4 1 3 2 2 3 1 4 26 5 27 6 85 7 28 8 84 9 29 10 30 11 31 12
REMARK SMILES IDX 78 13 32 14 83 15 77 16 79 17 33 18 82 19 76 20 75 21 34 23
REMARK SMILES IDX 64 24 45 25 63 26 46 27 49 28 62 29 80 30 47 31 48 32 61 34
REMARK SMILES IDX 81 35 50 36 35 37 36 38 44 39 37 40 43 41 38 42 39 43 40 44
REMARK SMILES IDX 41 45 42 46 65 47 66 48 74 49 67 50 73 51 68 52 69 53 70 54
REMARK SMILES IDX 71 55 72 56 51 57 52 58 60 59 53 60 59 61 54 62 55 63 56 64
REMARK SMILES IDX 57 65 58 66 5 67 6 68 7 69 8 70 9 71 10 72 25 73 11 74 13 75
REMARK SMILES IDX 12 76 14 77 15 78 16 79 24 80 17 81 19 82 18 83 20 84 23 85
REMARK SMILES IDX 21 86 22 87
REMARK H PARENT 79 22 49 33
REMARK Flexibility Score: inf
ROOT
ATOM      1  C   UNL A   1      33.194  32.512  28.279  1.00  0.00     0.275 C 
ENDROOT
BRANCH   1   2
ATOM      2  O   UNL A   1      34.353  31.871  27.697  1.00  0.00    -0.458 OA
BRANCH   2   3
ATOM      3  C   UNL A   1      34.690  30.560  27.654  1.00  0.00     0.338 C 
ATOM      4  O   UNL A   1      33.815  29.723  27.433  1.00  0.00    -0.246 OA
BRANCH   3   5
ATOM      5  C   UNL A   1      36.067  30.072  27.947  1.00  0.00     0.060 A 
ATOM      6  C   UNL A   1      37.124  30.069  27.037  1.00  0.00     0.016 A 
ATOM      7  C   UNL A   1      36.291  29.540  29.228  1.00  0.00     0.016 A 
ATOM      8  C   UNL A   1      38.409  29.693  27.442  1.00  0.00     0.010 A 
ATOM      9  C   UNL A   1      37.569  29.161  29.640  1.00  0.00     0.010 A 
ATOM     10  C   UNL A   1      38.641  29.254  28.749  1.00  0.00    -0.014 A 
BRANCH  10  11
ATOM     11  C   UNL A   1      39.979  28.766  29.145  1.00  0.00     0.031 A 
ATOM     12  C   UNL A   1      40.928  29.722  29.802  1.00  0.00     0.074 A 
ATOM     13  C   UNL A   1      40.338  27.489  28.921  1.00  0.00     0.049 A 
ATOM     14  N   UNL A   1      42.100  29.481  30.326  1.00  0.00    -0.248 NA
ATOM     15  C   UNL A   1      40.494  31.126  29.906  1.00  0.00     0.031 C 
ATOM     16  C   UNL A   1      39.498  26.470  28.291  1.00  0.00     0.029 A 
ATOM     17  N   UNL A   1      41.516  26.835  29.177  1.00  0.00    -0.354 N 
ATOM     18  C   UNL A   1      42.517  30.686  30.871  1.00  0.00     0.074 A 
ATOM     19  C   UNL A   1      41.511  31.675  30.554  1.00  0.00     0.031 C 
ATOM     20  C   UNL A   1      40.211  25.337  28.151  1.00  0.00     0.029 A 
ATOM     21  C   UNL A   1      41.549  25.548  28.696  1.00  0.00     0.049 A 
ATOM     22  H   UNL A   1      42.267  27.249  29.661  1.00  0.00     0.167 HD
ATOM     23  C   UNL A   1      43.626  30.936  31.604  1.00  0.00     0.031 A 
ATOM     24  C   UNL A   1      42.553  24.650  28.689  1.00  0.00     0.031 A 
ATOM     25  C   UNL A   1      44.641  29.958  31.875  1.00  0.00     0.049 A 
ATOM     26  C   UNL A   1      43.846  24.999  29.377  1.00  0.00     0.074 A 
ATOM     27  C   UNL A   1      45.768  30.082  32.667  1.00  0.00     0.029 A 
ATOM     28  N   UNL A   1      44.669  28.685  31.328  1.00  0.00    -0.354 N 
ATOM     29  N   UNL A   1      44.158  26.094  30.029  1.00  0.00    -0.248 NA
ATOM     30  C   UNL A   1      44.909  23.985  29.359  1.00  0.00     0.031 C 
ATOM     31  C   UNL A   1      46.507  28.899  32.554  1.00  0.00     0.029 A 
ATOM     32  C   UNL A   1      45.820  28.028  31.722  1.00  0.00     0.049 A 
ATOM     33  H   UNL A   1      43.973  28.306  30.745  1.00  0.00     0.167 HD
ATOM     34  C   UNL A   1      45.437  25.884  30.532  1.00  0.00     0.074 A 
ATOM     35  C   UNL A   1      45.842  24.559  30.106  1.00  0.00     0.031 C 
ATOM     36  C   UNL A   1      46.200  26.707  31.292  1.00  0.00     0.031 A 
BRANCH  23  37
ATOM     37  C   UNL A   1      43.773  32.314  32.173  1.00  0.00    -0.014 A 
ATOM     38  C   UNL A   1      43.136  32.652  33.382  1.00  0.00     0.010 A 
ATOM     39  C   UNL A   1      44.564  33.272  31.518  1.00  0.00     0.010 A 
ATOM     40  C   UNL A   1      43.266  33.937  33.913  1.00  0.00     0.020 A 
ATOM     41  C   UNL A   1      44.707  34.555  32.054  1.00  0.00     0.020 A 
ATOM     42  C   UNL A   1      44.047  34.882  33.242  1.00  0.00     0.054 A 
BRANCH  42  43
ATOM     43  S   UNL A   1      44.215  36.537  33.966  1.00  0.00     0.124 S 
ATOM     44  O   UNL A   1      44.468  36.225  35.370  1.00  0.00    -0.237 OA
ATOM     45  O   UNL A   1      45.348  37.095  33.233  1.00  0.00    -0.237 OA
ATOM     46  O   UNL A   1      42.926  37.168  33.691  1.00  0.00    -0.744 OA
ENDBRANCH  42  43
ENDBRANCH  23  37
BRANCH  24  47
ATOM     47  C   UNL A   1      42.394  23.346  27.990  1.00  0.00    -0.014 A 
ATOM     48  C   UNL A   1      41.716  22.274  28.597  1.00  0.00     0.010 A 
ATOM     49  C   UNL A   1      42.964  23.164  26.716  1.00  0.00     0.010 A 
ATOM     50  C   UNL A   1      41.640  21.033  27.954  1.00  0.00     0.020 A 
ATOM     51  C   UNL A   1      42.872  21.931  26.064  1.00  0.00     0.020 A 
ATOM     52  C   UNL A   1      42.224  20.868  26.695  1.00  0.00     0.054 A 
BRANCH  52  53
ATOM     53  S   UNL A   1      42.102  19.253  25.874  1.00  0.00     0.124 S 
ATOM     54  O   UNL A   1      40.667  19.143  25.635  1.00  0.00    -0.237 OA
ATOM     55  O   UNL A   1      42.932  19.439  24.687  1.00  0.00    -0.237 OA
ATOM     56  O   UNL A   1      42.647  18.328  26.865  1.00  0.00    -0.744 OA
ENDBRANCH  52  53
ENDBRANCH  24  47
BRANCH  36  57
ATOM     57  C   UNL A   1      47.536  26.191  31.742  1.00  0.00    -0.014 A 
ATOM     58  C   UNL A   1      47.682  25.552  32.985  1.00  0.00     0.010 A 
ATOM     59  C   UNL A   1      48.641  26.280  30.875  1.00  0.00     0.010 A 
ATOM     60  C   UNL A   1      48.918  25.021  33.360  1.00  0.00     0.020 A 
ATOM     61  C   UNL A   1      49.871  25.731  31.239  1.00  0.00     0.020 A 
ATOM     62  C   UNL A   1      50.004  25.112  32.485  1.00  0.00     0.054 A 
BRANCH  62  63
ATOM     63  S   UNL A   1      51.582  24.354  32.961  1.00  0.00     0.124 S 
ATOM     64  O   UNL A   1      51.497  23.046  32.318  1.00  0.00    -0.237 OA
ATOM     65  O   UNL A   1      52.567  25.271  32.394  1.00  0.00    -0.237 OA
ATOM     66  O   UNL A   1      51.527  24.336  34.422  1.00  0.00    -0.744 OA
ENDBRANCH  62  63
ENDBRANCH  36  57
ENDBRANCH  10  11
ENDBRANCH   3   5
ENDBRANCH   2   3
ENDBRANCH   1   2
BRANCH   1  67
ATOM     67  C   UNL A   1      33.228  34.034  28.202  1.00  0.00     0.275 C 
BRANCH  67  68
ATOM     68  O   UNL A   1      32.655  34.633  29.374  1.00  0.00    -0.458 OA
BRANCH  68  69
ATOM     69  C   UNL A   1      33.003  35.927  29.566  1.00  0.00     0.338 C 
ATOM     70  O   UNL A   1      32.849  36.862  28.802  1.00  0.00    -0.246 OA
BRANCH  69  71
ATOM     71  C   UNL A   1      33.572  36.107  30.905  1.00  0.00     0.064 A 
ATOM     72  C   UNL A   1      33.527  37.347  31.519  1.00  0.00     0.036 A 
ATOM     73  C   UNL A   1      33.999  34.975  31.600  1.00  0.00     0.051 A 
ATOM     74  C   UNL A   1      33.914  37.391  32.842  1.00  0.00     0.113 A 
ATOM     75  C   UNL A   1      34.319  35.096  32.935  1.00  0.00     0.097 A 
ATOM     76  N   UNL A   1      34.288  36.299  33.549  1.00  0.00    -0.250 NA
BRANCH  75  77
ATOM     77  S   UNL A   1      34.935  33.776  33.939  1.00  0.00    -0.103 SA
BRANCH  77  78
ATOM     78  C   UNL A   1      36.787  33.847  34.002  1.00  0.00     0.058 C 
ATOM     79  C   UNL A   1      37.419  34.666  32.875  1.00  0.00     0.043 C 
ATOM     80  C   UNL A   1      37.584  32.616  34.467  1.00  0.00     0.053 C 
ATOM     81  C   UNL A   1      38.260  33.852  31.916  1.00  0.00     0.162 C 
ATOM     82  C   UNL A   1      38.558  32.011  33.432  1.00  0.00     0.095 C 
ATOM     83  O   UNL A   1      39.163  33.021  32.625  1.00  0.00    -0.372 OA
ATOM     84  C   UNL A   1      37.928  30.878  32.635  1.00  0.00     0.066 C 
ATOM     85  C   UNL A   1      39.703  31.248  34.110  1.00  0.00     0.195 C 
ATOM     86  C   UNL A   1      38.310  29.596  33.354  1.00  0.00     0.163 C 
ATOM     87  O   UNL A   1      39.213  29.940  34.406  1.00  0.00    -0.378 OA
ENDBRANCH  77  78
ENDBRANCH  75  77
ENDBRANCH  69  71
ENDBRANCH  68  69
ENDBRANCH  67  68
ENDBRANCH   1  67
TORSDOF 16
ENDMDL
MODEL 2
REMARK VINA RESULT:     -10.3      4.656     12.364
REMARK SMILES O=C(OCCOC(=O)c1ccnc(S[C@@H]2CCO[C@]3(CCOC3)C2)c1)c1ccc(-c2c3nc(c(-c4ccc(S(=O)(=O)[O-])cc4)c4ccc([nH]4)c(-c4ccc(S(=O)(=O)[O-])cc4)c4nc(c(-c5ccc(S(=O)(=O)[O-])cc5)c5ccc2[nH]5)C=C4)C=C3)cc1
REMARK SMILES IDX 4 1 3 2 2 3 1 4 26 5 27 6 85 7 28 8 84 9 29 10 30 11 31 12
REMARK SMILES IDX 78 13 32 14 83 15 77 16 79 17 33 18 82 19 76 20 75 21 34 23
REMARK SMILES IDX 64 24 45 25 63 26 46 27 49 28 62 29 80 30 47 31 48 32 61 34
REMARK SMILES IDX 81 35 50 36 35 37 36 38 44 39 37 40 43 41 38 42 39 43 40 44
REMARK SMILES IDX 41 45 42 46 65 47 66 48 74 49 67 50 73 51 68 52 69 53 70 54
REMARK SMILES IDX 71 55 72 56 51 57 52 58 60 59 53 60 59 61 54 62 55 63 56 64
REMARK SMILES IDX 57 65 58 66 5 67 6 68 7 69 8 70 9 71 10 72 25 73 11 74 13 75
REMARK SMILES IDX 12 76 14 77 15 78 16 79 24 80 17 81 19 82 18 83 20 84 23 85
REMARK SMILES IDX 21 86 22 87
REMARK H PARENT 79 22 49 33
REMARK Flexibility Score: inf
ROOT
ATOM      1  C   UNL A   1      43.030  23.001  25.268  1.00  0.00     0.275 C 
ENDROOT
BRANCH   1   2
ATOM      2  O   UNL A   1      43.010  24.091  26.218  1.00  0.00    -0.458 OA
BRANCH   2   3
ATOM      3  C   UNL A   1      42.559  25.360  26.073  1.00  0.00     0.338 C 
ATOM      4  O   UNL A   1      42.566  25.875  24.955  1.00  0.00    -0.246 OA
BRANCH   3   5
ATOM      5  C   UNL A   1      42.129  26.199  27.227  1.00  0.00     0.060 A 
ATOM      6  C   UNL A   1      41.057  25.908  28.071  1.00  0.00     0.016 A 
ATOM      7  C   UNL A   1      42.840  27.392  27.442  1.00  0.00     0.016 A 
ATOM      8  C   UNL A   1      40.802  26.701  29.194  1.00  0.00     0.010 A 
ATOM      9  C   UNL A   1      42.590  28.190  28.559  1.00  0.00     0.010 A 
ATOM     10  C   UNL A   1      41.577  27.835  29.453  1.00  0.00    -0.014 A 
BRANCH  10  11
ATOM     11  C   UNL A   1      41.243  28.723  30.586  1.00  0.00     0.031 A 
ATOM     12  C   UNL A   1      41.956  28.527  31.890  1.00  0.00     0.074 A 
ATOM     13  C   UNL A   1      40.318  29.691  30.450  1.00  0.00     0.049 A 
ATOM     14  N   UNL A   1      41.899  29.257  32.972  1.00  0.00    -0.248 NA
ATOM     15  C   UNL A   1      42.869  27.374  31.982  1.00  0.00     0.031 C 
ATOM     16  C   UNL A   1      39.563  29.977  29.230  1.00  0.00     0.029 A 
ATOM     17  N   UNL A   1      39.838  30.601  31.358  1.00  0.00    -0.354 N 
ATOM     18  C   UNL A   1      42.808  28.687  33.851  1.00  0.00     0.074 A 
ATOM     19  C   UNL A   1      43.352  27.511  33.209  1.00  0.00     0.031 C 
ATOM     20  C   UNL A   1      38.668  30.949  29.484  1.00  0.00     0.029 A 
ATOM     21  C   UNL A   1      38.800  31.364  30.877  1.00  0.00     0.049 A 
ATOM     22  H   UNL A   1      40.202  30.698  32.267  1.00  0.00     0.167 HD
ATOM     23  C   UNL A   1      43.183  29.130  35.072  1.00  0.00     0.031 A 
ATOM     24  C   UNL A   1      38.038  32.283  31.501  1.00  0.00     0.031 A 
ATOM     25  C   UNL A   1      42.606  30.273  35.720  1.00  0.00     0.049 A 
ATOM     26  C   UNL A   1      38.370  32.660  32.922  1.00  0.00     0.074 A 
ATOM     27  C   UNL A   1      42.961  30.854  36.923  1.00  0.00     0.029 A 
ATOM     28  N   UNL A   1      41.523  30.986  35.231  1.00  0.00    -0.354 N 
ATOM     29  N   UNL A   1      39.344  32.217  33.681  1.00  0.00    -0.248 NA
ATOM     30  C   UNL A   1      37.524  33.678  33.559  1.00  0.00     0.031 C 
ATOM     31  C   UNL A   1      42.054  31.887  37.188  1.00  0.00     0.029 A 
ATOM     32  C   UNL A   1      41.161  31.971  36.131  1.00  0.00     0.049 A 
ATOM     33  H   UNL A   1      41.077  30.816  34.370  1.00  0.00     0.167 HD
ATOM     34  C   UNL A   1      39.253  32.932  34.869  1.00  0.00     0.074 A 
ATOM     35  C   UNL A   1      38.126  33.833  34.731  1.00  0.00     0.031 C 
ATOM     36  C   UNL A   1      40.041  32.861  35.970  1.00  0.00     0.031 A 
BRANCH  23  37
ATOM     37  C   UNL A   1      44.282  28.381  35.763  1.00  0.00    -0.014 A 
ATOM     38  C   UNL A   1      43.978  27.449  36.772  1.00  0.00     0.010 A 
ATOM     39  C   UNL A   1      45.622  28.586  35.394  1.00  0.00     0.010 A 
ATOM     40  C   UNL A   1      44.999  26.752  37.421  1.00  0.00     0.020 A 
ATOM     41  C   UNL A   1      46.646  27.881  36.034  1.00  0.00     0.020 A 
ATOM     42  C   UNL A   1      46.328  26.978  37.051  1.00  0.00     0.054 A 
BRANCH  42  43
ATOM     43  S   UNL A   1      47.632  26.044  37.897  1.00  0.00     0.124 S 
ATOM     44  O   UNL A   1      48.840  26.696  37.397  1.00  0.00    -0.237 OA
ATOM     45  O   UNL A   1      47.332  26.279  39.308  1.00  0.00    -0.237 OA
ATOM     46  O   UNL A   1      47.429  24.672  37.440  1.00  0.00    -0.744 OA
ENDBRANCH  42  43
ENDBRANCH  23  37
BRANCH  24  47
ATOM     47  C   UNL A   1      36.876  32.898  30.806  1.00  0.00    -0.014 A 
ATOM     48  C   UNL A   1      37.049  33.946  29.886  1.00  0.00     0.010 A 
ATOM     49  C   UNL A   1      35.573  32.452  31.100  1.00  0.00     0.010 A 
ATOM     50  C   UNL A   1      35.938  34.559  29.296  1.00  0.00     0.020 A 
ATOM     51  C   UNL A   1      34.462  33.050  30.498  1.00  0.00     0.020 A 
ATOM     52  C   UNL A   1      34.651  34.111  29.611  1.00  0.00     0.054 A 
BRANCH  52  53
ATOM     53  S   UNL A   1      33.225  34.913  28.825  1.00  0.00     0.124 S 
ATOM     54  O   UNL A   1      32.672  33.829  28.022  1.00  0.00    -0.237 OA
ATOM     55  O   UNL A   1      32.423  35.325  29.975  1.00  0.00    -0.237 OA
ATOM     56  O   UNL A   1      33.826  36.011  28.072  1.00  0.00    -0.744 OA
ENDBRANCH  52  53
ENDBRANCH  24  47
BRANCH  36  57
ATOM     57  C   UNL A   1      39.736  33.803  37.100  1.00  0.00    -0.014 A 
ATOM     58  C   UNL A   1      38.859  33.431  38.133  1.00  0.00     0.010 A 
ATOM     59  C   UNL A   1      40.395  35.044  37.164  1.00  0.00     0.010 A 
ATOM     60  C   UNL A   1      38.636  34.293  39.208  1.00  0.00     0.020 A 
ATOM     61  C   UNL A   1      40.191  35.897  38.249  1.00  0.00     0.020 A 
ATOM     62  C   UNL A   1      39.305  35.520  39.260  1.00  0.00     0.054 A 
BRANCH  62  63
ATOM     63  S   UNL A   1      39.056  36.595  40.701  1.00  0.00     0.124 S 
ATOM     64  O   UNL A   1      38.266  35.741  41.583  1.00  0.00    -0.237 OA
ATOM     65  O   UNL A   1      40.421  36.865  41.143  1.00  0.00    -0.237 OA
ATOM     66  O   UNL A   1      38.348  37.749  40.149  1.00  0.00    -0.744 OA
ENDBRANCH  62  63
ENDBRANCH  36  57
ENDBRANCH  10  11
ENDBRANCH   3   5
ENDBRANCH   2   3
ENDBRANCH   1   2
BRANCH   1  67
ATOM     67  C   UNL A   1      42.661  21.650  25.872  1.00  0.00     0.275 C 
BRANCH  67  68
ATOM     68  O   UNL A   1      41.531  21.758  26.751  1.00  0.00    -0.458 OA
BRANCH  68  69
ATOM     69  C   UNL A   1      40.437  21.077  26.339  1.00  0.00     0.338 C 
ATOM     70  O   UNL A   1      40.342  19.885  26.110  1.00  0.00    -0.246 OA
BRANCH  69  71
ATOM     71  C   UNL A   1      39.284  21.977  26.245  1.00  0.00     0.064 A 
ATOM     72  C   UNL A   1      39.337  23.238  26.816  1.00  0.00     0.036 A 
ATOM     73  C   UNL A   1      38.214  21.601  25.432  1.00  0.00     0.051 A 
ATOM     74  C   UNL A   1      38.290  24.087  26.528  1.00  0.00     0.113 A 
ATOM     75  C   UNL A   1      37.234  22.528  25.152  1.00  0.00     0.097 A 
ATOM     76  N   UNL A   1      37.265  23.760  25.705  1.00  0.00    -0.250 NA
BRANCH  75  77
ATOM     77  S   UNL A   1      35.785  22.192  24.194  1.00  0.00    -0.103 SA
BRANCH  77  78
ATOM     78  C   UNL A   1      34.438  21.554  25.296  1.00  0.00     0.058 C 
ATOM     79  C   UNL A   1      33.743  20.297  24.771  1.00  0.00     0.043 C 
ATOM     80  C   UNL A   1      33.545  22.545  26.064  1.00  0.00     0.053 C 
ATOM     81  C   UNL A   1      32.287  20.499  24.413  1.00  0.00     0.162 C 
ATOM     82  C   UNL A   1      32.037  22.494  25.731  1.00  0.00     0.095 C 
ATOM     83  O   UNL A   1      31.601  21.162  25.463  1.00  0.00    -0.372 OA
ATOM     84  C   UNL A   1      31.646  23.499  24.658  1.00  0.00     0.066 C 
ATOM     85  C   UNL A   1      31.182  23.009  26.895  1.00  0.00     0.195 C 
ATOM     86  C   UNL A   1      31.173  24.739  25.397  1.00  0.00     0.163 C 
ATOM     87  O   UNL A   1      31.152  24.432  26.792  1.00  0.00    -0.378 OA
ENDBRANCH  77  78
ENDBRANCH  75  77
ENDBRANCH  69  71
ENDBRANCH  68  69
ENDBRANCH  67  68
ENDBRANCH   1  67
TORSDOF 16
ENDMDL
MODEL 3
REMARK VINA RESULT:     -10.3      3.996      7.496
REMARK SMILES O=C(OCCOC(=O)c1ccnc(S[C@@H]2CCO[C@]3(CCOC3)C2)c1)c1ccc(-c2c3nc(c(-c4ccc(S(=O)(=O)[O-])cc4)c4ccc([nH]4)c(-c4ccc(S(=O)(=O)[O-])cc4)c4nc(c(-c5ccc(S(=O)(=O)[O-])cc5)c5ccc2[nH]5)C=C4)C=C3)cc1
REMARK SMILES IDX 4 1 3 2 2 3 1 4 26 5 27 6 85 7 28 8 84 9 29 10 30 11 31 12
REMARK SMILES IDX 78 13 32 14 83 15 77 16 79 17 33 18 82 19 76 20 75 21 34 23
REMARK SMILES IDX 64 24 45 25 63 26 46 27 49 28 62 29 80 30 47 31 48 32 61 34
REMARK SMILES IDX 81 35 50 36 35 37 36 38 44 39 37 40 43 41 38 42 39 43 40 44
REMARK SMILES IDX 41 45 42 46 65 47 66 48 74 49 67 50 73 51 68 52 69 53 70 54
REMARK SMILES IDX 71 55 72 56 51 57 52 58 60 59 53 60 59 61 54 62 55 63 56 64
REMARK SMILES IDX 57 65 58 66 5 67 6 68 7 69 8 70 9 71 10 72 25 73 11 74 13 75
REMARK SMILES IDX 12 76 14 77 15 78 16 79 24 80 17 81 19 82 18 83 20 84 23 85
REMARK SMILES IDX 21 86 22 87
REMARK H PARENT 79 22 49 33
REMARK Flexibility Score: inf
ROOT
ATOM      1  C   UNL A   1      32.648  29.900  25.995  1.00  0.00     0.275 C 
ENDROOT
BRANCH   1   2
ATOM      2  O   UNL A   1      33.587  29.661  27.069  1.00  0.00    -0.458 OA
BRANCH   2   3
ATOM      3  C   UNL A   1      34.468  30.506  27.656  1.00  0.00     0.338 C 
ATOM      4  O   UNL A   1      34.181  31.699  27.751  1.00  0.00    -0.246 OA
BRANCH   3   5
ATOM      5  C   UNL A   1      35.814  30.071  28.121  1.00  0.00     0.060 A 
ATOM      6  C   UNL A   1      36.108  29.621  29.409  1.00  0.00     0.016 A 
ATOM      7  C   UNL A   1      36.866  30.165  27.194  1.00  0.00     0.016 A 
ATOM      8  C   UNL A   1      37.381  29.129  29.716  1.00  0.00     0.010 A 
ATOM      9  C   UNL A   1      38.139  29.679  27.494  1.00  0.00     0.010 A 
ATOM     10  C   UNL A   1      38.397  29.140  28.756  1.00  0.00    -0.014 A 
BRANCH  10  11
ATOM     11  C   UNL A   1      39.765  28.710  29.114  1.00  0.00     0.031 A 
ATOM     12  C   UNL A   1      40.696  29.710  29.729  1.00  0.00     0.074 A 
ATOM     13  C   UNL A   1      40.166  27.445  28.894  1.00  0.00     0.049 A 
ATOM     14  N   UNL A   1      41.893  29.522  30.217  1.00  0.00    -0.248 NA
ATOM     15  C   UNL A   1      40.212  31.098  29.829  1.00  0.00     0.031 C 
ATOM     16  C   UNL A   1      39.347  26.386  28.304  1.00  0.00     0.029 A 
ATOM     17  N   UNL A   1      41.377  26.840  29.120  1.00  0.00    -0.354 N 
ATOM     18  C   UNL A   1      42.281  30.750  30.733  1.00  0.00     0.074 A 
ATOM     19  C   UNL A   1      41.227  31.694  30.437  1.00  0.00     0.031 C 
ATOM     20  C   UNL A   1      40.099  25.280  28.154  1.00  0.00     0.029 A 
ATOM     21  C   UNL A   1      41.444  25.549  28.653  1.00  0.00     0.049 A 
ATOM     22  H   UNL A   1      42.126  27.289  29.573  1.00  0.00     0.167 HD
ATOM     23  C   UNL A   1      43.402  31.051  31.426  1.00  0.00     0.031 A 
ATOM     24  C   UNL A   1      42.481  24.690  28.624  1.00  0.00     0.031 A 
ATOM     25  C   UNL A   1      44.463  30.117  31.677  1.00  0.00     0.049 A 
ATOM     26  C   UNL A   1      43.782  25.098  29.266  1.00  0.00     0.074 A 
ATOM     27  C   UNL A   1      45.608  30.294  32.430  1.00  0.00     0.029 A 
ATOM     28  N   UNL A   1      44.522  28.839  31.144  1.00  0.00    -0.354 N 
ATOM     29  N   UNL A   1      44.071  26.213  29.894  1.00  0.00    -0.248 NA
ATOM     30  C   UNL A   1      44.882  24.125  29.225  1.00  0.00     0.031 C 
ATOM     31  C   UNL A   1      46.389  29.139  32.307  1.00  0.00     0.029 A 
ATOM     32  C   UNL A   1      45.709  28.232  31.509  1.00  0.00     0.049 A 
ATOM     33  H   UNL A   1      43.823  28.426  30.588  1.00  0.00     0.167 HD
ATOM     34  C   UNL A   1      45.372  26.059  30.358  1.00  0.00     0.074 A 
ATOM     35  C   UNL A   1      45.815  24.746  29.935  1.00  0.00     0.031 C 
ATOM     36  C   UNL A   1      46.127  26.921  31.082  1.00  0.00     0.031 A 
BRANCH  23  37
ATOM     37  C   UNL A   1      43.513  32.442  31.974  1.00  0.00    -0.014 A 
ATOM     38  C   UNL A   1      44.204  33.433  31.253  1.00  0.00     0.010 A 
ATOM     39  C   UNL A   1      42.910  32.773  33.199  1.00  0.00     0.010 A 
ATOM     40  C   UNL A   1      44.313  34.728  31.763  1.00  0.00     0.020 A 
ATOM     41  C   UNL A   1      43.008  34.072  33.705  1.00  0.00     0.020 A 
ATOM     42  C   UNL A   1      43.719  35.038  32.989  1.00  0.00     0.054 A 
BRANCH  42  43
ATOM     43  S   UNL A   1      43.861  36.734  33.616  1.00  0.00     0.124 S 
ATOM     44  O   UNL A   1      45.125  36.679  34.346  1.00  0.00    -0.237 OA
ATOM     45  O   UNL A   1      43.878  37.529  32.391  1.00  0.00    -0.237 OA
ATOM     46  O   UNL A   1      42.669  36.897  34.445  1.00  0.00    -0.744 OA
ENDBRANCH  42  43
ENDBRANCH  23  37
BRANCH  24  47
ATOM     47  C   UNL A   1      42.351  23.372  27.947  1.00  0.00    -0.014 A 
ATOM     48  C   UNL A   1      41.968  22.223  28.660  1.00  0.00     0.010 A 
ATOM     49  C   UNL A   1      42.653  23.259  26.577  1.00  0.00     0.010 A 
ATOM     50  C   UNL A   1      41.921  20.978  28.021  1.00  0.00     0.020 A 
ATOM     51  C   UNL A   1      42.588  22.021  25.932  1.00  0.00     0.020 A 
ATOM     52  C   UNL A   1      42.238  20.885  26.663  1.00  0.00     0.054 A 
BRANCH  52  53
ATOM     53  S   UNL A   1      42.158  19.262  25.852  1.00  0.00     0.124 S 
ATOM     54  O   UNL A   1      40.728  19.119  25.601  1.00  0.00    -0.237 OA
ATOM     55  O   UNL A   1      42.994  19.460  24.671  1.00  0.00    -0.237 OA
ATOM     56  O   UNL A   1      42.715  18.355  26.853  1.00  0.00    -0.744 OA
ENDBRANCH  52  53
ENDBRANCH  24  47
BRANCH  36  57
ATOM     57  C   UNL A   1      47.496  26.463  31.495  1.00  0.00    -0.014 A 
ATOM     58  C   UNL A   1      47.695  25.788  32.711  1.00  0.00     0.010 A 
ATOM     59  C   UNL A   1      48.581  26.643  30.618  1.00  0.00     0.010 A 
ATOM     60  C   UNL A   1      48.964  25.312  33.050  1.00  0.00     0.020 A 
ATOM     61  C   UNL A   1      49.844  26.150  30.944  1.00  0.00     0.020 A 
ATOM     62  C   UNL A   1      50.030  25.495  32.164  1.00  0.00     0.054 A 
BRANCH  62  63
ATOM     63  S   UNL A   1      51.654  24.807  32.591  1.00  0.00     0.124 S 
ATOM     64  O   UNL A   1      51.693  24.997  34.038  1.00  0.00    -0.237 OA
ATOM     65  O   UNL A   1      51.548  23.421  32.141  1.00  0.00    -0.237 OA
ATOM     66  O   UNL A   1      52.587  25.632  31.826  1.00  0.00    -0.744 OA
ENDBRANCH  62  63
ENDBRANCH  36  57
ENDBRANCH  10  11
ENDBRANCH   3   5
ENDBRANCH   2   3
ENDBRANCH   1   2
BRANCH   1  67
ATOM     67  C   UNL A   1      32.399  28.682  25.112  1.00  0.00     0.275 C 
BRANCH  67  68
ATOM     68  O   UNL A   1      32.444  27.464  25.870  1.00  0.00    -0.458 OA
BRANCH  68  69
ATOM     69  C   UNL A   1      33.008  26.421  25.217  1.00  0.00     0.338 C 
ATOM     70  O   UNL A   1      33.758  26.459  24.259  1.00  0.00    -0.246 OA
BRANCH  69  71
ATOM     71  C   UNL A   1      32.642  25.159  25.865  1.00  0.00     0.064 A 
ATOM     72  C   UNL A   1      31.347  24.956  26.312  1.00  0.00     0.036 A 
ATOM     73  C   UNL A   1      33.573  24.119  25.864  1.00  0.00     0.051 A 
ATOM     74  C   UNL A   1      31.038  23.682  26.740  1.00  0.00     0.113 A 
ATOM     75  C   UNL A   1      33.168  22.863  26.260  1.00  0.00     0.097 A 
ATOM     76  N   UNL A   1      31.911  22.648  26.706  1.00  0.00    -0.250 NA
BRANCH  75  77
ATOM     77  S   UNL A   1      34.236  21.458  26.376  1.00  0.00    -0.103 SA
BRANCH  77  78
ATOM     78  C   UNL A   1      34.270  20.560  24.754  1.00  0.00     0.058 C 
ATOM     79  C   UNL A   1      33.243  21.064  23.739  1.00  0.00     0.043 C 
ATOM     80  C   UNL A   1      34.559  19.049  24.723  1.00  0.00     0.053 C 
ATOM     81  C   UNL A   1      32.172  20.054  23.389  1.00  0.00     0.162 C 
ATOM     82  C   UNL A   1      33.437  18.157  24.148  1.00  0.00     0.095 C 
ATOM     83  O   UNL A   1      32.752  18.800  23.074  1.00  0.00    -0.372 OA
ATOM     84  C   UNL A   1      32.517  17.613  25.230  1.00  0.00     0.066 C 
ATOM     85  C   UNL A   1      33.990  16.840  23.589  1.00  0.00     0.195 C 
ATOM     86  C   UNL A   1      33.060  16.242  25.593  1.00  0.00     0.163 C 
ATOM     87  O   UNL A   1      34.128  15.945  24.693  1.00  0.00    -0.378 OA
ENDBRANCH  77  78
ENDBRANCH  75  77
ENDBRANCH  69  71
ENDBRANCH  68  69
ENDBRANCH  67  68
ENDBRANCH   1  67
TORSDOF 16
ENDMDL
