MODEL 1
REMARK VINA RESULT:     -10.3      0.000      0.000
REMARK SMILES O=C(OCCOC(=O)C1CCN(S(=O)(=O)c2ccc3nc(O)sc3c2)CC1)c1ccc(-c2c3nc(c(-c4ccc(S(=O)(=O)[O-])cc4)c4ccc([nH]4)c(-c4ccc(S(=O)(=O)[O-])cc4)c4nc(c(-c5ccc(S(=O)(=O)[O-])cc5)c5ccc2[nH]5)C=C4)C=C3)cc1
REMARK SMILES IDX 4 1 3 2 2 3 1 4 28 5 29 6 87 7 30 8 86 9 31 10 32 11 33 12
REMARK SMILES IDX 80 13 34 14 85 15 79 16 81 17 35 18 84 19 78 20 77 21 36 23
REMARK SMILES IDX 66 24 47 25 65 26 48 27 51 28 64 29 82 30 49 31 50 32 63 34
REMARK SMILES IDX 83 35 52 36 37 37 38 38 46 39 39 40 45 41 40 42 41 43 42 44
REMARK SMILES IDX 43 45 44 46 67 47 68 48 76 49 69 50 75 51 70 52 71 53 72 54
REMARK SMILES IDX 73 55 74 56 53 57 54 58 62 59 55 60 61 61 56 62 57 63 58 64
REMARK SMILES IDX 59 65 60 66 5 67 6 68 7 69 8 70 9 71 10 72 27 73 11 74 26 75
REMARK SMILES IDX 12 76 13 77 14 78 15 79 16 80 17 81 25 82 18 83 24 84 19 85
REMARK SMILES IDX 23 86 20 87 21 88 22 89
REMARK H PARENT 81 22 51 33 22 90
REMARK Flexibility Score: inf
ROOT
ATOM      1  C   UNL A   1      34.276  33.829  28.706  1.00  0.00     0.275 C 
ENDROOT
BRANCH   1   2
ATOM      2  O   UNL A   1      33.753  32.563  28.259  1.00  0.00    -0.458 OA
BRANCH   2   3
ATOM      3  C   UNL A   1      34.413  31.498  27.736  1.00  0.00     0.338 C 
ATOM      4  O   UNL A   1      33.831  30.850  26.861  1.00  0.00    -0.246 OA
BRANCH   3   5
ATOM      5  C   UNL A   1      35.703  30.939  28.290  1.00  0.00     0.060 A 
ATOM      6  C   UNL A   1      35.598  30.417  29.576  1.00  0.00     0.016 A 
ATOM      7  C   UNL A   1      36.998  31.055  27.767  1.00  0.00     0.016 A 
ATOM      8  C   UNL A   1      36.726  30.306  30.386  1.00  0.00     0.010 A 
ATOM      9  C   UNL A   1      38.135  30.997  28.609  1.00  0.00     0.010 A 
ATOM     10  C   UNL A   1      37.986  30.730  29.967  1.00  0.00    -0.014 A 
BRANCH  10  11
ATOM     11  C   UNL A   1      39.046  30.544  30.991  1.00  0.00     0.031 A 
ATOM     12  C   UNL A   1      39.538  29.154  30.852  1.00  0.00     0.074 A 
ATOM     13  C   UNL A   1      39.959  31.399  31.505  1.00  0.00     0.049 A 
ATOM     14  N   UNL A   1      40.375  28.907  29.894  1.00  0.00    -0.248 NA
ATOM     15  C   UNL A   1      38.810  27.988  31.347  1.00  0.00     0.031 C 
ATOM     16  C   UNL A   1      40.543  32.561  30.838  1.00  0.00     0.029 A 
ATOM     17  N   UNL A   1      40.660  31.311  32.699  1.00  0.00    -0.354 N 
ATOM     18  C   UNL A   1      40.173  27.601  29.533  1.00  0.00     0.074 A 
ATOM     19  C   UNL A   1      39.221  27.053  30.477  1.00  0.00     0.031 C 
ATOM     20  C   UNL A   1      41.605  32.990  31.553  1.00  0.00     0.029 A 
ATOM     21  C   UNL A   1      41.734  32.201  32.781  1.00  0.00     0.049 A 
ATOM     22  H   UNL A   1      40.424  30.682  33.418  1.00  0.00     0.167 HD
ATOM     23  C   UNL A   1      40.773  27.082  28.436  1.00  0.00     0.031 A 
ATOM     24  C   UNL A   1      42.921  31.932  33.406  1.00  0.00     0.031 A 
ATOM     25  C   UNL A   1      41.677  27.964  27.754  1.00  0.00     0.049 A 
ATOM     26  C   UNL A   1      43.570  31.017  32.392  1.00  0.00     0.074 A 
ATOM     27  C   UNL A   1      41.733  28.663  26.570  1.00  0.00     0.029 A 
ATOM     28  N   UNL A   1      42.828  28.309  28.422  1.00  0.00    -0.354 N 
ATOM     29  N   UNL A   1      44.128  31.385  31.265  1.00  0.00    -0.248 NA
ATOM     30  C   UNL A   1      43.202  29.604  32.452  1.00  0.00     0.031 C 
ATOM     31  C   UNL A   1      42.712  29.689  26.773  1.00  0.00     0.029 A 
ATOM     32  C   UNL A   1      43.170  29.593  28.088  1.00  0.00     0.049 A 
ATOM     33  H   UNL A   1      43.327  27.728  29.041  1.00  0.00     0.167 HD
ATOM     34  C   UNL A   1      43.837  30.354  30.364  1.00  0.00     0.074 A 
ATOM     35  C   UNL A   1      43.297  29.280  31.171  1.00  0.00     0.031 C 
ATOM     36  C   UNL A   1      43.853  30.494  29.005  1.00  0.00     0.031 A 
BRANCH  23  37
ATOM     37  C   UNL A   1      40.704  25.650  28.142  1.00  0.00    -0.014 A 
ATOM     38  C   UNL A   1      39.600  25.025  27.550  1.00  0.00     0.010 A 
ATOM     39  C   UNL A   1      41.854  24.909  28.454  1.00  0.00     0.010 A 
ATOM     40  C   UNL A   1      39.665  23.661  27.254  1.00  0.00     0.020 A 
ATOM     41  C   UNL A   1      41.923  23.557  28.161  1.00  0.00     0.020 A 
ATOM     42  C   UNL A   1      40.830  22.940  27.558  1.00  0.00     0.054 A 
BRANCH  42  43
ATOM     43  S   UNL A   1      40.923  21.184  27.134  1.00  0.00     0.124 S 
ATOM     44  O   UNL A   1      42.225  21.100  26.477  1.00  0.00    -0.237 OA
ATOM     45  O   UNL A   1      40.831  20.543  28.442  1.00  0.00    -0.237 OA
ATOM     46  O   UNL A   1      39.771  20.978  26.259  1.00  0.00    -0.744 OA
ENDBRANCH  42  43
ENDBRANCH  23  37
BRANCH  24  47
ATOM     47  C   UNL A   1      42.832  31.643  34.879  1.00  0.00    -0.014 A 
ATOM     48  C   UNL A   1      41.738  31.913  35.718  1.00  0.00     0.010 A 
ATOM     49  C   UNL A   1      43.990  31.111  35.490  1.00  0.00     0.010 A 
ATOM     50  C   UNL A   1      41.873  31.888  37.115  1.00  0.00     0.020 A 
ATOM     51  C   UNL A   1      44.121  31.040  36.883  1.00  0.00     0.020 A 
ATOM     52  C   UNL A   1      43.085  31.505  37.687  1.00  0.00     0.054 A 
BRANCH  52  53
ATOM     53  S   UNL A   1      43.318  31.719  39.472  1.00  0.00     0.124 S 
ATOM     54  O   UNL A   1      44.008  33.005  39.529  1.00  0.00    -0.237 OA
ATOM     55  O   UNL A   1      41.949  31.716  39.976  1.00  0.00    -0.237 OA
ATOM     56  O   UNL A   1      44.125  30.563  39.857  1.00  0.00    -0.744 OA
ENDBRANCH  52  53
ENDBRANCH  24  47
BRANCH  36  57
ATOM     57  C   UNL A   1      44.510  31.717  28.434  1.00  0.00    -0.014 A 
ATOM     58  C   UNL A   1      43.766  32.876  28.143  1.00  0.00     0.010 A 
ATOM     59  C   UNL A   1      45.827  31.617  27.962  1.00  0.00     0.010 A 
ATOM     60  C   UNL A   1      44.273  33.839  27.267  1.00  0.00     0.020 A 
ATOM     61  C   UNL A   1      46.347  32.587  27.102  1.00  0.00     0.020 A 
ATOM     62  C   UNL A   1      45.544  33.662  26.715  1.00  0.00     0.054 A 
BRANCH  62  63
ATOM     63  S   UNL A   1      46.080  34.780  25.392  1.00  0.00     0.124 S 
ATOM     64  O   UNL A   1      47.495  34.442  25.259  1.00  0.00    -0.237 OA
ATOM     65  O   UNL A   1      45.232  34.382  24.273  1.00  0.00    -0.237 OA
ATOM     66  O   UNL A   1      45.812  36.113  25.929  1.00  0.00    -0.744 OA
ENDBRANCH  62  63
ENDBRANCH  36  57
ENDBRANCH  10  11
ENDBRANCH   3   5
ENDBRANCH   2   3
ENDBRANCH   1   2
BRANCH   1  67
ATOM     67  C   UNL A   1      33.250  34.737  29.415  1.00  0.00     0.274 C 
BRANCH  67  68
ATOM     68  O   UNL A   1      33.360  34.530  30.827  1.00  0.00    -0.462 OA
BRANCH  68  69
ATOM     69  C   UNL A   1      33.896  35.428  31.692  1.00  0.00     0.309 C 
ATOM     70  O   UNL A   1      33.638  36.616  31.739  1.00  0.00    -0.252 OA
BRANCH  69  71
ATOM     71  C   UNL A   1      34.759  34.629  32.659  1.00  0.00     0.102 C 
ATOM     72  C   UNL A   1      34.689  34.908  34.139  1.00  0.00     0.032 C 
ATOM     73  C   UNL A   1      34.586  33.142  32.484  1.00  0.00     0.032 C 
ATOM     74  C   UNL A   1      35.836  34.201  34.889  1.00  0.00     0.103 C 
ATOM     75  C   UNL A   1      35.869  32.491  32.960  1.00  0.00     0.103 C 
ATOM     76  N   UNL A   1      36.283  32.866  34.340  1.00  0.00    -0.198 NA
BRANCH  76  77
ATOM     77  S   UNL A   1      37.956  32.523  34.708  1.00  0.00     0.243 S 
ATOM     78  O   UNL A   1      38.203  31.109  34.636  1.00  0.00    -0.207 OA
ATOM     79  O   UNL A   1      38.776  33.455  33.954  1.00  0.00    -0.207 OA
BRANCH  77  80
ATOM     80  C   UNL A   1      38.118  32.907  36.429  1.00  0.00     0.084 A 
ATOM     81  C   UNL A   1      38.836  34.050  36.796  1.00  0.00     0.024 A 
ATOM     82  C   UNL A   1      37.467  32.113  37.370  1.00  0.00     0.043 A 
ATOM     83  C   UNL A   1      39.075  34.322  38.140  1.00  0.00     0.031 A 
ATOM     84  C   UNL A   1      37.700  32.415  38.716  1.00  0.00     0.059 A 
ATOM     85  C   UNL A   1      38.525  33.473  39.117  1.00  0.00     0.085 A 
ATOM     86  S   UNL A   1      37.103  31.615  40.120  1.00  0.00    -0.077 S 
ATOM     87  N   UNL A   1      38.736  33.578  40.480  1.00  0.00    -0.203 NA
ATOM     88  C   UNL A   1      38.063  32.632  41.076  1.00  0.00     0.271 A 
BRANCH  88  89
ATOM     89  O   UNL A   1      38.178  32.502  42.382  1.00  0.00    -0.486 OA
ATOM     90  H   UNL A   1      38.006  31.675  42.787  1.00  0.00     0.296 HD
ENDBRANCH  88  89
ENDBRANCH  77  80
ENDBRANCH  76  77
ENDBRANCH  69  71
ENDBRANCH  68  69
ENDBRANCH  67  68
ENDBRANCH   1  67
TORSDOF 17
ENDMDL
MODEL 2
REMARK VINA RESULT:     -10.0      4.912     11.737
REMARK SMILES O=C(OCCOC(=O)C1CCN(S(=O)(=O)c2ccc3nc(O)sc3c2)CC1)c1ccc(-c2c3nc(c(-c4ccc(S(=O)(=O)[O-])cc4)c4ccc([nH]4)c(-c4ccc(S(=O)(=O)[O-])cc4)c4nc(c(-c5ccc(S(=O)(=O)[O-])cc5)c5ccc2[nH]5)C=C4)C=C3)cc1
REMARK SMILES IDX 4 1 3 2 2 3 1 4 28 5 29 6 87 7 30 8 86 9 31 10 32 11 33 12
REMARK SMILES IDX 80 13 34 14 85 15 79 16 81 17 35 18 84 19 78 20 77 21 36 23
REMARK SMILES IDX 66 24 47 25 65 26 48 27 51 28 64 29 82 30 49 31 50 32 63 34
REMARK SMILES IDX 83 35 52 36 37 37 38 38 46 39 39 40 45 41 40 42 41 43 42 44
REMARK SMILES IDX 43 45 44 46 67 47 68 48 76 49 69 50 75 51 70 52 71 53 72 54
REMARK SMILES IDX 73 55 74 56 53 57 54 58 62 59 55 60 61 61 56 62 57 63 58 64
REMARK SMILES IDX 59 65 60 66 5 67 6 68 7 69 8 70 9 71 10 72 27 73 11 74 26 75
REMARK SMILES IDX 12 76 13 77 14 78 15 79 16 80 17 81 25 82 18 83 24 84 19 85
REMARK SMILES IDX 23 86 20 87 21 88 22 89
REMARK H PARENT 81 22 51 33 22 90
REMARK Flexibility Score: inf
ROOT
ATOM      1  C   UNL A   1      37.771  21.211  24.901  1.00  0.00     0.275 C 
ENDROOT
BRANCH   1   2
ATOM      2  O   UNL A   1      37.931  21.905  26.155  1.00  0.00    -0.458 OA
BRANCH   2   3
ATOM      3  C   UNL A   1      38.083  23.233  26.387  1.00  0.00     0.338 C 
ATOM      4  O   UNL A   1      37.186  23.980  25.985  1.00  0.00    -0.246 OA
BRANCH   3   5
ATOM      5  C   UNL A   1      39.351  23.868  26.908  1.00  0.00     0.060 A 
ATOM      6  C   UNL A   1      39.146  24.922  27.794  1.00  0.00     0.016 A 
ATOM      7  C   UNL A   1      40.669  23.666  26.472  1.00  0.00     0.016 A 
ATOM      8  C   UNL A   1      40.135  25.883  27.986  1.00  0.00     0.010 A 
ATOM      9  C   UNL A   1      41.652  24.674  26.624  1.00  0.00     0.010 A 
ATOM     10  C   UNL A   1      41.345  25.854  27.295  1.00  0.00    -0.014 A 
BRANCH  10  11
ATOM     11  C   UNL A   1      42.249  26.984  27.632  1.00  0.00     0.031 A 
ATOM     12  C   UNL A   1      41.409  28.201  27.696  1.00  0.00     0.074 A 
ATOM     13  C   UNL A   1      43.364  27.046  28.396  1.00  0.00     0.049 A 
ATOM     14  N   UNL A   1      40.714  28.394  28.773  1.00  0.00    -0.248 NA
ATOM     15  C   UNL A   1      40.918  28.905  26.514  1.00  0.00     0.031 C 
ATOM     16  C   UNL A   1      43.689  26.195  29.539  1.00  0.00     0.029 A 
ATOM     17  N   UNL A   1      44.377  27.993  28.384  1.00  0.00    -0.354 N 
ATOM     18  C   UNL A   1      39.601  29.096  28.393  1.00  0.00     0.074 A 
ATOM     19  C   UNL A   1      39.778  29.425  26.994  1.00  0.00     0.031 C 
ATOM     20  C   UNL A   1      44.731  26.737  30.206  1.00  0.00     0.029 A 
ATOM     21  C   UNL A   1      45.219  27.922  29.497  1.00  0.00     0.049 A 
ATOM     22  H   UNL A   1      44.492  28.651  27.661  1.00  0.00     0.167 HD
ATOM     23  C   UNL A   1      38.583  29.306  29.259  1.00  0.00     0.031 A 
ATOM     24  C   UNL A   1      45.795  29.004  30.105  1.00  0.00     0.031 A 
ATOM     25  C   UNL A   1      38.798  28.821  30.592  1.00  0.00     0.049 A 
ATOM     26  C   UNL A   1      44.611  29.568  30.856  1.00  0.00     0.074 A 
ATOM     27  C   UNL A   1      38.331  27.815  31.408  1.00  0.00     0.029 A 
ATOM     28  N   UNL A   1      39.773  29.449  31.331  1.00  0.00    -0.354 N 
ATOM     29  N   UNL A   1      44.097  29.090  31.962  1.00  0.00    -0.248 NA
ATOM     30  C   UNL A   1      43.717  30.449  30.106  1.00  0.00     0.031 C 
ATOM     31  C   UNL A   1      39.326  27.649  32.425  1.00  0.00     0.029 A 
ATOM     32  C   UNL A   1      40.373  28.531  32.151  1.00  0.00     0.049 A 
ATOM     33  H   UNL A   1      40.003  30.405  31.279  1.00  0.00     0.167 HD
ATOM     34  C   UNL A   1      42.720  29.307  31.846  1.00  0.00     0.074 A 
ATOM     35  C   UNL A   1      42.564  30.177  30.699  1.00  0.00     0.031 C 
ATOM     36  C   UNL A   1      41.771  28.617  32.546  1.00  0.00     0.031 A 
BRANCH  23  37
ATOM     37  C   UNL A   1      37.474  30.200  28.920  1.00  0.00    -0.014 A 
ATOM     38  C   UNL A   1      36.265  29.769  28.361  1.00  0.00     0.010 A 
ATOM     39  C   UNL A   1      37.667  31.555  29.230  1.00  0.00     0.010 A 
ATOM     40  C   UNL A   1      35.247  30.700  28.136  1.00  0.00     0.020 A 
ATOM     41  C   UNL A   1      36.661  32.480  29.011  1.00  0.00     0.020 A 
ATOM     42  C   UNL A   1      35.453  32.047  28.469  1.00  0.00     0.054 A 
BRANCH  42  43
ATOM     43  S   UNL A   1      34.115  33.239  28.214  1.00  0.00     0.124 S 
ATOM     44  O   UNL A   1      34.769  34.256  27.395  1.00  0.00    -0.237 OA
ATOM     45  O   UNL A   1      33.106  32.432  27.535  1.00  0.00    -0.237 OA
ATOM     46  O   UNL A   1      33.766  33.660  29.569  1.00  0.00    -0.744 OA
ENDBRANCH  42  43
ENDBRANCH  23  37
BRANCH  24  47
ATOM     47  C   UNL A   1      46.724  29.816  29.246  1.00  0.00    -0.014 A 
ATOM     48  C   UNL A   1      46.697  29.912  27.845  1.00  0.00     0.010 A 
ATOM     49  C   UNL A   1      47.770  30.495  29.912  1.00  0.00     0.010 A 
ATOM     50  C   UNL A   1      47.784  30.443  27.133  1.00  0.00     0.020 A 
ATOM     51  C   UNL A   1      48.840  31.068  29.212  1.00  0.00     0.020 A 
ATOM     52  C   UNL A   1      48.875  30.967  27.825  1.00  0.00     0.054 A 
BRANCH  52  53
ATOM     53  S   UNL A   1      50.368  31.415  26.898  1.00  0.00     0.124 S 
ATOM     54  O   UNL A   1      50.589  30.216  26.094  1.00  0.00    -0.237 OA
ATOM     55  O   UNL A   1      49.942  32.599  26.159  1.00  0.00    -0.237 OA
ATOM     56  O   UNL A   1      51.363  31.657  27.940  1.00  0.00    -0.744 OA
ENDBRANCH  52  53
ENDBRANCH  24  47
BRANCH  36  57
ATOM     57  C   UNL A   1      42.224  27.802  33.723  1.00  0.00    -0.014 A 
ATOM     58  C   UNL A   1      41.923  28.195  35.041  1.00  0.00     0.010 A 
ATOM     59  C   UNL A   1      43.160  26.778  33.515  1.00  0.00     0.010 A 
ATOM     60  C   UNL A   1      42.658  27.686  36.115  1.00  0.00     0.020 A 
ATOM     61  C   UNL A   1      43.884  26.251  34.587  1.00  0.00     0.020 A 
ATOM     62  C   UNL A   1      43.667  26.751  35.872  1.00  0.00     0.054 A 
BRANCH  62  63
ATOM     63  S   UNL A   1      44.774  26.296  37.234  1.00  0.00     0.124 S 
ATOM     64  O   UNL A   1      44.271  27.123  38.329  1.00  0.00    -0.237 OA
ATOM     65  O   UNL A   1      44.537  24.861  37.373  1.00  0.00    -0.237 OA
ATOM     66  O   UNL A   1      46.102  26.660  36.744  1.00  0.00    -0.744 OA
ENDBRANCH  62  63
ENDBRANCH  36  57
ENDBRANCH  10  11
ENDBRANCH   3   5
ENDBRANCH   2   3
ENDBRANCH   1   2
BRANCH   1  67
ATOM     67  C   UNL A   1      36.733  20.070  24.923  1.00  0.00     0.274 C 
BRANCH  67  68
ATOM     68  O   UNL A   1      35.504  20.584  25.449  1.00  0.00    -0.462 OA
BRANCH  68  69
ATOM     69  C   UNL A   1      34.284  20.362  24.897  1.00  0.00     0.309 C 
ATOM     70  O   UNL A   1      33.799  19.272  24.655  1.00  0.00    -0.252 OA
BRANCH  69  71
ATOM     71  C   UNL A   1      33.612  21.722  24.780  1.00  0.00     0.102 C 
ATOM     72  C   UNL A   1      34.175  22.764  23.847  1.00  0.00     0.032 C 
ATOM     73  C   UNL A   1      32.141  21.608  24.472  1.00  0.00     0.032 C 
ATOM     74  C   UNL A   1      33.526  24.139  24.098  1.00  0.00     0.103 C 
ATOM     75  C   UNL A   1      31.481  22.861  25.009  1.00  0.00     0.103 C 
ATOM     76  N   UNL A   1      32.075  24.137  24.522  1.00  0.00    -0.198 NA
BRANCH  76  77
ATOM     77  S   UNL A   1      31.659  25.537  25.479  1.00  0.00     0.243 S 
ATOM     78  O   UNL A   1      30.511  25.259  26.298  1.00  0.00    -0.207 OA
ATOM     79  O   UNL A   1      32.883  26.048  26.072  1.00  0.00    -0.207 OA
BRANCH  77  80
ATOM     80  C   UNL A   1      31.077  26.722  24.299  1.00  0.00     0.084 A 
ATOM     81  C   UNL A   1      32.004  27.327  23.444  1.00  0.00     0.024 A 
ATOM     82  C   UNL A   1      29.710  26.967  24.194  1.00  0.00     0.043 A 
ATOM     83  C   UNL A   1      31.598  28.340  22.580  1.00  0.00     0.031 A 
ATOM     84  C   UNL A   1      29.317  27.973  23.304  1.00  0.00     0.059 A 
ATOM     85  C   UNL A   1      30.237  28.692  22.530  1.00  0.00     0.085 A 
ATOM     86  S   UNL A   1      27.733  28.561  22.971  1.00  0.00    -0.077 S 
ATOM     87  N   UNL A   1      29.702  29.721  21.777  1.00  0.00    -0.203 NA
ATOM     88  C   UNL A   1      28.412  29.747  21.972  1.00  0.00     0.271 A 
BRANCH  88  89
ATOM     89  O   UNL A   1      27.707  30.703  21.400  1.00  0.00    -0.486 OA
ATOM     90  H   UNL A   1      26.895  30.499  20.982  1.00  0.00     0.296 HD
ENDBRANCH  88  89
ENDBRANCH  77  80
ENDBRANCH  76  77
ENDBRANCH  69  71
ENDBRANCH  68  69
ENDBRANCH  67  68
ENDBRANCH   1  67
TORSDOF 17
ENDMDL
MODEL 3
REMARK VINA RESULT:     -10.0      1.707      2.547
REMARK SMILES O=C(OCCOC(=O)C1CCN(S(=O)(=O)c2ccc3nc(O)sc3c2)CC1)c1ccc(-c2c3nc(c(-c4ccc(S(=O)(=O)[O-])cc4)c4ccc([nH]4)c(-c4ccc(S(=O)(=O)[O-])cc4)c4nc(c(-c5ccc(S(=O)(=O)[O-])cc5)c5ccc2[nH]5)C=C4)C=C3)cc1
REMARK SMILES IDX 4 1 3 2 2 3 1 4 28 5 29 6 87 7 30 8 86 9 31 10 32 11 33 12
REMARK SMILES IDX 80 13 34 14 85 15 79 16 81 17 35 18 84 19 78 20 77 21 36 23
REMARK SMILES IDX 66 24 47 25 65 26 48 27 51 28 64 29 82 30 49 31 50 32 63 34
REMARK SMILES IDX 83 35 52 36 37 37 38 38 46 39 39 40 45 41 40 42 41 43 42 44
REMARK SMILES IDX 43 45 44 46 67 47 68 48 76 49 69 50 75 51 70 52 71 53 72 54
REMARK SMILES IDX 73 55 74 56 53 57 54 58 62 59 55 60 61 61 56 62 57 63 58 64
REMARK SMILES IDX 59 65 60 66 5 67 6 68 7 69 8 70 9 71 10 72 27 73 11 74 26 75
REMARK SMILES IDX 12 76 13 77 14 78 15 79 16 80 17 81 25 82 18 83 24 84 19 85
REMARK SMILES IDX 23 86 20 87 21 88 22 89
REMARK H PARENT 81 22 51 33 22 90
REMARK Flexibility Score: inf
ROOT
ATOM      1  C   UNL A   1      34.055  33.621  27.982  1.00  0.00     0.275 C 
ENDROOT
BRANCH   1   2
ATOM      2  O   UNL A   1      33.677  32.245  28.187  1.00  0.00    -0.458 OA
BRANCH   2   3
ATOM      3  C   UNL A   1      34.233  31.118  27.675  1.00  0.00     0.338 C 
ATOM      4  O   UNL A   1      33.548  30.463  26.885  1.00  0.00    -0.246 OA
BRANCH   3   5
ATOM      5  C   UNL A   1      35.529  30.511  28.159  1.00  0.00     0.060 A 
ATOM      6  C   UNL A   1      35.517  30.113  29.492  1.00  0.00     0.016 A 
ATOM      7  C   UNL A   1      36.772  30.481  27.510  1.00  0.00     0.016 A 
ATOM      8  C   UNL A   1      36.709  29.986  30.201  1.00  0.00     0.010 A 
ATOM      9  C   UNL A   1      37.980  30.409  28.246  1.00  0.00     0.010 A 
ATOM     10  C   UNL A   1      37.948  30.273  29.630  1.00  0.00    -0.014 A 
BRANCH  10  11
ATOM     11  C   UNL A   1      39.088  30.095  30.565  1.00  0.00     0.031 A 
ATOM     12  C   UNL A   1      39.577  28.709  30.387  1.00  0.00     0.074 A 
ATOM     13  C   UNL A   1      40.033  30.958  31.004  1.00  0.00     0.049 A 
ATOM     14  N   UNL A   1      40.336  28.467  29.365  1.00  0.00    -0.248 NA
ATOM     15  C   UNL A   1      38.900  27.539  30.940  1.00  0.00     0.031 C 
ATOM     16  C   UNL A   1      40.553  32.124  30.291  1.00  0.00     0.029 A 
ATOM     17  N   UNL A   1      40.830  30.876  32.137  1.00  0.00    -0.354 N 
ATOM     18  C   UNL A   1      40.115  27.160  29.022  1.00  0.00     0.074 A 
ATOM     19  C   UNL A   1      39.246  26.606  30.040  1.00  0.00     0.031 C 
ATOM     20  C   UNL A   1      41.666  32.560  30.918  1.00  0.00     0.029 A 
ATOM     21  C   UNL A   1      41.899  31.774  32.132  1.00  0.00     0.049 A 
ATOM     22  H   UNL A   1      40.657  30.246  32.873  1.00  0.00     0.167 HD
ATOM     23  C   UNL A   1      40.628  26.645  27.880  1.00  0.00     0.031 A 
ATOM     24  C   UNL A   1      43.135  31.514  32.658  1.00  0.00     0.031 A 
ATOM     25  C   UNL A   1      41.468  27.532  27.127  1.00  0.00     0.049 A 
ATOM     26  C   UNL A   1      43.707  30.603  31.596  1.00  0.00     0.074 A 
ATOM     27  C   UNL A   1      41.423  28.231  25.942  1.00  0.00     0.029 A 
ATOM     28  N   UNL A   1      42.666  27.886  27.699  1.00  0.00    -0.354 N 
ATOM     29  N   UNL A   1      44.169  30.974  30.427  1.00  0.00    -0.248 NA
ATOM     30  C   UNL A   1      43.355  29.188  31.686  1.00  0.00     0.031 C 
ATOM     31  C   UNL A   1      42.408  29.264  26.065  1.00  0.00     0.029 A 
ATOM     32  C   UNL A   1      42.971  29.172  27.339  1.00  0.00     0.049 A 
ATOM     33  H   UNL A   1      43.218  27.310  28.276  1.00  0.00     0.167 HD
ATOM     34  C   UNL A   1      43.814  29.940  29.553  1.00  0.00     0.074 A 
ATOM     35  C   UNL A   1      43.349  28.862  30.401  1.00  0.00     0.031 C 
ATOM     36  C   UNL A   1      43.719  30.079  28.197  1.00  0.00     0.031 A 
BRANCH  23  37
ATOM     37  C   UNL A   1      40.546  25.212  27.593  1.00  0.00    -0.014 A 
ATOM     38  C   UNL A   1      39.429  24.591  27.020  1.00  0.00     0.010 A 
ATOM     39  C   UNL A   1      41.696  24.464  27.891  1.00  0.00     0.010 A 
ATOM     40  C   UNL A   1      39.482  23.225  26.729  1.00  0.00     0.020 A 
ATOM     41  C   UNL A   1      41.753  23.111  27.602  1.00  0.00     0.020 A 
ATOM     42  C   UNL A   1      40.647  22.499  27.018  1.00  0.00     0.054 A 
BRANCH  42  43
ATOM     43  S   UNL A   1      40.723  20.740  26.600  1.00  0.00     0.124 S 
ATOM     44  O   UNL A   1      41.940  20.673  25.796  1.00  0.00    -0.237 OA
ATOM     45  O   UNL A   1      40.798  20.111  27.915  1.00  0.00    -0.237 OA
ATOM     46  O   UNL A   1      39.480  20.505  25.869  1.00  0.00    -0.744 OA
ENDBRANCH  42  43
ENDBRANCH  23  37
BRANCH  24  47
ATOM     47  C   UNL A   1      43.168  31.226  34.134  1.00  0.00    -0.014 A 
ATOM     48  C   UNL A   1      42.061  31.160  34.997  1.00  0.00     0.010 A 
ATOM     49  C   UNL A   1      44.445  31.076  34.721  1.00  0.00     0.010 A 
ATOM     50  C   UNL A   1      42.225  31.191  36.390  1.00  0.00     0.020 A 
ATOM     51  C   UNL A   1      44.619  31.061  36.111  1.00  0.00     0.020 A 
ATOM     52  C   UNL A   1      43.508  31.198  36.936  1.00  0.00     0.054 A 
BRANCH  52  53
ATOM     53  S   UNL A   1      43.701  31.490  38.715  1.00  0.00     0.124 S 
ATOM     54  O   UNL A   1      44.469  32.733  38.730  1.00  0.00    -0.237 OA
ATOM     55  O   UNL A   1      42.320  31.597  39.174  1.00  0.00    -0.237 OA
ATOM     56  O   UNL A   1      44.422  30.308  39.183  1.00  0.00    -0.744 OA
ENDBRANCH  52  53
ENDBRANCH  24  47
BRANCH  36  57
ATOM     57  C   UNL A   1      44.319  31.306  27.575  1.00  0.00    -0.014 A 
ATOM     58  C   UNL A   1      45.587  31.267  26.964  1.00  0.00     0.010 A 
ATOM     59  C   UNL A   1      43.720  32.550  27.821  1.00  0.00     0.010 A 
ATOM     60  C   UNL A   1      46.305  32.447  26.752  1.00  0.00     0.020 A 
ATOM     61  C   UNL A   1      44.424  33.734  27.591  1.00  0.00     0.020 A 
ATOM     62  C   UNL A   1      45.735  33.670  27.113  1.00  0.00     0.054 A 
BRANCH  62  63
ATOM     63  S   UNL A   1      46.770  35.158  27.069  1.00  0.00     0.124 S 
ATOM     64  O   UNL A   1      48.076  34.635  27.463  1.00  0.00    -0.237 OA
ATOM     65  O   UNL A   1      46.660  35.584  25.676  1.00  0.00    -0.237 OA
ATOM     66  O   UNL A   1      46.143  36.051  28.041  1.00  0.00    -0.744 OA
ENDBRANCH  62  63
ENDBRANCH  36  57
ENDBRANCH  10  11
ENDBRANCH   3   5
ENDBRANCH   2   3
ENDBRANCH   1   2
BRANCH   1  67
ATOM     67  C   UNL A   1      34.437  34.384  29.266  1.00  0.00     0.274 C 
BRANCH  67  68
ATOM     68  O   UNL A   1      35.224  33.518  30.091  1.00  0.00    -0.462 OA
BRANCH  68  69
ATOM     69  C   UNL A   1      36.527  33.735  30.403  1.00  0.00     0.309 C 
ATOM     70  O   UNL A   1      37.388  34.127  29.637  1.00  0.00    -0.252 OA
BRANCH  69  71
ATOM     71  C   UNL A   1      36.650  33.527  31.905  1.00  0.00     0.102 C 
ATOM     72  C   UNL A   1      36.325  34.654  32.852  1.00  0.00     0.032 C 
ATOM     73  C   UNL A   1      35.880  32.321  32.380  1.00  0.00     0.032 C 
ATOM     74  C   UNL A   1      36.789  34.323  34.285  1.00  0.00     0.103 C 
ATOM     75  C   UNL A   1      36.557  31.837  33.646  1.00  0.00     0.103 C 
ATOM     76  N   UNL A   1      36.716  32.874  34.703  1.00  0.00    -0.198 NA
BRANCH  76  77
ATOM     77  S   UNL A   1      37.892  32.475  35.931  1.00  0.00     0.243 S 
ATOM     78  O   UNL A   1      37.316  32.617  37.240  1.00  0.00    -0.207 OA
ATOM     79  O   UNL A   1      38.539  31.234  35.540  1.00  0.00    -0.207 OA
BRANCH  77  80
ATOM     80  C   UNL A   1      39.088  33.778  35.837  1.00  0.00     0.084 A 
ATOM     81  C   UNL A   1      39.131  34.723  36.868  1.00  0.00     0.024 A 
ATOM     82  C   UNL A   1      40.003  33.791  34.787  1.00  0.00     0.043 A 
ATOM     83  C   UNL A   1      39.983  35.820  36.772  1.00  0.00     0.031 A 
ATOM     84  C   UNL A   1      40.867  34.889  34.720  1.00  0.00     0.059 A 
ATOM     85  C   UNL A   1      40.844  35.923  35.665  1.00  0.00     0.085 A 
ATOM     86  S   UNL A   1      42.071  35.244  33.540  1.00  0.00    -0.077 S 
ATOM     87  N   UNL A   1      41.688  36.986  35.402  1.00  0.00    -0.203 NA
ATOM     88  C   UNL A   1      42.339  36.734  34.300  1.00  0.00     0.271 A 
BRANCH  88  89
ATOM     89  O   UNL A   1      43.153  37.654  33.823  1.00  0.00    -0.486 OA
ATOM     90  H   UNL A   1      43.089  38.538  34.125  1.00  0.00     0.296 HD
ENDBRANCH  88  89
ENDBRANCH  77  80
ENDBRANCH  76  77
ENDBRANCH  69  71
ENDBRANCH  68  69
ENDBRANCH  67  68
ENDBRANCH   1  67
TORSDOF 17
ENDMDL
