MODEL 1
REMARK VINA RESULT:     -10.2      0.000      0.000
REMARK SMILES O=C(OCCOC(=O)c1cccn(CC[NH+]2CCCC2)c1=O)c1ccc(-c2c3nc(c(-c4ccc(S(=O)(=O)[O-])cc4)c4ccc([nH]4)c(-c4ccc(S(=O)(=O)[O-])cc4)c4nc(c(-c5ccc(S(=O)(=O)[O-])cc5)c5ccc2[nH]5)C=C4)C=C3)cc1
REMARK SMILES IDX 4 1 3 2 2 3 1 4 23 5 24 6 82 7 25 8 81 9 26 10 27 11 28 12
REMARK SMILES IDX 75 13 29 14 80 15 74 16 76 17 30 18 79 19 73 20 72 21 31 23
REMARK SMILES IDX 61 24 42 25 60 26 43 27 46 28 59 29 77 30 44 31 45 32 58 34
REMARK SMILES IDX 78 35 47 36 32 37 33 38 41 39 34 40 40 41 35 42 36 43 37 44
REMARK SMILES IDX 38 45 39 46 62 47 63 48 71 49 64 50 70 51 65 52 66 53 67 54
REMARK SMILES IDX 68 55 69 56 48 57 49 58 57 59 50 60 56 61 51 62 52 63 53 64
REMARK SMILES IDX 54 65 55 66 5 67 6 68 7 69 8 70 9 71 10 72 21 73 11 74 13 75
REMARK SMILES IDX 22 76 12 77 14 78 15 79 16 80 17 81 20 82 18 84 19 85
REMARK H PARENT 76 22 46 33 16 83
REMARK Flexibility Score: inf
ROOT
ATOM      1  C   UNL A   1      34.086  32.800  28.067  1.00  0.00     0.275 C 
ENDROOT
BRANCH   1   2
ATOM      2  O   UNL A   1      33.578  31.505  27.710  1.00  0.00    -0.458 OA
BRANCH   2   3
ATOM      3  C   UNL A   1      34.280  30.368  27.485  1.00  0.00     0.338 C 
ATOM      4  O   UNL A   1      33.716  29.447  26.895  1.00  0.00    -0.246 OA
BRANCH   3   5
ATOM      5  C   UNL A   1      35.615  30.084  28.117  1.00  0.00     0.060 A 
ATOM      6  C   UNL A   1      36.713  30.167  27.251  1.00  0.00     0.016 A 
ATOM      7  C   UNL A   1      35.875  29.708  29.438  1.00  0.00     0.016 A 
ATOM      8  C   UNL A   1      37.984  29.740  27.652  1.00  0.00     0.010 A 
ATOM      9  C   UNL A   1      37.168  29.345  29.860  1.00  0.00     0.010 A 
ATOM     10  C   UNL A   1      38.234  29.310  28.964  1.00  0.00    -0.014 A 
BRANCH  10  11
ATOM     11  C   UNL A   1      39.618  28.940  29.379  1.00  0.00     0.031 A 
ATOM     12  C   UNL A   1      40.507  29.844  30.201  1.00  0.00     0.074 A 
ATOM     13  C   UNL A   1      40.069  27.717  29.030  1.00  0.00     0.049 A 
ATOM     14  N   UNL A   1      41.619  29.534  30.825  1.00  0.00    -0.248 NA
ATOM     15  C   UNL A   1      40.114  31.251  30.379  1.00  0.00     0.031 C 
ATOM     16  C   UNL A   1      39.330  26.752  28.210  1.00  0.00     0.029 A 
ATOM     17  N   UNL A   1      41.243  27.068  29.322  1.00  0.00    -0.354 N 
ATOM     18  C   UNL A   1      41.985  30.660  31.555  1.00  0.00     0.074 A 
ATOM     19  C   UNL A   1      41.050  31.703  31.209  1.00  0.00     0.031 C 
ATOM     20  C   UNL A   1      40.045  25.628  28.099  1.00  0.00     0.029 A 
ATOM     21  C   UNL A   1      41.332  25.820  28.754  1.00  0.00     0.049 A 
ATOM     22  H   UNL A   1      41.953  27.460  29.882  1.00  0.00     0.167 HD
ATOM     23  C   UNL A   1      42.979  30.788  32.467  1.00  0.00     0.031 A 
ATOM     24  C   UNL A   1      42.346  24.934  28.714  1.00  0.00     0.031 A 
ATOM     25  C   UNL A   1      44.013  29.807  32.661  1.00  0.00     0.049 A 
ATOM     26  C   UNL A   1      43.604  25.242  29.461  1.00  0.00     0.074 A 
ATOM     27  C   UNL A   1      45.095  29.863  33.522  1.00  0.00     0.029 A 
ATOM     28  N   UNL A   1      44.145  28.640  31.927  1.00  0.00    -0.354 N 
ATOM     29  N   UNL A   1      43.838  26.240  30.281  1.00  0.00    -0.248 NA
ATOM     30  C   UNL A   1      44.733  24.324  29.284  1.00  0.00     0.031 C 
ATOM     31  C   UNL A   1      45.941  28.792  33.221  1.00  0.00     0.029 A 
ATOM     32  C   UNL A   1      45.344  28.021  32.235  1.00  0.00     0.049 A 
ATOM     33  H   UNL A   1      43.482  28.300  31.283  1.00  0.00     0.167 HD
ATOM     34  C   UNL A   1      45.140  26.065  30.726  1.00  0.00     0.074 A 
ATOM     35  C   UNL A   1      45.638  24.858  30.096  1.00  0.00     0.031 C 
ATOM     36  C   UNL A   1      45.851  26.838  31.584  1.00  0.00     0.031 A 
BRANCH  23  37
ATOM     37  C   UNL A   1      43.022  32.012  33.349  1.00  0.00    -0.014 A 
ATOM     38  C   UNL A   1      42.416  32.012  34.617  1.00  0.00     0.010 A 
ATOM     39  C   UNL A   1      43.482  33.232  32.815  1.00  0.00     0.010 A 
ATOM     40  C   UNL A   1      42.245  33.208  35.324  1.00  0.00     0.020 A 
ATOM     41  C   UNL A   1      43.326  34.429  33.525  1.00  0.00     0.020 A 
ATOM     42  C   UNL A   1      42.688  34.413  34.767  1.00  0.00     0.054 A 
BRANCH  42  43
ATOM     43  S   UNL A   1      42.397  35.961  35.673  1.00  0.00     0.124 S 
ATOM     44  O   UNL A   1      41.137  36.425  35.100  1.00  0.00    -0.237 OA
ATOM     45  O   UNL A   1      42.328  35.508  37.060  1.00  0.00    -0.237 OA
ATOM     46  O   UNL A   1      43.566  36.776  35.350  1.00  0.00    -0.744 OA
ENDBRANCH  42  43
ENDBRANCH  23  37
BRANCH  24  47
ATOM     47  C   UNL A   1      42.176  23.709  27.883  1.00  0.00    -0.014 A 
ATOM     48  C   UNL A   1      41.563  22.570  28.449  1.00  0.00     0.010 A 
ATOM     49  C   UNL A   1      42.755  23.611  26.609  1.00  0.00     0.010 A 
ATOM     50  C   UNL A   1      41.624  21.335  27.805  1.00  0.00     0.020 A 
ATOM     51  C   UNL A   1      42.782  22.381  25.941  1.00  0.00     0.020 A 
ATOM     52  C   UNL A   1      42.255  21.244  26.564  1.00  0.00     0.054 A 
BRANCH  52  53
ATOM     53  S   UNL A   1      42.416  19.609  25.796  1.00  0.00     0.124 S 
ATOM     54  O   UNL A   1      42.913  18.805  26.910  1.00  0.00    -0.237 OA
ATOM     55  O   UNL A   1      41.049  19.319  25.372  1.00  0.00    -0.237 OA
ATOM     56  O   UNL A   1      43.368  19.834  24.711  1.00  0.00    -0.744 OA
ENDBRANCH  52  53
ENDBRANCH  24  47
BRANCH  36  57
ATOM     57  C   UNL A   1      47.270  26.442  31.879  1.00  0.00    -0.014 A 
ATOM     58  C   UNL A   1      48.309  26.864  31.028  1.00  0.00     0.010 A 
ATOM     59  C   UNL A   1      47.558  25.547  32.923  1.00  0.00     0.010 A 
ATOM     60  C   UNL A   1      49.601  26.360  31.186  1.00  0.00     0.020 A 
ATOM     61  C   UNL A   1      48.858  25.068  33.107  1.00  0.00     0.020 A 
ATOM     62  C   UNL A   1      49.864  25.454  32.218  1.00  0.00     0.054 A 
BRANCH  62  63
ATOM     63  S   UNL A   1      51.538  24.780  32.381  1.00  0.00     0.124 S 
ATOM     64  O   UNL A   1      52.245  25.446  31.290  1.00  0.00    -0.237 OA
ATOM     65  O   UNL A   1      51.922  25.195  33.728  1.00  0.00    -0.237 OA
ATOM     66  O   UNL A   1      51.345  23.340  32.213  1.00  0.00    -0.744 OA
ENDBRANCH  62  63
ENDBRANCH  36  57
ENDBRANCH  10  11
ENDBRANCH   3   5
ENDBRANCH   2   3
ENDBRANCH   1   2
BRANCH   1  67
ATOM     67  C   UNL A   1      33.016  33.894  28.006  1.00  0.00     0.275 C 
BRANCH  67  68
ATOM     68  O   UNL A   1      32.719  34.431  29.303  1.00  0.00    -0.458 OA
BRANCH  68  69
ATOM     69  C   UNL A   1      33.110  35.720  29.514  1.00  0.00     0.343 C 
ATOM     70  O   UNL A   1      32.896  36.670  28.774  1.00  0.00    -0.246 OA
BRANCH  69  71
ATOM     71  C   UNL A   1      33.593  35.848  30.893  1.00  0.00     0.125 A 
ATOM     72  C   UNL A   1      33.461  37.063  31.450  1.00  0.00     0.023 A 
ATOM     73  C   UNL A   1      34.113  34.703  31.693  1.00  0.00     0.265 A 
ATOM     74  C   UNL A   1      33.618  37.224  32.868  1.00  0.00     0.019 A 
ATOM     75  N   UNL A   1      34.323  34.969  33.054  1.00  0.00    -0.309 N 
ATOM     76  O   UNL A   1      34.350  33.626  31.153  1.00  0.00    -0.268 OA
ATOM     77  C   UNL A   1      33.959  36.172  33.616  1.00  0.00     0.089 A 
BRANCH  75  78
ATOM     78  C   UNL A   1      35.081  34.018  33.888  1.00  0.00     0.186 C 
BRANCH  78  79
ATOM     79  C   UNL A   1      36.604  34.292  33.842  1.00  0.00     0.284 C 
BRANCH  79  80
ATOM     80  N   UNL A   1      37.524  33.497  33.012  1.00  0.00    -0.333 N 
ATOM     81  C   UNL A   1      37.124  32.222  32.438  1.00  0.00     0.262 C 
ATOM     82  C   UNL A   1      38.807  33.248  33.674  1.00  0.00     0.262 C 
ATOM     83  H   UNL A   1      37.555  34.141  32.221  1.00  0.00     0.348 HD
ATOM     84  C   UNL A   1      37.652  31.141  33.368  1.00  0.00     0.067 C 
ATOM     85  C   UNL A   1      38.748  31.811  34.177  1.00  0.00     0.067 C 
ENDBRANCH  79  80
ENDBRANCH  78  79
ENDBRANCH  75  78
ENDBRANCH  69  71
ENDBRANCH  68  69
ENDBRANCH  67  68
ENDBRANCH   1  67
TORSDOF 17
ENDMDL
MODEL 2
REMARK VINA RESULT:      -9.8      4.338     12.090
REMARK SMILES O=C(OCCOC(=O)c1cccn(CC[NH+]2CCCC2)c1=O)c1ccc(-c2c3nc(c(-c4ccc(S(=O)(=O)[O-])cc4)c4ccc([nH]4)c(-c4ccc(S(=O)(=O)[O-])cc4)c4nc(c(-c5ccc(S(=O)(=O)[O-])cc5)c5ccc2[nH]5)C=C4)C=C3)cc1
REMARK SMILES IDX 4 1 3 2 2 3 1 4 23 5 24 6 82 7 25 8 81 9 26 10 27 11 28 12
REMARK SMILES IDX 75 13 29 14 80 15 74 16 76 17 30 18 79 19 73 20 72 21 31 23
REMARK SMILES IDX 61 24 42 25 60 26 43 27 46 28 59 29 77 30 44 31 45 32 58 34
REMARK SMILES IDX 78 35 47 36 32 37 33 38 41 39 34 40 40 41 35 42 36 43 37 44
REMARK SMILES IDX 38 45 39 46 62 47 63 48 71 49 64 50 70 51 65 52 66 53 67 54
REMARK SMILES IDX 68 55 69 56 48 57 49 58 57 59 50 60 56 61 51 62 52 63 53 64
REMARK SMILES IDX 54 65 55 66 5 67 6 68 7 69 8 70 9 71 10 72 21 73 11 74 13 75
REMARK SMILES IDX 22 76 12 77 14 78 15 79 16 80 17 81 20 82 18 84 19 85
REMARK H PARENT 76 22 46 33 16 83
REMARK Flexibility Score: inf
ROOT
ATOM      1  C   UNL A   1      43.111  23.051  25.074  1.00  0.00     0.275 C 
ENDROOT
BRANCH   1   2
ATOM      2  O   UNL A   1      42.361  24.210  25.473  1.00  0.00    -0.458 OA
BRANCH   2   3
ATOM      3  C   UNL A   1      42.839  25.414  25.870  1.00  0.00     0.338 C 
ATOM      4  O   UNL A   1      43.893  25.811  25.372  1.00  0.00    -0.246 OA
BRANCH   3   5
ATOM      5  C   UNL A   1      42.286  26.176  27.042  1.00  0.00     0.060 A 
ATOM      6  C   UNL A   1      42.967  27.358  27.360  1.00  0.00     0.016 A 
ATOM      7  C   UNL A   1      41.215  25.820  27.867  1.00  0.00     0.016 A 
ATOM      8  C   UNL A   1      42.688  28.061  28.537  1.00  0.00     0.010 A 
ATOM      9  C   UNL A   1      40.887  26.567  29.014  1.00  0.00     0.010 A 
ATOM     10  C   UNL A   1      41.647  27.671  29.394  1.00  0.00    -0.014 A 
BRANCH  10  11
ATOM     11  C   UNL A   1      41.323  28.491  30.597  1.00  0.00     0.031 A 
ATOM     12  C   UNL A   1      42.055  28.359  31.913  1.00  0.00     0.074 A 
ATOM     13  C   UNL A   1      40.354  29.423  30.477  1.00  0.00     0.049 A 
ATOM     14  N   UNL A   1      42.032  29.179  32.937  1.00  0.00    -0.248 NA
ATOM     15  C   UNL A   1      42.939  27.200  32.116  1.00  0.00     0.031 C 
ATOM     16  C   UNL A   1      39.543  29.639  29.276  1.00  0.00     0.029 A 
ATOM     17  N   UNL A   1      39.889  30.365  31.361  1.00  0.00    -0.354 N 
ATOM     18  C   UNL A   1      42.974  28.701  33.842  1.00  0.00     0.074 A 
ATOM     19  C   UNL A   1      43.471  27.456  33.309  1.00  0.00     0.031 C 
ATOM     20  C   UNL A   1      38.714  30.668  29.481  1.00  0.00     0.029 A 
ATOM     21  C   UNL A   1      38.862  31.125  30.857  1.00  0.00     0.049 A 
ATOM     22  H   UNL A   1      40.256  30.483  32.268  1.00  0.00     0.167 HD
ATOM     23  C   UNL A   1      43.416  29.280  34.984  1.00  0.00     0.031 A 
ATOM     24  C   UNL A   1      38.082  32.058  31.436  1.00  0.00     0.031 A 
ATOM     25  C   UNL A   1      42.783  30.418  35.597  1.00  0.00     0.049 A 
ATOM     26  C   UNL A   1      38.366  32.461  32.848  1.00  0.00     0.074 A 
ATOM     27  C   UNL A   1      43.120  31.050  36.782  1.00  0.00     0.029 A 
ATOM     28  N   UNL A   1      41.636  31.035  35.126  1.00  0.00    -0.354 N 
ATOM     29  N   UNL A   1      39.378  32.108  33.605  1.00  0.00    -0.248 NA
ATOM     30  C   UNL A   1      37.416  33.374  33.490  1.00  0.00     0.031 C 
ATOM     31  C   UNL A   1      42.108  31.965  37.085  1.00  0.00     0.029 A 
ATOM     32  C   UNL A   1      41.188  31.965  36.047  1.00  0.00     0.049 A 
ATOM     33  H   UNL A   1      41.204  30.840  34.263  1.00  0.00     0.167 HD
ATOM     34  C   UNL A   1      39.191  32.764  34.813  1.00  0.00     0.074 A 
ATOM     35  C   UNL A   1      37.979  33.547  34.681  1.00  0.00     0.031 C 
ATOM     36  C   UNL A   1      39.965  32.720  35.927  1.00  0.00     0.031 A 
BRANCH  23  37
ATOM     37  C   UNL A   1      44.645  28.731  35.666  1.00  0.00    -0.014 A 
ATOM     38  C   UNL A   1      44.536  27.818  36.729  1.00  0.00     0.010 A 
ATOM     39  C   UNL A   1      45.903  29.300  35.384  1.00  0.00     0.010 A 
ATOM     40  C   UNL A   1      45.652  27.502  37.513  1.00  0.00     0.020 A 
ATOM     41  C   UNL A   1      47.025  28.977  36.158  1.00  0.00     0.020 A 
ATOM     42  C   UNL A   1      46.888  28.095  37.232  1.00  0.00     0.054 A 
BRANCH  42  43
ATOM     43  S   UNL A   1      48.308  27.720  38.303  1.00  0.00     0.124 S 
ATOM     44  O   UNL A   1      49.158  28.891  38.112  1.00  0.00    -0.237 OA
ATOM     45  O   UNL A   1      47.688  27.601  39.621  1.00  0.00    -0.237 OA
ATOM     46  O   UNL A   1      48.834  26.471  37.756  1.00  0.00    -0.744 OA
ENDBRANCH  42  43
ENDBRANCH  23  37
BRANCH  24  47
ATOM     47  C   UNL A   1      36.942  32.608  30.650  1.00  0.00    -0.014 A 
ATOM     48  C   UNL A   1      37.107  33.824  29.952  1.00  0.00     0.010 A 
ATOM     49  C   UNL A   1      35.667  32.029  30.720  1.00  0.00     0.010 A 
ATOM     50  C   UNL A   1      36.005  34.501  29.432  1.00  0.00     0.020 A 
ATOM     51  C   UNL A   1      34.563  32.686  30.163  1.00  0.00     0.020 A 
ATOM     52  C   UNL A   1      34.735  33.937  29.562  1.00  0.00     0.054 A 
BRANCH  52  53
ATOM     53  S   UNL A   1      33.306  34.886  28.973  1.00  0.00     0.124 S 
ATOM     54  O   UNL A   1      32.654  33.922  28.088  1.00  0.00    -0.237 OA
ATOM     55  O   UNL A   1      32.591  35.188  30.209  1.00  0.00    -0.237 OA
ATOM     56  O   UNL A   1      33.912  36.036  28.308  1.00  0.00    -0.744 OA
ENDBRANCH  52  53
ENDBRANCH  24  47
BRANCH  36  57
ATOM     57  C   UNL A   1      39.518  33.507  37.127  1.00  0.00    -0.014 A 
ATOM     58  C   UNL A   1      39.940  34.840  37.289  1.00  0.00     0.010 A 
ATOM     59  C   UNL A   1      38.789  32.887  38.155  1.00  0.00     0.010 A 
ATOM     60  C   UNL A   1      39.682  35.522  38.479  1.00  0.00     0.020 A 
ATOM     61  C   UNL A   1      38.497  33.579  39.333  1.00  0.00     0.020 A 
ATOM     62  C   UNL A   1      38.973  34.882  39.499  1.00  0.00     0.054 A 
BRANCH  62  63
ATOM     63  S   UNL A   1      38.684  35.771  41.052  1.00  0.00     0.124 S 
ATOM     64  O   UNL A   1      39.886  35.449  41.817  1.00  0.00    -0.237 OA
ATOM     65  O   UNL A   1      38.570  37.159  40.611  1.00  0.00    -0.237 OA
ATOM     66  O   UNL A   1      37.445  35.182  41.558  1.00  0.00    -0.744 OA
ENDBRANCH  62  63
ENDBRANCH  36  57
ENDBRANCH  10  11
ENDBRANCH   3   5
ENDBRANCH   2   3
ENDBRANCH   1   2
BRANCH   1  67
ATOM     67  C   UNL A   1      42.727  21.797  25.866  1.00  0.00     0.275 C 
BRANCH  67  68
ATOM     68  O   UNL A   1      41.430  21.304  25.500  1.00  0.00    -0.458 OA
BRANCH  68  69
ATOM     69  C   UNL A   1      40.571  21.074  26.534  1.00  0.00     0.343 C 
ATOM     70  O   UNL A   1      40.839  20.502  27.581  1.00  0.00    -0.246 OA
BRANCH  69  71
ATOM     71  C   UNL A   1      39.348  21.853  26.314  1.00  0.00     0.125 A 
ATOM     72  C   UNL A   1      39.345  23.094  26.828  1.00  0.00     0.023 A 
ATOM     73  C   UNL A   1      38.200  21.372  25.495  1.00  0.00     0.265 A 
ATOM     74  C   UNL A   1      38.340  24.036  26.423  1.00  0.00     0.019 A 
ATOM     75  N   UNL A   1      37.217  22.333  25.217  1.00  0.00    -0.309 N 
ATOM     76  O   UNL A   1      38.147  20.201  25.130  1.00  0.00    -0.268 OA
ATOM     77  C   UNL A   1      37.376  23.650  25.584  1.00  0.00     0.089 A 
BRANCH  75  78
ATOM     78  C   UNL A   1      35.916  21.923  24.656  1.00  0.00     0.186 C 
BRANCH  78  79
ATOM     79  C   UNL A   1      34.903  21.539  25.761  1.00  0.00     0.284 C 
BRANCH  79  80
ATOM     80  N   UNL A   1      33.581  20.968  25.456  1.00  0.00    -0.333 N 
ATOM     81  C   UNL A   1      33.252  20.478  24.126  1.00  0.00     0.262 C 
ATOM     82  C   UNL A   1      32.481  21.859  25.833  1.00  0.00     0.262 C 
ATOM     83  H   UNL A   1      33.682  20.128  26.026  1.00  0.00     0.348 HD
ATOM     84  C   UNL A   1      32.497  21.597  23.426  1.00  0.00     0.067 C 
ATOM     85  C   UNL A   1      31.996  22.500  24.539  1.00  0.00     0.067 C 
ENDBRANCH  79  80
ENDBRANCH  78  79
ENDBRANCH  75  78
ENDBRANCH  69  71
ENDBRANCH  68  69
ENDBRANCH  67  68
ENDBRANCH   1  67
TORSDOF 17
ENDMDL
MODEL 3
REMARK VINA RESULT:      -9.7      3.990     10.104
REMARK SMILES O=C(OCCOC(=O)c1cccn(CC[NH+]2CCCC2)c1=O)c1ccc(-c2c3nc(c(-c4ccc(S(=O)(=O)[O-])cc4)c4ccc([nH]4)c(-c4ccc(S(=O)(=O)[O-])cc4)c4nc(c(-c5ccc(S(=O)(=O)[O-])cc5)c5ccc2[nH]5)C=C4)C=C3)cc1
REMARK SMILES IDX 4 1 3 2 2 3 1 4 23 5 24 6 82 7 25 8 81 9 26 10 27 11 28 12
REMARK SMILES IDX 75 13 29 14 80 15 74 16 76 17 30 18 79 19 73 20 72 21 31 23
REMARK SMILES IDX 61 24 42 25 60 26 43 27 46 28 59 29 77 30 44 31 45 32 58 34
REMARK SMILES IDX 78 35 47 36 32 37 33 38 41 39 34 40 40 41 35 42 36 43 37 44
REMARK SMILES IDX 38 45 39 46 62 47 63 48 71 49 64 50 70 51 65 52 66 53 67 54
REMARK SMILES IDX 68 55 69 56 48 57 49 58 57 59 50 60 56 61 51 62 52 63 53 64
REMARK SMILES IDX 54 65 55 66 5 67 6 68 7 69 8 70 9 71 10 72 21 73 11 74 13 75
REMARK SMILES IDX 22 76 12 77 14 78 15 79 16 80 17 81 20 82 18 84 19 85
REMARK H PARENT 76 22 46 33 16 83
REMARK Flexibility Score: inf
ROOT
ATOM      1  C   UNL A   1      37.340  23.305  24.750  1.00  0.00     0.275 C 
ENDROOT
BRANCH   1   2
ATOM      2  O   UNL A   1      38.154  22.378  25.486  1.00  0.00    -0.458 OA
BRANCH   2   3
ATOM      3  C   UNL A   1      39.208  22.652  26.290  1.00  0.00     0.338 C 
ATOM      4  O   UNL A   1      39.938  21.719  26.626  1.00  0.00    -0.246 OA
BRANCH   3   5
ATOM      5  C   UNL A   1      39.399  23.975  26.979  1.00  0.00     0.060 A 
ATOM      6  C   UNL A   1      40.277  24.859  26.338  1.00  0.00     0.016 A 
ATOM      7  C   UNL A   1      38.844  24.398  28.190  1.00  0.00     0.016 A 
ATOM      8  C   UNL A   1      40.698  26.039  26.961  1.00  0.00     0.010 A 
ATOM      9  C   UNL A   1      39.215  25.619  28.784  1.00  0.00     0.010 A 
ATOM     10  C   UNL A   1      40.182  26.437  28.204  1.00  0.00    -0.014 A 
BRANCH  10  11
ATOM     11  C   UNL A   1      40.591  27.741  28.800  1.00  0.00     0.031 A 
ATOM     12  C   UNL A   1      39.737  28.987  28.738  1.00  0.00     0.074 A 
ATOM     13  C   UNL A   1      41.767  27.786  29.461  1.00  0.00     0.049 A 
ATOM     14  N   UNL A   1      39.873  30.095  29.427  1.00  0.00    -0.248 NA
ATOM     15  C   UNL A   1      38.580  29.006  27.829  1.00  0.00     0.031 C 
ATOM     16  C   UNL A   1      42.709  26.668  29.572  1.00  0.00     0.029 A 
ATOM     17  N   UNL A   1      42.371  28.795  30.167  1.00  0.00    -0.354 N 
ATOM     18  C   UNL A   1      38.766  30.882  29.124  1.00  0.00     0.074 A 
ATOM     19  C   UNL A   1      38.026  30.184  28.102  1.00  0.00     0.031 C 
ATOM     20  C   UNL A   1      43.745  27.037  30.332  1.00  0.00     0.029 A 
ATOM     21  C   UNL A   1      43.595  28.443  30.684  1.00  0.00     0.049 A 
ATOM     22  H   UNL A   1      41.967  29.685  30.291  1.00  0.00     0.167 HD
ATOM     23  C   UNL A   1      38.383  32.052  29.690  1.00  0.00     0.031 A 
ATOM     24  C   UNL A   1      44.528  29.169  31.330  1.00  0.00     0.031 A 
ATOM     25  C   UNL A   1      39.221  32.826  30.567  1.00  0.00     0.049 A 
ATOM     26  C   UNL A   1      44.230  30.597  31.660  1.00  0.00     0.074 A 
ATOM     27  C   UNL A   1      38.949  34.050  31.153  1.00  0.00     0.029 A 
ATOM     28  N   UNL A   1      40.522  32.497  30.912  1.00  0.00    -0.354 N 
ATOM     29  N   UNL A   1      43.100  31.246  31.508  1.00  0.00    -0.248 NA
ATOM     30  C   UNL A   1      45.316  31.394  32.238  1.00  0.00     0.031 C 
ATOM     31  C   UNL A   1      40.126  34.514  31.748  1.00  0.00     0.029 A 
ATOM     32  C   UNL A   1      41.104  33.541  31.609  1.00  0.00     0.049 A 
ATOM     33  H   UNL A   1      40.967  31.646  30.694  1.00  0.00     0.167 HD
ATOM     34  C   UNL A   1      43.336  32.529  31.982  1.00  0.00     0.074 A 
ATOM     35  C   UNL A   1      44.712  32.559  32.438  1.00  0.00     0.031 C 
ATOM     36  C   UNL A   1      42.482  33.581  32.034  1.00  0.00     0.031 A 
BRANCH  23  37
ATOM     37  C   UNL A   1      37.002  32.592  29.413  1.00  0.00    -0.014 A 
ATOM     38  C   UNL A   1      36.750  33.391  28.284  1.00  0.00     0.010 A 
ATOM     39  C   UNL A   1      36.005  32.479  30.402  1.00  0.00     0.010 A 
ATOM     40  C   UNL A   1      35.541  34.087  28.159  1.00  0.00     0.020 A 
ATOM     41  C   UNL A   1      34.789  33.163  30.275  1.00  0.00     0.020 A 
ATOM     42  C   UNL A   1      34.573  33.980  29.163  1.00  0.00     0.054 A 
BRANCH  42  43
ATOM     43  S   UNL A   1      33.039  34.944  29.013  1.00  0.00     0.124 S 
ATOM     44  O   UNL A   1      32.285  34.175  28.026  1.00  0.00    -0.237 OA
ATOM     45  O   UNL A   1      32.510  34.912  30.374  1.00  0.00    -0.237 OA
ATOM     46  O   UNL A   1      33.498  36.256  28.563  1.00  0.00    -0.744 OA
ENDBRANCH  42  43
ENDBRANCH  23  37
BRANCH  24  47
ATOM     47  C   UNL A   1      45.832  28.521  31.640  1.00  0.00    -0.014 A 
ATOM     48  C   UNL A   1      46.804  28.400  30.624  1.00  0.00     0.010 A 
ATOM     49  C   UNL A   1      46.052  27.888  32.873  1.00  0.00     0.010 A 
ATOM     50  C   UNL A   1      47.914  27.574  30.795  1.00  0.00     0.020 A 
ATOM     51  C   UNL A   1      47.187  27.091  33.063  1.00  0.00     0.020 A 
ATOM     52  C   UNL A   1      48.086  26.905  32.007  1.00  0.00     0.054 A 
BRANCH  52  53
ATOM     53  S   UNL A   1      49.479  25.756  32.168  1.00  0.00     0.124 S 
ATOM     54  O   UNL A   1      48.911  24.719  33.026  1.00  0.00    -0.237 OA
ATOM     55  O   UNL A   1      49.729  25.360  30.785  1.00  0.00    -0.237 OA
ATOM     56  O   UNL A   1      50.525  26.571  32.779  1.00  0.00    -0.744 OA
ENDBRANCH  52  53
ENDBRANCH  24  47
BRANCH  36  57
ATOM     57  C   UNL A   1      43.003  34.886  32.568  1.00  0.00    -0.014 A 
ATOM     58  C   UNL A   1      42.634  35.316  33.856  1.00  0.00     0.010 A 
ATOM     59  C   UNL A   1      43.751  35.745  31.745  1.00  0.00     0.010 A 
ATOM     60  C   UNL A   1      42.962  36.600  34.293  1.00  0.00     0.020 A 
ATOM     61  C   UNL A   1      44.113  37.018  32.193  1.00  0.00     0.020 A 
ATOM     62  C   UNL A   1      43.689  37.447  33.453  1.00  0.00     0.054 A 
BRANCH  62  63
ATOM     63  S   UNL A   1      44.069  39.125  34.023  1.00  0.00     0.124 S 
ATOM     64  O   UNL A   1      44.410  38.902  35.426  1.00  0.00    -0.237 OA
ATOM     65  O   UNL A   1      45.181  39.514  33.159  1.00  0.00    -0.237 OA
ATOM     66  O   UNL A   1      42.825  39.856  33.791  1.00  0.00    -0.744 OA
ENDBRANCH  62  63
ENDBRANCH  36  57
ENDBRANCH  10  11
ENDBRANCH   3   5
ENDBRANCH   2   3
ENDBRANCH   1   2
BRANCH   1  67
ATOM     67  C   UNL A   1      36.101  22.648  24.135  1.00  0.00     0.275 C 
BRANCH  67  68
ATOM     68  O   UNL A   1      35.465  23.494  23.167  1.00  0.00    -0.458 OA
BRANCH  68  69
ATOM     69  C   UNL A   1      34.113  23.626  23.293  1.00  0.00     0.343 C 
ATOM     70  O   UNL A   1      33.290  22.726  23.210  1.00  0.00    -0.246 OA
BRANCH  69  71
ATOM     71  C   UNL A   1      33.816  24.965  23.811  1.00  0.00     0.125 A 
ATOM     72  C   UNL A   1      33.631  25.051  25.140  1.00  0.00     0.023 A 
ATOM     73  C   UNL A   1      33.807  26.193  22.967  1.00  0.00     0.265 A 
ATOM     74  C   UNL A   1      33.634  26.335  25.783  1.00  0.00     0.019 A 
ATOM     75  N   UNL A   1      33.719  27.404  23.670  1.00  0.00    -0.309 N 
ATOM     76  O   UNL A   1      33.852  26.103  21.743  1.00  0.00    -0.268 OA
ATOM     77  C   UNL A   1      33.756  27.441  25.045  1.00  0.00     0.089 A 
BRANCH  75  78
ATOM     78  C   UNL A   1      33.430  28.659  22.952  1.00  0.00     0.186 C 
BRANCH  78  79
ATOM     79  C   UNL A   1      31.931  28.787  22.585  1.00  0.00     0.284 C 
BRANCH  79  80
ATOM     80  N   UNL A   1      30.876  28.899  23.605  1.00  0.00    -0.333 N 
ATOM     81  C   UNL A   1      30.241  27.723  24.177  1.00  0.00     0.262 C 
ATOM     82  C   UNL A   1      29.780  29.778  23.187  1.00  0.00     0.262 C 
ATOM     83  H   UNL A   1      31.471  29.263  24.350  1.00  0.00     0.348 HD
ATOM     84  C   UNL A   1      28.940  27.517  23.415  1.00  0.00     0.067 C 
ATOM     85  C   UNL A   1      28.641  28.857  22.767  1.00  0.00     0.067 C 
ENDBRANCH  79  80
ENDBRANCH  78  79
ENDBRANCH  75  78
ENDBRANCH  69  71
ENDBRANCH  68  69
ENDBRANCH  67  68
ENDBRANCH   1  67
TORSDOF 17
ENDMDL
