MODEL 1
REMARK VINA RESULT:     -14.1      0.000      0.000
REMARK SMILES Cc1ccc(S(=O)(=O)n2cc(C(=O)C(=O)N[C@@H](Cc3c[nH]c4ccccc34)C(=O)OCCOC(=O)c3ccc(-c4c5nc(c(-c6ccc(S(=O)(=O)[O-])cc6)c6ccc([nH]6)c(-c6ccc(S(=O)(=O)[O-])cc6)c6nc(c(-c7ccc(S(=O)(=O)[O-])cc7)c7ccc4[nH]7)C=C6)C=C5)cc3)c3ccccc32)cc1
REMARK SMILES IDX 31 1 30 2 28 3 29 4 17 5 16 6 14 7 15 8 12 10 13 11 11 12
REMARK SMILES IDX 9 13 10 14 101 15 96 16 100 17 97 18 99 19 98 20 6 21 7 22
REMARK SMILES IDX 8 23 5 24 1 25 2 26 3 27 103 28 4 29 102 30 18 31 19 32
REMARK SMILES IDX 20 33 27 34 21 35 22 36 26 37 23 39 25 40 24 41 32 42 33 43
REMARK SMILES IDX 34 44 35 45 36 46 37 47 95 48 38 49 94 50 39 51 40 52 41 53
REMARK SMILES IDX 88 54 42 55 93 56 87 57 89 58 43 59 92 60 86 61 85 62 44 64
REMARK SMILES IDX 74 65 55 66 73 67 56 68 59 69 72 70 90 71 57 72 58 73 71 75
REMARK SMILES IDX 91 76 60 77 45 78 46 79 54 80 47 81 53 82 48 83 49 84 50 85
REMARK SMILES IDX 51 86 52 87 75 88 76 89 84 90 77 91 83 92 78 93 79 94 80 95
REMARK SMILES IDX 81 96 82 97 61 98 62 99 70 100 63 101 69 102 64 103 65 104
REMARK SMILES IDX 66 105 67 106 68 107
REMARK H PARENT 16 9 21 38 89 63 59 74
REMARK Flexibility Score: inf
ROOT
ATOM      1  C   UNL A   1      33.316  29.291  26.490  1.00  0.00     0.274 C 
ENDROOT
BRANCH   1   2
ATOM      2  O   UNL A   1      33.182  28.026  25.824  1.00  0.00    -0.461 OA
BRANCH   2   3
ATOM      3  C   UNL A   1      31.921  27.719  25.414  1.00  0.00     0.329 C 
ATOM      4  O   UNL A   1      31.110  27.119  26.114  1.00  0.00    -0.250 OA
BRANCH   3   5
ATOM      5  C   UNL A   1      31.602  28.297  24.018  1.00  0.00     0.197 C 
BRANCH   5   6
ATOM      6  N   UNL A   1      32.815  28.443  23.160  1.00  0.00    -0.335 N 
ATOM      7  C   UNL A   1      33.418  27.553  22.269  1.00  0.00     0.293 C 
ATOM      8  O   UNL A   1      34.386  27.910  21.601  1.00  0.00    -0.265 OA
ATOM      9  H   UNL A   1      33.267  29.314  23.235  1.00  0.00     0.164 HD
BRANCH   7  10
ATOM     10  C   UNL A   1      32.941  26.097  22.180  1.00  0.00     0.252 C 
ATOM     11  O   UNL A   1      31.990  25.903  21.418  1.00  0.00    -0.283 OA
BRANCH  10  12
ATOM     12  C   UNL A   1      33.393  24.954  23.011  1.00  0.00     0.054 A 
ATOM     13  N   UNL A   1      34.539  23.690  24.474  1.00  0.00    -0.240 N 
ATOM     14  C   UNL A   1      34.606  24.266  23.199  1.00  0.00     0.117 A 
ATOM     15  C   UNL A   1      33.308  24.038  25.046  1.00  0.00     0.065 A 
ATOM     16  C   UNL A   1      32.509  24.379  23.970  1.00  0.00     0.012 A 
ATOM     17  C   UNL A   1      32.767  23.790  26.323  1.00  0.00     0.028 A 
ATOM     18  C   UNL A   1      31.120  24.223  24.098  1.00  0.00     0.011 A 
ATOM     19  C   UNL A   1      31.395  23.572  26.409  1.00  0.00     0.002 A 
ATOM     20  C   UNL A   1      30.588  23.727  25.291  1.00  0.00     0.001 A 
BRANCH  13  21
ATOM     21  S   UNL A   1      35.087  22.183  25.095  1.00  0.00     0.268 S 
ATOM     22  O   UNL A   1      35.216  22.446  26.521  1.00  0.00    -0.201 OA
ATOM     23  O   UNL A   1      36.265  21.949  24.264  1.00  0.00    -0.201 OA
BRANCH  21  24
ATOM     24  C   UNL A   1      34.381  20.585  25.051  1.00  0.00     0.088 A 
ATOM     25  C   UNL A   1      33.617  16.436  24.144  1.00  0.00     0.044 C 
ATOM     26  C   UNL A   1      33.850  17.865  24.539  1.00  0.00    -0.051 A 
ATOM     27  C   UNL A   1      35.163  18.307  24.545  1.00  0.00     0.005 A 
ATOM     28  C   UNL A   1      32.815  18.783  24.839  1.00  0.00     0.005 A 
ATOM     29  C   UNL A   1      35.415  19.636  24.811  1.00  0.00     0.022 A 
ATOM     30  C   UNL A   1      33.070  20.157  25.093  1.00  0.00     0.022 A 
ENDBRANCH  21  24
ENDBRANCH  13  21
ENDBRANCH  10  12
ENDBRANCH   7  10
ENDBRANCH   5   6
BRANCH   5  31
ATOM     31  C   UNL A   1      30.451  27.477  23.373  1.00  0.00     0.074 C 
BRANCH  31  32
ATOM     32  C   UNL A   1      29.131  28.198  23.427  1.00  0.00    -0.020 A 
ATOM     33  C   UNL A   1      27.888  27.667  23.140  1.00  0.00     0.087 A 
ATOM     34  C   UNL A   1      28.947  29.603  23.545  1.00  0.00     0.003 A 
ATOM     35  N   UNL A   1      26.996  28.688  22.972  1.00  0.00    -0.361 N 
ATOM     36  C   UNL A   1      27.641  29.888  23.147  1.00  0.00     0.046 A 
ATOM     37  C   UNL A   1      29.821  30.664  23.831  1.00  0.00     0.010 A 
ATOM     38  H   UNL A   1      26.041  28.581  22.760  1.00  0.00     0.166 HD
ATOM     39  C   UNL A   1      27.184  31.191  22.946  1.00  0.00     0.026 A 
ATOM     40  C   UNL A   1      29.383  31.973  23.638  1.00  0.00     0.001 A 
ATOM     41  C   UNL A   1      28.090  32.229  23.183  1.00  0.00     0.002 A 
ENDBRANCH  31  32
ENDBRANCH   5  31
ENDBRANCH   3   5
ENDBRANCH   2   3
ENDBRANCH   1   2
BRANCH   1  42
ATOM     42  C   UNL A   1      34.233  29.142  27.714  1.00  0.00     0.275 C 
BRANCH  42  43
ATOM     43  O   UNL A   1      35.664  29.274  27.512  1.00  0.00    -0.458 OA
BRANCH  43  44
ATOM     44  C   UNL A   1      36.254  30.495  27.668  1.00  0.00     0.338 C 
ATOM     45  O   UNL A   1      35.646  31.552  27.729  1.00  0.00    -0.246 OA
BRANCH  44  46
ATOM     46  C   UNL A   1      37.673  30.293  28.092  1.00  0.00     0.060 A 
ATOM     47  C   UNL A   1      38.019  30.219  29.454  1.00  0.00     0.016 A 
ATOM     48  C   UNL A   1      38.549  29.804  27.133  1.00  0.00     0.016 A 
ATOM     49  C   UNL A   1      39.153  29.489  29.862  1.00  0.00     0.010 A 
ATOM     50  C   UNL A   1      39.558  28.970  27.536  1.00  0.00     0.010 A 
ATOM     51  C   UNL A   1      39.883  28.796  28.896  1.00  0.00    -0.014 A 
BRANCH  51  52
ATOM     52  C   UNL A   1      41.101  27.987  29.058  1.00  0.00     0.031 A 
ATOM     53  C   UNL A   1      41.283  26.611  28.513  1.00  0.00     0.074 A 
ATOM     54  C   UNL A   1      42.134  28.727  29.528  1.00  0.00     0.049 A 
ATOM     55  N   UNL A   1      42.329  26.215  27.852  1.00  0.00    -0.248 NA
ATOM     56  C   UNL A   1      40.285  25.547  28.695  1.00  0.00     0.031 C 
ATOM     57  C   UNL A   1      43.551  28.438  29.580  1.00  0.00     0.029 A 
ATOM     58  N   UNL A   1      42.029  29.936  30.233  1.00  0.00    -0.354 N 
ATOM     59  C   UNL A   1      42.221  24.846  27.631  1.00  0.00     0.074 A 
ATOM     60  C   UNL A   1      40.890  24.495  28.117  1.00  0.00     0.031 C 
ATOM     61  C   UNL A   1      44.098  29.197  30.550  1.00  0.00     0.029 A 
ATOM     62  C   UNL A   1      43.000  29.892  31.222  1.00  0.00     0.049 A 
ATOM     63  H   UNL A   1      41.393  30.668  30.060  1.00  0.00     0.167 HD
ATOM     64  C   UNL A   1      43.273  24.012  27.888  1.00  0.00     0.031 A 
ATOM     65  C   UNL A   1      42.627  29.743  32.529  1.00  0.00     0.031 A 
ATOM     66  C   UNL A   1      44.159  24.555  28.886  1.00  0.00     0.049 A 
ATOM     67  C   UNL A   1      43.142  28.420  33.030  1.00  0.00     0.074 A 
ATOM     68  C   UNL A   1      45.268  25.373  28.834  1.00  0.00     0.029 A 
ATOM     69  N   UNL A   1      43.790  24.429  30.211  1.00  0.00    -0.354 N 
ATOM     70  N   UNL A   1      43.197  27.332  32.309  1.00  0.00    -0.248 NA
ATOM     71  C   UNL A   1      43.748  28.275  34.347  1.00  0.00     0.031 C 
ATOM     72  C   UNL A   1      45.519  25.817  30.158  1.00  0.00     0.029 A 
ATOM     73  C   UNL A   1      44.575  25.240  30.995  1.00  0.00     0.049 A 
ATOM     74  H   UNL A   1      43.071  23.845  30.543  1.00  0.00     0.167 HD
ATOM     75  C   UNL A   1      43.958  26.414  32.983  1.00  0.00     0.074 A 
ATOM     76  C   UNL A   1      44.230  27.025  34.272  1.00  0.00     0.031 C 
ATOM     77  C   UNL A   1      44.414  25.253  32.433  1.00  0.00     0.031 A 
BRANCH  64  78
ATOM     78  C   UNL A   1      43.688  22.942  26.905  1.00  0.00    -0.014 A 
ATOM     79  C   UNL A   1      42.811  21.855  26.678  1.00  0.00     0.010 A 
ATOM     80  C   UNL A   1      44.929  22.902  26.237  1.00  0.00     0.010 A 
ATOM     81  C   UNL A   1      43.173  20.748  25.903  1.00  0.00     0.020 A 
ATOM     82  C   UNL A   1      45.296  21.798  25.439  1.00  0.00     0.020 A 
ATOM     83  C   UNL A   1      44.427  20.712  25.304  1.00  0.00     0.054 A 
BRANCH  83  84
ATOM     84  S   UNL A   1      44.902  19.212  24.395  1.00  0.00     0.124 S 
ATOM     85  O   UNL A   1      44.092  18.186  25.045  1.00  0.00    -0.237 OA
ATOM     86  O   UNL A   1      44.523  19.533  23.022  1.00  0.00    -0.237 OA
ATOM     87  O   UNL A   1      46.341  19.103  24.631  1.00  0.00    -0.744 OA
ENDBRANCH  83  84
ENDBRANCH  64  78
BRANCH  65  88
ATOM     88  C   UNL A   1      41.295  30.345  32.872  1.00  0.00    -0.014 A 
ATOM     89  C   UNL A   1      40.343  29.493  33.482  1.00  0.00     0.010 A 
ATOM     90  C   UNL A   1      41.103  31.735  32.974  1.00  0.00     0.010 A 
ATOM     91  C   UNL A   1      39.323  30.005  34.289  1.00  0.00     0.020 A 
ATOM     92  C   UNL A   1      40.060  32.255  33.767  1.00  0.00     0.020 A 
ATOM     93  C   UNL A   1      39.212  31.383  34.459  1.00  0.00     0.054 A 
BRANCH  93  94
ATOM     94  S   UNL A   1      38.067  31.987  35.735  1.00  0.00     0.124 S 
ATOM     95  O   UNL A   1      36.954  32.495  34.941  1.00  0.00    -0.237 OA
ATOM     96  O   UNL A   1      37.792  30.776  36.508  1.00  0.00    -0.237 OA
ATOM     97  O   UNL A   1      38.853  32.996  36.433  1.00  0.00    -0.744 OA
ENDBRANCH  93  94
ENDBRANCH  65  88
BRANCH  77  98
ATOM     98  C   UNL A   1      44.894  24.069  33.227  1.00  0.00    -0.014 A 
ATOM     99  C   UNL A   1      46.170  24.016  33.806  1.00  0.00     0.010 A 
ATOM    100  C   UNL A   1      43.996  23.024  33.548  1.00  0.00     0.010 A 
ATOM    101  C   UNL A   1      46.575  22.921  34.570  1.00  0.00     0.020 A 
ATOM    102  C   UNL A   1      44.371  21.952  34.360  1.00  0.00     0.020 A 
ATOM    103  C   UNL A   1      45.676  21.889  34.832  1.00  0.00     0.054 A 
BRANCH 103 104
ATOM    104  S   UNL A   1      46.228  20.488  35.829  1.00  0.00     0.124 S 
ATOM    105  O   UNL A   1      45.283  19.450  35.429  1.00  0.00    -0.237 OA
ATOM    106  O   UNL A   1      47.604  20.291  35.377  1.00  0.00    -0.237 OA
ATOM    107  O   UNL A   1      46.093  20.967  37.201  1.00  0.00    -0.744 OA
ENDBRANCH 103 104
ENDBRANCH  77  98
ENDBRANCH  51  52
ENDBRANCH  44  46
ENDBRANCH  43  44
ENDBRANCH  42  43
ENDBRANCH   1  42
TORSDOF 21
ENDMDL
MODEL 2
REMARK VINA RESULT:     -13.6      1.589      2.314
REMARK SMILES Cc1ccc(S(=O)(=O)n2cc(C(=O)C(=O)N[C@@H](Cc3c[nH]c4ccccc34)C(=O)OCCOC(=O)c3ccc(-c4c5nc(c(-c6ccc(S(=O)(=O)[O-])cc6)c6ccc([nH]6)c(-c6ccc(S(=O)(=O)[O-])cc6)c6nc(c(-c7ccc(S(=O)(=O)[O-])cc7)c7ccc4[nH]7)C=C6)C=C5)cc3)c3ccccc32)cc1
REMARK SMILES IDX 31 1 30 2 28 3 29 4 17 5 16 6 14 7 15 8 12 10 13 11 11 12
REMARK SMILES IDX 9 13 10 14 101 15 96 16 100 17 97 18 99 19 98 20 6 21 7 22
REMARK SMILES IDX 8 23 5 24 1 25 2 26 3 27 103 28 4 29 102 30 18 31 19 32
REMARK SMILES IDX 20 33 27 34 21 35 22 36 26 37 23 39 25 40 24 41 32 42 33 43
REMARK SMILES IDX 34 44 35 45 36 46 37 47 95 48 38 49 94 50 39 51 40 52 41 53
REMARK SMILES IDX 88 54 42 55 93 56 87 57 89 58 43 59 92 60 86 61 85 62 44 64
REMARK SMILES IDX 74 65 55 66 73 67 56 68 59 69 72 70 90 71 57 72 58 73 71 75
REMARK SMILES IDX 91 76 60 77 45 78 46 79 54 80 47 81 53 82 48 83 49 84 50 85
REMARK SMILES IDX 51 86 52 87 75 88 76 89 84 90 77 91 83 92 78 93 79 94 80 95
REMARK SMILES IDX 81 96 82 97 61 98 62 99 70 100 63 101 69 102 64 103 65 104
REMARK SMILES IDX 66 105 67 106 68 107
REMARK H PARENT 16 9 21 38 89 63 59 74
REMARK Flexibility Score: inf
ROOT
ATOM      1  C   UNL A   1      33.199  30.981  27.664  1.00  0.00     0.274 C 
ENDROOT
BRANCH   1   2
ATOM      2  O   UNL A   1      32.250  30.971  26.587  1.00  0.00    -0.461 OA
BRANCH   2   3
ATOM      3  C   UNL A   1      31.771  29.742  26.249  1.00  0.00     0.329 C 
ATOM      4  O   UNL A   1      31.474  28.882  27.072  1.00  0.00    -0.250 OA
BRANCH   3   5
ATOM      5  C   UNL A   1      31.551  29.599  24.727  1.00  0.00     0.197 C 
BRANCH   5   6
ATOM      6  N   UNL A   1      32.827  29.433  23.970  1.00  0.00    -0.335 N 
ATOM      7  C   UNL A   1      33.764  28.398  23.970  1.00  0.00     0.293 C 
ATOM      8  O   UNL A   1      34.723  28.434  23.204  1.00  0.00    -0.265 OA
ATOM      9  H   UNL A   1      33.046  30.181  23.369  1.00  0.00     0.164 HD
BRANCH   7  10
ATOM     10  C   UNL A   1      33.658  27.253  24.986  1.00  0.00     0.252 C 
ATOM     11  O   UNL A   1      34.032  27.531  26.129  1.00  0.00    -0.283 OA
BRANCH  10  12
ATOM     12  C   UNL A   1      33.308  25.838  24.709  1.00  0.00     0.054 A 
ATOM     13  N   UNL A   1      32.531  23.979  23.713  1.00  0.00    -0.240 N 
ATOM     14  C   UNL A   1      32.129  25.139  24.386  1.00  0.00     0.117 A 
ATOM     15  C   UNL A   1      33.929  23.988  23.624  1.00  0.00     0.065 A 
ATOM     16  C   UNL A   1      34.335  24.854  24.622  1.00  0.00     0.012 A 
ATOM     17  C   UNL A   1      34.832  23.110  22.991  1.00  0.00     0.028 A 
ATOM     18  C   UNL A   1      35.608  24.672  25.185  1.00  0.00     0.011 A 
ATOM     19  C   UNL A   1      36.061  22.897  23.608  1.00  0.00     0.002 A 
ATOM     20  C   UNL A   1      36.419  23.627  24.732  1.00  0.00     0.001 A 
BRANCH  13  21
ATOM     21  S   UNL A   1      31.939  22.364  23.732  1.00  0.00     0.268 S 
ATOM     22  O   UNL A   1      31.298  22.237  22.432  1.00  0.00    -0.201 OA
ATOM     23  O   UNL A   1      31.152  22.369  24.963  1.00  0.00    -0.201 OA
BRANCH  21  24
ATOM     24  C   UNL A   1      32.757  20.831  23.920  1.00  0.00     0.088 A 
ATOM     25  C   UNL A   1      33.635  16.608  24.005  1.00  0.00     0.044 C 
ATOM     26  C   UNL A   1      33.414  18.091  23.953  1.00  0.00    -0.051 A 
ATOM     27  C   UNL A   1      32.500  18.555  23.021  1.00  0.00     0.005 A 
ATOM     28  C   UNL A   1      34.028  19.016  24.833  1.00  0.00     0.005 A 
ATOM     29  C   UNL A   1      32.197  19.900  23.001  1.00  0.00     0.022 A 
ATOM     30  C   UNL A   1      33.701  20.398  24.828  1.00  0.00     0.022 A 
ENDBRANCH  21  24
ENDBRANCH  13  21
ENDBRANCH  10  12
ENDBRANCH   7  10
ENDBRANCH   5   6
BRANCH   5  31
ATOM     31  C   UNL A   1      30.496  28.490  24.463  1.00  0.00     0.074 C 
BRANCH  31  32
ATOM     32  C   UNL A   1      29.337  28.984  23.639  1.00  0.00    -0.020 A 
ATOM     33  C   UNL A   1      28.524  28.224  22.820  1.00  0.00     0.087 A 
ATOM     34  C   UNL A   1      29.021  30.342  23.366  1.00  0.00     0.003 A 
ATOM     35  N   UNL A   1      27.820  29.056  21.996  1.00  0.00    -0.361 N 
ATOM     36  C   UNL A   1      28.163  30.359  22.266  1.00  0.00     0.046 A 
ATOM     37  C   UNL A   1      29.496  31.560  23.879  1.00  0.00     0.010 A 
ATOM     38  H   UNL A   1      27.169  28.769  21.316  1.00  0.00     0.166 HD
ATOM     39  C   UNL A   1      27.814  31.536  21.602  1.00  0.00     0.026 A 
ATOM     40  C   UNL A   1      29.158  32.746  23.232  1.00  0.00     0.001 A 
ATOM     41  C   UNL A   1      28.345  32.730  22.099  1.00  0.00     0.002 A 
ENDBRANCH  31  32
ENDBRANCH   5  31
ENDBRANCH   3   5
ENDBRANCH   2   3
ENDBRANCH   1   2
BRANCH   1  42
ATOM     42  C   UNL A   1      34.595  30.616  27.133  1.00  0.00     0.275 C 
BRANCH  42  43
ATOM     43  O   UNL A   1      35.743  31.264  27.739  1.00  0.00    -0.458 OA
BRANCH  43  44
ATOM     44  C   UNL A   1      36.299  30.728  28.864  1.00  0.00     0.338 C 
ATOM     45  O   UNL A   1      35.823  30.826  29.984  1.00  0.00    -0.246 OA
BRANCH  44  46
ATOM     46  C   UNL A   1      37.349  29.742  28.461  1.00  0.00     0.060 A 
ATOM     47  C   UNL A   1      38.311  30.065  27.487  1.00  0.00     0.016 A 
ATOM     48  C   UNL A   1      37.577  28.682  29.327  1.00  0.00     0.016 A 
ATOM     49  C   UNL A   1      39.578  29.449  27.506  1.00  0.00     0.010 A 
ATOM     50  C   UNL A   1      38.853  28.196  29.441  1.00  0.00     0.010 A 
ATOM     51  C   UNL A   1      39.873  28.561  28.541  1.00  0.00    -0.014 A 
BRANCH  51  52
ATOM     52  C   UNL A   1      41.099  27.783  28.773  1.00  0.00     0.031 A 
ATOM     53  C   UNL A   1      41.290  26.361  28.367  1.00  0.00     0.074 A 
ATOM     54  C   UNL A   1      42.129  28.575  29.158  1.00  0.00     0.049 A 
ATOM     55  N   UNL A   1      42.335  25.910  27.741  1.00  0.00    -0.248 NA
ATOM     56  C   UNL A   1      40.304  25.312  28.663  1.00  0.00     0.031 C 
ATOM     57  C   UNL A   1      43.548  28.305  29.227  1.00  0.00     0.029 A 
ATOM     58  N   UNL A   1      42.017  29.848  29.739  1.00  0.00    -0.354 N 
ATOM     59  C   UNL A   1      42.238  24.525  27.659  1.00  0.00     0.074 A 
ATOM     60  C   UNL A   1      40.914  24.213  28.188  1.00  0.00     0.031 C 
ATOM     61  C   UNL A   1      44.095  29.162  30.112  1.00  0.00     0.029 A 
ATOM     62  C   UNL A   1      42.996  29.912  30.719  1.00  0.00     0.049 A 
ATOM     63  H   UNL A   1      41.374  30.554  29.498  1.00  0.00     0.167 HD
ATOM     64  C   UNL A   1      43.300  23.730  27.989  1.00  0.00     0.031 A 
ATOM     65  C   UNL A   1      42.634  29.891  32.038  1.00  0.00     0.031 A 
ATOM     66  C   UNL A   1      44.187  24.377  28.921  1.00  0.00     0.049 A 
ATOM     67  C   UNL A   1      43.165  28.630  32.664  1.00  0.00     0.074 A 
ATOM     68  C   UNL A   1      45.289  25.195  28.779  1.00  0.00     0.029 A 
ATOM     69  N   UNL A   1      43.829  24.382  30.254  1.00  0.00    -0.354 N 
ATOM     70  N   UNL A   1      43.224  27.476  32.056  1.00  0.00    -0.248 NA
ATOM     71  C   UNL A   1      43.782  28.623  33.985  1.00  0.00     0.031 C 
ATOM     72  C   UNL A   1      45.545  25.771  30.049  1.00  0.00     0.029 A 
ATOM     73  C   UNL A   1      44.612  25.274  30.947  1.00  0.00     0.049 A 
ATOM     74  H   UNL A   1      43.118  23.828  30.650  1.00  0.00     0.167 HD
ATOM     75  C   UNL A   1      43.999  26.636  32.813  1.00  0.00     0.074 A 
ATOM     76  C   UNL A   1      44.275  27.376  34.032  1.00  0.00     0.031 C 
ATOM     77  C   UNL A   1      44.461  25.430  32.378  1.00  0.00     0.031 A 
BRANCH  64  78
ATOM     78  C   UNL A   1      43.717  22.569  27.115  1.00  0.00    -0.014 A 
ATOM     79  C   UNL A   1      45.005  22.592  26.531  1.00  0.00     0.010 A 
ATOM     80  C   UNL A   1      42.888  21.482  26.774  1.00  0.00     0.010 A 
ATOM     81  C   UNL A   1      45.421  21.640  25.594  1.00  0.00     0.020 A 
ATOM     82  C   UNL A   1      43.304  20.506  25.843  1.00  0.00     0.020 A 
ATOM     83  C   UNL A   1      44.558  20.611  25.235  1.00  0.00     0.054 A 
BRANCH  83  84
ATOM     84  S   UNL A   1      45.091  19.457  23.936  1.00  0.00     0.124 S 
ATOM     85  O   UNL A   1      44.536  20.068  22.731  1.00  0.00    -0.237 OA
ATOM     86  O   UNL A   1      46.546  19.498  24.046  1.00  0.00    -0.237 OA
ATOM     87  O   UNL A   1      44.476  18.189  24.324  1.00  0.00    -0.744 OA
ENDBRANCH  83  84
ENDBRANCH  64  78
BRANCH  65  88
ATOM     88  C   UNL A   1      41.300  30.513  32.330  1.00  0.00    -0.014 A 
ATOM     89  C   UNL A   1      41.305  31.797  32.926  1.00  0.00     0.010 A 
ATOM     90  C   UNL A   1      40.115  30.076  31.709  1.00  0.00     0.010 A 
ATOM     91  C   UNL A   1      40.224  32.670  32.778  1.00  0.00     0.020 A 
ATOM     92  C   UNL A   1      39.014  30.946  31.579  1.00  0.00     0.020 A 
ATOM     93  C   UNL A   1      39.100  32.254  32.071  1.00  0.00     0.054 A 
BRANCH  93  94
ATOM     94  S   UNL A   1      37.850  33.507  31.655  1.00  0.00     0.124 S 
ATOM     95  O   UNL A   1      38.389  34.707  32.284  1.00  0.00    -0.237 OA
ATOM     96  O   UNL A   1      37.869  33.495  30.193  1.00  0.00    -0.237 OA
ATOM     97  O   UNL A   1      36.635  32.973  32.257  1.00  0.00    -0.744 OA
ENDBRANCH  93  94
ENDBRANCH  65  88
BRANCH  77  98
ATOM     98  C   UNL A   1      44.958  24.335  33.283  1.00  0.00    -0.014 A 
ATOM     99  C   UNL A   1      46.277  24.288  33.757  1.00  0.00     0.010 A 
ATOM    100  C   UNL A   1      44.047  23.392  33.815  1.00  0.00     0.010 A 
ATOM    101  C   UNL A   1      46.700  23.283  34.626  1.00  0.00     0.020 A 
ATOM    102  C   UNL A   1      44.446  22.417  34.731  1.00  0.00     0.020 A 
ATOM    103  C   UNL A   1      45.784  22.345  35.098  1.00  0.00     0.054 A 
BRANCH 103 104
ATOM    104  S   UNL A   1      46.361  21.058  36.227  1.00  0.00     0.124 S 
ATOM    105  O   UNL A   1      45.965  21.603  37.522  1.00  0.00    -0.237 OA
ATOM    106  O   UNL A   1      45.614  19.882  35.786  1.00  0.00    -0.237 OA
ATOM    107  O   UNL A   1      47.799  21.003  35.980  1.00  0.00    -0.744 OA
ENDBRANCH 103 104
ENDBRANCH  77  98
ENDBRANCH  51  52
ENDBRANCH  44  46
ENDBRANCH  43  44
ENDBRANCH  42  43
ENDBRANCH   1  42
TORSDOF 21
ENDMDL
MODEL 3
REMARK VINA RESULT:     -13.4      1.961      2.813
REMARK SMILES Cc1ccc(S(=O)(=O)n2cc(C(=O)C(=O)N[C@@H](Cc3c[nH]c4ccccc34)C(=O)OCCOC(=O)c3ccc(-c4c5nc(c(-c6ccc(S(=O)(=O)[O-])cc6)c6ccc([nH]6)c(-c6ccc(S(=O)(=O)[O-])cc6)c6nc(c(-c7ccc(S(=O)(=O)[O-])cc7)c7ccc4[nH]7)C=C6)C=C5)cc3)c3ccccc32)cc1
REMARK SMILES IDX 31 1 30 2 28 3 29 4 17 5 16 6 14 7 15 8 12 10 13 11 11 12
REMARK SMILES IDX 9 13 10 14 101 15 96 16 100 17 97 18 99 19 98 20 6 21 7 22
REMARK SMILES IDX 8 23 5 24 1 25 2 26 3 27 103 28 4 29 102 30 18 31 19 32
REMARK SMILES IDX 20 33 27 34 21 35 22 36 26 37 23 39 25 40 24 41 32 42 33 43
REMARK SMILES IDX 34 44 35 45 36 46 37 47 95 48 38 49 94 50 39 51 40 52 41 53
REMARK SMILES IDX 88 54 42 55 93 56 87 57 89 58 43 59 92 60 86 61 85 62 44 64
REMARK SMILES IDX 74 65 55 66 73 67 56 68 59 69 72 70 90 71 57 72 58 73 71 75
REMARK SMILES IDX 91 76 60 77 45 78 46 79 54 80 47 81 53 82 48 83 49 84 50 85
REMARK SMILES IDX 51 86 52 87 75 88 76 89 84 90 77 91 83 92 78 93 79 94 80 95
REMARK SMILES IDX 81 96 82 97 61 98 62 99 70 100 63 101 69 102 64 103 65 104
REMARK SMILES IDX 66 105 67 106 68 107
REMARK H PARENT 16 9 21 38 89 63 59 74
REMARK Flexibility Score: inf
ROOT
ATOM      1  C   UNL A   1      34.303  31.180  27.609  1.00  0.00     0.274 C 
ENDROOT
BRANCH   1   2
ATOM      2  O   UNL A   1      32.992  31.262  27.030  1.00  0.00    -0.461 OA
BRANCH   2   3
ATOM      3  C   UNL A   1      32.416  30.066  26.728  1.00  0.00     0.329 C 
ATOM      4  O   UNL A   1      32.178  29.200  27.565  1.00  0.00    -0.250 OA
BRANCH   3   5
ATOM      5  C   UNL A   1      32.010  29.971  25.241  1.00  0.00     0.197 C 
BRANCH   5   6
ATOM      6  N   UNL A   1      33.171  29.722  24.337  1.00  0.00    -0.335 N 
ATOM      7  C   UNL A   1      33.989  28.600  24.185  1.00  0.00     0.293 C 
ATOM      8  O   UNL A   1      34.858  28.584  23.317  1.00  0.00    -0.265 OA
ATOM      9  H   UNL A   1      33.401  30.476  23.749  1.00  0.00     0.164 HD
BRANCH   7  10
ATOM     10  C   UNL A   1      33.876  27.417  25.156  1.00  0.00     0.252 C 
ATOM     11  O   UNL A   1      34.325  27.622  26.287  1.00  0.00    -0.283 OA
BRANCH  10  12
ATOM     12  C   UNL A   1      33.435  26.037  24.838  1.00  0.00     0.054 A 
ATOM     13  N   UNL A   1      32.615  24.245  23.755  1.00  0.00    -0.240 N 
ATOM     14  C   UNL A   1      32.244  25.442  24.381  1.00  0.00     0.117 A 
ATOM     15  C   UNL A   1      34.009  24.129  23.827  1.00  0.00     0.065 A 
ATOM     16  C   UNL A   1      34.375  24.965  24.866  1.00  0.00     0.012 A 
ATOM     17  C   UNL A   1      34.897  23.170  23.298  1.00  0.00     0.028 A 
ATOM     18  C   UNL A   1      35.554  24.675  25.569  1.00  0.00     0.011 A 
ATOM     19  C   UNL A   1      36.024  22.854  24.051  1.00  0.00     0.002 A 
ATOM     20  C   UNL A   1      36.316  23.559  25.209  1.00  0.00     0.001 A 
BRANCH  13  21
ATOM     21  S   UNL A   1      31.884  22.689  23.704  1.00  0.00     0.268 S 
ATOM     22  O   UNL A   1      31.692  22.466  22.279  1.00  0.00    -0.201 OA
ATOM     23  O   UNL A   1      30.743  22.886  24.595  1.00  0.00    -0.201 OA
BRANCH  21  24
ATOM     24  C   UNL A   1      32.431  21.131  24.277  1.00  0.00     0.088 A 
ATOM     25  C   UNL A   1      32.895  16.882  24.861  1.00  0.00     0.044 C 
ATOM     26  C   UNL A   1      32.819  18.369  24.674  1.00  0.00    -0.051 A 
ATOM     27  C   UNL A   1      32.441  18.824  23.422  1.00  0.00     0.005 A 
ATOM     28  C   UNL A   1      33.047  19.310  25.708  1.00  0.00     0.005 A 
ATOM     29  C   UNL A   1      32.269  20.178  23.232  1.00  0.00     0.022 A 
ATOM     30  C   UNL A   1      32.849  20.704  25.520  1.00  0.00     0.022 A 
ENDBRANCH  21  24
ENDBRANCH  13  21
ENDBRANCH  10  12
ENDBRANCH   7  10
ENDBRANCH   5   6
BRANCH   5  31
ATOM     31  C   UNL A   1      30.847  28.952  25.091  1.00  0.00     0.074 C 
BRANCH  31  32
ATOM     32  C   UNL A   1      30.127  29.090  23.775  1.00  0.00    -0.020 A 
ATOM     33  C   UNL A   1      30.255  28.265  22.675  1.00  0.00     0.087 A 
ATOM     34  C   UNL A   1      29.380  30.219  23.343  1.00  0.00     0.003 A 
ATOM     35  N   UNL A   1      29.719  28.890  21.585  1.00  0.00    -0.361 N 
ATOM     36  C   UNL A   1      29.239  30.122  21.959  1.00  0.00     0.046 A 
ATOM     37  C   UNL A   1      28.927  31.377  23.996  1.00  0.00     0.010 A 
ATOM     38  H   UNL A   1      29.682  28.518  20.674  1.00  0.00     0.166 HD
ATOM     39  C   UNL A   1      28.734  31.164  21.180  1.00  0.00     0.026 A 
ATOM     40  C   UNL A   1      28.417  32.428  23.236  1.00  0.00     0.001 A 
ATOM     41  C   UNL A   1      28.342  32.328  21.848  1.00  0.00     0.002 A 
ENDBRANCH  31  32
ENDBRANCH   5  31
ENDBRANCH   3   5
ENDBRANCH   2   3
ENDBRANCH   1   2
BRANCH   1  42
ATOM     42  C   UNL A   1      34.686  32.533  28.229  1.00  0.00     0.275 C 
BRANCH  42  43
ATOM     43  O   UNL A   1      36.038  32.691  28.732  1.00  0.00    -0.458 OA
BRANCH  43  44
ATOM     44  C   UNL A   1      36.231  33.136  30.008  1.00  0.00     0.338 C 
ATOM     45  O   UNL A   1      35.498  33.925  30.582  1.00  0.00    -0.246 OA
BRANCH  44  46
ATOM     46  C   UNL A   1      37.242  32.259  30.675  1.00  0.00     0.060 A 
ATOM     47  C   UNL A   1      36.951  30.917  30.976  1.00  0.00     0.016 A 
ATOM     48  C   UNL A   1      38.563  32.684  30.633  1.00  0.00     0.016 A 
ATOM     49  C   UNL A   1      37.986  29.963  31.048  1.00  0.00     0.010 A 
ATOM     50  C   UNL A   1      39.550  31.738  30.549  1.00  0.00     0.010 A 
ATOM     51  C   UNL A   1      39.289  30.368  30.756  1.00  0.00    -0.014 A 
BRANCH  51  52
ATOM     52  C   UNL A   1      40.531  29.582  30.778  1.00  0.00     0.031 A 
ATOM     53  C   UNL A   1      40.788  28.378  29.936  1.00  0.00     0.074 A 
ATOM     54  C   UNL A   1      41.516  30.222  31.453  1.00  0.00     0.049 A 
ATOM     55  N   UNL A   1      41.872  28.182  29.247  1.00  0.00    -0.248 NA
ATOM     56  C   UNL A   1      39.829  27.271  29.820  1.00  0.00     0.031 C 
ATOM     57  C   UNL A   1      42.941  29.974  31.498  1.00  0.00     0.029 A 
ATOM     58  N   UNL A   1      41.338  31.229  32.415  1.00  0.00    -0.354 N 
ATOM     59  C   UNL A   1      41.828  26.900  28.709  1.00  0.00     0.074 A 
ATOM     60  C   UNL A   1      40.496  26.404  29.040  1.00  0.00     0.031 C 
ATOM     61  C   UNL A   1      43.422  30.500  32.642  1.00  0.00     0.029 A 
ATOM     62  C   UNL A   1      42.274  30.984  33.408  1.00  0.00     0.049 A 
ATOM     63  H   UNL A   1      40.679  31.961  32.390  1.00  0.00     0.167 HD
ATOM     64  C   UNL A   1      42.903  26.062  28.809  1.00  0.00     0.031 A 
ATOM     65  C   UNL A   1      41.862  30.520  34.627  1.00  0.00     0.031 A 
ATOM     66  C   UNL A   1      43.730  26.383  29.944  1.00  0.00     0.049 A 
ATOM     67  C   UNL A   1      42.412  29.134  34.827  1.00  0.00     0.074 A 
ATOM     68  C   UNL A   1      44.807  27.224  30.134  1.00  0.00     0.029 A 
ATOM     69  N   UNL A   1      43.320  25.938  31.186  1.00  0.00    -0.354 N 
ATOM     70  N   UNL A   1      42.536  28.248  33.875  1.00  0.00    -0.248 NA
ATOM     71  C   UNL A   1      42.976  28.702  36.099  1.00  0.00     0.031 C 
ATOM     72  C   UNL A   1      44.992  27.352  31.534  1.00  0.00     0.029 A 
ATOM     73  C   UNL A   1      44.043  26.566  32.171  1.00  0.00     0.049 A 
ATOM     74  H   UNL A   1      42.614  25.270  31.341  1.00  0.00     0.167 HD
ATOM     75  C   UNL A   1      43.310  27.221  34.350  1.00  0.00     0.074 A 
ATOM     76  C   UNL A   1      43.511  27.520  35.756  1.00  0.00     0.031 C 
ATOM     77  C   UNL A   1      43.831  26.236  33.564  1.00  0.00     0.031 A 
BRANCH  64  78
ATOM     78  C   UNL A   1      43.395  25.266  27.623  1.00  0.00    -0.014 A 
ATOM     79  C   UNL A   1      42.954  23.930  27.475  1.00  0.00     0.010 A 
ATOM     80  C   UNL A   1      44.328  25.732  26.675  1.00  0.00     0.010 A 
ATOM     81  C   UNL A   1      43.469  23.073  26.496  1.00  0.00     0.020 A 
ATOM     82  C   UNL A   1      44.842  24.880  25.673  1.00  0.00     0.020 A 
ATOM     83  C   UNL A   1      44.432  23.546  25.611  1.00  0.00     0.054 A 
BRANCH  83  84
ATOM     84  S   UNL A   1      45.156  22.376  24.425  1.00  0.00     0.124 S 
ATOM     85  O   UNL A   1      46.519  22.882  24.282  1.00  0.00    -0.237 OA
ATOM     86  O   UNL A   1      45.034  21.097  25.118  1.00  0.00    -0.237 OA
ATOM     87  O   UNL A   1      44.317  22.519  23.237  1.00  0.00    -0.744 OA
ENDBRANCH  83  84
ENDBRANCH  64  78
BRANCH  65  88
ATOM     88  C   UNL A   1      40.496  30.983  35.042  1.00  0.00    -0.014 A 
ATOM     89  C   UNL A   1      40.395  32.288  35.581  1.00  0.00     0.010 A 
ATOM     90  C   UNL A   1      39.319  30.366  34.577  1.00  0.00     0.010 A 
ATOM     91  C   UNL A   1      39.199  33.008  35.520  1.00  0.00     0.020 A 
ATOM     92  C   UNL A   1      38.106  31.081  34.538  1.00  0.00     0.020 A 
ATOM     93  C   UNL A   1      38.070  32.414  34.963  1.00  0.00     0.054 A 
BRANCH  93  94
ATOM     94  S   UNL A   1      36.629  33.473  34.640  1.00  0.00     0.124 S 
ATOM     95  O   UNL A   1      35.783  32.612  33.823  1.00  0.00    -0.237 OA
ATOM     96  O   UNL A   1      36.135  33.750  35.989  1.00  0.00    -0.237 OA
ATOM     97  O   UNL A   1      37.209  34.620  33.953  1.00  0.00    -0.744 OA
ENDBRANCH  93  94
ENDBRANCH  65  88
BRANCH  77  98
ATOM     98  C   UNL A   1      44.330  24.914  34.080  1.00  0.00    -0.014 A 
ATOM     99  C   UNL A   1      43.469  23.922  34.573  1.00  0.00     0.010 A 
ATOM    100  C   UNL A   1      45.695  24.570  33.934  1.00  0.00     0.010 A 
ATOM    101  C   UNL A   1      43.956  22.690  35.009  1.00  0.00     0.020 A 
ATOM    102  C   UNL A   1      46.184  23.318  34.312  1.00  0.00     0.020 A 
ATOM    103  C   UNL A   1      45.314  22.400  34.888  1.00  0.00     0.054 A 
BRANCH 103 104
ATOM    104  S   UNL A   1      45.913  20.794  35.457  1.00  0.00     0.124 S 
ATOM    105  O   UNL A   1      45.891  20.967  36.906  1.00  0.00    -0.237 OA
ATOM    106  O   UNL A   1      44.918  19.869  34.920  1.00  0.00    -0.237 OA
ATOM    107  O   UNL A   1      47.240  20.689  34.855  1.00  0.00    -0.744 OA
ENDBRANCH 103 104
ENDBRANCH  77  98
ENDBRANCH  51  52
ENDBRANCH  44  46
ENDBRANCH  43  44
ENDBRANCH  42  43
ENDBRANCH   1  42
TORSDOF 21
ENDMDL
