MODEL 1
REMARK VINA RESULT:     -11.6      0.000      0.000
REMARK SMILES O=C(Cn1cc(NC(=O)N2CC[N@@H+]3CCC[C@@H]3C2)cn1)OCCOC(=O)c1ccc(-c2c3nc(c(-c4ccc(S(=O)(=O)[O-])cc4)c4ccc([nH]4)c(-c4ccc(S(=O)(=O)[O-])cc4)c4nc(c(-c5ccc(S(=O)(=O)[O-])cc5)c5ccc2[nH]5)C=C4)C=C3)cc1
REMARK SMILES IDX 22 1 21 2 2 3 1 4 3 5 4 6 5 7 20 8 6 9 19 10 7 11 8 12 9 14
REMARK SMILES IDX 10 15 11 16 18 17 12 18 17 19 13 20 16 21 14 22 15 24 23 25
REMARK SMILES IDX 24 26 25 27 26 28 27 29 28 30 86 31 29 32 85 33 30 34 31 35
REMARK SMILES IDX 32 36 79 37 33 38 84 39 78 40 80 41 34 42 83 43 77 44 76 45
REMARK SMILES IDX 35 47 65 48 46 49 64 50 47 51 50 52 63 53 81 54 48 55 49 56
REMARK SMILES IDX 62 58 82 59 51 60 36 61 37 62 45 63 38 64 44 65 39 66 40 67
REMARK SMILES IDX 41 68 42 69 43 70 66 71 67 72 75 73 68 74 74 75 69 76 70 77
REMARK SMILES IDX 71 78 72 79 73 80 52 81 53 82 61 83 54 84 60 85 55 86 56 87
REMARK SMILES IDX 57 88 58 89 59 90
REMARK H PARENT 7 13 13 23 80 46 50 57
REMARK Flexibility Score: inf
ROOT
ATOM      1  C   UNL A   1      36.581  21.800  25.189  1.00  0.00     0.274 C 
ENDROOT
BRANCH   1   2
ATOM      2  O   UNL A   1      35.854  20.562  24.999  1.00  0.00    -0.461 OA
BRANCH   2   3
ATOM      3  C   UNL A   1      34.519  20.349  24.971  1.00  0.00     0.327 C 
ATOM      4  O   UNL A   1      34.092  19.293  24.498  1.00  0.00    -0.250 OA
BRANCH   3   5
ATOM      5  C   UNL A   1      33.544  21.345  25.529  1.00  0.00     0.266 C 
BRANCH   5   6
ATOM      6  N   UNL A   1      32.999  22.229  24.531  1.00  0.00    -0.259 N 
ATOM      7  C   UNL A   1      31.863  22.974  24.637  1.00  0.00     0.135 A 
ATOM      8  N   UNL A   1      33.645  22.381  23.357  1.00  0.00    -0.179 NA
ATOM      9  C   UNL A   1      31.720  23.603  23.429  1.00  0.00     0.081 A 
ATOM     10  C   UNL A   1      32.887  23.264  22.706  1.00  0.00     0.161 A 
BRANCH   9  11
ATOM     11  N   UNL A   1      30.645  24.395  23.090  1.00  0.00    -0.305 N 
ATOM     12  C   UNL A   1      30.331  25.592  23.664  1.00  0.00     0.322 C 
ATOM     13  H   UNL A   1      30.054  24.068  22.373  1.00  0.00     0.171 HD
ATOM     14  O   UNL A   1      29.150  25.922  23.768  1.00  0.00    -0.248 OA
BRANCH  12  15
ATOM     15  N   UNL A   1      31.374  26.387  24.089  1.00  0.00    -0.313 N 
ATOM     16  C   UNL A   1      32.128  27.256  23.168  1.00  0.00     0.183 C 
ATOM     17  C   UNL A   1      31.533  26.651  25.506  1.00  0.00     0.186 C 
ATOM     18  C   UNL A   1      32.902  28.402  23.846  1.00  0.00     0.284 C 
ATOM     19  C   UNL A   1      31.430  28.146  25.826  1.00  0.00     0.204 C 
ATOM     20  N   UNL A   1      32.225  29.057  24.970  1.00  0.00    -0.330 N 
ATOM     21  C   UNL A   1      31.860  28.435  27.262  1.00  0.00     0.073 C 
ATOM     22  C   UNL A   1      33.178  29.774  25.828  1.00  0.00     0.262 C 
ATOM     23  H   UNL A   1      31.578  29.706  24.523  1.00  0.00     0.348 HD
ATOM     24  C   UNL A   1      32.495  29.809  27.181  1.00  0.00     0.068 C 
ENDBRANCH  12  15
ENDBRANCH   9  11
ENDBRANCH   5   6
ENDBRANCH   3   5
ENDBRANCH   2   3
ENDBRANCH   1   2
BRANCH   1  25
ATOM     25  C   UNL A   1      38.043  21.573  25.517  1.00  0.00     0.275 C 
BRANCH  25  26
ATOM     26  O   UNL A   1      38.585  22.734  26.127  1.00  0.00    -0.458 OA
BRANCH  26  27
ATOM     27  C   UNL A   1      39.697  22.573  26.880  1.00  0.00     0.338 C 
ATOM     28  O   UNL A   1      40.105  21.553  27.379  1.00  0.00    -0.246 OA
BRANCH  27  29
ATOM     29  C   UNL A   1      40.308  23.904  27.026  1.00  0.00     0.060 A 
ATOM     30  C   UNL A   1      41.507  24.002  27.736  1.00  0.00     0.016 A 
ATOM     31  C   UNL A   1      39.560  25.033  26.666  1.00  0.00     0.016 A 
ATOM     32  C   UNL A   1      41.827  25.219  28.300  1.00  0.00     0.010 A 
ATOM     33  C   UNL A   1      39.852  26.226  27.262  1.00  0.00     0.010 A 
ATOM     34  C   UNL A   1      40.925  26.275  28.144  1.00  0.00    -0.014 A 
BRANCH  34  35
ATOM     35  C   UNL A   1      41.103  27.490  28.899  1.00  0.00     0.031 A 
ATOM     36  C   UNL A   1      42.217  28.315  28.394  1.00  0.00     0.074 A 
ATOM     37  C   UNL A   1      40.202  27.872  29.824  1.00  0.00     0.049 A 
ATOM     38  N   UNL A   1      43.398  28.419  28.902  1.00  0.00    -0.248 NA
ATOM     39  C   UNL A   1      42.090  28.900  27.046  1.00  0.00     0.031 C 
ATOM     40  C   UNL A   1      38.905  27.263  30.142  1.00  0.00     0.029 A 
ATOM     41  N   UNL A   1      40.209  28.977  30.607  1.00  0.00    -0.354 N 
ATOM     42  C   UNL A   1      44.067  29.305  28.070  1.00  0.00     0.074 A 
ATOM     43  C   UNL A   1      43.336  29.322  26.832  1.00  0.00     0.031 C 
ATOM     44  C   UNL A   1      38.165  28.140  30.862  1.00  0.00     0.029 A 
ATOM     45  C   UNL A   1      38.980  29.305  31.165  1.00  0.00     0.049 A 
ATOM     46  H   UNL A   1      41.023  29.507  30.768  1.00  0.00     0.167 HD
ATOM     47  C   UNL A   1      44.948  30.214  28.572  1.00  0.00     0.031 A 
ATOM     48  C   UNL A   1      38.660  30.486  31.760  1.00  0.00     0.031 A 
ATOM     49  C   UNL A   1      45.287  29.916  29.941  1.00  0.00     0.049 A 
ATOM     50  C   UNL A   1      39.945  31.152  32.112  1.00  0.00     0.074 A 
ATOM     51  C   UNL A   1      45.853  28.837  30.589  1.00  0.00     0.029 A 
ATOM     52  N   UNL A   1      44.637  30.650  30.909  1.00  0.00    -0.354 N 
ATOM     53  N   UNL A   1      40.776  30.672  32.996  1.00  0.00    -0.248 NA
ATOM     54  C   UNL A   1      40.534  32.055  31.134  1.00  0.00     0.031 C 
ATOM     55  C   UNL A   1      45.137  28.727  31.817  1.00  0.00     0.029 A 
ATOM     56  C   UNL A   1      44.234  29.790  31.897  1.00  0.00     0.049 A 
ATOM     57  H   UNL A   1      44.487  31.623  30.892  1.00  0.00     0.167 HD
ATOM     58  C   UNL A   1      42.035  30.847  32.435  1.00  0.00     0.074 A 
ATOM     59  C   UNL A   1      41.828  31.784  31.330  1.00  0.00     0.031 C 
ATOM     60  C   UNL A   1      43.062  29.993  32.726  1.00  0.00     0.031 A 
BRANCH  47  61
ATOM     61  C   UNL A   1      45.135  31.592  27.989  1.00  0.00    -0.014 A 
ATOM     62  C   UNL A   1      46.412  31.953  27.519  1.00  0.00     0.010 A 
ATOM     63  C   UNL A   1      44.188  32.629  28.125  1.00  0.00     0.010 A 
ATOM     64  C   UNL A   1      46.738  33.290  27.262  1.00  0.00     0.020 A 
ATOM     65  C   UNL A   1      44.487  33.957  27.826  1.00  0.00     0.020 A 
ATOM     66  C   UNL A   1      45.774  34.284  27.427  1.00  0.00     0.054 A 
BRANCH  66  67
ATOM     67  S   UNL A   1      46.228  36.014  27.177  1.00  0.00     0.124 S 
ATOM     68  O   UNL A   1      47.507  35.890  26.485  1.00  0.00    -0.237 OA
ATOM     69  O   UNL A   1      45.115  36.510  26.375  1.00  0.00    -0.237 OA
ATOM     70  O   UNL A   1      46.298  36.549  28.536  1.00  0.00    -0.744 OA
ENDBRANCH  66  67
ENDBRANCH  47  61
BRANCH  48  71
ATOM     71  C   UNL A   1      37.368  31.225  31.700  1.00  0.00    -0.014 A 
ATOM     72  C   UNL A   1      36.559  31.381  32.844  1.00  0.00     0.010 A 
ATOM     73  C   UNL A   1      37.067  32.029  30.582  1.00  0.00     0.010 A 
ATOM     74  C   UNL A   1      35.534  32.346  32.887  1.00  0.00     0.020 A 
ATOM     75  C   UNL A   1      36.046  32.989  30.615  1.00  0.00     0.020 A 
ATOM     76  C   UNL A   1      35.299  33.161  31.777  1.00  0.00     0.054 A 
BRANCH  76  77
ATOM     77  S   UNL A   1      34.106  34.530  31.898  1.00  0.00     0.124 S 
ATOM     78  O   UNL A   1      33.193  34.058  32.935  1.00  0.00    -0.237 OA
ATOM     79  O   UNL A   1      34.954  35.660  32.267  1.00  0.00    -0.237 OA
ATOM     80  O   UNL A   1      33.532  34.606  30.555  1.00  0.00    -0.744 OA
ENDBRANCH  76  77
ENDBRANCH  48  71
BRANCH  60  81
ATOM     81  C   UNL A   1      42.893  29.033  33.883  1.00  0.00    -0.014 A 
ATOM     82  C   UNL A   1      43.141  29.360  35.231  1.00  0.00     0.010 A 
ATOM     83  C   UNL A   1      42.300  27.791  33.595  1.00  0.00     0.010 A 
ATOM     84  C   UNL A   1      42.829  28.454  36.259  1.00  0.00     0.020 A 
ATOM     85  C   UNL A   1      41.969  26.894  34.612  1.00  0.00     0.020 A 
ATOM     86  C   UNL A   1      42.244  27.224  35.939  1.00  0.00     0.054 A 
BRANCH  86  87
ATOM     87  S   UNL A   1      41.807  26.064  37.265  1.00  0.00     0.124 S 
ATOM     88  O   UNL A   1      41.740  24.787  36.559  1.00  0.00    -0.237 OA
ATOM     89  O   UNL A   1      42.917  26.207  38.204  1.00  0.00    -0.237 OA
ATOM     90  O   UNL A   1      40.523  26.564  37.756  1.00  0.00    -0.744 OA
ENDBRANCH  86  87
ENDBRANCH  60  81
ENDBRANCH  34  35
ENDBRANCH  27  29
ENDBRANCH  26  27
ENDBRANCH  25  26
ENDBRANCH   1  25
TORSDOF 17
ENDMDL
MODEL 2
REMARK VINA RESULT:     -11.5      1.556      2.339
REMARK SMILES O=C(Cn1cc(NC(=O)N2CC[N@@H+]3CCC[C@@H]3C2)cn1)OCCOC(=O)c1ccc(-c2c3nc(c(-c4ccc(S(=O)(=O)[O-])cc4)c4ccc([nH]4)c(-c4ccc(S(=O)(=O)[O-])cc4)c4nc(c(-c5ccc(S(=O)(=O)[O-])cc5)c5ccc2[nH]5)C=C4)C=C3)cc1
REMARK SMILES IDX 22 1 21 2 2 3 1 4 3 5 4 6 5 7 20 8 6 9 19 10 7 11 8 12 9 14
REMARK SMILES IDX 10 15 11 16 18 17 12 18 17 19 13 20 16 21 14 22 15 24 23 25
REMARK SMILES IDX 24 26 25 27 26 28 27 29 28 30 86 31 29 32 85 33 30 34 31 35
REMARK SMILES IDX 32 36 79 37 33 38 84 39 78 40 80 41 34 42 83 43 77 44 76 45
REMARK SMILES IDX 35 47 65 48 46 49 64 50 47 51 50 52 63 53 81 54 48 55 49 56
REMARK SMILES IDX 62 58 82 59 51 60 36 61 37 62 45 63 38 64 44 65 39 66 40 67
REMARK SMILES IDX 41 68 42 69 43 70 66 71 67 72 75 73 68 74 74 75 69 76 70 77
REMARK SMILES IDX 71 78 72 79 73 80 52 81 53 82 61 83 54 84 60 85 55 86 56 87
REMARK SMILES IDX 57 88 58 89 59 90
REMARK H PARENT 7 13 13 23 80 46 50 57
REMARK Flexibility Score: inf
ROOT
ATOM      1  C   UNL A   1      38.599  22.243  25.930  1.00  0.00     0.274 C 
ENDROOT
BRANCH   1   2
ATOM      2  O   UNL A   1      37.875  21.378  25.023  1.00  0.00    -0.461 OA
BRANCH   2   3
ATOM      3  C   UNL A   1      36.624  21.513  24.526  1.00  0.00     0.327 C 
ATOM      4  O   UNL A   1      36.412  22.373  23.667  1.00  0.00    -0.250 OA
BRANCH   3   5
ATOM      5  C   UNL A   1      35.496  20.624  24.963  1.00  0.00     0.266 C 
BRANCH   5   6
ATOM      6  N   UNL A   1      34.516  21.304  25.770  1.00  0.00    -0.259 N 
ATOM      7  C   UNL A   1      33.163  21.146  25.712  1.00  0.00     0.135 A 
ATOM      8  N   UNL A   1      34.923  22.189  26.701  1.00  0.00    -0.179 NA
ATOM      9  C   UNL A   1      32.649  22.036  26.618  1.00  0.00     0.081 A 
ATOM     10  C   UNL A   1      33.781  22.596  27.255  1.00  0.00     0.161 A 
BRANCH   9  11
ATOM     11  N   UNL A   1      31.303  22.253  26.812  1.00  0.00    -0.305 N 
ATOM     12  C   UNL A   1      30.651  23.432  26.588  1.00  0.00     0.322 C 
ATOM     13  H   UNL A   1      30.767  21.495  27.140  1.00  0.00     0.171 HD
ATOM     14  O   UNL A   1      29.692  23.736  27.296  1.00  0.00    -0.248 OA
BRANCH  12  15
ATOM     15  N   UNL A   1      31.102  24.222  25.553  1.00  0.00    -0.313 N 
ATOM     16  C   UNL A   1      30.820  23.907  24.141  1.00  0.00     0.183 C 
ATOM     17  C   UNL A   1      31.569  25.565  25.838  1.00  0.00     0.186 C 
ATOM     18  C   UNL A   1      30.960  25.096  23.172  1.00  0.00     0.284 C 
ATOM     19  C   UNL A   1      30.738  26.627  25.111  1.00  0.00     0.204 C 
ATOM     20  N   UNL A   1      30.485  26.391  23.671  1.00  0.00    -0.330 N 
ATOM     21  C   UNL A   1      31.395  28.003  25.202  1.00  0.00     0.073 C 
ATOM     22  C   UNL A   1      31.069  27.507  22.916  1.00  0.00     0.262 C 
ATOM     23  H   UNL A   1      29.475  26.350  23.536  1.00  0.00     0.348 HD
ATOM     24  C   UNL A   1      31.031  28.667  23.890  1.00  0.00     0.068 C 
ENDBRANCH  12  15
ENDBRANCH   9  11
ENDBRANCH   5   6
ENDBRANCH   3   5
ENDBRANCH   2   3
ENDBRANCH   1   2
BRANCH   1  25
ATOM     25  C   UNL A   1      39.888  21.620  26.426  1.00  0.00     0.275 C 
BRANCH  25  26
ATOM     26  O   UNL A   1      40.769  22.635  26.881  1.00  0.00    -0.458 OA
BRANCH  26  27
ATOM     27  C   UNL A   1      41.817  22.947  26.084  1.00  0.00     0.338 C 
ATOM     28  O   UNL A   1      42.406  22.216  25.327  1.00  0.00    -0.246 OA
BRANCH  27  29
ATOM     29  C   UNL A   1      42.147  24.356  26.349  1.00  0.00     0.060 A 
ATOM     30  C   UNL A   1      43.195  24.631  27.230  1.00  0.00     0.016 A 
ATOM     31  C   UNL A   1      41.264  25.351  25.908  1.00  0.00     0.016 A 
ATOM     32  C   UNL A   1      43.204  25.856  27.863  1.00  0.00     0.010 A 
ATOM     33  C   UNL A   1      41.246  26.547  26.567  1.00  0.00     0.010 A 
ATOM     34  C   UNL A   1      42.156  26.742  27.599  1.00  0.00    -0.014 A 
BRANCH  34  35
ATOM     35  C   UNL A   1      42.000  27.930  28.399  1.00  0.00     0.031 A 
ATOM     36  C   UNL A   1      43.108  28.888  28.216  1.00  0.00     0.074 A 
ATOM     37  C   UNL A   1      40.856  28.174  29.066  1.00  0.00     0.049 A 
ATOM     38  N   UNL A   1      44.102  29.086  29.015  1.00  0.00    -0.248 NA
ATOM     39  C   UNL A   1      43.266  29.521  26.894  1.00  0.00     0.031 C 
ATOM     40  C   UNL A   1      39.597  27.422  29.025  1.00  0.00     0.029 A 
ATOM     41  N   UNL A   1      40.541  29.236  29.847  1.00  0.00    -0.354 N 
ATOM     42  C   UNL A   1      44.859  30.074  28.404  1.00  0.00     0.074 A 
ATOM     43  C   UNL A   1      44.470  30.077  27.019  1.00  0.00     0.031 C 
ATOM     44  C   UNL A   1      38.605  28.184  29.547  1.00  0.00     0.029 A 
ATOM     45  C   UNL A   1      39.182  29.410  30.074  1.00  0.00     0.049 A 
ATOM     46  H   UNL A   1      41.224  29.836  30.225  1.00  0.00     0.167 HD
ATOM     47  C   UNL A   1      45.477  31.043  29.135  1.00  0.00     0.031 A 
ATOM     48  C   UNL A   1      38.593  30.523  30.590  1.00  0.00     0.031 A 
ATOM     49  C   UNL A   1      45.486  30.714  30.539  1.00  0.00     0.049 A 
ATOM     50  C   UNL A   1      39.663  31.297  31.277  1.00  0.00     0.074 A 
ATOM     51  C   UNL A   1      45.982  29.668  31.289  1.00  0.00     0.029 A 
ATOM     52  N   UNL A   1      44.533  31.331  31.320  1.00  0.00    -0.354 N 
ATOM     53  N   UNL A   1      40.290  30.862  32.336  1.00  0.00    -0.248 NA
ATOM     54  C   UNL A   1      40.379  32.301  30.503  1.00  0.00     0.031 C 
ATOM     55  C   UNL A   1      44.994  29.428  32.287  1.00  0.00     0.029 A 
ATOM     56  C   UNL A   1      43.988  30.388  32.152  1.00  0.00     0.049 A 
ATOM     57  H   UNL A   1      44.286  32.284  31.285  1.00  0.00     0.167 HD
ATOM     58  C   UNL A   1      41.623  31.190  32.124  1.00  0.00     0.074 A 
ATOM     59  C   UNL A   1      41.603  32.154  31.022  1.00  0.00     0.031 C 
ATOM     60  C   UNL A   1      42.629  30.431  32.653  1.00  0.00     0.031 A 
BRANCH  47  61
ATOM     61  C   UNL A   1      45.654  32.459  28.649  1.00  0.00    -0.014 A 
ATOM     62  C   UNL A   1      46.959  32.974  28.545  1.00  0.00     0.010 A 
ATOM     63  C   UNL A   1      44.592  33.383  28.545  1.00  0.00     0.010 A 
ATOM     64  C   UNL A   1      47.188  34.348  28.409  1.00  0.00     0.020 A 
ATOM     65  C   UNL A   1      44.807  34.748  28.362  1.00  0.00     0.020 A 
ATOM     66  C   UNL A   1      46.107  35.227  28.328  1.00  0.00     0.054 A 
BRANCH  66  67
ATOM     67  S   UNL A   1      46.412  37.005  28.241  1.00  0.00     0.124 S 
ATOM     68  O   UNL A   1      45.270  37.465  27.456  1.00  0.00    -0.237 OA
ATOM     69  O   UNL A   1      46.412  37.385  29.649  1.00  0.00    -0.237 OA
ATOM     70  O   UNL A   1      47.710  37.097  27.575  1.00  0.00    -0.744 OA
ENDBRANCH  66  67
ENDBRANCH  47  61
BRANCH  48  71
ATOM     71  C   UNL A   1      37.286  31.129  30.213  1.00  0.00    -0.014 A 
ATOM     72  C   UNL A   1      36.490  31.806  31.160  1.00  0.00     0.010 A 
ATOM     73  C   UNL A   1      36.952  31.295  28.853  1.00  0.00     0.010 A 
ATOM     74  C   UNL A   1      35.448  32.663  30.759  1.00  0.00     0.020 A 
ATOM     75  C   UNL A   1      35.913  32.143  28.445  1.00  0.00     0.020 A 
ATOM     76  C   UNL A   1      35.180  32.844  29.400  1.00  0.00     0.054 A 
BRANCH  76  77
ATOM     77  S   UNL A   1      33.962  34.091  28.877  1.00  0.00     0.124 S 
ATOM     78  O   UNL A   1      34.809  35.134  28.306  1.00  0.00    -0.237 OA
ATOM     79  O   UNL A   1      33.139  33.352  27.924  1.00  0.00    -0.237 OA
ATOM     80  O   UNL A   1      33.285  34.455  30.121  1.00  0.00    -0.744 OA
ENDBRANCH  76  77
ENDBRANCH  48  71
BRANCH  60  81
ATOM     81  C   UNL A   1      42.277  29.404  33.707  1.00  0.00    -0.014 A 
ATOM     82  C   UNL A   1      41.790  28.111  33.426  1.00  0.00     0.010 A 
ATOM     83  C   UNL A   1      42.609  29.719  35.036  1.00  0.00     0.010 A 
ATOM     84  C   UNL A   1      41.617  27.171  34.456  1.00  0.00     0.020 A 
ATOM     85  C   UNL A   1      42.459  28.784  36.061  1.00  0.00     0.020 A 
ATOM     86  C   UNL A   1      41.952  27.517  35.769  1.00  0.00     0.054 A 
BRANCH  86  87
ATOM     87  S   UNL A   1      41.763  26.294  37.098  1.00  0.00     0.124 S 
ATOM     88  O   UNL A   1      42.911  26.579  37.955  1.00  0.00    -0.237 OA
ATOM     89  O   UNL A   1      40.457  26.626  37.663  1.00  0.00    -0.237 OA
ATOM     90  O   UNL A   1      41.819  25.010  36.400  1.00  0.00    -0.744 OA
ENDBRANCH  86  87
ENDBRANCH  60  81
ENDBRANCH  34  35
ENDBRANCH  27  29
ENDBRANCH  26  27
ENDBRANCH  25  26
ENDBRANCH   1  25
TORSDOF 17
ENDMDL
MODEL 3
REMARK VINA RESULT:     -11.0      1.729      2.529
REMARK SMILES O=C(Cn1cc(NC(=O)N2CC[N@@H+]3CCC[C@@H]3C2)cn1)OCCOC(=O)c1ccc(-c2c3nc(c(-c4ccc(S(=O)(=O)[O-])cc4)c4ccc([nH]4)c(-c4ccc(S(=O)(=O)[O-])cc4)c4nc(c(-c5ccc(S(=O)(=O)[O-])cc5)c5ccc2[nH]5)C=C4)C=C3)cc1
REMARK SMILES IDX 22 1 21 2 2 3 1 4 3 5 4 6 5 7 20 8 6 9 19 10 7 11 8 12 9 14
REMARK SMILES IDX 10 15 11 16 18 17 12 18 17 19 13 20 16 21 14 22 15 24 23 25
REMARK SMILES IDX 24 26 25 27 26 28 27 29 28 30 86 31 29 32 85 33 30 34 31 35
REMARK SMILES IDX 32 36 79 37 33 38 84 39 78 40 80 41 34 42 83 43 77 44 76 45
REMARK SMILES IDX 35 47 65 48 46 49 64 50 47 51 50 52 63 53 81 54 48 55 49 56
REMARK SMILES IDX 62 58 82 59 51 60 36 61 37 62 45 63 38 64 44 65 39 66 40 67
REMARK SMILES IDX 41 68 42 69 43 70 66 71 67 72 75 73 68 74 74 75 69 76 70 77
REMARK SMILES IDX 71 78 72 79 73 80 52 81 53 82 61 83 54 84 60 85 55 86 56 87
REMARK SMILES IDX 57 88 58 89 59 90
REMARK H PARENT 7 13 13 23 80 46 50 57
REMARK Flexibility Score: inf
ROOT
ATOM      1  C   UNL A   1      40.114  20.069  26.091  1.00  0.00     0.274 C 
ENDROOT
BRANCH   1   2
ATOM      2  O   UNL A   1      39.465  21.296  26.506  1.00  0.00    -0.461 OA
BRANCH   2   3
ATOM      3  C   UNL A   1      38.513  22.018  25.872  1.00  0.00     0.327 C 
ATOM      4  O   UNL A   1      38.425  23.226  26.105  1.00  0.00    -0.250 OA
BRANCH   3   5
ATOM      5  C   UNL A   1      37.584  21.399  24.868  1.00  0.00     0.266 C 
BRANCH   5   6
ATOM      6  N   UNL A   1      36.195  21.670  25.135  1.00  0.00    -0.259 N 
ATOM      7  C   UNL A   1      35.203  21.817  24.212  1.00  0.00     0.135 A 
ATOM      8  N   UNL A   1      35.777  21.790  26.411  1.00  0.00    -0.179 NA
ATOM      9  C   UNL A   1      34.074  22.119  24.928  1.00  0.00     0.081 A 
ATOM     10  C   UNL A   1      34.468  22.011  26.282  1.00  0.00     0.161 A 
BRANCH   9  11
ATOM     11  N   UNL A   1      32.857  22.426  24.362  1.00  0.00    -0.305 N 
ATOM     12  C   UNL A   1      32.110  23.533  24.644  1.00  0.00     0.322 C 
ATOM     13  H   UNL A   1      32.496  21.793  23.700  1.00  0.00     0.171 HD
ATOM     14  O   UNL A   1      30.883  23.461  24.604  1.00  0.00    -0.248 OA
BRANCH  12  15
ATOM     15  N   UNL A   1      32.785  24.696  24.947  1.00  0.00    -0.313 N 
ATOM     16  C   UNL A   1      33.544  25.452  23.935  1.00  0.00     0.183 C 
ATOM     17  C   UNL A   1      32.483  25.390  26.184  1.00  0.00     0.186 C 
ATOM     18  C   UNL A   1      33.818  26.925  24.297  1.00  0.00     0.284 C 
ATOM     19  C   UNL A   1      31.957  26.807  25.933  1.00  0.00     0.204 C 
ATOM     20  N   UNL A   1      32.727  27.633  24.974  1.00  0.00    -0.330 N 
ATOM     21  C   UNL A   1      31.897  27.612  27.229  1.00  0.00     0.073 C 
ATOM     22  C   UNL A   1      33.215  28.821  25.685  1.00  0.00     0.262 C 
ATOM     23  H   UNL A   1      32.097  27.896  24.216  1.00  0.00     0.348 HD
ATOM     24  C   UNL A   1      32.198  29.030  26.789  1.00  0.00     0.068 C 
ENDBRANCH  12  15
ENDBRANCH   9  11
ENDBRANCH   5   6
ENDBRANCH   3   5
ENDBRANCH   2   3
ENDBRANCH   1   2
BRANCH   1  25
ATOM     25  C   UNL A   1      41.592  20.049  26.425  1.00  0.00     0.275 C 
BRANCH  25  26
ATOM     26  O   UNL A   1      42.306  20.844  25.492  1.00  0.00    -0.458 OA
BRANCH  26  27
ATOM     27  C   UNL A   1      43.275  21.652  25.984  1.00  0.00     0.338 C 
ATOM     28  O   UNL A   1      44.468  21.522  25.866  1.00  0.00    -0.246 OA
BRANCH  27  29
ATOM     29  C   UNL A   1      42.597  22.712  26.746  1.00  0.00     0.060 A 
ATOM     30  C   UNL A   1      41.878  23.675  26.034  1.00  0.00     0.016 A 
ATOM     31  C   UNL A   1      42.890  22.858  28.109  1.00  0.00     0.016 A 
ATOM     32  C   UNL A   1      41.668  24.900  26.633  1.00  0.00     0.010 A 
ATOM     33  C   UNL A   1      42.723  24.084  28.685  1.00  0.00     0.010 A 
ATOM     34  C   UNL A   1      42.203  25.110  27.907  1.00  0.00    -0.014 A 
BRANCH  34  35
ATOM     35  C   UNL A   1      42.207  26.435  28.475  1.00  0.00     0.031 A 
ATOM     36  C   UNL A   1      43.344  27.251  28.007  1.00  0.00     0.074 A 
ATOM     37  C   UNL A   1      41.159  26.888  29.189  1.00  0.00     0.049 A 
ATOM     38  N   UNL A   1      44.429  27.513  28.655  1.00  0.00    -0.248 NA
ATOM     39  C   UNL A   1      43.395  27.614  26.579  1.00  0.00     0.031 C 
ATOM     40  C   UNL A   1      39.859  26.245  29.413  1.00  0.00     0.029 A 
ATOM     41  N   UNL A   1      40.995  28.097  29.778  1.00  0.00    -0.354 N 
ATOM     42  C   UNL A   1      45.173  28.308  27.796  1.00  0.00     0.074 A 
ATOM     43  C   UNL A   1      44.637  28.085  26.480  1.00  0.00     0.031 C 
ATOM     44  C   UNL A   1      38.978  27.167  29.871  1.00  0.00     0.029 A 
ATOM     45  C   UNL A   1      39.682  28.419  30.096  1.00  0.00     0.049 A 
ATOM     46  H   UNL A   1      41.750  28.701  29.966  1.00  0.00     0.167 HD
ATOM     47  C   UNL A   1      45.924  29.342  28.266  1.00  0.00     0.031 A 
ATOM     48  C   UNL A   1      39.220  29.651  30.443  1.00  0.00     0.031 A 
ATOM     49  C   UNL A   1      46.066  29.279  29.699  1.00  0.00     0.049 A 
ATOM     50  C   UNL A   1      40.404  30.451  30.863  1.00  0.00     0.074 A 
ATOM     51  C   UNL A   1      46.577  28.352  30.585  1.00  0.00     0.029 A 
ATOM     52  N   UNL A   1      45.243  30.103  30.434  1.00  0.00    -0.354 N 
ATOM     53  N   UNL A   1      41.114  30.170  31.921  1.00  0.00    -0.248 NA
ATOM     54  C   UNL A   1      41.091  31.234  29.846  1.00  0.00     0.031 C 
ATOM     55  C   UNL A   1      45.690  28.380  31.700  1.00  0.00     0.029 A 
ATOM     56  C   UNL A   1      44.736  29.376  31.480  1.00  0.00     0.049 A 
ATOM     57  H   UNL A   1      45.051  31.050  30.241  1.00  0.00     0.167 HD
ATOM     58  C   UNL A   1      42.434  30.346  31.524  1.00  0.00     0.074 A 
ATOM     59  C   UNL A   1      42.353  31.088  30.265  1.00  0.00     0.031 C 
ATOM     60  C   UNL A   1      43.444  29.620  32.091  1.00  0.00     0.031 A 
BRANCH  47  61
ATOM     61  C   UNL A   1      46.133  30.626  27.502  1.00  0.00    -0.014 A 
ATOM     62  C   UNL A   1      47.451  31.034  27.225  1.00  0.00     0.010 A 
ATOM     63  C   UNL A   1      45.110  31.572  27.279  1.00  0.00     0.010 A 
ATOM     64  C   UNL A   1      47.732  32.341  26.810  1.00  0.00     0.020 A 
ATOM     65  C   UNL A   1      45.374  32.861  26.821  1.00  0.00     0.020 A 
ATOM     66  C   UNL A   1      46.690  33.249  26.620  1.00  0.00     0.054 A 
BRANCH  66  67
ATOM     67  S   UNL A   1      47.068  34.956  26.169  1.00  0.00     0.124 S 
ATOM     68  O   UNL A   1      47.714  35.449  27.382  1.00  0.00    -0.237 OA
ATOM     69  O   UNL A   1      47.937  34.781  25.010  1.00  0.00    -0.237 OA
ATOM     70  O   UNL A   1      45.756  35.532  25.877  1.00  0.00    -0.744 OA
ENDBRANCH  66  67
ENDBRANCH  47  61
BRANCH  48  71
ATOM     71  C   UNL A   1      37.919  30.280  30.082  1.00  0.00    -0.014 A 
ATOM     72  C   UNL A   1      37.291  31.207  30.938  1.00  0.00     0.010 A 
ATOM     73  C   UNL A   1      37.433  30.188  28.762  1.00  0.00     0.010 A 
ATOM     74  C   UNL A   1      36.265  32.052  30.472  1.00  0.00     0.020 A 
ATOM     75  C   UNL A   1      36.410  31.021  28.291  1.00  0.00     0.020 A 
ATOM     76  C   UNL A   1      35.846  31.969  29.142  1.00  0.00     0.054 A 
BRANCH  76  77
ATOM     77  S   UNL A   1      34.657  33.183  28.492  1.00  0.00     0.124 S 
ATOM     78  O   UNL A   1      34.318  33.957  29.682  1.00  0.00    -0.237 OA
ATOM     79  O   UNL A   1      35.440  33.886  27.480  1.00  0.00    -0.237 OA
ATOM     80  O   UNL A   1      33.573  32.354  27.963  1.00  0.00    -0.744 OA
ENDBRANCH  76  77
ENDBRANCH  48  71
BRANCH  60  81
ATOM     81  C   UNL A   1      43.147  28.837  33.350  1.00  0.00    -0.014 A 
ATOM     82  C   UNL A   1      43.152  29.386  34.649  1.00  0.00     0.010 A 
ATOM     83  C   UNL A   1      42.685  27.519  33.184  1.00  0.00     0.010 A 
ATOM     84  C   UNL A   1      42.732  28.623  35.752  1.00  0.00     0.020 A 
ATOM     85  C   UNL A   1      42.248  26.762  34.273  1.00  0.00     0.020 A 
ATOM     86  C   UNL A   1      42.283  27.313  35.554  1.00  0.00     0.054 A 
BRANCH  86  87
ATOM     87  S   UNL A   1      41.707  26.336  36.971  1.00  0.00     0.124 S 
ATOM     88  O   UNL A   1      42.832  26.429  37.898  1.00  0.00    -0.237 OA
ATOM     89  O   UNL A   1      40.493  27.038  37.380  1.00  0.00    -0.237 OA
ATOM     90  O   UNL A   1      41.482  25.005  36.408  1.00  0.00    -0.744 OA
ENDBRANCH  86  87
ENDBRANCH  60  81
ENDBRANCH  34  35
ENDBRANCH  27  29
ENDBRANCH  26  27
ENDBRANCH  25  26
ENDBRANCH   1  25
TORSDOF 17
ENDMDL
