MODEL 1
REMARK VINA RESULT:     -11.0      0.000      0.000
REMARK SMILES CC(C)(C)OC(=O)N[C@@H](Cc1c[nH]c2cccc(Cl)c12)C(=O)OCCOC(=O)c1ccc(-c2c3nc(c(-c4ccc(S(=O)(=O)[O-])cc4)c4ccc([nH]4)c(-c4ccc(S(=O)(=O)[O-])cc4)c4nc(c(-c5ccc(S(=O)(=O)[O-])cc5)c5ccc2[nH]5)C=C4)C=C3)cc1
REMARK SMILES IDX 24 1 23 2 21 3 22 4 9 5 8 6 6 7 7 8 5 10 2 11 1 12 3 13 4 14
REMARK SMILES IDX 10 15 11 16 12 17 20 18 13 19 14 20 18 21 15 23 17 24 19 25
REMARK SMILES IDX 16 26 25 27 26 28 27 29 28 30 29 31 30 32 88 33 31 34 87 35
REMARK SMILES IDX 32 36 33 37 34 38 81 39 35 40 86 41 80 42 82 43 36 44 85 45
REMARK SMILES IDX 79 46 78 47 37 49 67 50 48 51 66 52 49 53 52 54 65 55 83 56
REMARK SMILES IDX 50 57 51 58 64 60 84 61 53 62 38 63 39 64 47 65 40 66 46 67
REMARK SMILES IDX 41 68 42 69 43 70 44 71 45 72 68 73 69 74 77 75 70 76 76 77
REMARK SMILES IDX 71 78 72 79 73 80 74 81 75 82 54 83 55 84 63 85 56 86 62 87
REMARK SMILES IDX 57 88 58 89 59 90 60 91 61 92
REMARK H PARENT 8 9 13 22 82 48 52 59
REMARK Flexibility Score: inf
ROOT
ATOM      1  C   UNL A   1      37.432  21.712  24.604  1.00  0.00     0.274 C 
ENDROOT
BRANCH   1   2
ATOM      2  O   UNL A   1      36.595  22.865  24.837  1.00  0.00    -0.461 OA
BRANCH   2   3
ATOM      3  C   UNL A   1      35.632  23.148  23.905  1.00  0.00     0.329 C 
ATOM      4  O   UNL A   1      35.802  23.085  22.692  1.00  0.00    -0.250 OA
BRANCH   3   5
ATOM      5  C   UNL A   1      34.356  23.712  24.549  1.00  0.00     0.200 C 
BRANCH   5   6
ATOM      6  N   UNL A   1      34.011  23.042  25.808  1.00  0.00    -0.308 N 
ATOM      7  C   UNL A   1      33.024  23.333  26.705  1.00  0.00     0.408 C 
ATOM      8  O   UNL A   1      32.925  22.691  27.738  1.00  0.00    -0.225 OA
ATOM      9  H   UNL A   1      34.575  22.268  26.040  1.00  0.00     0.168 HD
BRANCH   7  10
ATOM     10  O   UNL A   1      32.230  24.372  26.337  1.00  0.00    -0.444 OA
BRANCH  10  11
ATOM     11  C   UNL A   1      30.883  24.130  25.819  1.00  0.00     0.106 C 
ATOM     12  C   UNL A   1      30.157  25.482  25.946  1.00  0.00     0.056 C 
ATOM     13  C   UNL A   1      30.145  23.101  26.681  1.00  0.00     0.056 C 
ATOM     14  C   UNL A   1      30.868  23.711  24.341  1.00  0.00     0.056 C 
ENDBRANCH  10  11
ENDBRANCH   7  10
ENDBRANCH   5   6
BRANCH   5  15
ATOM     15  C   UNL A   1      34.567  25.234  24.759  1.00  0.00     0.075 C 
BRANCH  15  16
ATOM     16  C   UNL A   1      33.741  26.089  23.820  1.00  0.00    -0.018 A 
ATOM     17  C   UNL A   1      33.518  25.773  22.492  1.00  0.00     0.087 A 
ATOM     18  C   UNL A   1      32.922  27.251  24.115  1.00  0.00     0.021 A 
ATOM     19  N   UNL A   1      32.547  26.597  22.003  1.00  0.00    -0.361 N 
ATOM     20  C   UNL A   1      32.127  27.468  22.978  1.00  0.00     0.047 A 
ATOM     21  C   UNL A   1      32.665  28.095  25.223  1.00  0.00     0.050 A 
ATOM     22  H   UNL A   1      32.197  26.569  21.084  1.00  0.00     0.166 HD
ATOM     23  C   UNL A   1      31.088  28.412  22.935  1.00  0.00     0.027 A 
ATOM     24  C   UNL A   1      31.622  29.029  25.211  1.00  0.00     0.021 A 
ATOM     25  Cl  UNL A   1      33.668  27.969  26.599  1.00  0.00    -0.084 Cl
ATOM     26  C   UNL A   1      30.833  29.173  24.079  1.00  0.00     0.004 A 
ENDBRANCH  15  16
ENDBRANCH   5  15
ENDBRANCH   3   5
ENDBRANCH   2   3
ENDBRANCH   1   2
BRANCH   1  27
ATOM     27  C   UNL A   1      38.397  21.473  25.757  1.00  0.00     0.275 C 
BRANCH  27  28
ATOM     28  O   UNL A   1      38.728  22.716  26.367  1.00  0.00    -0.458 OA
BRANCH  28  29
ATOM     29  C   UNL A   1      39.912  22.667  27.011  1.00  0.00     0.338 C 
ATOM     30  O   UNL A   1      40.318  21.796  27.763  1.00  0.00    -0.246 OA
BRANCH  29  31
ATOM     31  C   UNL A   1      40.669  23.883  26.760  1.00  0.00     0.060 A 
ATOM     32  C   UNL A   1      41.918  23.962  27.382  1.00  0.00     0.016 A 
ATOM     33  C   UNL A   1      39.906  25.002  26.427  1.00  0.00     0.016 A 
ATOM     34  C   UNL A   1      42.274  25.165  27.938  1.00  0.00     0.010 A 
ATOM     35  C   UNL A   1      40.241  26.188  27.023  1.00  0.00     0.010 A 
ATOM     36  C   UNL A   1      41.357  26.210  27.863  1.00  0.00    -0.014 A 
BRANCH  36  37
ATOM     37  C   UNL A   1      41.548  27.320  28.766  1.00  0.00     0.031 A 
ATOM     38  C   UNL A   1      42.721  28.159  28.454  1.00  0.00     0.074 A 
ATOM     39  C   UNL A   1      40.629  27.601  29.707  1.00  0.00     0.049 A 
ATOM     40  N   UNL A   1      43.736  28.442  29.200  1.00  0.00    -0.248 NA
ATOM     41  C   UNL A   1      42.828  28.636  27.065  1.00  0.00     0.031 C 
ATOM     42  C   UNL A   1      39.290  27.020  29.866  1.00  0.00     0.029 A 
ATOM     43  N   UNL A   1      40.642  28.598  30.626  1.00  0.00    -0.354 N 
ATOM     44  C   UNL A   1      44.547  29.255  28.420  1.00  0.00     0.074 A 
ATOM     45  C   UNL A   1      44.027  29.206  27.077  1.00  0.00     0.031 C 
ATOM     46  C   UNL A   1      38.541  27.855  30.621  1.00  0.00     0.029 A 
ATOM     47  C   UNL A   1      39.380  28.950  31.082  1.00  0.00     0.049 A 
ATOM     48  H   UNL A   1      41.469  29.030  30.941  1.00  0.00     0.167 HD
ATOM     49  C   UNL A   1      45.482  30.094  28.937  1.00  0.00     0.031 A 
ATOM     50  C   UNL A   1      39.054  30.133  31.661  1.00  0.00     0.031 A 
ATOM     51  C   UNL A   1      45.784  29.819  30.309  1.00  0.00     0.049 A 
ATOM     52  C   UNL A   1      40.328  30.771  32.098  1.00  0.00     0.074 A 
ATOM     53  C   UNL A   1      46.368  28.759  30.973  1.00  0.00     0.029 A 
ATOM     54  N   UNL A   1      45.116  30.549  31.264  1.00  0.00    -0.354 N 
ATOM     55  N   UNL A   1      41.107  30.290  33.026  1.00  0.00    -0.248 NA
ATOM     56  C   UNL A   1      40.960  31.725  31.196  1.00  0.00     0.031 C 
ATOM     57  C   UNL A   1      45.658  28.654  32.203  1.00  0.00     0.029 A 
ATOM     58  C   UNL A   1      44.701  29.670  32.236  1.00  0.00     0.049 A 
ATOM     59  H   UNL A   1      44.963  31.521  31.253  1.00  0.00     0.167 HD
ATOM     60  C   UNL A   1      42.401  30.564  32.598  1.00  0.00     0.074 A 
ATOM     61  C   UNL A   1      42.242  31.532  31.516  1.00  0.00     0.031 C 
ATOM     62  C   UNL A   1      43.456  29.783  32.970  1.00  0.00     0.031 A 
BRANCH  49  63
ATOM     63  C   UNL A   1      45.871  31.359  28.236  1.00  0.00    -0.014 A 
ATOM     64  C   UNL A   1      44.959  32.418  28.119  1.00  0.00     0.010 A 
ATOM     65  C   UNL A   1      47.074  31.448  27.499  1.00  0.00     0.010 A 
ATOM     66  C   UNL A   1      45.245  33.520  27.301  1.00  0.00     0.020 A 
ATOM     67  C   UNL A   1      47.391  32.560  26.726  1.00  0.00     0.020 A 
ATOM     68  C   UNL A   1      46.460  33.583  26.612  1.00  0.00     0.054 A 
BRANCH  68  69
ATOM     69  S   UNL A   1      46.779  34.965  25.489  1.00  0.00     0.124 S 
ATOM     70  O   UNL A   1      46.668  36.115  26.383  1.00  0.00    -0.237 OA
ATOM     71  O   UNL A   1      48.124  34.664  25.005  1.00  0.00    -0.237 OA
ATOM     72  O   UNL A   1      45.720  34.849  24.489  1.00  0.00    -0.744 OA
ENDBRANCH  68  69
ENDBRANCH  49  63
BRANCH  50  73
ATOM     73  C   UNL A   1      37.800  30.910  31.460  1.00  0.00    -0.014 A 
ATOM     74  C   UNL A   1      36.962  31.205  32.552  1.00  0.00     0.010 A 
ATOM     75  C   UNL A   1      37.561  31.599  30.252  1.00  0.00     0.010 A 
ATOM     76  C   UNL A   1      35.980  32.206  32.461  1.00  0.00     0.020 A 
ATOM     77  C   UNL A   1      36.575  32.587  30.149  1.00  0.00     0.020 A 
ATOM     78  C   UNL A   1      35.814  32.911  31.267  1.00  0.00     0.054 A 
BRANCH  78  79
ATOM     79  S   UNL A   1      34.675  34.325  31.216  1.00  0.00     0.124 S 
ATOM     80  O   UNL A   1      33.446  33.759  31.766  1.00  0.00    -0.237 OA
ATOM     81  O   UNL A   1      35.357  35.299  32.062  1.00  0.00    -0.237 OA
ATOM     82  O   UNL A   1      34.617  34.672  29.797  1.00  0.00    -0.744 OA
ENDBRANCH  78  79
ENDBRANCH  50  73
BRANCH  62  83
ATOM     83  C   UNL A   1      43.236  28.760  34.062  1.00  0.00    -0.014 A 
ATOM     84  C   UNL A   1      43.370  29.058  35.433  1.00  0.00     0.010 A 
ATOM     85  C   UNL A   1      42.699  27.514  33.695  1.00  0.00     0.010 A 
ATOM     86  C   UNL A   1      42.981  28.129  36.411  1.00  0.00     0.020 A 
ATOM     87  C   UNL A   1      42.298  26.590  34.664  1.00  0.00     0.020 A 
ATOM     88  C   UNL A   1      42.437  26.903  36.017  1.00  0.00     0.054 A 
BRANCH  88  89
ATOM     89  S   UNL A   1      41.873  25.733  37.286  1.00  0.00     0.124 S 
ATOM     90  O   UNL A   1      41.989  24.443  36.611  1.00  0.00    -0.237 OA
ATOM     91  O   UNL A   1      42.822  25.963  38.374  1.00  0.00    -0.237 OA
ATOM     92  O   UNL A   1      40.502  26.158  37.570  1.00  0.00    -0.744 OA
ENDBRANCH  88  89
ENDBRANCH  62  83
ENDBRANCH  36  37
ENDBRANCH  29  31
ENDBRANCH  28  29
ENDBRANCH  27  28
ENDBRANCH   1  27
TORSDOF 19
ENDMDL
MODEL 2
REMARK VINA RESULT:     -10.8      1.612      2.204
REMARK SMILES CC(C)(C)OC(=O)N[C@@H](Cc1c[nH]c2cccc(Cl)c12)C(=O)OCCOC(=O)c1ccc(-c2c3nc(c(-c4ccc(S(=O)(=O)[O-])cc4)c4ccc([nH]4)c(-c4ccc(S(=O)(=O)[O-])cc4)c4nc(c(-c5ccc(S(=O)(=O)[O-])cc5)c5ccc2[nH]5)C=C4)C=C3)cc1
REMARK SMILES IDX 24 1 23 2 21 3 22 4 9 5 8 6 6 7 7 8 5 10 2 11 1 12 3 13 4 14
REMARK SMILES IDX 10 15 11 16 12 17 20 18 13 19 14 20 18 21 15 23 17 24 19 25
REMARK SMILES IDX 16 26 25 27 26 28 27 29 28 30 29 31 30 32 88 33 31 34 87 35
REMARK SMILES IDX 32 36 33 37 34 38 81 39 35 40 86 41 80 42 82 43 36 44 85 45
REMARK SMILES IDX 79 46 78 47 37 49 67 50 48 51 66 52 49 53 52 54 65 55 83 56
REMARK SMILES IDX 50 57 51 58 64 60 84 61 53 62 38 63 39 64 47 65 40 66 46 67
REMARK SMILES IDX 41 68 42 69 43 70 44 71 45 72 68 73 69 74 77 75 70 76 76 77
REMARK SMILES IDX 71 78 72 79 73 80 74 81 75 82 54 83 55 84 63 85 56 86 62 87
REMARK SMILES IDX 57 88 58 89 59 90 60 91 61 92
REMARK H PARENT 8 9 13 22 82 48 52 59
REMARK Flexibility Score: inf
ROOT
ATOM      1  C   UNL A   1      37.503  20.919  25.027  1.00  0.00     0.274 C 
ENDROOT
BRANCH   1   2
ATOM      2  O   UNL A   1      36.753  22.150  24.948  1.00  0.00    -0.461 OA
BRANCH   2   3
ATOM      3  C   UNL A   1      36.200  22.479  23.739  1.00  0.00     0.329 C 
ATOM      4  O   UNL A   1      36.823  22.969  22.803  1.00  0.00    -0.250 OA
BRANCH   3   5
ATOM      5  C   UNL A   1      34.672  22.317  23.742  1.00  0.00     0.200 C 
BRANCH   5   6
ATOM      6  N   UNL A   1      34.136  22.017  25.074  1.00  0.00    -0.308 N 
ATOM      7  C   UNL A   1      33.938  20.809  25.679  1.00  0.00     0.408 C 
ATOM      8  O   UNL A   1      33.420  20.753  26.783  1.00  0.00    -0.225 OA
ATOM      9  H   UNL A   1      33.880  22.803  25.611  1.00  0.00     0.168 HD
BRANCH   7  10
ATOM     10  O   UNL A   1      34.344  19.746  24.939  1.00  0.00    -0.444 OA
BRANCH  10  11
ATOM     11  C   UNL A   1      33.366  18.807  24.388  1.00  0.00     0.106 C 
ATOM     12  C   UNL A   1      32.666  18.194  25.615  1.00  0.00     0.056 C 
ATOM     13  C   UNL A   1      34.066  17.683  23.618  1.00  0.00     0.056 C 
ATOM     14  C   UNL A   1      32.301  19.484  23.513  1.00  0.00     0.056 C 
ENDBRANCH  10  11
ENDBRANCH   7  10
ENDBRANCH   5   6
BRANCH   5  15
ATOM     15  C   UNL A   1      34.059  23.620  23.166  1.00  0.00     0.075 C 
BRANCH  15  16
ATOM     16  C   UNL A   1      33.674  24.624  24.233  1.00  0.00    -0.018 A 
ATOM     17  C   UNL A   1      34.592  25.311  25.006  1.00  0.00     0.087 A 
ATOM     18  C   UNL A   1      32.368  25.175  24.548  1.00  0.00     0.021 A 
ATOM     19  N   UNL A   1      33.942  26.302  25.680  1.00  0.00    -0.361 N 
ATOM     20  C   UNL A   1      32.601  26.280  25.382  1.00  0.00     0.047 A 
ATOM     21  C   UNL A   1      31.021  24.959  24.166  1.00  0.00     0.050 A 
ATOM     22  H   UNL A   1      34.372  26.942  26.292  1.00  0.00     0.166 HD
ATOM     23  C   UNL A   1      31.591  27.174  25.776  1.00  0.00     0.027 A 
ATOM     24  C   UNL A   1      30.001  25.846  24.529  1.00  0.00     0.021 A 
ATOM     25  Cl  UNL A   1      30.644  23.569  23.249  1.00  0.00    -0.084 Cl
ATOM     26  C   UNL A   1      30.291  26.952  25.316  1.00  0.00     0.004 A 
ENDBRANCH  15  16
ENDBRANCH   5  15
ENDBRANCH   3   5
ENDBRANCH   2   3
ENDBRANCH   1   2
BRANCH   1  27
ATOM     27  C   UNL A   1      38.935  21.159  25.485  1.00  0.00     0.275 C 
BRANCH  27  28
ATOM     28  O   UNL A   1      38.977  22.294  26.344  1.00  0.00    -0.458 OA
BRANCH  28  29
ATOM     29  C   UNL A   1      40.100  22.325  27.091  1.00  0.00     0.338 C 
ATOM     30  O   UNL A   1      40.442  21.537  27.958  1.00  0.00    -0.246 OA
BRANCH  29  31
ATOM     31  C   UNL A   1      40.869  23.521  26.788  1.00  0.00     0.060 A 
ATOM     32  C   UNL A   1      42.087  23.649  27.462  1.00  0.00     0.016 A 
ATOM     33  C   UNL A   1      40.124  24.611  26.337  1.00  0.00     0.016 A 
ATOM     34  C   UNL A   1      42.417  24.890  27.945  1.00  0.00     0.010 A 
ATOM     35  C   UNL A   1      40.432  25.838  26.860  1.00  0.00     0.010 A 
ATOM     36  C   UNL A   1      41.505  25.925  27.749  1.00  0.00    -0.014 A 
BRANCH  36  37
ATOM     37  C   UNL A   1      41.654  27.099  28.576  1.00  0.00     0.031 A 
ATOM     38  C   UNL A   1      42.815  27.940  28.230  1.00  0.00     0.074 A 
ATOM     39  C   UNL A   1      40.709  27.423  29.478  1.00  0.00     0.049 A 
ATOM     40  N   UNL A   1      43.807  28.296  28.976  1.00  0.00    -0.248 NA
ATOM     41  C   UNL A   1      42.942  28.322  26.814  1.00  0.00     0.031 C 
ATOM     42  C   UNL A   1      39.379  26.824  29.650  1.00  0.00     0.029 A 
ATOM     43  N   UNL A   1      40.681  28.481  30.325  1.00  0.00    -0.354 N 
ATOM     44  C   UNL A   1      44.618  29.071  28.157  1.00  0.00     0.074 A 
ATOM     45  C   UNL A   1      44.129  28.918  26.810  1.00  0.00     0.031 C 
ATOM     46  C   UNL A   1      38.597  27.693  30.329  1.00  0.00     0.029 A 
ATOM     47  C   UNL A   1      39.402  28.836  30.730  1.00  0.00     0.049 A 
ATOM     48  H   UNL A   1      41.492  28.953  30.625  1.00  0.00     0.167 HD
ATOM     49  C   UNL A   1      45.524  29.965  28.633  1.00  0.00     0.031 A 
ATOM     50  C   UNL A   1      39.040  30.048  31.219  1.00  0.00     0.031 A 
ATOM     51  C   UNL A   1      45.802  29.791  30.027  1.00  0.00     0.049 A 
ATOM     52  C   UNL A   1      40.290  30.743  31.636  1.00  0.00     0.074 A 
ATOM     53  C   UNL A   1      46.394  28.794  30.774  1.00  0.00     0.029 A 
ATOM     54  N   UNL A   1      45.099  30.571  30.915  1.00  0.00    -0.354 N 
ATOM     55  N   UNL A   1      41.059  30.345  32.610  1.00  0.00    -0.248 NA
ATOM     56  C   UNL A   1      40.921  31.646  30.683  1.00  0.00     0.031 C 
ATOM     57  C   UNL A   1      45.660  28.757  31.994  1.00  0.00     0.029 A 
ATOM     58  C   UNL A   1      44.681  29.752  31.937  1.00  0.00     0.049 A 
ATOM     59  H   UNL A   1      44.926  31.536  30.834  1.00  0.00     0.167 HD
ATOM     60  C   UNL A   1      42.355  30.618  32.190  1.00  0.00     0.074 A 
ATOM     61  C   UNL A   1      42.200  31.504  31.041  1.00  0.00     0.031 C 
ATOM     62  C   UNL A   1      43.419  29.887  32.637  1.00  0.00     0.031 A 
BRANCH  49  63
ATOM     63  C   UNL A   1      45.901  31.187  27.854  1.00  0.00    -0.014 A 
ATOM     64  C   UNL A   1      47.138  31.259  27.197  1.00  0.00     0.010 A 
ATOM     65  C   UNL A   1      45.129  32.369  27.927  1.00  0.00     0.010 A 
ATOM     66  C   UNL A   1      47.578  32.466  26.633  1.00  0.00     0.020 A 
ATOM     67  C   UNL A   1      45.531  33.558  27.327  1.00  0.00     0.020 A 
ATOM     68  C   UNL A   1      46.769  33.605  26.702  1.00  0.00     0.054 A 
BRANCH  68  69
ATOM     69  S   UNL A   1      47.386  35.177  26.052  1.00  0.00     0.124 S 
ATOM     70  O   UNL A   1      48.246  34.737  24.957  1.00  0.00    -0.237 OA
ATOM     71  O   UNL A   1      46.152  35.852  25.659  1.00  0.00    -0.237 OA
ATOM     72  O   UNL A   1      48.082  35.772  27.191  1.00  0.00    -0.744 OA
ENDBRANCH  68  69
ENDBRANCH  49  63
BRANCH  50  73
ATOM     73  C   UNL A   1      37.774  30.781  30.939  1.00  0.00    -0.014 A 
ATOM     74  C   UNL A   1      37.211  31.628  31.912  1.00  0.00     0.010 A 
ATOM     75  C   UNL A   1      37.264  30.868  29.626  1.00  0.00     0.010 A 
ATOM     76  C   UNL A   1      36.237  32.580  31.567  1.00  0.00     0.020 A 
ATOM     77  C   UNL A   1      36.282  31.803  29.277  1.00  0.00     0.020 A 
ATOM     78  C   UNL A   1      35.800  32.679  30.243  1.00  0.00     0.054 A 
BRANCH  78  79
ATOM     79  S   UNL A   1      34.683  34.032  29.772  1.00  0.00     0.124 S 
ATOM     80  O   UNL A   1      34.475  34.725  31.041  1.00  0.00    -0.237 OA
ATOM     81  O   UNL A   1      35.474  34.752  28.780  1.00  0.00    -0.237 OA
ATOM     82  O   UNL A   1      33.507  33.341  29.244  1.00  0.00    -0.744 OA
ENDBRANCH  78  79
ENDBRANCH  50  73
BRANCH  62  83
ATOM     83  C   UNL A   1      43.196  28.938  33.792  1.00  0.00    -0.014 A 
ATOM     84  C   UNL A   1      43.346  29.319  35.141  1.00  0.00     0.010 A 
ATOM     85  C   UNL A   1      42.642  27.678  33.509  1.00  0.00     0.010 A 
ATOM     86  C   UNL A   1      42.955  28.458  36.178  1.00  0.00     0.020 A 
ATOM     87  C   UNL A   1      42.239  26.821  34.537  1.00  0.00     0.020 A 
ATOM     88  C   UNL A   1      42.393  27.217  35.867  1.00  0.00     0.054 A 
BRANCH  88  89
ATOM     89  S   UNL A   1      41.828  26.135  37.211  1.00  0.00     0.124 S 
ATOM     90  O   UNL A   1      41.774  24.823  36.571  1.00  0.00    -0.237 OA
ATOM     91  O   UNL A   1      42.875  26.304  38.216  1.00  0.00    -0.237 OA
ATOM     92  O   UNL A   1      40.527  26.691  37.584  1.00  0.00    -0.744 OA
ENDBRANCH  88  89
ENDBRANCH  62  83
ENDBRANCH  36  37
ENDBRANCH  29  31
ENDBRANCH  28  29
ENDBRANCH  27  28
ENDBRANCH   1  27
TORSDOF 19
ENDMDL
MODEL 3
REMARK VINA RESULT:     -10.6      2.641      8.930
REMARK SMILES CC(C)(C)OC(=O)N[C@@H](Cc1c[nH]c2cccc(Cl)c12)C(=O)OCCOC(=O)c1ccc(-c2c3nc(c(-c4ccc(S(=O)(=O)[O-])cc4)c4ccc([nH]4)c(-c4ccc(S(=O)(=O)[O-])cc4)c4nc(c(-c5ccc(S(=O)(=O)[O-])cc5)c5ccc2[nH]5)C=C4)C=C3)cc1
REMARK SMILES IDX 24 1 23 2 21 3 22 4 9 5 8 6 6 7 7 8 5 10 2 11 1 12 3 13 4 14
REMARK SMILES IDX 10 15 11 16 12 17 20 18 13 19 14 20 18 21 15 23 17 24 19 25
REMARK SMILES IDX 16 26 25 27 26 28 27 29 28 30 29 31 30 32 88 33 31 34 87 35
REMARK SMILES IDX 32 36 33 37 34 38 81 39 35 40 86 41 80 42 82 43 36 44 85 45
REMARK SMILES IDX 79 46 78 47 37 49 67 50 48 51 66 52 49 53 52 54 65 55 83 56
REMARK SMILES IDX 50 57 51 58 64 60 84 61 53 62 38 63 39 64 47 65 40 66 46 67
REMARK SMILES IDX 41 68 42 69 43 70 44 71 45 72 68 73 69 74 77 75 70 76 76 77
REMARK SMILES IDX 71 78 72 79 73 80 74 81 75 82 54 83 55 84 63 85 56 86 62 87
REMARK SMILES IDX 57 88 58 89 59 90 60 91 61 92
REMARK H PARENT 8 9 13 22 82 48 52 59
REMARK Flexibility Score: inf
ROOT
ATOM      1  C   UNL A   1      32.705  29.943  26.431  1.00  0.00     0.274 C 
ENDROOT
BRANCH   1   2
ATOM      2  O   UNL A   1      33.162  28.610  26.745  1.00  0.00    -0.461 OA
BRANCH   2   3
ATOM      3  C   UNL A   1      33.582  27.823  25.707  1.00  0.00     0.329 C 
ATOM      4  O   UNL A   1      33.896  28.247  24.599  1.00  0.00    -0.250 OA
BRANCH   3   5
ATOM      5  C   UNL A   1      33.462  26.326  26.034  1.00  0.00     0.200 C 
BRANCH   5   6
ATOM      6  N   UNL A   1      32.113  25.947  26.468  1.00  0.00    -0.308 N 
ATOM      7  C   UNL A   1      30.901  26.315  25.958  1.00  0.00     0.408 C 
ATOM      8  O   UNL A   1      29.871  25.941  26.495  1.00  0.00    -0.225 OA
ATOM      9  H   UNL A   1      32.076  25.338  27.241  1.00  0.00     0.168 HD
BRANCH   7  10
ATOM     10  O   UNL A   1      30.980  27.114  24.862  1.00  0.00    -0.444 OA
BRANCH  10  11
ATOM     11  C   UNL A   1      30.405  26.685  23.587  1.00  0.00     0.106 C 
ATOM     12  C   UNL A   1      29.033  27.378  23.513  1.00  0.00     0.056 C 
ATOM     13  C   UNL A   1      30.184  25.169  23.574  1.00  0.00     0.056 C 
ATOM     14  C   UNL A   1      31.234  27.123  22.370  1.00  0.00     0.056 C 
ENDBRANCH  10  11
ENDBRANCH   7  10
ENDBRANCH   5   6
BRANCH   5  15
ATOM     15  C   UNL A   1      33.894  25.532  24.774  1.00  0.00     0.075 C 
BRANCH  15  16
ATOM     16  C   UNL A   1      33.957  24.035  25.001  1.00  0.00    -0.018 A 
ATOM     17  C   UNL A   1      34.387  23.457  26.181  1.00  0.00     0.087 A 
ATOM     18  C   UNL A   1      33.464  22.957  24.164  1.00  0.00     0.021 A 
ATOM     19  N   UNL A   1      34.089  22.126  26.150  1.00  0.00    -0.361 N 
ATOM     20  C   UNL A   1      33.479  21.803  24.963  1.00  0.00     0.047 A 
ATOM     21  C   UNL A   1      32.908  22.808  22.869  1.00  0.00     0.050 A 
ATOM     22  H   UNL A   1      34.282  21.490  26.876  1.00  0.00     0.166 HD
ATOM     23  C   UNL A   1      32.925  20.577  24.556  1.00  0.00     0.027 A 
ATOM     24  C   UNL A   1      32.332  21.604  22.449  1.00  0.00     0.021 A 
ATOM     25  Cl  UNL A   1      32.960  24.137  21.798  1.00  0.00    -0.084 Cl
ATOM     26  C   UNL A   1      32.330  20.503  23.295  1.00  0.00     0.004 A 
ENDBRANCH  15  16
ENDBRANCH   5  15
ENDBRANCH   3   5
ENDBRANCH   2   3
ENDBRANCH   1   2
BRANCH   1  27
ATOM     27  C   UNL A   1      33.209  30.965  27.441  1.00  0.00     0.275 C 
BRANCH  27  28
ATOM     28  O   UNL A   1      34.602  30.771  27.662  1.00  0.00    -0.458 OA
BRANCH  28  29
ATOM     29  C   UNL A   1      35.212  31.898  28.082  1.00  0.00     0.338 C 
ATOM     30  O   UNL A   1      35.162  33.007  27.576  1.00  0.00    -0.246 OA
BRANCH  29  31
ATOM     31  C   UNL A   1      36.056  31.612  29.231  1.00  0.00     0.060 A 
ATOM     32  C   UNL A   1      37.100  32.513  29.460  1.00  0.00     0.016 A 
ATOM     33  C   UNL A   1      36.100  30.272  29.620  1.00  0.00     0.016 A 
ATOM     34  C   UNL A   1      38.317  31.995  29.823  1.00  0.00     0.010 A 
ATOM     35  C   UNL A   1      37.326  29.753  29.936  1.00  0.00     0.010 A 
ATOM     36  C   UNL A   1      38.429  30.609  29.913  1.00  0.00    -0.014 A 
BRANCH  36  37
ATOM     37  C   UNL A   1      39.763  30.055  29.900  1.00  0.00     0.031 A 
ATOM     38  C   UNL A   1      40.397  29.973  31.229  1.00  0.00     0.074 A 
ATOM     39  C   UNL A   1      40.279  29.545  28.767  1.00  0.00     0.049 A 
ATOM     40  N   UNL A   1      41.507  30.498  31.630  1.00  0.00    -0.248 NA
ATOM     41  C   UNL A   1      39.609  29.320  32.287  1.00  0.00     0.031 C 
ATOM     42  C   UNL A   1      39.592  29.293  27.493  1.00  0.00     0.029 A 
ATOM     43  N   UNL A   1      41.498  28.984  28.574  1.00  0.00    -0.354 N 
ATOM     44  C   UNL A   1      41.628  30.120  32.961  1.00  0.00     0.074 A 
ATOM     45  C   UNL A   1      40.367  29.544  33.354  1.00  0.00     0.031 C 
ATOM     46  C   UNL A   1      40.310  28.393  26.784  1.00  0.00     0.029 A 
ATOM     47  C   UNL A   1      41.544  28.107  27.500  1.00  0.00     0.049 A 
ATOM     48  H   UNL A   1      42.278  29.181  29.144  1.00  0.00     0.167 HD
ATOM     49  C   UNL A   1      42.812  30.105  33.628  1.00  0.00     0.031 A 
ATOM     50  C   UNL A   1      42.466  27.127  27.323  1.00  0.00     0.031 A 
ATOM     51  C   UNL A   1      43.847  30.823  32.949  1.00  0.00     0.049 A 
ATOM     52  C   UNL A   1      43.615  27.442  28.217  1.00  0.00     0.074 A 
ATOM     53  C   UNL A   1      44.046  32.150  32.626  1.00  0.00     0.029 A 
ATOM     54  N   UNL A   1      44.697  30.101  32.145  1.00  0.00    -0.354 N 
ATOM     55  N   UNL A   1      44.387  28.484  28.079  1.00  0.00    -0.248 NA
ATOM     56  C   UNL A   1      43.645  26.823  29.536  1.00  0.00     0.031 C 
ATOM     57  C   UNL A   1      44.669  32.133  31.346  1.00  0.00     0.029 A 
ATOM     58  C   UNL A   1      44.842  30.799  30.970  1.00  0.00     0.049 A 
ATOM     59  H   UNL A   1      45.123  29.242  32.369  1.00  0.00     0.167 HD
ATOM     60  C   UNL A   1      44.692  28.888  29.373  1.00  0.00     0.074 A 
ATOM     61  C   UNL A   1      44.287  27.772  30.222  1.00  0.00     0.031 C 
ATOM     62  C   UNL A   1      44.988  30.189  29.663  1.00  0.00     0.031 A 
BRANCH  49  63
ATOM     63  C   UNL A   1      43.061  29.151  34.756  1.00  0.00    -0.014 A 
ATOM     64  C   UNL A   1      43.689  29.587  35.931  1.00  0.00     0.010 A 
ATOM     65  C   UNL A   1      42.868  27.760  34.595  1.00  0.00     0.010 A 
ATOM     66  C   UNL A   1      44.100  28.666  36.906  1.00  0.00     0.020 A 
ATOM     67  C   UNL A   1      43.225  26.841  35.577  1.00  0.00     0.020 A 
ATOM     68  C   UNL A   1      43.862  27.300  36.720  1.00  0.00     0.054 A 
BRANCH  68  69
ATOM     69  S   UNL A   1      44.479  26.114  37.940  1.00  0.00     0.124 S 
ATOM     70  O   UNL A   1      43.643  26.409  39.100  1.00  0.00    -0.237 OA
ATOM     71  O   UNL A   1      44.222  24.836  37.282  1.00  0.00    -0.237 OA
ATOM     72  O   UNL A   1      45.890  26.466  38.082  1.00  0.00    -0.744 OA
ENDBRANCH  68  69
ENDBRANCH  49  63
BRANCH  50  73
ATOM     73  C   UNL A   1      42.222  25.760  26.784  1.00  0.00    -0.014 A 
ATOM     74  C   UNL A   1      43.146  25.166  25.905  1.00  0.00     0.010 A 
ATOM     75  C   UNL A   1      41.229  24.929  27.345  1.00  0.00     0.010 A 
ATOM     76  C   UNL A   1      43.127  23.782  25.661  1.00  0.00     0.020 A 
ATOM     77  C   UNL A   1      41.194  23.552  27.095  1.00  0.00     0.020 A 
ATOM     78  C   UNL A   1      42.167  22.980  26.283  1.00  0.00     0.054 A 
BRANCH  78  79
ATOM     79  S   UNL A   1      42.266  21.175  26.110  1.00  0.00     0.124 S 
ATOM     80  O   UNL A   1      42.478  20.738  27.488  1.00  0.00    -0.237 OA
ATOM     81  O   UNL A   1      40.964  20.849  25.536  1.00  0.00    -0.237 OA
ATOM     82  O   UNL A   1      43.404  20.974  25.215  1.00  0.00    -0.744 OA
ENDBRANCH  78  79
ENDBRANCH  50  73
BRANCH  62  83
ATOM     83  C   UNL A   1      45.228  31.139  28.511  1.00  0.00    -0.014 A 
ATOM     84  C   UNL A   1      44.200  31.583  27.654  1.00  0.00     0.010 A 
ATOM     85  C   UNL A   1      46.494  31.739  28.407  1.00  0.00     0.010 A 
ATOM     86  C   UNL A   1      44.438  32.599  26.716  1.00  0.00     0.020 A 
ATOM     87  C   UNL A   1      46.733  32.761  27.484  1.00  0.00     0.020 A 
ATOM     88  C   UNL A   1      45.703  33.189  26.645  1.00  0.00     0.054 A 
BRANCH  88  89
ATOM     89  S   UNL A   1      45.986  34.549  25.475  1.00  0.00     0.124 S 
ATOM     90  O   UNL A   1      45.588  35.725  26.243  1.00  0.00    -0.237 OA
ATOM     91  O   UNL A   1      47.415  34.432  25.194  1.00  0.00    -0.237 OA
ATOM     92  O   UNL A   1      45.112  34.227  24.347  1.00  0.00    -0.744 OA
ENDBRANCH  88  89
ENDBRANCH  62  83
ENDBRANCH  36  37
ENDBRANCH  29  31
ENDBRANCH  28  29
ENDBRANCH  27  28
ENDBRANCH   1  27
TORSDOF 19
ENDMDL
