MODEL 1
REMARK VINA RESULT:     -11.8      0.000      0.000
REMARK SMILES COc1ccc(CCN2C(=O)CC[C@@H](C(=O)OCCOC(=O)c3ccc(-c4c5nc(c(-c6ccc(S(=O)(=O)[O-])cc6)c6ccc([nH]6)c(-c6ccc(S(=O)(=O)[O-])cc6)c6nc(c(-c7ccc(S(=O)(=O)[O-])cc7)c7ccc4[nH]7)C=C6)C=C5)cc3)[C@@H]2c2ccc(Cl)cc2)cc1OC
REMARK SMILES IDX 18 1 17 2 15 3 16 4 14 5 9 6 10 7 83 8 11 9 12 10 13 11 8 12
REMARK SMILES IDX 7 13 6 14 3 15 4 16 92 17 5 18 91 19 2 20 1 21 93 22 94 23
REMARK SMILES IDX 84 24 85 25 90 26 86 27 89 28 87 29 88 30 19 31 20 32 21 33
REMARK SMILES IDX 22 34 23 35 24 36 82 37 25 38 81 39 26 40 27 41 28 42 75 43
REMARK SMILES IDX 29 44 80 45 74 46 76 47 30 48 79 49 73 50 72 51 31 53 61 54
REMARK SMILES IDX 42 55 60 56 43 57 46 58 59 59 77 60 44 61 45 62 58 64 78 65
REMARK SMILES IDX 47 66 32 67 33 68 41 69 34 70 40 71 35 72 36 73 37 74 38 75
REMARK SMILES IDX 39 76 62 77 63 78 71 79 64 80 70 81 65 82 66 83 67 84 68 85
REMARK SMILES IDX 69 86 48 87 49 88 57 89 50 90 56 91 51 92 52 93 53 94 54 95
REMARK SMILES IDX 55 96
REMARK H PARENT 76 52 46 63
REMARK Flexibility Score: inf
ROOT
ATOM      1  C   UNL A   1      33.085  30.605  27.067  1.00  0.00     0.274 C 
ENDROOT
BRANCH   1   2
ATOM      2  O   UNL A   1      33.275  29.179  26.940  1.00  0.00    -0.462 OA
BRANCH   2   3
ATOM      3  C   UNL A   1      32.627  28.561  25.911  1.00  0.00     0.311 C 
ATOM      4  O   UNL A   1      31.412  28.553  25.764  1.00  0.00    -0.252 OA
BRANCH   3   5
ATOM      5  C   UNL A   1      33.593  27.727  25.078  1.00  0.00     0.127 C 
ATOM      6  N   UNL A   1      32.002  26.394  23.632  1.00  0.00    -0.334 N 
ATOM      7  C   UNL A   1      31.912  27.471  22.762  1.00  0.00     0.223 C 
ATOM      8  C   UNL A   1      33.001  26.336  24.742  1.00  0.00     0.129 C 
ATOM      9  O   UNL A   1      30.984  27.637  21.971  1.00  0.00    -0.275 OA
ATOM     10  C   UNL A   1      32.987  28.533  22.779  1.00  0.00     0.101 C 
ATOM     11  C   UNL A   1      34.085  28.387  23.802  1.00  0.00     0.028 C 
BRANCH   6  12
ATOM     12  C   UNL A   1      30.908  25.386  23.680  1.00  0.00     0.125 C 
BRANCH  12  13
ATOM     13  C   UNL A   1      30.720  24.497  24.940  1.00  0.00     0.057 C 
BRANCH  13  14
ATOM     14  C   UNL A   1      31.389  23.150  24.824  1.00  0.00    -0.042 A 
ATOM     15  C   UNL A   1      33.018  20.876  24.544  1.00  0.00     0.160 A 
ATOM     16  C   UNL A   1      32.323  21.389  23.442  1.00  0.00     0.051 A 
ATOM     17  C   UNL A   1      32.836  21.454  25.808  1.00  0.00     0.160 A 
ATOM     18  C   UNL A   1      31.490  22.499  23.589  1.00  0.00     0.008 A 
ATOM     19  C   UNL A   1      32.031  22.591  25.936  1.00  0.00     0.054 A 
BRANCH  15  20
ATOM     20  O   UNL A   1      33.977  19.908  24.396  1.00  0.00    -0.493 OA
ATOM     21  C   UNL A   1      33.537  18.586  24.680  1.00  0.00     0.278 C 
ENDBRANCH  15  20
BRANCH  17  22
ATOM     22  O   UNL A   1      33.433  21.063  26.979  1.00  0.00    -0.493 OA
ATOM     23  C   UNL A   1      33.637  22.087  27.946  1.00  0.00     0.278 C 
ENDBRANCH  17  22
ENDBRANCH  13  14
ENDBRANCH  12  13
ENDBRANCH   6  12
BRANCH   8  24
ATOM     24  C   UNL A   1      34.097  25.262  24.553  1.00  0.00    -0.024 A 
ATOM     25  C   UNL A   1      34.296  24.604  23.332  1.00  0.00     0.007 A 
ATOM     26  C   UNL A   1      34.875  24.817  25.638  1.00  0.00     0.007 A 
ATOM     27  C   UNL A   1      35.204  23.550  23.184  1.00  0.00     0.021 A 
ATOM     28  C   UNL A   1      35.818  23.790  25.491  1.00  0.00     0.021 A 
ATOM     29  C   UNL A   1      35.971  23.153  24.266  1.00  0.00     0.041 A 
ATOM     30  Cl  UNL A   1      37.096  21.864  24.098  1.00  0.00    -0.084 Cl
ENDBRANCH   8  24
ENDBRANCH   3   5
ENDBRANCH   2   3
ENDBRANCH   1   2
BRANCH   1  31
ATOM     31  C   UNL A   1      34.317  31.264  27.679  1.00  0.00     0.275 C 
BRANCH  31  32
ATOM     32  O   UNL A   1      35.077  30.257  28.361  1.00  0.00    -0.458 OA
BRANCH  32  33
ATOM     33  C   UNL A   1      36.036  30.676  29.217  1.00  0.00     0.338 C 
ATOM     34  O   UNL A   1      35.890  31.489  30.124  1.00  0.00    -0.246 OA
BRANCH  33  35
ATOM     35  C   UNL A   1      37.307  29.968  28.926  1.00  0.00     0.060 A 
ATOM     36  C   UNL A   1      38.079  29.458  29.964  1.00  0.00     0.016 A 
ATOM     37  C   UNL A   1      37.794  29.884  27.619  1.00  0.00     0.016 A 
ATOM     38  C   UNL A   1      39.358  28.971  29.703  1.00  0.00     0.010 A 
ATOM     39  C   UNL A   1      39.058  29.316  27.363  1.00  0.00     0.010 A 
ATOM     40  C   UNL A   1      39.897  28.899  28.411  1.00  0.00    -0.014 A 
BRANCH  40  41
ATOM     41  C   UNL A   1      41.338  28.505  28.196  1.00  0.00     0.031 A 
ATOM     42  C   UNL A   1      42.457  29.494  28.463  1.00  0.00     0.074 A 
ATOM     43  C   UNL A   1      41.713  27.244  27.872  1.00  0.00     0.049 A 
ATOM     44  N   UNL A   1      43.710  29.449  28.074  1.00  0.00    -0.248 NA
ATOM     45  C   UNL A   1      42.127  30.693  29.250  1.00  0.00     0.031 C 
ATOM     46  C   UNL A   1      40.821  26.101  27.676  1.00  0.00     0.029 A 
ATOM     47  N   UNL A   1      42.968  26.698  27.701  1.00  0.00    -0.354 N 
ATOM     48  C   UNL A   1      44.277  30.659  28.461  1.00  0.00     0.074 A 
ATOM     49  C   UNL A   1      43.243  31.403  29.150  1.00  0.00     0.031 C 
ATOM     50  C   UNL A   1      41.549  24.982  27.552  1.00  0.00     0.029 A 
ATOM     51  C   UNL A   1      42.959  25.342  27.464  1.00  0.00     0.049 A 
ATOM     52  H   UNL A   1      43.795  27.229  27.745  1.00  0.00     0.167 HD
ATOM     53  C   UNL A   1      45.537  31.115  28.250  1.00  0.00     0.031 A 
ATOM     54  C   UNL A   1      43.941  24.480  27.131  1.00  0.00     0.031 A 
ATOM     55  C   UNL A   1      46.606  30.333  27.681  1.00  0.00     0.049 A 
ATOM     56  C   UNL A   1      45.325  25.000  26.864  1.00  0.00     0.074 A 
ATOM     57  C   UNL A   1      47.906  30.723  27.402  1.00  0.00     0.029 A 
ATOM     58  N   UNL A   1      46.519  28.989  27.358  1.00  0.00    -0.354 N 
ATOM     59  N   UNL A   1      45.794  26.212  27.023  1.00  0.00    -0.248 NA
ATOM     60  C   UNL A   1      46.296  24.043  26.309  1.00  0.00     0.031 C 
ATOM     61  C   UNL A   1      48.596  29.623  26.881  1.00  0.00     0.029 A 
ATOM     62  C   UNL A   1      47.737  28.536  26.879  1.00  0.00     0.049 A 
ATOM     63  H   UNL A   1      45.710  28.437  27.456  1.00  0.00     0.167 HD
ATOM     64  C   UNL A   1      47.106  26.170  26.567  1.00  0.00     0.074 A 
ATOM     65  C   UNL A   1      47.372  24.805  26.166  1.00  0.00     0.031 C 
ATOM     66  C   UNL A   1      48.001  27.183  26.468  1.00  0.00     0.031 A 
BRANCH  53  67
ATOM     67  C   UNL A   1      45.824  32.561  28.560  1.00  0.00    -0.014 A 
ATOM     68  C   UNL A   1      46.413  32.970  29.767  1.00  0.00     0.010 A 
ATOM     69  C   UNL A   1      45.554  33.526  27.568  1.00  0.00     0.010 A 
ATOM     70  C   UNL A   1      46.699  34.322  29.989  1.00  0.00     0.020 A 
ATOM     71  C   UNL A   1      45.861  34.873  27.776  1.00  0.00     0.020 A 
ATOM     72  C   UNL A   1      46.418  35.265  28.993  1.00  0.00     0.054 A 
BRANCH  72  73
ATOM     73  S   UNL A   1      46.830  37.007  29.288  1.00  0.00     0.124 S 
ATOM     74  O   UNL A   1      46.267  37.654  28.105  1.00  0.00    -0.237 OA
ATOM     75  O   UNL A   1      46.145  37.293  30.545  1.00  0.00    -0.237 OA
ATOM     76  O   UNL A   1      48.289  37.011  29.364  1.00  0.00    -0.744 OA
ENDBRANCH  72  73
ENDBRANCH  53  67
BRANCH  54  77
ATOM     77  C   UNL A   1      43.622  23.042  26.896  1.00  0.00    -0.014 A 
ATOM     78  C   UNL A   1      42.967  22.279  27.877  1.00  0.00     0.010 A 
ATOM     79  C   UNL A   1      43.961  22.435  25.671  1.00  0.00     0.010 A 
ATOM     80  C   UNL A   1      42.648  20.938  27.633  1.00  0.00     0.020 A 
ATOM     81  C   UNL A   1      43.609  21.110  25.410  1.00  0.00     0.020 A 
ATOM     82  C   UNL A   1      42.963  20.366  26.398  1.00  0.00     0.054 A 
BRANCH  82  83
ATOM     83  S   UNL A   1      42.461  18.657  26.053  1.00  0.00     0.124 S 
ATOM     84  O   UNL A   1      41.063  18.826  25.670  1.00  0.00    -0.237 OA
ATOM     85  O   UNL A   1      43.369  18.264  24.978  1.00  0.00    -0.237 OA
ATOM     86  O   UNL A   1      42.687  17.977  27.325  1.00  0.00    -0.744 OA
ENDBRANCH  82  83
ENDBRANCH  54  77
BRANCH  66  87
ATOM     87  C   UNL A   1      49.359  26.855  25.909  1.00  0.00    -0.014 A 
ATOM     88  C   UNL A   1      49.675  27.141  24.569  1.00  0.00     0.010 A 
ATOM     89  C   UNL A   1      50.341  26.287  26.739  1.00  0.00     0.010 A 
ATOM     90  C   UNL A   1      50.940  26.838  24.059  1.00  0.00     0.020 A 
ATOM     91  C   UNL A   1      51.615  26.000  26.239  1.00  0.00     0.020 A 
ATOM     92  C   UNL A   1      51.902  26.265  24.897  1.00  0.00     0.054 A 
BRANCH  92  93
ATOM     93  S   UNL A   1      53.549  25.907  24.224  1.00  0.00     0.124 S 
ATOM     94  O   UNL A   1      53.818  24.580  24.768  1.00  0.00    -0.237 OA
ATOM     95  O   UNL A   1      53.325  25.961  22.780  1.00  0.00    -0.237 OA
ATOM     96  O   UNL A   1      54.382  26.982  24.758  1.00  0.00    -0.744 OA
ENDBRANCH  92  93
ENDBRANCH  66  87
ENDBRANCH  40  41
ENDBRANCH  33  35
ENDBRANCH  32  33
ENDBRANCH  31  32
ENDBRANCH   1  31
TORSDOF 20
ENDMDL
MODEL 2
REMARK VINA RESULT:     -11.4      4.606      5.714
REMARK SMILES COc1ccc(CCN2C(=O)CC[C@@H](C(=O)OCCOC(=O)c3ccc(-c4c5nc(c(-c6ccc(S(=O)(=O)[O-])cc6)c6ccc([nH]6)c(-c6ccc(S(=O)(=O)[O-])cc6)c6nc(c(-c7ccc(S(=O)(=O)[O-])cc7)c7ccc4[nH]7)C=C6)C=C5)cc3)[C@@H]2c2ccc(Cl)cc2)cc1OC
REMARK SMILES IDX 18 1 17 2 15 3 16 4 14 5 9 6 10 7 83 8 11 9 12 10 13 11 8 12
REMARK SMILES IDX 7 13 6 14 3 15 4 16 92 17 5 18 91 19 2 20 1 21 93 22 94 23
REMARK SMILES IDX 84 24 85 25 90 26 86 27 89 28 87 29 88 30 19 31 20 32 21 33
REMARK SMILES IDX 22 34 23 35 24 36 82 37 25 38 81 39 26 40 27 41 28 42 75 43
REMARK SMILES IDX 29 44 80 45 74 46 76 47 30 48 79 49 73 50 72 51 31 53 61 54
REMARK SMILES IDX 42 55 60 56 43 57 46 58 59 59 77 60 44 61 45 62 58 64 78 65
REMARK SMILES IDX 47 66 32 67 33 68 41 69 34 70 40 71 35 72 36 73 37 74 38 75
REMARK SMILES IDX 39 76 62 77 63 78 71 79 64 80 70 81 65 82 66 83 67 84 68 85
REMARK SMILES IDX 69 86 48 87 49 88 57 89 50 90 56 91 51 92 52 93 53 94 54 95
REMARK SMILES IDX 55 96
REMARK H PARENT 76 52 46 63
REMARK Flexibility Score: inf
ROOT
ATOM      1  C   UNL A   1      31.455  29.720  27.057  1.00  0.00     0.274 C 
ENDROOT
BRANCH   1   2
ATOM      2  O   UNL A   1      32.436  28.678  27.251  1.00  0.00    -0.462 OA
BRANCH   2   3
ATOM      3  C   UNL A   1      32.167  27.466  26.684  1.00  0.00     0.311 C 
ATOM      4  O   UNL A   1      31.156  26.812  26.899  1.00  0.00    -0.252 OA
BRANCH   3   5
ATOM      5  C   UNL A   1      33.368  26.949  25.902  1.00  0.00     0.127 C 
ATOM      6  N   UNL A   1      32.263  26.003  23.833  1.00  0.00    -0.334 N 
ATOM      7  C   UNL A   1      32.236  27.275  23.283  1.00  0.00     0.223 C 
ATOM      8  C   UNL A   1      33.014  25.682  25.085  1.00  0.00     0.129 C 
ATOM      9  O   UNL A   1      31.476  27.613  22.374  1.00  0.00    -0.275 OA
ATOM     10  C   UNL A   1      33.161  28.341  23.824  1.00  0.00     0.101 C 
ATOM     11  C   UNL A   1      34.036  27.966  24.993  1.00  0.00     0.028 C 
BRANCH   6  12
ATOM     12  C   UNL A   1      31.300  24.969  23.364  1.00  0.00     0.125 C 
BRANCH  12  13
ATOM     13  C   UNL A   1      30.711  23.938  24.364  1.00  0.00     0.057 C 
BRANCH  13  14
ATOM     14  C   UNL A   1      31.500  22.654  24.430  1.00  0.00    -0.042 A 
ATOM     15  C   UNL A   1      33.336  20.527  24.538  1.00  0.00     0.160 A 
ATOM     16  C   UNL A   1      32.793  20.933  23.313  1.00  0.00     0.051 A 
ATOM     17  C   UNL A   1      32.899  21.135  25.723  1.00  0.00     0.160 A 
ATOM     18  C   UNL A   1      31.858  21.968  23.264  1.00  0.00     0.008 A 
ATOM     19  C   UNL A   1      31.993  22.199  25.659  1.00  0.00     0.054 A 
BRANCH  15  20
ATOM     20  O   UNL A   1      34.384  19.646  24.598  1.00  0.00    -0.493 OA
ATOM     21  C   UNL A   1      34.016  18.276  24.489  1.00  0.00     0.278 C 
ENDBRANCH  15  20
BRANCH  17  22
ATOM     22  O   UNL A   1      33.325  20.846  26.995  1.00  0.00    -0.493 OA
ATOM     23  C   UNL A   1      33.458  21.956  27.874  1.00  0.00     0.278 C 
ENDBRANCH  17  22
ENDBRANCH  13  14
ENDBRANCH  12  13
ENDBRANCH   6  12
BRANCH   8  24
ATOM     24  C   UNL A   1      34.237  24.760  24.873  1.00  0.00    -0.024 A 
ATOM     25  C   UNL A   1      34.585  24.259  23.612  1.00  0.00     0.007 A 
ATOM     26  C   UNL A   1      34.993  24.291  25.963  1.00  0.00     0.007 A 
ATOM     27  C   UNL A   1      35.616  23.332  23.428  1.00  0.00     0.021 A 
ATOM     28  C   UNL A   1      36.056  23.394  25.787  1.00  0.00     0.021 A 
ATOM     29  C   UNL A   1      36.357  22.909  24.520  1.00  0.00     0.041 A 
ATOM     30  Cl  UNL A   1      37.632  21.775  24.310  1.00  0.00    -0.084 Cl
ENDBRANCH   8  24
ENDBRANCH   3   5
ENDBRANCH   2   3
ENDBRANCH   1   2
BRANCH   1  31
ATOM     31  C   UNL A   1      32.115  31.001  26.558  1.00  0.00     0.275 C 
BRANCH  31  32
ATOM     32  O   UNL A   1      33.532  30.886  26.755  1.00  0.00    -0.458 OA
BRANCH  32  33
ATOM     33  C   UNL A   1      34.108  31.742  27.628  1.00  0.00     0.338 C 
ATOM     34  O   UNL A   1      33.604  32.769  28.073  1.00  0.00    -0.246 OA
BRANCH  33  35
ATOM     35  C   UNL A   1      35.447  31.233  28.015  1.00  0.00     0.060 A 
ATOM     36  C   UNL A   1      35.648  29.872  28.216  1.00  0.00     0.016 A 
ATOM     37  C   UNL A   1      36.498  32.117  28.276  1.00  0.00     0.016 A 
ATOM     38  C   UNL A   1      36.847  29.422  28.767  1.00  0.00     0.010 A 
ATOM     39  C   UNL A   1      37.731  31.637  28.758  1.00  0.00     0.010 A 
ATOM     40  C   UNL A   1      37.914  30.278  29.072  1.00  0.00    -0.014 A 
BRANCH  40  41
ATOM     41  C   UNL A   1      39.131  29.766  29.804  1.00  0.00     0.031 A 
ATOM     42  C   UNL A   1      39.464  30.270  31.195  1.00  0.00     0.074 A 
ATOM     43  C   UNL A   1      39.909  28.767  29.321  1.00  0.00     0.049 A 
ATOM     44  N   UNL A   1      40.592  30.175  31.859  1.00  0.00    -0.248 NA
ATOM     45  C   UNL A   1      38.407  30.984  31.928  1.00  0.00     0.031 C 
ATOM     46  C   UNL A   1      39.716  28.053  28.059  1.00  0.00     0.029 A 
ATOM     47  N   UNL A   1      41.006  28.139  29.874  1.00  0.00    -0.354 N 
ATOM     48  C   UNL A   1      40.417  30.918  33.023  1.00  0.00     0.074 A 
ATOM     49  C   UNL A   1      39.061  31.426  32.994  1.00  0.00     0.031 C 
ATOM     50  C   UNL A   1      40.559  27.014  27.999  1.00  0.00     0.029 A 
ATOM     51  C   UNL A   1      41.487  27.092  29.121  1.00  0.00     0.049 A 
ATOM     52  H   UNL A   1      41.407  28.414  30.730  1.00  0.00     0.167 HD
ATOM     53  C   UNL A   1      41.307  31.166  34.016  1.00  0.00     0.031 A 
ATOM     54  C   UNL A   1      42.588  26.323  29.249  1.00  0.00     0.031 A 
ATOM     55  C   UNL A   1      42.612  30.562  34.117  1.00  0.00     0.049 A 
ATOM     56  C   UNL A   1      43.584  26.629  30.330  1.00  0.00     0.074 A 
ATOM     57  C   UNL A   1      43.591  30.778  35.072  1.00  0.00     0.029 A 
ATOM     58  N   UNL A   1      43.097  29.581  33.268  1.00  0.00    -0.354 N 
ATOM     59  N   UNL A   1      43.502  27.501  31.303  1.00  0.00    -0.248 NA
ATOM     60  C   UNL A   1      44.854  25.887  30.289  1.00  0.00     0.031 C 
ATOM     61  C   UNL A   1      44.682  29.952  34.783  1.00  0.00     0.029 A 
ATOM     62  C   UNL A   1      44.363  29.187  33.674  1.00  0.00     0.049 A 
ATOM     63  H   UNL A   1      42.615  29.217  32.492  1.00  0.00     0.167 HD
ATOM     64  C   UNL A   1      44.716  27.430  31.976  1.00  0.00     0.074 A 
ATOM     65  C   UNL A   1      45.500  26.401  31.327  1.00  0.00     0.031 C 
ATOM     66  C   UNL A   1      45.148  28.173  33.023  1.00  0.00     0.031 A 
BRANCH  53  67
ATOM     67  C   UNL A   1      40.941  32.202  35.047  1.00  0.00    -0.014 A 
ATOM     68  C   UNL A   1      40.320  31.869  36.262  1.00  0.00     0.010 A 
ATOM     69  C   UNL A   1      41.301  33.543  34.807  1.00  0.00     0.010 A 
ATOM     70  C   UNL A   1      40.039  32.864  37.205  1.00  0.00     0.020 A 
ATOM     71  C   UNL A   1      41.046  34.535  35.757  1.00  0.00     0.020 A 
ATOM     72  C   UNL A   1      40.401  34.191  36.945  1.00  0.00     0.054 A 
BRANCH  72  73
ATOM     73  S   UNL A   1      40.060  35.458  38.199  1.00  0.00     0.124 S 
ATOM     74  O   UNL A   1      41.263  35.395  39.026  1.00  0.00    -0.237 OA
ATOM     75  O   UNL A   1      39.911  36.672  37.400  1.00  0.00    -0.237 OA
ATOM     76  O   UNL A   1      38.836  34.988  38.844  1.00  0.00    -0.744 OA
ENDBRANCH  72  73
ENDBRANCH  53  67
BRANCH  54  77
ATOM     77  C   UNL A   1      42.878  25.265  28.239  1.00  0.00    -0.014 A 
ATOM     78  C   UNL A   1      43.635  25.553  27.090  1.00  0.00     0.010 A 
ATOM     79  C   UNL A   1      42.406  23.953  28.435  1.00  0.00     0.010 A 
ATOM     80  C   UNL A   1      43.922  24.545  26.163  1.00  0.00     0.020 A 
ATOM     81  C   UNL A   1      42.725  22.937  27.533  1.00  0.00     0.020 A 
ATOM     82  C   UNL A   1      43.473  23.241  26.396  1.00  0.00     0.054 A 
BRANCH  82  83
ATOM     83  S   UNL A   1      43.932  21.921  25.240  1.00  0.00     0.124 S 
ATOM     84  O   UNL A   1      43.793  22.588  23.950  1.00  0.00    -0.237 OA
ATOM     85  O   UNL A   1      45.299  21.598  25.643  1.00  0.00    -0.237 OA
ATOM     86  O   UNL A   1      42.949  20.876  25.517  1.00  0.00    -0.744 OA
ENDBRANCH  82  83
ENDBRANCH  54  77
BRANCH  66  87
ATOM     87  C   UNL A   1      46.534  27.897  33.543  1.00  0.00    -0.014 A 
ATOM     88  C   UNL A   1      46.747  26.945  34.556  1.00  0.00     0.010 A 
ATOM     89  C   UNL A   1      47.638  28.569  32.991  1.00  0.00     0.010 A 
ATOM     90  C   UNL A   1      48.037  26.691  35.029  1.00  0.00     0.020 A 
ATOM     91  C   UNL A   1      48.933  28.304  33.447  1.00  0.00     0.020 A 
ATOM     92  C   UNL A   1      49.122  27.376  34.474  1.00  0.00     0.054 A 
BRANCH  92  93
ATOM     93  S   UNL A   1      50.792  27.009  35.082  1.00  0.00     0.124 S 
ATOM     94  O   UNL A   1      51.088  25.745  34.413  1.00  0.00    -0.237 OA
ATOM     95  O   UNL A   1      51.564  28.160  34.618  1.00  0.00    -0.237 OA
ATOM     96  O   UNL A   1      50.623  26.924  36.530  1.00  0.00    -0.744 OA
ENDBRANCH  92  93
ENDBRANCH  66  87
ENDBRANCH  40  41
ENDBRANCH  33  35
ENDBRANCH  32  33
ENDBRANCH  31  32
ENDBRANCH   1  31
TORSDOF 20
ENDMDL
MODEL 3
REMARK VINA RESULT:     -11.2      1.365      7.929
REMARK SMILES COc1ccc(CCN2C(=O)CC[C@@H](C(=O)OCCOC(=O)c3ccc(-c4c5nc(c(-c6ccc(S(=O)(=O)[O-])cc6)c6ccc([nH]6)c(-c6ccc(S(=O)(=O)[O-])cc6)c6nc(c(-c7ccc(S(=O)(=O)[O-])cc7)c7ccc4[nH]7)C=C6)C=C5)cc3)[C@@H]2c2ccc(Cl)cc2)cc1OC
REMARK SMILES IDX 18 1 17 2 15 3 16 4 14 5 9 6 10 7 83 8 11 9 12 10 13 11 8 12
REMARK SMILES IDX 7 13 6 14 3 15 4 16 92 17 5 18 91 19 2 20 1 21 93 22 94 23
REMARK SMILES IDX 84 24 85 25 90 26 86 27 89 28 87 29 88 30 19 31 20 32 21 33
REMARK SMILES IDX 22 34 23 35 24 36 82 37 25 38 81 39 26 40 27 41 28 42 75 43
REMARK SMILES IDX 29 44 80 45 74 46 76 47 30 48 79 49 73 50 72 51 31 53 61 54
REMARK SMILES IDX 42 55 60 56 43 57 46 58 59 59 77 60 44 61 45 62 58 64 78 65
REMARK SMILES IDX 47 66 32 67 33 68 41 69 34 70 40 71 35 72 36 73 37 74 38 75
REMARK SMILES IDX 39 76 62 77 63 78 71 79 64 80 70 81 65 82 66 83 67 84 68 85
REMARK SMILES IDX 69 86 48 87 49 88 57 89 50 90 56 91 51 92 52 93 53 94 54 95
REMARK SMILES IDX 55 96
REMARK H PARENT 76 52 46 63
REMARK Flexibility Score: inf
ROOT
ATOM      1  C   UNL A   1      34.300  30.275  26.901  1.00  0.00     0.274 C 
ENDROOT
BRANCH   1   2
ATOM      2  O   UNL A   1      33.366  29.178  27.004  1.00  0.00    -0.462 OA
BRANCH   2   3
ATOM      3  C   UNL A   1      32.722  28.809  25.859  1.00  0.00     0.311 C 
ATOM      4  O   UNL A   1      31.548  29.055  25.617  1.00  0.00    -0.252 OA
BRANCH   3   5
ATOM      5  C   UNL A   1      33.595  27.892  25.012  1.00  0.00     0.127 C 
ATOM      6  N   UNL A   1      31.858  26.469  23.845  1.00  0.00    -0.334 N 
ATOM      7  C   UNL A   1      31.694  27.470  22.899  1.00  0.00     0.223 C 
ATOM      8  C   UNL A   1      32.961  26.487  24.855  1.00  0.00     0.129 C 
ATOM      9  O   UNL A   1      30.694  27.584  22.190  1.00  0.00    -0.275 OA
ATOM     10  C   UNL A   1      32.775  28.511  22.722  1.00  0.00     0.101 C 
ATOM     11  C   UNL A   1      33.966  28.433  23.642  1.00  0.00     0.028 C 
BRANCH   6  12
ATOM     12  C   UNL A   1      30.766  25.487  24.085  1.00  0.00     0.125 C 
BRANCH  12  13
ATOM     13  C   UNL A   1      30.563  24.292  23.114  1.00  0.00     0.057 C 
BRANCH  13  14
ATOM     14  C   UNL A   1      31.259  23.032  23.567  1.00  0.00    -0.042 A 
ATOM     15  C   UNL A   1      32.937  20.921  24.363  1.00  0.00     0.160 A 
ATOM     16  C   UNL A   1      32.513  21.025  23.033  1.00  0.00     0.051 A 
ATOM     17  C   UNL A   1      32.457  21.831  25.316  1.00  0.00     0.160 A 
ATOM     18  C   UNL A   1      31.654  22.056  22.646  1.00  0.00     0.008 A 
ATOM     19  C   UNL A   1      31.630  22.883  24.910  1.00  0.00     0.054 A 
BRANCH  15  20
ATOM     20  O   UNL A   1      33.917  20.037  24.734  1.00  0.00    -0.493 OA
ATOM     21  C   UNL A   1      33.469  18.703  24.938  1.00  0.00     0.278 C 
ENDBRANCH  15  20
BRANCH  17  22
ATOM     22  O   UNL A   1      32.769  21.856  26.652  1.00  0.00    -0.493 OA
ATOM     23  C   UNL A   1      32.114  22.854  27.425  1.00  0.00     0.278 C 
ENDBRANCH  17  22
ENDBRANCH  13  14
ENDBRANCH  12  13
ENDBRANCH   6  12
BRANCH   8  24
ATOM     24  C   UNL A   1      34.024  25.383  24.654  1.00  0.00    -0.024 A 
ATOM     25  C   UNL A   1      34.268  24.800  23.404  1.00  0.00     0.007 A 
ATOM     26  C   UNL A   1      34.719  24.834  25.747  1.00  0.00     0.007 A 
ATOM     27  C   UNL A   1      35.142  23.720  23.233  1.00  0.00     0.021 A 
ATOM     28  C   UNL A   1      35.629  23.780  25.582  1.00  0.00     0.021 A 
ATOM     29  C   UNL A   1      35.829  23.220  24.327  1.00  0.00     0.041 A 
ATOM     30  Cl  UNL A   1      36.911  21.898  24.134  1.00  0.00    -0.084 Cl
ENDBRANCH   8  24
ENDBRANCH   3   5
ENDBRANCH   2   3
ENDBRANCH   1   2
BRANCH   1  31
ATOM     31  C   UNL A   1      35.094  30.434  28.195  1.00  0.00     0.275 C 
BRANCH  31  32
ATOM     32  O   UNL A   1      35.961  29.300  28.336  1.00  0.00    -0.458 OA
BRANCH  32  33
ATOM     33  C   UNL A   1      36.841  29.317  29.362  1.00  0.00     0.338 C 
ATOM     34  O   UNL A   1      36.573  29.525  30.541  1.00  0.00    -0.246 OA
BRANCH  33  35
ATOM     35  C   UNL A   1      38.200  28.998  28.859  1.00  0.00     0.060 A 
ATOM     36  C   UNL A   1      39.143  28.421  29.702  1.00  0.00     0.016 A 
ATOM     37  C   UNL A   1      38.582  29.356  27.563  1.00  0.00     0.016 A 
ATOM     38  C   UNL A   1      40.467  28.305  29.285  1.00  0.00     0.010 A 
ATOM     39  C   UNL A   1      39.908  29.159  27.130  1.00  0.00     0.010 A 
ATOM     40  C   UNL A   1      40.899  28.681  28.006  1.00  0.00    -0.014 A 
BRANCH  40  41
ATOM     41  C   UNL A   1      42.367  28.677  27.654  1.00  0.00     0.031 A 
ATOM     42  C   UNL A   1      42.988  27.486  26.947  1.00  0.00     0.074 A 
ATOM     43  C   UNL A   1      43.168  29.753  27.839  1.00  0.00     0.049 A 
ATOM     44  N   UNL A   1      44.256  27.171  26.821  1.00  0.00    -0.248 NA
ATOM     45  C   UNL A   1      42.074  26.520  26.319  1.00  0.00     0.031 C 
ATOM     46  C   UNL A   1      42.765  31.045  28.395  1.00  0.00     0.029 A 
ATOM     47  N   UNL A   1      44.497  29.947  27.523  1.00  0.00    -0.354 N 
ATOM     48  C   UNL A   1      44.282  25.920  26.212  1.00  0.00     0.074 A 
ATOM     49  C   UNL A   1      42.905  25.549  25.960  1.00  0.00     0.031 C 
ATOM     50  C   UNL A   1      43.767  31.925  28.256  1.00  0.00     0.029 A 
ATOM     51  C   UNL A   1      44.952  31.221  27.781  1.00  0.00     0.049 A 
ATOM     52  H   UNL A   1      45.068  29.239  27.148  1.00  0.00     0.167 HD
ATOM     53  C   UNL A   1      45.353  25.145  25.906  1.00  0.00     0.031 A 
ATOM     54  C   UNL A   1      46.186  31.764  27.728  1.00  0.00     0.031 A 
ATOM     55  C   UNL A   1      46.727  25.558  26.034  1.00  0.00     0.049 A 
ATOM     56  C   UNL A   1      47.368  30.889  27.422  1.00  0.00     0.074 A 
ATOM     57  C   UNL A   1      47.875  24.827  25.776  1.00  0.00     0.029 A 
ATOM     58  N   UNL A   1      47.140  26.828  26.400  1.00  0.00    -0.354 N 
ATOM     59  N   UNL A   1      47.390  29.630  27.063  1.00  0.00    -0.248 NA
ATOM     60  C   UNL A   1      48.699  31.496  27.581  1.00  0.00     0.031 C 
ATOM     61  C   UNL A   1      48.984  25.646  26.017  1.00  0.00     0.029 A 
ATOM     62  C   UNL A   1      48.524  26.901  26.380  1.00  0.00     0.049 A 
ATOM     63  H   UNL A   1      46.540  27.570  26.639  1.00  0.00     0.167 HD
ATOM     64  C   UNL A   1      48.734  29.288  26.974  1.00  0.00     0.074 A 
ATOM     65  C   UNL A   1      49.496  30.481  27.275  1.00  0.00     0.031 C 
ATOM     66  C   UNL A   1      49.284  28.082  26.691  1.00  0.00     0.031 A 
BRANCH  53  67
ATOM     67  C   UNL A   1      45.092  23.726  25.471  1.00  0.00    -0.014 A 
ATOM     68  C   UNL A   1      45.133  23.331  24.124  1.00  0.00     0.010 A 
ATOM     69  C   UNL A   1      44.871  22.750  26.464  1.00  0.00     0.010 A 
ATOM     70  C   UNL A   1      44.927  21.991  23.776  1.00  0.00     0.020 A 
ATOM     71  C   UNL A   1      44.691  21.408  26.123  1.00  0.00     0.020 A 
ATOM     72  C   UNL A   1      44.704  21.039  24.778  1.00  0.00     0.054 A 
BRANCH  72  73
ATOM     73  S   UNL A   1      44.475  19.301  24.306  1.00  0.00     0.124 S 
ATOM     74  O   UNL A   1      43.141  19.021  24.831  1.00  0.00    -0.237 OA
ATOM     75  O   UNL A   1      44.580  19.345  22.850  1.00  0.00    -0.237 OA
ATOM     76  O   UNL A   1      45.569  18.610  24.985  1.00  0.00    -0.744 OA
ENDBRANCH  72  73
ENDBRANCH  53  67
BRANCH  54  77
ATOM     77  C   UNL A   1      46.387  33.192  28.106  1.00  0.00    -0.014 A 
ATOM     78  C   UNL A   1      46.611  33.559  29.443  1.00  0.00     0.010 A 
ATOM     79  C   UNL A   1      46.369  34.193  27.116  1.00  0.00     0.010 A 
ATOM     80  C   UNL A   1      46.825  34.901  29.781  1.00  0.00     0.020 A 
ATOM     81  C   UNL A   1      46.621  35.525  27.444  1.00  0.00     0.020 A 
ATOM     82  C   UNL A   1      46.838  35.873  28.777  1.00  0.00     0.054 A 
BRANCH  82  83
ATOM     83  S   UNL A   1      47.212  37.595  29.209  1.00  0.00     0.124 S 
ATOM     84  O   UNL A   1      45.887  38.123  29.518  1.00  0.00    -0.237 OA
ATOM     85  O   UNL A   1      48.119  37.454  30.346  1.00  0.00    -0.237 OA
ATOM     86  O   UNL A   1      47.830  38.120  27.994  1.00  0.00    -0.744 OA
ENDBRANCH  82  83
ENDBRANCH  54  77
BRANCH  66  87
ATOM     87  C   UNL A   1      50.786  27.990  26.687  1.00  0.00    -0.014 A 
ATOM     88  C   UNL A   1      51.487  27.599  27.841  1.00  0.00     0.010 A 
ATOM     89  C   UNL A   1      51.502  28.264  25.509  1.00  0.00     0.010 A 
ATOM     90  C   UNL A   1      52.882  27.511  27.827  1.00  0.00     0.020 A 
ATOM     91  C   UNL A   1      52.897  28.158  25.484  1.00  0.00     0.020 A 
ATOM     92  C   UNL A   1      53.578  27.796  26.648  1.00  0.00     0.054 A 
BRANCH  92  93
ATOM     93  S   UNL A   1      55.387  27.646  26.643  1.00  0.00     0.124 S 
ATOM     94  O   UNL A   1      55.621  26.744  27.768  1.00  0.00    -0.237 OA
ATOM     95  O   UNL A   1      55.660  27.085  25.321  1.00  0.00    -0.237 OA
ATOM     96  O   UNL A   1      55.849  29.018  26.837  1.00  0.00    -0.744 OA
ENDBRANCH  92  93
ENDBRANCH  66  87
ENDBRANCH  40  41
ENDBRANCH  33  35
ENDBRANCH  32  33
ENDBRANCH  31  32
ENDBRANCH   1  31
TORSDOF 20
ENDMDL
