MODEL 1
REMARK VINA RESULT:     -10.8      0.000      0.000
REMARK SMILES C[C@@H](C(=O)OCCOC(=O)c1ccc(-c2c3nc(c(-c4ccc(S(=O)(=O)[O-])cc4)c4ccc([nH]4)c(-c4ccc(S(=O)(=O)[O-])cc4)c4nc(c(-c5ccc(S(=O)(=O)[O-])cc5)c5ccc2[nH]5)C=C4)C=C3)cc1)c1ccc(C[C@H]2CCC[C@H]2O)cc1
REMARK SMILES IDX 6 1 5 2 3 3 4 4 2 5 1 6 71 7 72 8 83 9 73 10 82 11 74 12
REMARK SMILES IDX 75 13 76 14 77 15 80 16 78 17 79 18 81 19 7 21 8 22 9 23
REMARK SMILES IDX 10 24 11 25 12 26 70 27 13 28 69 29 14 30 15 31 16 32 63 33
REMARK SMILES IDX 17 34 68 35 62 36 64 37 18 38 67 39 61 40 60 41 19 43 49 44
REMARK SMILES IDX 30 45 48 46 31 47 34 48 47 49 65 50 32 51 33 52 46 54 66 55
REMARK SMILES IDX 35 56 20 57 21 58 29 59 22 60 28 61 23 62 24 63 25 64 26 65
REMARK SMILES IDX 27 66 50 67 51 68 59 69 52 70 58 71 53 72 54 73 55 74 56 75
REMARK SMILES IDX 57 76 36 77 37 78 45 79 38 80 44 81 39 82 40 83 41 84 42 85
REMARK SMILES IDX 43 86
REMARK H PARENT 81 20 64 42 34 53
REMARK Flexibility Score: inf
ROOT
ATOM      1  C   UNL A   1      32.966  28.188  25.357  1.00  0.00     0.274 C 
ENDROOT
BRANCH   1   2
ATOM      2  O   UNL A   1      32.980  26.756  25.537  1.00  0.00    -0.462 OA
BRANCH   2   3
ATOM      3  C   UNL A   1      32.729  26.013  24.421  1.00  0.00     0.313 C 
ATOM      4  O   UNL A   1      33.367  26.111  23.384  1.00  0.00    -0.252 OA
BRANCH   3   5
ATOM      5  C   UNL A   1      31.475  25.135  24.594  1.00  0.00     0.126 C 
ATOM      6  C   UNL A   1      30.553  25.616  25.715  1.00  0.00     0.025 C 
BRANCH   5   7
ATOM      7  C   UNL A   1      31.870  23.669  24.724  1.00  0.00    -0.034 A 
ATOM      8  C   UNL A   1      32.424  23.125  25.888  1.00  0.00     0.005 A 
ATOM      9  C   UNL A   1      31.787  22.855  23.587  1.00  0.00     0.005 A 
ATOM     10  C   UNL A   1      32.983  21.838  25.878  1.00  0.00     0.004 A 
ATOM     11  C   UNL A   1      32.328  21.573  23.587  1.00  0.00     0.004 A 
ATOM     12  C   UNL A   1      33.012  21.080  24.700  1.00  0.00    -0.048 A 
BRANCH  12  13
ATOM     13  C   UNL A   1      33.787  19.783  24.569  1.00  0.00     0.041 C 
BRANCH  13  14
ATOM     14  C   UNL A   1      32.993  18.496  24.201  1.00  0.00     0.022 C 
ATOM     15  C   UNL A   1      33.612  17.564  23.127  1.00  0.00     0.007 C 
ATOM     16  C   UNL A   1      32.701  17.541  25.359  1.00  0.00     0.117 C 
ATOM     17  C   UNL A   1      33.837  16.204  23.792  1.00  0.00     0.003 C 
ATOM     18  C   UNL A   1      33.836  16.526  25.268  1.00  0.00     0.032 C 
BRANCH  16  19
ATOM     19  O   UNL A   1      32.528  18.167  26.606  1.00  0.00    -0.393 OA
ATOM     20  H   UNL A   1      31.874  17.675  27.127  1.00  0.00     0.210 HD
ENDBRANCH  16  19
ENDBRANCH  13  14
ENDBRANCH  12  13
ENDBRANCH   5   7
ENDBRANCH   3   5
ENDBRANCH   2   3
ENDBRANCH   1   2
BRANCH   1  21
ATOM     21  C   UNL A   1      32.794  28.906  26.696  1.00  0.00     0.275 C 
BRANCH  21  22
ATOM     22  O   UNL A   1      34.002  28.823  27.486  1.00  0.00    -0.458 OA
BRANCH  22  23
ATOM     23  C   UNL A   1      34.554  29.996  27.874  1.00  0.00     0.338 C 
ATOM     24  O   UNL A   1      33.981  31.072  28.000  1.00  0.00    -0.246 OA
BRANCH  23  25
ATOM     25  C   UNL A   1      35.968  29.792  28.250  1.00  0.00     0.060 A 
ATOM     26  C   UNL A   1      36.913  29.954  27.251  1.00  0.00     0.016 A 
ATOM     27  C   UNL A   1      36.380  29.328  29.507  1.00  0.00     0.016 A 
ATOM     28  C   UNL A   1      38.254  29.667  27.519  1.00  0.00     0.010 A 
ATOM     29  C   UNL A   1      37.758  29.105  29.781  1.00  0.00     0.010 A 
ATOM     30  C   UNL A   1      38.729  29.302  28.791  1.00  0.00    -0.014 A 
BRANCH  30  31
ATOM     31  C   UNL A   1      40.216  29.061  28.946  1.00  0.00     0.031 A 
ATOM     32  C   UNL A   1      40.810  27.799  28.367  1.00  0.00     0.074 A 
ATOM     33  C   UNL A   1      41.087  30.009  29.376  1.00  0.00     0.049 A 
ATOM     34  N   UNL A   1      42.068  27.441  28.269  1.00  0.00    -0.248 NA
ATOM     35  C   UNL A   1      39.859  26.804  27.852  1.00  0.00     0.031 C 
ATOM     36  C   UNL A   1      40.723  31.324  29.887  1.00  0.00     0.029 A 
ATOM     37  N   UNL A   1      42.476  30.066  29.307  1.00  0.00    -0.354 N 
ATOM     38  C   UNL A   1      42.056  26.153  27.753  1.00  0.00     0.074 A 
ATOM     39  C   UNL A   1      40.670  25.821  27.487  1.00  0.00     0.031 C 
ATOM     40  C   UNL A   1      41.812  32.118  29.876  1.00  0.00     0.029 A 
ATOM     41  C   UNL A   1      42.987  31.347  29.461  1.00  0.00     0.049 A 
ATOM     42  H   UNL A   1      43.041  29.274  29.163  1.00  0.00     0.167 HD
ATOM     43  C   UNL A   1      43.091  25.291  27.591  1.00  0.00     0.031 A 
ATOM     44  C   UNL A   1      44.232  31.849  29.249  1.00  0.00     0.031 A 
ATOM     45  C   UNL A   1      44.471  25.589  27.872  1.00  0.00     0.049 A 
ATOM     46  C   UNL A   1      45.383  30.890  29.012  1.00  0.00     0.074 A 
ATOM     47  C   UNL A   1      45.550  24.720  27.915  1.00  0.00     0.029 A 
ATOM     48  N   UNL A   1      44.970  26.852  28.136  1.00  0.00    -0.354 N 
ATOM     49  N   UNL A   1      45.356  29.615  28.713  1.00  0.00    -0.248 NA
ATOM     50  C   UNL A   1      46.748  31.430  29.182  1.00  0.00     0.031 C 
ATOM     51  C   UNL A   1      46.695  25.452  28.252  1.00  0.00     0.029 A 
ATOM     52  C   UNL A   1      46.337  26.785  28.356  1.00  0.00     0.049 A 
ATOM     53  H   UNL A   1      44.432  27.677  28.164  1.00  0.00     0.167 HD
ATOM     54  C   UNL A   1      46.685  29.191  28.734  1.00  0.00     0.074 A 
ATOM     55  C   UNL A   1      47.502  30.358  28.971  1.00  0.00     0.031 C 
ATOM     56  C   UNL A   1      47.169  27.929  28.628  1.00  0.00     0.031 A 
BRANCH  43  57
ATOM     57  C   UNL A   1      42.724  23.872  27.270  1.00  0.00    -0.014 A 
ATOM     58  C   UNL A   1      42.286  22.965  28.248  1.00  0.00     0.010 A 
ATOM     59  C   UNL A   1      42.857  23.443  25.936  1.00  0.00     0.010 A 
ATOM     60  C   UNL A   1      42.033  21.635  27.901  1.00  0.00     0.020 A 
ATOM     61  C   UNL A   1      42.581  22.125  25.581  1.00  0.00     0.020 A 
ATOM     62  C   UNL A   1      42.192  21.222  26.572  1.00  0.00     0.054 A 
BRANCH  62  63
ATOM     63  S   UNL A   1      41.886  19.486  26.148  1.00  0.00     0.124 S 
ATOM     64  O   UNL A   1      42.772  19.298  25.001  1.00  0.00    -0.237 OA
ATOM     65  O   UNL A   1      42.277  18.785  27.367  1.00  0.00    -0.237 OA
ATOM     66  O   UNL A   1      40.457  19.450  25.842  1.00  0.00    -0.744 OA
ENDBRANCH  62  63
ENDBRANCH  43  57
BRANCH  44  67
ATOM     67  C   UNL A   1      44.534  33.324  29.300  1.00  0.00    -0.014 A 
ATOM     68  C   UNL A   1      44.782  33.968  30.535  1.00  0.00     0.010 A 
ATOM     69  C   UNL A   1      44.495  34.123  28.144  1.00  0.00     0.010 A 
ATOM     70  C   UNL A   1      44.968  35.358  30.609  1.00  0.00     0.020 A 
ATOM     71  C   UNL A   1      44.731  35.502  28.205  1.00  0.00     0.020 A 
ATOM     72  C   UNL A   1      44.948  36.117  29.438  1.00  0.00     0.054 A 
BRANCH  72  73
ATOM     73  S   UNL A   1      45.254  37.907  29.516  1.00  0.00     0.124 S 
ATOM     74  O   UNL A   1      43.955  38.420  29.941  1.00  0.00    -0.237 OA
ATOM     75  O   UNL A   1      46.328  38.012  30.501  1.00  0.00    -0.237 OA
ATOM     76  O   UNL A   1      45.642  38.239  28.147  1.00  0.00    -0.744 OA
ENDBRANCH  72  73
ENDBRANCH  44  67
BRANCH  56  77
ATOM     77  C   UNL A   1      48.648  27.711  28.845  1.00  0.00    -0.014 A 
ATOM     78  C   UNL A   1      49.548  27.795  27.765  1.00  0.00     0.010 A 
ATOM     79  C   UNL A   1      49.160  27.494  30.137  1.00  0.00     0.010 A 
ATOM     80  C   UNL A   1      50.923  27.638  27.967  1.00  0.00     0.020 A 
ATOM     81  C   UNL A   1      50.538  27.356  30.347  1.00  0.00     0.020 A 
ATOM     82  C   UNL A   1      51.411  27.417  29.257  1.00  0.00     0.054 A 
BRANCH  82  83
ATOM     83  S   UNL A   1      53.204  27.254  29.498  1.00  0.00     0.124 S 
ATOM     84  O   UNL A   1      53.281  26.286  30.588  1.00  0.00    -0.237 OA
ATOM     85  O   UNL A   1      53.661  26.771  28.197  1.00  0.00    -0.237 OA
ATOM     86  O   UNL A   1      53.633  28.609  29.837  1.00  0.00    -0.744 OA
ENDBRANCH  82  83
ENDBRANCH  56  77
ENDBRANCH  30  31
ENDBRANCH  23  25
ENDBRANCH  22  23
ENDBRANCH  21  22
ENDBRANCH   1  21
TORSDOF 18
ENDMDL
MODEL 2
REMARK VINA RESULT:     -10.8      1.438      2.174
REMARK SMILES C[C@@H](C(=O)OCCOC(=O)c1ccc(-c2c3nc(c(-c4ccc(S(=O)(=O)[O-])cc4)c4ccc([nH]4)c(-c4ccc(S(=O)(=O)[O-])cc4)c4nc(c(-c5ccc(S(=O)(=O)[O-])cc5)c5ccc2[nH]5)C=C4)C=C3)cc1)c1ccc(C[C@H]2CCC[C@H]2O)cc1
REMARK SMILES IDX 6 1 5 2 3 3 4 4 2 5 1 6 71 7 72 8 83 9 73 10 82 11 74 12
REMARK SMILES IDX 75 13 76 14 77 15 80 16 78 17 79 18 81 19 7 21 8 22 9 23
REMARK SMILES IDX 10 24 11 25 12 26 70 27 13 28 69 29 14 30 15 31 16 32 63 33
REMARK SMILES IDX 17 34 68 35 62 36 64 37 18 38 67 39 61 40 60 41 19 43 49 44
REMARK SMILES IDX 30 45 48 46 31 47 34 48 47 49 65 50 32 51 33 52 46 54 66 55
REMARK SMILES IDX 35 56 20 57 21 58 29 59 22 60 28 61 23 62 24 63 25 64 26 65
REMARK SMILES IDX 27 66 50 67 51 68 59 69 52 70 58 71 53 72 54 73 55 74 56 75
REMARK SMILES IDX 57 76 36 77 37 78 45 79 38 80 44 81 39 82 40 83 41 84 42 85
REMARK SMILES IDX 43 86
REMARK H PARENT 81 20 64 42 34 53
REMARK Flexibility Score: inf
ROOT
ATOM      1  C   UNL A   1      32.008  27.824  26.290  1.00  0.00     0.274 C 
ENDROOT
BRANCH   1   2
ATOM      2  O   UNL A   1      31.245  28.532  25.291  1.00  0.00    -0.462 OA
BRANCH   2   3
ATOM      3  C   UNL A   1      31.790  28.569  24.040  1.00  0.00     0.313 C 
ATOM      4  O   UNL A   1      32.841  29.133  23.776  1.00  0.00    -0.252 OA
BRANCH   3   5
ATOM      5  C   UNL A   1      30.858  27.925  22.996  1.00  0.00     0.126 C 
ATOM      6  C   UNL A   1      29.389  28.302  23.186  1.00  0.00     0.025 C 
BRANCH   5   7
ATOM      7  C   UNL A   1      31.094  26.421  22.936  1.00  0.00    -0.034 A 
ATOM      8  C   UNL A   1      30.377  25.501  23.712  1.00  0.00     0.005 A 
ATOM      9  C   UNL A   1      32.156  25.945  22.157  1.00  0.00     0.005 A 
ATOM     10  C   UNL A   1      30.789  24.163  23.792  1.00  0.00     0.004 A 
ATOM     11  C   UNL A   1      32.550  24.612  22.228  1.00  0.00     0.004 A 
ATOM     12  C   UNL A   1      31.933  23.724  23.111  1.00  0.00    -0.048 A 
BRANCH  12  13
ATOM     13  C   UNL A   1      32.550  22.355  23.326  1.00  0.00     0.041 C 
BRANCH  13  14
ATOM     14  C   UNL A   1      33.442  22.149  24.585  1.00  0.00     0.022 C 
ATOM     15  C   UNL A   1      34.026  23.420  25.255  1.00  0.00     0.007 C 
ATOM     16  C   UNL A   1      32.782  21.416  25.754  1.00  0.00     0.117 C 
ATOM     17  C   UNL A   1      33.496  23.452  26.690  1.00  0.00     0.003 C 
ATOM     18  C   UNL A   1      32.284  22.552  26.641  1.00  0.00     0.032 C 
BRANCH  16  19
ATOM     19  O   UNL A   1      31.824  20.457  25.379  1.00  0.00    -0.393 OA
ATOM     20  H   UNL A   1      32.007  19.622  25.837  1.00  0.00     0.210 HD
ENDBRANCH  16  19
ENDBRANCH  13  14
ENDBRANCH  12  13
ENDBRANCH   5   7
ENDBRANCH   3   5
ENDBRANCH   2   3
ENDBRANCH   1   2
BRANCH   1  21
ATOM     21  C   UNL A   1      32.507  28.777  27.376  1.00  0.00     0.275 C 
BRANCH  21  22
ATOM     22  O   UNL A   1      33.949  28.865  27.364  1.00  0.00    -0.458 OA
BRANCH  22  23
ATOM     23  C   UNL A   1      34.489  30.031  27.790  1.00  0.00     0.338 C 
ATOM     24  O   UNL A   1      33.917  31.110  27.895  1.00  0.00    -0.246 OA
BRANCH  23  25
ATOM     25  C   UNL A   1      35.880  29.814  28.236  1.00  0.00     0.060 A 
ATOM     26  C   UNL A   1      36.878  30.007  27.296  1.00  0.00     0.016 A 
ATOM     27  C   UNL A   1      36.223  29.311  29.498  1.00  0.00     0.016 A 
ATOM     28  C   UNL A   1      38.203  29.710  27.627  1.00  0.00     0.010 A 
ATOM     29  C   UNL A   1      37.584  29.079  29.840  1.00  0.00     0.010 A 
ATOM     30  C   UNL A   1      38.608  29.306  28.911  1.00  0.00    -0.014 A 
BRANCH  30  31
ATOM     31  C   UNL A   1      40.084  29.059  29.140  1.00  0.00     0.031 A 
ATOM     32  C   UNL A   1      40.706  27.806  28.572  1.00  0.00     0.074 A 
ATOM     33  C   UNL A   1      40.933  29.998  29.631  1.00  0.00     0.049 A 
ATOM     34  N   UNL A   1      41.966  27.446  28.533  1.00  0.00    -0.248 NA
ATOM     35  C   UNL A   1      39.782  26.821  27.991  1.00  0.00     0.031 C 
ATOM     36  C   UNL A   1      40.544  31.305  30.144  1.00  0.00     0.029 A 
ATOM     37  N   UNL A   1      42.323  30.053  29.635  1.00  0.00    -0.354 N 
ATOM     38  C   UNL A   1      41.980  26.167  27.996  1.00  0.00     0.074 A 
ATOM     39  C   UNL A   1      40.610  25.843  27.653  1.00  0.00     0.031 C 
ATOM     40  C   UNL A   1      41.633  32.097  30.202  1.00  0.00     0.029 A 
ATOM     41  C   UNL A   1      42.828  31.330  29.837  1.00  0.00     0.049 A 
ATOM     42  H   UNL A   1      42.894  29.262  29.508  1.00  0.00     0.167 HD
ATOM     43  C   UNL A   1      43.021  25.306  27.874  1.00  0.00     0.031 A 
ATOM     44  C   UNL A   1      44.083  31.833  29.699  1.00  0.00     0.031 A 
ATOM     45  C   UNL A   1      44.385  25.596  28.231  1.00  0.00     0.049 A 
ATOM     46  C   UNL A   1      45.244  30.875  29.506  1.00  0.00     0.074 A 
ATOM     47  C   UNL A   1      45.459  24.724  28.317  1.00  0.00     0.029 A 
ATOM     48  N   UNL A   1      44.871  26.853  28.542  1.00  0.00    -0.354 N 
ATOM     49  N   UNL A   1      45.230  29.605  29.185  1.00  0.00    -0.248 NA
ATOM     50  C   UNL A   1      46.598  31.409  29.756  1.00  0.00     0.031 C 
ATOM     51  C   UNL A   1      46.586  25.448  28.725  1.00  0.00     0.029 A 
ATOM     52  C   UNL A   1      46.224  26.779  28.833  1.00  0.00     0.049 A 
ATOM     53  H   UNL A   1      44.334  27.678  28.556  1.00  0.00     0.167 HD
ATOM     54  C   UNL A   1      46.555  29.178  29.268  1.00  0.00     0.074 A 
ATOM     55  C   UNL A   1      47.360  30.339  29.567  1.00  0.00     0.031 C 
ATOM     56  C   UNL A   1      47.043  27.917  29.167  1.00  0.00     0.031 A 
BRANCH  43  57
ATOM     57  C   UNL A   1      42.670  23.893  27.511  1.00  0.00    -0.014 A 
ATOM     58  C   UNL A   1      42.258  22.947  28.464  1.00  0.00     0.010 A 
ATOM     59  C   UNL A   1      42.789  23.510  26.162  1.00  0.00     0.010 A 
ATOM     60  C   UNL A   1      42.019  21.626  28.076  1.00  0.00     0.020 A 
ATOM     61  C   UNL A   1      42.526  22.201  25.767  1.00  0.00     0.020 A 
ATOM     62  C   UNL A   1      42.165  21.260  26.732  1.00  0.00     0.054 A 
BRANCH  62  63
ATOM     63  S   UNL A   1      41.877  19.536  26.254  1.00  0.00     0.124 S 
ATOM     64  O   UNL A   1      40.433  19.526  26.024  1.00  0.00    -0.237 OA
ATOM     65  O   UNL A   1      42.704  19.392  25.059  1.00  0.00    -0.237 OA
ATOM     66  O   UNL A   1      42.327  18.773  27.416  1.00  0.00    -0.744 OA
ENDBRANCH  62  63
ENDBRANCH  43  57
BRANCH  44  67
ATOM     67  C   UNL A   1      44.383  33.306  29.790  1.00  0.00    -0.014 A 
ATOM     68  C   UNL A   1      44.596  33.923  31.045  1.00  0.00     0.010 A 
ATOM     69  C   UNL A   1      44.377  34.129  28.651  1.00  0.00     0.010 A 
ATOM     70  C   UNL A   1      44.781  35.311  31.155  1.00  0.00     0.020 A 
ATOM     71  C   UNL A   1      44.612  35.507  28.748  1.00  0.00     0.020 A 
ATOM     72  C   UNL A   1      44.794  36.095  29.999  1.00  0.00     0.054 A 
BRANCH  72  73
ATOM     73  S   UNL A   1      45.098  37.883  30.125  1.00  0.00     0.124 S 
ATOM     74  O   UNL A   1      43.876  38.440  29.554  1.00  0.00    -0.237 OA
ATOM     75  O   UNL A   1      45.274  38.084  31.561  1.00  0.00    -0.237 OA
ATOM     76  O   UNL A   1      46.307  38.073  29.326  1.00  0.00    -0.744 OA
ENDBRANCH  72  73
ENDBRANCH  44  67
BRANCH  56  77
ATOM     77  C   UNL A   1      48.508  27.692  29.457  1.00  0.00    -0.014 A 
ATOM     78  C   UNL A   1      48.932  27.333  30.751  1.00  0.00     0.010 A 
ATOM     79  C   UNL A   1      49.464  27.766  28.428  1.00  0.00     0.010 A 
ATOM     80  C   UNL A   1      50.282  27.080  31.017  1.00  0.00     0.020 A 
ATOM     81  C   UNL A   1      50.814  27.494  28.685  1.00  0.00     0.020 A 
ATOM     82  C   UNL A   1      51.216  27.164  29.981  1.00  0.00     0.054 A 
BRANCH  82  83
ATOM     83  S   UNL A   1      52.958  26.795  30.344  1.00  0.00     0.124 S 
ATOM     84  O   UNL A   1      53.482  26.462  29.023  1.00  0.00    -0.237 OA
ATOM     85  O   UNL A   1      53.442  28.051  30.912  1.00  0.00    -0.237 OA
ATOM     86  O   UNL A   1      52.887  25.680  31.286  1.00  0.00    -0.744 OA
ENDBRANCH  82  83
ENDBRANCH  56  77
ENDBRANCH  30  31
ENDBRANCH  23  25
ENDBRANCH  22  23
ENDBRANCH  21  22
ENDBRANCH   1  21
TORSDOF 18
ENDMDL
MODEL 3
REMARK VINA RESULT:     -10.7      2.075      4.643
REMARK SMILES C[C@@H](C(=O)OCCOC(=O)c1ccc(-c2c3nc(c(-c4ccc(S(=O)(=O)[O-])cc4)c4ccc([nH]4)c(-c4ccc(S(=O)(=O)[O-])cc4)c4nc(c(-c5ccc(S(=O)(=O)[O-])cc5)c5ccc2[nH]5)C=C4)C=C3)cc1)c1ccc(C[C@H]2CCC[C@H]2O)cc1
REMARK SMILES IDX 6 1 5 2 3 3 4 4 2 5 1 6 71 7 72 8 83 9 73 10 82 11 74 12
REMARK SMILES IDX 75 13 76 14 77 15 80 16 78 17 79 18 81 19 7 21 8 22 9 23
REMARK SMILES IDX 10 24 11 25 12 26 70 27 13 28 69 29 14 30 15 31 16 32 63 33
REMARK SMILES IDX 17 34 68 35 62 36 64 37 18 38 67 39 61 40 60 41 19 43 49 44
REMARK SMILES IDX 30 45 48 46 31 47 34 48 47 49 65 50 32 51 33 52 46 54 66 55
REMARK SMILES IDX 35 56 20 57 21 58 29 59 22 60 28 61 23 62 24 63 25 64 26 65
REMARK SMILES IDX 27 66 50 67 51 68 59 69 52 70 58 71 53 72 54 73 55 74 56 75
REMARK SMILES IDX 57 76 36 77 37 78 45 79 38 80 44 81 39 82 40 83 41 84 42 85
REMARK SMILES IDX 43 86
REMARK H PARENT 81 20 64 42 34 53
REMARK Flexibility Score: inf
ROOT
ATOM      1  C   UNL A   1      32.379  27.156  26.639  1.00  0.00     0.274 C 
ENDROOT
BRANCH   1   2
ATOM      2  O   UNL A   1      32.688  25.871  26.063  1.00  0.00    -0.462 OA
BRANCH   2   3
ATOM      3  C   UNL A   1      31.722  24.914  26.185  1.00  0.00     0.313 C 
ATOM      4  O   UNL A   1      31.361  24.450  27.256  1.00  0.00    -0.252 OA
BRANCH   3   5
ATOM      5  C   UNL A   1      31.243  24.413  24.810  1.00  0.00     0.126 C 
ATOM      6  C   UNL A   1      32.213  23.430  24.155  1.00  0.00     0.025 C 
BRANCH   5   7
ATOM      7  C   UNL A   1      30.881  25.592  23.915  1.00  0.00    -0.034 A 
ATOM      8  C   UNL A   1      31.749  26.116  22.949  1.00  0.00     0.005 A 
ATOM      9  C   UNL A   1      29.672  26.259  24.150  1.00  0.00     0.005 A 
ATOM     10  C   UNL A   1      31.464  27.336  22.321  1.00  0.00     0.004 A 
ATOM     11  C   UNL A   1      29.386  27.462  23.512  1.00  0.00     0.004 A 
ATOM     12  C   UNL A   1      30.314  28.064  22.659  1.00  0.00    -0.048 A 
BRANCH  12  13
ATOM     13  C   UNL A   1      30.059  29.479  22.179  1.00  0.00     0.041 C 
BRANCH  13  14
ATOM     14  C   UNL A   1      28.880  30.265  22.824  1.00  0.00     0.022 C 
ATOM     15  C   UNL A   1      29.242  31.470  23.730  1.00  0.00     0.007 C 
ATOM     16  C   UNL A   1      27.865  30.861  21.848  1.00  0.00     0.117 C 
ATOM     17  C   UNL A   1      28.599  32.709  23.103  1.00  0.00     0.003 C 
ATOM     18  C   UNL A   1      28.352  32.295  21.672  1.00  0.00     0.032 C 
BRANCH  16  19
ATOM     19  O   UNL A   1      27.682  30.119  20.667  1.00  0.00    -0.393 OA
ATOM     20  H   UNL A   1      28.422  29.501  20.556  1.00  0.00     0.210 HD
ENDBRANCH  16  19
ENDBRANCH  13  14
ENDBRANCH  12  13
ENDBRANCH   5   7
ENDBRANCH   3   5
ENDBRANCH   2   3
ENDBRANCH   1   2
BRANCH   1  21
ATOM     21  C   UNL A   1      33.559  28.119  26.496  1.00  0.00     0.275 C 
BRANCH  21  22
ATOM     22  O   UNL A   1      33.880  28.734  27.764  1.00  0.00    -0.458 OA
BRANCH  22  23
ATOM     23  C   UNL A   1      34.535  29.918  27.714  1.00  0.00     0.338 C 
ATOM     24  O   UNL A   1      34.059  31.010  27.425  1.00  0.00    -0.246 OA
BRANCH  23  25
ATOM     25  C   UNL A   1      35.928  29.748  28.177  1.00  0.00     0.060 A 
ATOM     26  C   UNL A   1      36.929  29.952  27.243  1.00  0.00     0.016 A 
ATOM     27  C   UNL A   1      36.271  29.276  29.452  1.00  0.00     0.016 A 
ATOM     28  C   UNL A   1      38.258  29.698  27.593  1.00  0.00     0.010 A 
ATOM     29  C   UNL A   1      37.635  29.089  29.810  1.00  0.00     0.010 A 
ATOM     30  C   UNL A   1      38.662  29.328  28.887  1.00  0.00    -0.014 A 
BRANCH  30  31
ATOM     31  C   UNL A   1      40.142  29.126  29.135  1.00  0.00     0.031 A 
ATOM     32  C   UNL A   1      40.815  27.908  28.550  1.00  0.00     0.074 A 
ATOM     33  C   UNL A   1      40.950  30.082  29.659  1.00  0.00     0.049 A 
ATOM     34  N   UNL A   1      42.088  27.593  28.524  1.00  0.00    -0.248 NA
ATOM     35  C   UNL A   1      39.935  26.905  27.933  1.00  0.00     0.031 C 
ATOM     36  C   UNL A   1      40.508  31.364  30.194  1.00  0.00     0.029 A 
ATOM     37  N   UNL A   1      42.337  30.184  29.687  1.00  0.00    -0.354 N 
ATOM     38  C   UNL A   1      42.154  26.326  27.960  1.00  0.00     0.074 A 
ATOM     39  C   UNL A   1      40.801  25.964  27.588  1.00  0.00     0.031 C 
ATOM     40  C   UNL A   1      41.568  32.191  30.287  1.00  0.00     0.029 A 
ATOM     41  C   UNL A   1      42.794  31.474  29.925  1.00  0.00     0.049 A 
ATOM     42  H   UNL A   1      42.937  29.416  29.553  1.00  0.00     0.167 HD
ATOM     43  C   UNL A   1      43.225  25.504  27.836  1.00  0.00     0.031 A 
ATOM     44  C   UNL A   1      44.033  32.022  29.818  1.00  0.00     0.031 A 
ATOM     45  C   UNL A   1      44.572  25.833  28.222  1.00  0.00     0.049 A 
ATOM     46  C   UNL A   1      45.229  31.109  29.624  1.00  0.00     0.074 A 
ATOM     47  C   UNL A   1      45.674  24.996  28.305  1.00  0.00     0.029 A 
ATOM     48  N   UNL A   1      45.010  27.098  28.567  1.00  0.00    -0.354 N 
ATOM     49  N   UNL A   1      45.265  29.846  29.275  1.00  0.00    -0.248 NA
ATOM     50  C   UNL A   1      46.561  31.682  29.907  1.00  0.00     0.031 C 
ATOM     51  C   UNL A   1      46.769  25.749  28.747  1.00  0.00     0.029 A 
ATOM     52  C   UNL A   1      46.361  27.064  28.878  1.00  0.00     0.049 A 
ATOM     53  H   UNL A   1      44.445  27.905  28.590  1.00  0.00     0.167 HD
ATOM     54  C   UNL A   1      46.602  29.463  29.371  1.00  0.00     0.074 A 
ATOM     55  C   UNL A   1      47.362  30.644  29.708  1.00  0.00     0.031 C 
ATOM     56  C   UNL A   1      47.134  28.221  29.250  1.00  0.00     0.031 A 
BRANCH  43  57
ATOM     57  C   UNL A   1      42.928  24.089  27.437  1.00  0.00    -0.014 A 
ATOM     58  C   UNL A   1      42.970  23.655  26.102  1.00  0.00     0.010 A 
ATOM     59  C   UNL A   1      42.569  23.180  28.451  1.00  0.00     0.010 A 
ATOM     60  C   UNL A   1      42.609  22.342  25.785  1.00  0.00     0.020 A 
ATOM     61  C   UNL A   1      42.233  21.864  28.141  1.00  0.00     0.020 A 
ATOM     62  C   UNL A   1      42.233  21.460  26.806  1.00  0.00     0.054 A 
BRANCH  62  63
ATOM     63  S   UNL A   1      41.740  19.770  26.370  1.00  0.00     0.124 S 
ATOM     64  O   UNL A   1      42.506  19.542  25.146  1.00  0.00    -0.237 OA
ATOM     65  O   UNL A   1      42.172  19.001  27.534  1.00  0.00    -0.237 OA
ATOM     66  O   UNL A   1      40.293  19.865  26.190  1.00  0.00    -0.744 OA
ENDBRANCH  62  63
ENDBRANCH  43  57
BRANCH  44  67
ATOM     67  C   UNL A   1      44.281  33.502  29.946  1.00  0.00    -0.014 A 
ATOM     68  C   UNL A   1      44.343  34.116  31.219  1.00  0.00     0.010 A 
ATOM     69  C   UNL A   1      44.373  34.332  28.816  1.00  0.00     0.010 A 
ATOM     70  C   UNL A   1      44.477  35.508  31.352  1.00  0.00     0.020 A 
ATOM     71  C   UNL A   1      44.558  35.715  28.942  1.00  0.00     0.020 A 
ATOM     72  C   UNL A   1      44.590  36.299  30.208  1.00  0.00     0.054 A 
BRANCH  72  73
ATOM     73  S   UNL A   1      44.830  38.094  30.371  1.00  0.00     0.124 S 
ATOM     74  O   UNL A   1      44.418  38.577  29.057  1.00  0.00    -0.237 OA
ATOM     75  O   UNL A   1      43.942  38.442  31.478  1.00  0.00    -0.237 OA
ATOM     76  O   UNL A   1      46.256  38.215  30.666  1.00  0.00    -0.744 OA
ENDBRANCH  72  73
ENDBRANCH  44  67
BRANCH  56  77
ATOM     77  C   UNL A   1      48.601  28.040  29.559  1.00  0.00    -0.014 A 
ATOM     78  C   UNL A   1      49.568  28.186  28.545  1.00  0.00     0.010 A 
ATOM     79  C   UNL A   1      49.033  27.796  30.875  1.00  0.00     0.010 A 
ATOM     80  C   UNL A   1      50.931  28.064  28.833  1.00  0.00     0.020 A 
ATOM     81  C   UNL A   1      50.399  27.693  31.173  1.00  0.00     0.020 A 
ATOM     82  C   UNL A   1      51.339  27.815  30.147  1.00  0.00     0.054 A 
BRANCH  82  83
ATOM     83  S   UNL A   1      53.117  27.698  30.502  1.00  0.00     0.124 S 
ATOM     84  O   UNL A   1      53.179  28.118  31.898  1.00  0.00    -0.237 OA
ATOM     85  O   UNL A   1      53.401  26.285  30.259  1.00  0.00    -0.237 OA
ATOM     86  O   UNL A   1      53.724  28.622  29.546  1.00  0.00    -0.744 OA
ENDBRANCH  82  83
ENDBRANCH  56  77
ENDBRANCH  30  31
ENDBRANCH  23  25
ENDBRANCH  22  23
ENDBRANCH  21  22
ENDBRANCH   1  21
TORSDOF 18
ENDMDL
