MODEL 1
REMARK VINA RESULT:     -11.5      0.000      0.000
REMARK SMILES N#Cc1cnc2cc(C(=O)OCCOC(=O)c3ccc(-c4c5nc(c(-c6ccc(S(=O)(=O)[O-])cc6)c6ccc([nH]6)c(-c6ccc(S(=O)(=O)[O-])cc6)c6nc(c(-c7ccc(S(=O)(=O)[O-])cc7)c7ccc4[nH]7)C=C6)C=C5)cc3)[nH]c2c1
REMARK SMILES IDX 13 1 12 2 11 3 9 4 10 5 8 6 3 7 4 8 79 9 5 10 78 11 6 12
REMARK SMILES IDX 77 13 7 14 2 16 1 17 14 18 15 19 16 20 17 21 18 22 76 23
REMARK SMILES IDX 19 24 75 25 20 26 21 27 22 28 69 29 23 30 74 31 68 32 70 33
REMARK SMILES IDX 24 34 73 35 67 36 66 37 25 39 55 40 36 41 54 42 37 43 40 44
REMARK SMILES IDX 53 45 71 46 38 47 39 48 52 50 72 51 41 52 26 53 27 54 35 55
REMARK SMILES IDX 28 56 34 57 29 58 30 59 31 60 32 61 33 62 56 63 57 64 65 65
REMARK SMILES IDX 58 66 64 67 59 68 60 69 61 70 62 71 63 72 42 73 43 74 51 75
REMARK SMILES IDX 44 76 50 77 45 78 46 79 47 80 48 81 49 82
REMARK H PARENT 77 15 70 38 40 49
REMARK Flexibility Score: inf
ROOT
ATOM      1  C   UNL A   1      40.914  20.477  27.361  1.00  0.00     0.275 C 
ENDROOT
BRANCH   1   2
ATOM      2  C   UNL A   1      42.083  19.563  27.016  1.00  0.00     0.275 C 
BRANCH   2   3
ATOM      3  O   UNL A   1      42.291  19.469  25.596  1.00  0.00    -0.457 OA
BRANCH   3   4
ATOM      4  C   UNL A   1      43.584  19.341  25.181  1.00  0.00     0.354 C 
ATOM      5  O   UNL A   1      44.105  18.304  24.789  1.00  0.00    -0.244 OA
BRANCH   4   6
ATOM      6  C   UNL A   1      44.226  20.632  25.147  1.00  0.00     0.127 A 
ATOM      7  C   UNL A   1      45.167  25.105  25.221  1.00  0.00     0.072 A 
ATOM      8  C   UNL A   1      46.409  24.540  25.494  1.00  0.00     0.131 A 
ATOM      9  C   UNL A   1      44.074  24.266  24.992  1.00  0.00     0.049 A 
ATOM     10  N   UNL A   1      46.678  23.215  25.563  1.00  0.00    -0.253 NA
ATOM     11  C   UNL A   1      44.335  22.894  25.063  1.00  0.00     0.066 A 
ATOM     12  C   UNL A   1      45.606  22.411  25.358  1.00  0.00     0.089 A 
ATOM     13  N   UNL A   1      43.523  21.797  24.908  1.00  0.00    -0.348 N 
ATOM     14  C   UNL A   1      45.531  21.002  25.419  1.00  0.00     0.064 A 
ATOM     15  H   UNL A   1      42.572  21.835  24.660  1.00  0.00     0.167 HD
BRANCH   7  16
ATOM     16  C   UNL A   1      45.034  26.522  25.153  1.00  0.00     0.101 C 
ATOM     17  N   UNL A   1      44.898  27.682  25.130  1.00  0.00    -0.192 NA
ENDBRANCH   7  16
ENDBRANCH   4   6
ENDBRANCH   3   4
ENDBRANCH   2   3
ENDBRANCH   1   2
BRANCH   1  18
ATOM     18  O   UNL A   1      41.293  21.849  27.278  1.00  0.00    -0.458 OA
BRANCH  18  19
ATOM     19  C   UNL A   1      40.270  22.707  27.078  1.00  0.00     0.338 C 
ATOM     20  O   UNL A   1      39.145  22.437  26.697  1.00  0.00    -0.246 OA
BRANCH  19  21
ATOM     21  C   UNL A   1      40.758  24.081  27.189  1.00  0.00     0.060 A 
ATOM     22  C   UNL A   1      41.813  24.312  28.076  1.00  0.00     0.016 A 
ATOM     23  C   UNL A   1      39.956  25.118  26.693  1.00  0.00     0.016 A 
ATOM     24  C   UNL A   1      41.909  25.560  28.651  1.00  0.00     0.010 A 
ATOM     25  C   UNL A   1      40.061  26.361  27.262  1.00  0.00     0.010 A 
ATOM     26  C   UNL A   1      40.958  26.530  28.308  1.00  0.00    -0.014 A 
BRANCH  26  27
ATOM     27  C   UNL A   1      40.972  27.799  28.997  1.00  0.00     0.031 A 
ATOM     28  C   UNL A   1      42.011  28.700  28.459  1.00  0.00     0.074 A 
ATOM     29  C   UNL A   1      40.081  28.136  29.950  1.00  0.00     0.049 A 
ATOM     30  N   UNL A   1      43.147  28.968  29.007  1.00  0.00    -0.248 NA
ATOM     31  C   UNL A   1      41.891  29.155  27.065  1.00  0.00     0.031 C 
ATOM     32  C   UNL A   1      38.889  27.429  30.424  1.00  0.00     0.029 A 
ATOM     33  N   UNL A   1      40.045  29.282  30.671  1.00  0.00    -0.354 N 
ATOM     34  C   UNL A   1      43.797  29.818  28.126  1.00  0.00     0.074 A 
ATOM     35  C   UNL A   1      43.080  29.729  26.879  1.00  0.00     0.031 C 
ATOM     36  C   UNL A   1      38.134  28.271  31.175  1.00  0.00     0.029 A 
ATOM     37  C   UNL A   1      38.861  29.518  31.358  1.00  0.00     0.049 A 
ATOM     38  H   UNL A   1      40.807  29.906  30.707  1.00  0.00     0.167 HD
ATOM     39  C   UNL A   1      44.720  30.712  28.570  1.00  0.00     0.031 A 
ATOM     40  C   UNL A   1      38.525  30.670  32.001  1.00  0.00     0.031 A 
ATOM     41  C   UNL A   1      45.138  30.409  29.919  1.00  0.00     0.049 A 
ATOM     42  C   UNL A   1      39.804  31.368  32.301  1.00  0.00     0.074 A 
ATOM     43  C   UNL A   1      45.790  29.344  30.509  1.00  0.00     0.029 A 
ATOM     44  N   UNL A   1      44.488  31.070  30.939  1.00  0.00    -0.354 N 
ATOM     45  N   UNL A   1      40.688  30.879  33.129  1.00  0.00    -0.248 NA
ATOM     46  C   UNL A   1      40.330  32.291  31.304  1.00  0.00     0.031 C 
ATOM     47  C   UNL A   1      45.109  29.138  31.745  1.00  0.00     0.029 A 
ATOM     48  C   UNL A   1      44.143  30.137  31.886  1.00  0.00     0.049 A 
ATOM     49  H   UNL A   1      44.305  32.036  30.980  1.00  0.00     0.167 HD
ATOM     50  C   UNL A   1      41.912  31.072  32.504  1.00  0.00     0.074 A 
ATOM     51  C   UNL A   1      41.636  32.014  31.415  1.00  0.00     0.031 C 
ATOM     52  C   UNL A   1      42.968  30.233  32.729  1.00  0.00     0.031 A 
BRANCH  39  53
ATOM     53  C   UNL A   1      44.915  32.069  27.951  1.00  0.00    -0.014 A 
ATOM     54  C   UNL A   1      46.196  32.416  27.482  1.00  0.00     0.010 A 
ATOM     55  C   UNL A   1      43.968  33.108  28.062  1.00  0.00     0.010 A 
ATOM     56  C   UNL A   1      46.534  33.749  27.221  1.00  0.00     0.020 A 
ATOM     57  C   UNL A   1      44.282  34.434  27.767  1.00  0.00     0.020 A 
ATOM     58  C   UNL A   1      45.577  34.751  27.383  1.00  0.00     0.054 A 
BRANCH  58  59
ATOM     59  S   UNL A   1      46.061  36.479  27.166  1.00  0.00     0.124 S 
ATOM     60  O   UNL A   1      46.928  36.405  25.995  1.00  0.00    -0.237 OA
ATOM     61  O   UNL A   1      44.772  37.134  26.962  1.00  0.00    -0.237 OA
ATOM     62  O   UNL A   1      46.731  36.807  28.422  1.00  0.00    -0.744 OA
ENDBRANCH  58  59
ENDBRANCH  39  53
BRANCH  40  63
ATOM     63  C   UNL A   1      37.208  31.366  32.030  1.00  0.00    -0.014 A 
ATOM     64  C   UNL A   1      36.672  31.890  33.225  1.00  0.00     0.010 A 
ATOM     65  C   UNL A   1      36.614  31.784  30.820  1.00  0.00     0.010 A 
ATOM     66  C   UNL A   1      35.626  32.835  33.207  1.00  0.00     0.020 A 
ATOM     67  C   UNL A   1      35.575  32.726  30.794  1.00  0.00     0.020 A 
ATOM     68  C   UNL A   1      35.100  33.266  31.986  1.00  0.00     0.054 A 
BRANCH  68  69
ATOM     69  S   UNL A   1      33.873  34.613  31.955  1.00  0.00     0.124 S 
ATOM     70  O   UNL A   1      32.854  34.134  32.884  1.00  0.00    -0.237 OA
ATOM     71  O   UNL A   1      34.650  35.763  32.408  1.00  0.00    -0.237 OA
ATOM     72  O   UNL A   1      33.455  34.666  30.554  1.00  0.00    -0.744 OA
ENDBRANCH  68  69
ENDBRANCH  40  63
BRANCH  52  73
ATOM     73  C   UNL A   1      42.822  29.178  33.810  1.00  0.00    -0.014 A 
ATOM     74  C   UNL A   1      43.273  29.345  35.137  1.00  0.00     0.010 A 
ATOM     75  C   UNL A   1      42.069  28.032  33.507  1.00  0.00     0.010 A 
ATOM     76  C   UNL A   1      43.012  28.373  36.119  1.00  0.00     0.020 A 
ATOM     77  C   UNL A   1      41.792  27.068  34.481  1.00  0.00     0.020 A 
ATOM     78  C   UNL A   1      42.277  27.233  35.778  1.00  0.00     0.054 A 
BRANCH  78  79
ATOM     79  S   UNL A   1      41.941  25.973  37.042  1.00  0.00     0.124 S 
ATOM     80  O   UNL A   1      40.576  26.287  37.451  1.00  0.00    -0.237 OA
ATOM     81  O   UNL A   1      42.104  24.721  36.305  1.00  0.00    -0.237 OA
ATOM     82  O   UNL A   1      42.962  26.219  38.059  1.00  0.00    -0.744 OA
ENDBRANCH  78  79
ENDBRANCH  52  73
ENDBRANCH  26  27
ENDBRANCH  19  21
ENDBRANCH  18  19
ENDBRANCH   1  18
TORSDOF 15
ENDMDL
MODEL 2
REMARK VINA RESULT:     -10.9      1.531      2.088
REMARK SMILES N#Cc1cnc2cc(C(=O)OCCOC(=O)c3ccc(-c4c5nc(c(-c6ccc(S(=O)(=O)[O-])cc6)c6ccc([nH]6)c(-c6ccc(S(=O)(=O)[O-])cc6)c6nc(c(-c7ccc(S(=O)(=O)[O-])cc7)c7ccc4[nH]7)C=C6)C=C5)cc3)[nH]c2c1
REMARK SMILES IDX 13 1 12 2 11 3 9 4 10 5 8 6 3 7 4 8 79 9 5 10 78 11 6 12
REMARK SMILES IDX 77 13 7 14 2 16 1 17 14 18 15 19 16 20 17 21 18 22 76 23
REMARK SMILES IDX 19 24 75 25 20 26 21 27 22 28 69 29 23 30 74 31 68 32 70 33
REMARK SMILES IDX 24 34 73 35 67 36 66 37 25 39 55 40 36 41 54 42 37 43 40 44
REMARK SMILES IDX 53 45 71 46 38 47 39 48 52 50 72 51 41 52 26 53 27 54 35 55
REMARK SMILES IDX 28 56 34 57 29 58 30 59 31 60 32 61 33 62 56 63 57 64 65 65
REMARK SMILES IDX 58 66 64 67 59 68 60 69 61 70 62 71 63 72 42 73 43 74 51 75
REMARK SMILES IDX 44 76 50 77 45 78 46 79 47 80 48 81 49 82
REMARK H PARENT 77 15 70 38 40 49
REMARK Flexibility Score: inf
ROOT
ATOM      1  C   UNL A   1      41.166  20.161  26.446  1.00  0.00     0.275 C 
ENDROOT
BRANCH   1   2
ATOM      2  C   UNL A   1      42.124  19.029  26.096  1.00  0.00     0.275 C 
BRANCH   2   3
ATOM      3  O   UNL A   1      42.845  19.294  24.879  1.00  0.00    -0.457 OA
BRANCH   3   4
ATOM      4  C   UNL A   1      44.205  19.229  24.956  1.00  0.00     0.354 C 
ATOM      5  O   UNL A   1      44.871  18.202  24.906  1.00  0.00    -0.244 OA
BRANCH   4   6
ATOM      6  C   UNL A   1      44.767  20.556  24.978  1.00  0.00     0.127 A 
ATOM      7  C   UNL A   1      46.749  24.499  26.173  1.00  0.00     0.072 A 
ATOM      8  C   UNL A   1      46.904  24.500  24.790  1.00  0.00     0.131 A 
ATOM      9  C   UNL A   1      46.081  23.433  26.781  1.00  0.00     0.049 A 
ATOM     10  N   UNL A   1      46.461  23.543  23.943  1.00  0.00    -0.253 NA
ATOM     11  C   UNL A   1      45.619  22.435  25.919  1.00  0.00     0.066 A 
ATOM     12  C   UNL A   1      45.831  22.504  24.545  1.00  0.00     0.089 A 
ATOM     13  N   UNL A   1      44.944  21.261  26.154  1.00  0.00    -0.348 N 
ATOM     14  C   UNL A   1      45.307  21.329  23.965  1.00  0.00     0.064 A 
ATOM     15  H   UNL A   1      44.630  20.962  27.037  1.00  0.00     0.167 HD
BRANCH   7  16
ATOM     16  C   UNL A   1      47.247  25.590  26.941  1.00  0.00     0.101 C 
ATOM     17  N   UNL A   1      47.681  26.458  27.593  1.00  0.00    -0.192 NA
ENDBRANCH   7  16
ENDBRANCH   4   6
ENDBRANCH   3   4
ENDBRANCH   2   3
ENDBRANCH   1   2
BRANCH   1  18
ATOM     18  O   UNL A   1      41.869  21.286  26.971  1.00  0.00    -0.458 OA
BRANCH  18  19
ATOM     19  C   UNL A   1      41.787  22.404  26.219  1.00  0.00     0.338 C 
ATOM     20  O   UNL A   1      42.174  22.553  25.073  1.00  0.00    -0.246 OA
BRANCH  19  21
ATOM     21  C   UNL A   1      41.338  23.519  27.053  1.00  0.00     0.060 A 
ATOM     22  C   UNL A   1      40.645  24.551  26.416  1.00  0.00     0.016 A 
ATOM     23  C   UNL A   1      41.902  23.669  28.327  1.00  0.00     0.016 A 
ATOM     24  C   UNL A   1      40.726  25.813  26.962  1.00  0.00     0.010 A 
ATOM     25  C   UNL A   1      41.972  24.926  28.872  1.00  0.00     0.010 A 
ATOM     26  C   UNL A   1      41.483  25.991  28.127  1.00  0.00    -0.014 A 
BRANCH  26  27
ATOM     27  C   UNL A   1      41.678  27.327  28.637  1.00  0.00     0.031 A 
ATOM     28  C   UNL A   1      42.939  27.920  28.146  1.00  0.00     0.074 A 
ATOM     29  C   UNL A   1      40.770  27.974  29.394  1.00  0.00     0.049 A 
ATOM     30  N   UNL A   1      44.032  28.053  28.817  1.00  0.00    -0.248 NA
ATOM     31  C   UNL A   1      43.084  28.162  26.702  1.00  0.00     0.031 C 
ATOM     32  C   UNL A   1      39.409  27.588  29.774  1.00  0.00     0.029 A 
ATOM     33  N   UNL A   1      40.887  29.206  29.945  1.00  0.00    -0.354 N 
ATOM     34  C   UNL A   1      44.945  28.613  27.939  1.00  0.00     0.074 A 
ATOM     35  C   UNL A   1      44.380  28.465  26.622  1.00  0.00     0.031 C 
ATOM     36  C   UNL A   1      38.761  28.666  30.286  1.00  0.00     0.029 A 
ATOM     37  C   UNL A   1      39.705  29.767  30.410  1.00  0.00     0.049 A 
ATOM     38  H   UNL A   1      41.752  29.672  30.011  1.00  0.00     0.167 HD
ATOM     39  C   UNL A   1      45.974  29.377  28.394  1.00  0.00     0.031 A 
ATOM     40  C   UNL A   1      39.542  31.048  30.839  1.00  0.00     0.031 A 
ATOM     41  C   UNL A   1      46.156  29.219  29.818  1.00  0.00     0.049 A 
ATOM     42  C   UNL A   1      40.893  31.531  31.232  1.00  0.00     0.074 A 
ATOM     43  C   UNL A   1      46.496  28.157  30.634  1.00  0.00     0.029 A 
ATOM     44  N   UNL A   1      45.541  30.143  30.634  1.00  0.00    -0.354 N 
ATOM     45  N   UNL A   1      41.550  31.023  32.239  1.00  0.00    -0.248 NA
ATOM     46  C   UNL A   1      41.716  32.168  30.212  1.00  0.00     0.031 C 
ATOM     47  C   UNL A   1      45.644  28.283  31.771  1.00  0.00     0.029 A 
ATOM     48  C   UNL A   1      44.898  29.455  31.633  1.00  0.00     0.049 A 
ATOM     49  H   UNL A   1      45.559  31.121  30.520  1.00  0.00     0.167 HD
ATOM     50  C   UNL A   1      42.854  30.880  31.783  1.00  0.00     0.074 A 
ATOM     51  C   UNL A   1      42.912  31.671  30.551  1.00  0.00     0.031 C 
ATOM     52  C   UNL A   1      43.676  29.903  32.272  1.00  0.00     0.031 A 
BRANCH  39  53
ATOM     53  C   UNL A   1      46.521  30.556  27.637  1.00  0.00    -0.014 A 
ATOM     54  C   UNL A   1      47.916  30.673  27.490  1.00  0.00     0.010 A 
ATOM     55  C   UNL A   1      45.743  31.687  27.310  1.00  0.00     0.010 A 
ATOM     56  C   UNL A   1      48.504  31.887  27.116  1.00  0.00     0.020 A 
ATOM     57  C   UNL A   1      46.316  32.889  26.898  1.00  0.00     0.020 A 
ATOM     58  C   UNL A   1      47.699  32.991  26.839  1.00  0.00     0.054 A 
BRANCH  58  59
ATOM     59  S   UNL A   1      48.475  34.585  26.483  1.00  0.00     0.124 S 
ATOM     60  O   UNL A   1      48.522  34.577  25.024  1.00  0.00    -0.237 OA
ATOM     61  O   UNL A   1      47.533  35.524  27.083  1.00  0.00    -0.237 OA
ATOM     62  O   UNL A   1      49.771  34.492  27.152  1.00  0.00    -0.744 OA
ENDBRANCH  58  59
ENDBRANCH  39  53
BRANCH  40  63
ATOM     63  C   UNL A   1      38.405  31.976  30.579  1.00  0.00    -0.014 A 
ATOM     64  C   UNL A   1      38.329  32.745  29.399  1.00  0.00     0.010 A 
ATOM     65  C   UNL A   1      37.235  31.880  31.361  1.00  0.00     0.010 A 
ATOM     66  C   UNL A   1      37.119  33.342  28.989  1.00  0.00     0.020 A 
ATOM     67  C   UNL A   1      36.026  32.469  30.959  1.00  0.00     0.020 A 
ATOM     68  C   UNL A   1      35.967  33.178  29.762  1.00  0.00     0.054 A 
BRANCH  68  69
ATOM     69  S   UNL A   1      34.369  33.799  29.146  1.00  0.00     0.124 S 
ATOM     70  O   UNL A   1      33.906  32.699  28.305  1.00  0.00    -0.237 OA
ATOM     71  O   UNL A   1      33.614  34.015  30.377  1.00  0.00    -0.237 OA
ATOM     72  O   UNL A   1      34.728  35.019  28.424  1.00  0.00    -0.744 OA
ENDBRANCH  68  69
ENDBRANCH  40  63
BRANCH  52  73
ATOM     73  C   UNL A   1      43.186  29.080  33.449  1.00  0.00    -0.014 A 
ATOM     74  C   UNL A   1      42.164  28.111  33.359  1.00  0.00     0.010 A 
ATOM     75  C   UNL A   1      43.888  29.191  34.660  1.00  0.00     0.010 A 
ATOM     76  C   UNL A   1      41.829  27.307  34.463  1.00  0.00     0.020 A 
ATOM     77  C   UNL A   1      43.571  28.385  35.757  1.00  0.00     0.020 A 
ATOM     78  C   UNL A   1      42.534  27.457  35.661  1.00  0.00     0.054 A 
BRANCH  78  79
ATOM     79  S   UNL A   1      42.102  26.424  37.091  1.00  0.00     0.124 S 
ATOM     80  O   UNL A   1      40.751  26.875  37.413  1.00  0.00    -0.237 OA
ATOM     81  O   UNL A   1      42.200  25.068  36.554  1.00  0.00    -0.237 OA
ATOM     82  O   UNL A   1      43.119  26.762  38.085  1.00  0.00    -0.744 OA
ENDBRANCH  78  79
ENDBRANCH  52  73
ENDBRANCH  26  27
ENDBRANCH  19  21
ENDBRANCH  18  19
ENDBRANCH   1  18
TORSDOF 15
ENDMDL
MODEL 3
REMARK VINA RESULT:     -10.7      3.126      4.779
REMARK SMILES N#Cc1cnc2cc(C(=O)OCCOC(=O)c3ccc(-c4c5nc(c(-c6ccc(S(=O)(=O)[O-])cc6)c6ccc([nH]6)c(-c6ccc(S(=O)(=O)[O-])cc6)c6nc(c(-c7ccc(S(=O)(=O)[O-])cc7)c7ccc4[nH]7)C=C6)C=C5)cc3)[nH]c2c1
REMARK SMILES IDX 13 1 12 2 11 3 9 4 10 5 8 6 3 7 4 8 79 9 5 10 78 11 6 12
REMARK SMILES IDX 77 13 7 14 2 16 1 17 14 18 15 19 16 20 17 21 18 22 76 23
REMARK SMILES IDX 19 24 75 25 20 26 21 27 22 28 69 29 23 30 74 31 68 32 70 33
REMARK SMILES IDX 24 34 73 35 67 36 66 37 25 39 55 40 36 41 54 42 37 43 40 44
REMARK SMILES IDX 53 45 71 46 38 47 39 48 52 50 72 51 41 52 26 53 27 54 35 55
REMARK SMILES IDX 28 56 34 57 29 58 30 59 31 60 32 61 33 62 56 63 57 64 65 65
REMARK SMILES IDX 58 66 64 67 59 68 60 69 61 70 62 71 63 72 42 73 43 74 51 75
REMARK SMILES IDX 44 76 50 77 45 78 46 79 47 80 48 81 49 82
REMARK H PARENT 77 15 70 38 40 49
REMARK Flexibility Score: inf
ROOT
ATOM      1  C   UNL A   1      38.842  21.237  25.712  1.00  0.00     0.275 C 
ENDROOT
BRANCH   1   2
ATOM      2  C   UNL A   1      37.588  21.238  24.845  1.00  0.00     0.275 C 
BRANCH   2   3
ATOM      3  O   UNL A   1      36.401  21.488  25.618  1.00  0.00    -0.457 OA
BRANCH   3   4
ATOM      4  C   UNL A   1      35.212  21.307  24.974  1.00  0.00     0.354 C 
ATOM      5  O   UNL A   1      34.604  20.247  24.892  1.00  0.00    -0.244 OA
BRANCH   4   6
ATOM      6  C   UNL A   1      34.700  22.571  24.508  1.00  0.00     0.127 A 
ATOM      7  C   UNL A   1      33.469  26.952  24.068  1.00  0.00     0.072 A 
ATOM      8  C   UNL A   1      33.502  26.523  22.745  1.00  0.00     0.131 A 
ATOM      9  C   UNL A   1      33.759  26.040  25.086  1.00  0.00     0.049 A 
ATOM     10  N   UNL A   1      33.797  25.270  22.326  1.00  0.00    -0.253 NA
ATOM     11  C   UNL A   1      34.069  24.742  24.669  1.00  0.00     0.066 A 
ATOM     12  C   UNL A   1      34.096  24.399  23.321  1.00  0.00     0.089 A 
ATOM     13  N   UNL A   1      34.407  23.610  25.370  1.00  0.00    -0.348 N 
ATOM     14  C   UNL A   1      34.499  23.049  23.225  1.00  0.00     0.064 A 
ATOM     15  H   UNL A   1      34.437  23.546  26.352  1.00  0.00     0.167 HD
BRANCH   7  16
ATOM     16  C   UNL A   1      33.117  28.300  24.367  1.00  0.00     0.101 C 
ATOM     17  N   UNL A   1      32.789  29.395  24.605  1.00  0.00    -0.192 NA
ENDBRANCH   7  16
ENDBRANCH   4   6
ENDBRANCH   3   4
ENDBRANCH   2   3
ENDBRANCH   1   2
BRANCH   1  18
ATOM     18  O   UNL A   1      38.951  22.448  26.458  1.00  0.00    -0.458 OA
BRANCH  18  19
ATOM     19  C   UNL A   1      40.061  22.542  27.221  1.00  0.00     0.338 C 
ATOM     20  O   UNL A   1      40.545  21.677  27.929  1.00  0.00    -0.246 OA
BRANCH  19  21
ATOM     21  C   UNL A   1      40.515  23.932  27.249  1.00  0.00     0.060 A 
ATOM     22  C   UNL A   1      41.627  24.223  28.044  1.00  0.00     0.016 A 
ATOM     23  C   UNL A   1      39.647  24.929  26.782  1.00  0.00     0.016 A 
ATOM     24  C   UNL A   1      41.729  25.493  28.569  1.00  0.00     0.010 A 
ATOM     25  C   UNL A   1      39.758  26.193  27.299  1.00  0.00     0.010 A 
ATOM     26  C   UNL A   1      40.727  26.424  28.267  1.00  0.00    -0.014 A 
BRANCH  26  27
ATOM     27  C   UNL A   1      40.755  27.715  28.910  1.00  0.00     0.031 A 
ATOM     28  C   UNL A   1      41.844  28.563  28.384  1.00  0.00     0.074 A 
ATOM     29  C   UNL A   1      39.839  28.116  29.813  1.00  0.00     0.049 A 
ATOM     30  N   UNL A   1      42.966  28.815  28.969  1.00  0.00    -0.248 NA
ATOM     31  C   UNL A   1      41.796  28.970  26.971  1.00  0.00     0.031 C 
ATOM     32  C   UNL A   1      38.606  27.465  30.262  1.00  0.00     0.029 A 
ATOM     33  N   UNL A   1      39.812  29.289  30.491  1.00  0.00    -0.354 N 
ATOM     34  C   UNL A   1      43.678  29.610  28.086  1.00  0.00     0.074 A 
ATOM     35  C   UNL A   1      43.010  29.498  26.814  1.00  0.00     0.031 C 
ATOM     36  C   UNL A   1      37.849  28.359  30.950  1.00  0.00     0.029 A 
ATOM     37  C   UNL A   1      38.609  29.588  31.119  1.00  0.00     0.049 A 
ATOM     38  H   UNL A   1      40.592  29.889  30.536  1.00  0.00     0.167 HD
ATOM     39  C   UNL A   1      44.612  30.490  28.536  1.00  0.00     0.031 A 
ATOM     40  C   UNL A   1      38.286  30.772  31.706  1.00  0.00     0.031 A 
ATOM     41  C   UNL A   1      44.965  30.224  29.910  1.00  0.00     0.049 A 
ATOM     42  C   UNL A   1      39.575  31.440  32.034  1.00  0.00     0.074 A 
ATOM     43  C   UNL A   1      45.557  29.162  30.564  1.00  0.00     0.029 A 
ATOM     44  N   UNL A   1      44.298  30.943  30.878  1.00  0.00    -0.354 N 
ATOM     45  N   UNL A   1      40.408  30.954  32.915  1.00  0.00    -0.248 NA
ATOM     46  C   UNL A   1      40.171  32.308  31.027  1.00  0.00     0.031 C 
ATOM     47  C   UNL A   1      44.820  29.024  31.778  1.00  0.00     0.029 A 
ATOM     48  C   UNL A   1      43.883  30.057  31.843  1.00  0.00     0.049 A 
ATOM     49  H   UNL A   1      44.145  31.915  30.878  1.00  0.00     0.167 HD
ATOM     50  C   UNL A   1      41.662  31.085  32.334  1.00  0.00     0.074 A 
ATOM     51  C   UNL A   1      41.462  31.994  31.202  1.00  0.00     0.031 C 
ATOM     52  C   UNL A   1      42.679  30.221  32.632  1.00  0.00     0.031 A 
BRANCH  39  53
ATOM     53  C   UNL A   1      44.877  31.816  27.877  1.00  0.00    -0.014 A 
ATOM     54  C   UNL A   1      46.124  32.021  27.255  1.00  0.00     0.010 A 
ATOM     55  C   UNL A   1      44.068  32.953  28.083  1.00  0.00     0.010 A 
ATOM     56  C   UNL A   1      46.570  33.309  26.936  1.00  0.00     0.020 A 
ATOM     57  C   UNL A   1      44.485  34.236  27.732  1.00  0.00     0.020 A 
ATOM     58  C   UNL A   1      45.752  34.409  27.194  1.00  0.00     0.054 A 
BRANCH  58  59
ATOM     59  S   UNL A   1      46.390  36.074  26.895  1.00  0.00     0.124 S 
ATOM     60  O   UNL A   1      47.133  36.337  28.124  1.00  0.00    -0.237 OA
ATOM     61  O   UNL A   1      47.196  35.882  25.694  1.00  0.00    -0.237 OA
ATOM     62  O   UNL A   1      45.182  36.876  26.711  1.00  0.00    -0.744 OA
ENDBRANCH  58  59
ENDBRANCH  39  53
BRANCH  40  63
ATOM     63  C   UNL A   1      36.993  31.511  31.656  1.00  0.00    -0.014 A 
ATOM     64  C   UNL A   1      36.217  31.729  32.813  1.00  0.00     0.010 A 
ATOM     65  C   UNL A   1      36.668  32.268  30.511  1.00  0.00     0.010 A 
ATOM     66  C   UNL A   1      35.199  32.704  32.841  1.00  0.00     0.020 A 
ATOM     67  C   UNL A   1      35.658  33.242  30.531  1.00  0.00     0.020 A 
ATOM     68  C   UNL A   1      34.942  33.473  31.703  1.00  0.00     0.054 A 
BRANCH  68  69
ATOM     69  S   UNL A   1      33.751  34.848  31.791  1.00  0.00     0.124 S 
ATOM     70  O   UNL A   1      34.578  35.953  32.268  1.00  0.00    -0.237 OA
ATOM     71  O   UNL A   1      33.286  34.957  30.412  1.00  0.00    -0.237 OA
ATOM     72  O   UNL A   1      32.747  34.374  32.743  1.00  0.00    -0.744 OA
ENDBRANCH  68  69
ENDBRANCH  40  63
BRANCH  52  73
ATOM     73  C   UNL A   1      42.455  29.213  33.744  1.00  0.00    -0.014 A 
ATOM     74  C   UNL A   1      41.897  27.932  33.543  1.00  0.00     0.010 A 
ATOM     75  C   UNL A   1      42.963  29.520  35.016  1.00  0.00     0.010 A 
ATOM     76  C   UNL A   1      41.814  27.005  34.596  1.00  0.00     0.020 A 
ATOM     77  C   UNL A   1      42.899  28.597  36.065  1.00  0.00     0.020 A 
ATOM     78  C   UNL A   1      42.311  27.350  35.856  1.00  0.00     0.054 A 
BRANCH  78  79
ATOM     79  S   UNL A   1      42.203  26.156  37.221  1.00  0.00     0.124 S 
ATOM     80  O   UNL A   1      43.200  26.657  38.162  1.00  0.00    -0.237 OA
ATOM     81  O   UNL A   1      40.812  26.281  37.653  1.00  0.00    -0.237 OA
ATOM     82  O   UNL A   1      42.534  24.878  36.592  1.00  0.00    -0.744 OA
ENDBRANCH  78  79
ENDBRANCH  52  73
ENDBRANCH  26  27
ENDBRANCH  19  21
ENDBRANCH  18  19
ENDBRANCH   1  18
TORSDOF 15
ENDMDL
