MODEL 1
REMARK VINA RESULT:     -11.2      0.000      0.000
REMARK SMILES O=C(OCCOC(=O)c1cc(F)ccc1N1CCCc2ccccc21)c1ccc(-c2c3nc(c(-c4ccc(S(=O)(=O)[O-])cc4)c4ccc([nH]4)c(-c4ccc(S(=O)(=O)[O-])cc4)c4nc(c(-c5ccc(S(=O)(=O)[O-])cc5)c5ccc2[nH]5)C=C4)C=C3)cc1
REMARK SMILES IDX 4 1 3 2 2 3 1 4 26 5 27 6 85 7 28 8 84 9 29 10 30 11 31 12
REMARK SMILES IDX 78 13 32 14 83 15 77 16 79 17 33 18 82 19 76 20 75 21 34 23
REMARK SMILES IDX 64 24 45 25 63 26 46 27 49 28 62 29 80 30 47 31 48 32 61 34
REMARK SMILES IDX 81 35 50 36 35 37 36 38 44 39 37 40 43 41 38 42 39 43 40 44
REMARK SMILES IDX 41 45 42 46 65 47 66 48 74 49 67 50 73 51 68 52 69 53 70 54
REMARK SMILES IDX 71 55 72 56 51 57 52 58 60 59 53 60 59 61 54 62 55 63 56 64
REMARK SMILES IDX 57 65 58 66 5 67 6 68 7 69 8 70 9 71 10 72 15 73 11 74 14 75
REMARK SMILES IDX 12 76 13 77 16 78 17 79 25 80 18 81 20 82 24 83 19 84 21 85
REMARK SMILES IDX 23 86 22 87
REMARK H PARENT 79 22 49 33
REMARK Flexibility Score: inf
ROOT
ATOM      1  C   UNL A   1      33.790  28.506  26.319  1.00  0.00     0.275 C 
ENDROOT
BRANCH   1   2
ATOM      2  O   UNL A   1      34.027  28.980  27.643  1.00  0.00    -0.458 OA
BRANCH   2   3
ATOM      3  C   UNL A   1      34.723  30.129  27.750  1.00  0.00     0.338 C 
ATOM      4  O   UNL A   1      34.331  31.237  27.406  1.00  0.00    -0.246 OA
BRANCH   3   5
ATOM      5  C   UNL A   1      36.109  29.752  28.144  1.00  0.00     0.060 A 
ATOM      6  C   UNL A   1      37.151  29.906  27.212  1.00  0.00     0.016 A 
ATOM      7  C   UNL A   1      36.412  29.416  29.464  1.00  0.00     0.016 A 
ATOM      8  C   UNL A   1      38.467  29.707  27.581  1.00  0.00     0.010 A 
ATOM      9  C   UNL A   1      37.739  29.333  29.866  1.00  0.00     0.010 A 
ATOM     10  C   UNL A   1      38.761  29.410  28.908  1.00  0.00    -0.014 A 
BRANCH  10  11
ATOM     11  C   UNL A   1      40.101  28.910  29.242  1.00  0.00     0.031 A 
ATOM     12  C   UNL A   1      41.050  29.893  29.861  1.00  0.00     0.074 A 
ATOM     13  C   UNL A   1      40.436  27.631  29.009  1.00  0.00     0.049 A 
ATOM     14  N   UNL A   1      42.306  29.745  30.173  1.00  0.00    -0.248 NA
ATOM     15  C   UNL A   1      40.519  31.244  30.136  1.00  0.00     0.031 C 
ATOM     16  C   UNL A   1      39.551  26.612  28.444  1.00  0.00     0.029 A 
ATOM     17  N   UNL A   1      41.623  26.977  29.186  1.00  0.00    -0.354 N 
ATOM     18  C   UNL A   1      42.707  30.982  30.660  1.00  0.00     0.074 A 
ATOM     19  C   UNL A   1      41.609  31.898  30.488  1.00  0.00     0.031 C 
ATOM     20  C   UNL A   1      40.248  25.484  28.242  1.00  0.00     0.029 A 
ATOM     21  C   UNL A   1      41.620  25.699  28.680  1.00  0.00     0.049 A 
ATOM     22  H   UNL A   1      42.403  27.381  29.632  1.00  0.00     0.167 HD
ATOM     23  C   UNL A   1      43.871  31.304  31.264  1.00  0.00     0.031 A 
ATOM     24  C   UNL A   1      42.628  24.815  28.572  1.00  0.00     0.031 A 
ATOM     25  C   UNL A   1      44.923  30.348  31.441  1.00  0.00     0.049 A 
ATOM     26  C   UNL A   1      43.942  25.194  29.191  1.00  0.00     0.074 A 
ATOM     27  C   UNL A   1      46.130  30.499  32.090  1.00  0.00     0.029 A 
ATOM     28  N   UNL A   1      44.876  29.046  30.956  1.00  0.00    -0.354 N 
ATOM     29  N   UNL A   1      44.290  26.341  29.732  1.00  0.00    -0.248 NA
ATOM     30  C   UNL A   1      44.977  24.157  29.249  1.00  0.00     0.031 C 
ATOM     31  C   UNL A   1      46.836  29.299  31.952  1.00  0.00     0.029 A 
ATOM     32  C   UNL A   1      46.043  28.383  31.273  1.00  0.00     0.049 A 
ATOM     33  H   UNL A   1      44.120  28.655  30.460  1.00  0.00     0.167 HD
ATOM     34  C   UNL A   1      45.562  26.147  30.251  1.00  0.00     0.074 A 
ATOM     35  C   UNL A   1      45.929  24.778  29.936  1.00  0.00     0.031 C 
ATOM     36  C   UNL A   1      46.344  27.008  30.948  1.00  0.00     0.031 A 
BRANCH  23  37
ATOM     37  C   UNL A   1      44.021  32.723  31.743  1.00  0.00    -0.014 A 
ATOM     38  C   UNL A   1      43.465  33.144  32.969  1.00  0.00     0.010 A 
ATOM     39  C   UNL A   1      44.650  33.673  30.922  1.00  0.00     0.010 A 
ATOM     40  C   UNL A   1      43.452  34.497  33.316  1.00  0.00     0.020 A 
ATOM     41  C   UNL A   1      44.676  35.024  31.286  1.00  0.00     0.020 A 
ATOM     42  C   UNL A   1      44.046  35.431  32.465  1.00  0.00     0.054 A 
BRANCH  42  43
ATOM     43  S   UNL A   1      43.976  37.186  32.916  1.00  0.00     0.124 S 
ATOM     44  O   UNL A   1      43.801  37.824  31.613  1.00  0.00    -0.237 OA
ATOM     45  O   UNL A   1      42.816  37.243  33.802  1.00  0.00    -0.237 OA
ATOM     46  O   UNL A   1      45.263  37.429  33.561  1.00  0.00    -0.744 OA
ENDBRANCH  42  43
ENDBRANCH  23  37
BRANCH  24  47
ATOM     47  C   UNL A   1      42.390  23.509  27.900  1.00  0.00    -0.014 A 
ATOM     48  C   UNL A   1      42.651  23.340  26.530  1.00  0.00     0.010 A 
ATOM     49  C   UNL A   1      41.989  22.392  28.659  1.00  0.00     0.010 A 
ATOM     50  C   UNL A   1      42.517  22.082  25.932  1.00  0.00     0.020 A 
ATOM     51  C   UNL A   1      41.869  21.129  28.068  1.00  0.00     0.020 A 
ATOM     52  C   UNL A   1      42.134  20.982  26.706  1.00  0.00     0.054 A 
BRANCH  52  53
ATOM     53  S   UNL A   1      42.042  19.349  25.916  1.00  0.00     0.124 S 
ATOM     54  O   UNL A   1      42.549  18.471  26.968  1.00  0.00    -0.237 OA
ATOM     55  O   UNL A   1      40.616  19.225  25.623  1.00  0.00    -0.237 OA
ATOM     56  O   UNL A   1      42.903  19.481  24.744  1.00  0.00    -0.744 OA
ENDBRANCH  52  53
ENDBRANCH  24  47
BRANCH  36  57
ATOM     57  C   UNL A   1      47.645  26.483  31.476  1.00  0.00    -0.014 A 
ATOM     58  C   UNL A   1      47.769  26.051  32.806  1.00  0.00     0.010 A 
ATOM     59  C   UNL A   1      48.709  26.283  30.574  1.00  0.00     0.010 A 
ATOM     60  C   UNL A   1      48.939  25.417  33.226  1.00  0.00     0.020 A 
ATOM     61  C   UNL A   1      49.865  25.624  30.984  1.00  0.00     0.020 A 
ATOM     62  C   UNL A   1      49.972  25.195  32.308  1.00  0.00     0.054 A 
BRANCH  62  63
ATOM     63  S   UNL A   1      51.427  24.260  32.850  1.00  0.00     0.124 S 
ATOM     64  O   UNL A   1      52.520  25.130  32.428  1.00  0.00    -0.237 OA
ATOM     65  O   UNL A   1      51.221  24.162  34.293  1.00  0.00    -0.237 OA
ATOM     66  O   UNL A   1      51.318  22.997  32.123  1.00  0.00    -0.744 OA
ENDBRANCH  62  63
ENDBRANCH  36  57
ENDBRANCH  10  11
ENDBRANCH   3   5
ENDBRANCH   2   3
ENDBRANCH   1   2
BRANCH   1  67
ATOM     67  C   UNL A   1      33.295  27.044  26.170  1.00  0.00     0.275 C 
BRANCH  67  68
ATOM     68  O   UNL A   1      34.318  26.030  26.188  1.00  0.00    -0.458 OA
BRANCH  68  69
ATOM     69  C   UNL A   1      33.934  24.728  26.052  1.00  0.00     0.340 C 
ATOM     70  O   UNL A   1      33.028  24.178  26.648  1.00  0.00    -0.246 OA
BRANCH  69  71
ATOM     71  C   UNL A   1      34.886  24.052  25.134  1.00  0.00     0.086 A 
ATOM     72  C   UNL A   1      36.054  23.536  25.721  1.00  0.00     0.057 A 
ATOM     73  C   UNL A   1      34.620  23.808  23.769  1.00  0.00     0.056 A 
ATOM     74  C   UNL A   1      36.971  22.837  24.946  1.00  0.00     0.124 A 
ATOM     75  C   UNL A   1      35.632  23.185  22.998  1.00  0.00     0.030 A 
ATOM     76  F   UNL A   1      38.027  22.264  25.535  1.00  0.00    -0.207 F 
ATOM     77  C   UNL A   1      36.803  22.704  23.579  1.00  0.00     0.041 A 
BRANCH  73  78
ATOM     78  N   UNL A   1      33.380  24.030  23.138  1.00  0.00    -0.341 N 
ATOM     79  C   UNL A   1      32.452  22.915  22.988  1.00  0.00     0.123 C 
ATOM     80  C   UNL A   1      32.798  25.303  22.934  1.00  0.00     0.044 A 
ATOM     81  C   UNL A   1      31.223  23.146  23.858  1.00  0.00     0.027 C 
ATOM     82  C   UNL A   1      31.400  25.490  22.976  1.00  0.00    -0.024 A 
ATOM     83  C   UNL A   1      33.621  26.414  22.691  1.00  0.00     0.026 A 
ATOM     84  C   UNL A   1      30.468  24.349  23.306  1.00  0.00     0.039 C 
ATOM     85  C   UNL A   1      30.859  26.753  22.703  1.00  0.00     0.006 A 
ATOM     86  C   UNL A   1      33.075  27.670  22.441  1.00  0.00     0.002 A 
ATOM     87  C   UNL A   1      31.694  27.836  22.432  1.00  0.00     0.000 A 
ENDBRANCH  73  78
ENDBRANCH  69  71
ENDBRANCH  68  69
ENDBRANCH  67  68
ENDBRANCH   1  67
TORSDOF 15
ENDMDL
MODEL 2
REMARK VINA RESULT:     -11.2      1.967      3.089
REMARK SMILES O=C(OCCOC(=O)c1cc(F)ccc1N1CCCc2ccccc21)c1ccc(-c2c3nc(c(-c4ccc(S(=O)(=O)[O-])cc4)c4ccc([nH]4)c(-c4ccc(S(=O)(=O)[O-])cc4)c4nc(c(-c5ccc(S(=O)(=O)[O-])cc5)c5ccc2[nH]5)C=C4)C=C3)cc1
REMARK SMILES IDX 4 1 3 2 2 3 1 4 26 5 27 6 85 7 28 8 84 9 29 10 30 11 31 12
REMARK SMILES IDX 78 13 32 14 83 15 77 16 79 17 33 18 82 19 76 20 75 21 34 23
REMARK SMILES IDX 64 24 45 25 63 26 46 27 49 28 62 29 80 30 47 31 48 32 61 34
REMARK SMILES IDX 81 35 50 36 35 37 36 38 44 39 37 40 43 41 38 42 39 43 40 44
REMARK SMILES IDX 41 45 42 46 65 47 66 48 74 49 67 50 73 51 68 52 69 53 70 54
REMARK SMILES IDX 71 55 72 56 51 57 52 58 60 59 53 60 59 61 54 62 55 63 56 64
REMARK SMILES IDX 57 65 58 66 5 67 6 68 7 69 8 70 9 71 10 72 15 73 11 74 14 75
REMARK SMILES IDX 12 76 13 77 16 78 17 79 25 80 18 81 20 82 24 83 19 84 21 85
REMARK SMILES IDX 23 86 22 87
REMARK H PARENT 79 22 49 33
REMARK Flexibility Score: inf
ROOT
ATOM      1  C   UNL A   1      33.061  28.564  27.454  1.00  0.00     0.275 C 
ENDROOT
BRANCH   1   2
ATOM      2  O   UNL A   1      34.289  29.145  27.019  1.00  0.00    -0.458 OA
BRANCH   2   3
ATOM      3  C   UNL A   1      34.770  30.155  27.769  1.00  0.00     0.338 C 
ATOM      4  O   UNL A   1      34.230  31.242  27.934  1.00  0.00    -0.246 OA
BRANCH   3   5
ATOM      5  C   UNL A   1      36.157  29.777  28.155  1.00  0.00     0.060 A 
ATOM      6  C   UNL A   1      37.192  29.914  27.213  1.00  0.00     0.016 A 
ATOM      7  C   UNL A   1      36.470  29.456  29.477  1.00  0.00     0.016 A 
ATOM      8  C   UNL A   1      38.509  29.714  27.572  1.00  0.00     0.010 A 
ATOM      9  C   UNL A   1      37.801  29.371  29.868  1.00  0.00     0.010 A 
ATOM     10  C   UNL A   1      38.814  29.431  28.900  1.00  0.00    -0.014 A 
BRANCH  10  11
ATOM     11  C   UNL A   1      40.155  28.930  29.228  1.00  0.00     0.031 A 
ATOM     12  C   UNL A   1      41.111  29.912  29.837  1.00  0.00     0.074 A 
ATOM     13  C   UNL A   1      40.485  27.649  28.998  1.00  0.00     0.049 A 
ATOM     14  N   UNL A   1      42.368  29.762  30.142  1.00  0.00    -0.248 NA
ATOM     15  C   UNL A   1      40.584  31.266  30.110  1.00  0.00     0.031 C 
ATOM     16  C   UNL A   1      39.594  26.630  28.443  1.00  0.00     0.029 A 
ATOM     17  N   UNL A   1      41.671  26.992  29.170  1.00  0.00    -0.354 N 
ATOM     18  C   UNL A   1      42.774  31.000  30.622  1.00  0.00     0.074 A 
ATOM     19  C   UNL A   1      41.678  31.919  30.453  1.00  0.00     0.031 C 
ATOM     20  C   UNL A   1      40.288  25.499  28.240  1.00  0.00     0.029 A 
ATOM     21  C   UNL A   1      41.662  25.713  28.670  1.00  0.00     0.049 A 
ATOM     22  H   UNL A   1      42.455  27.396  29.610  1.00  0.00     0.167 HD
ATOM     23  C   UNL A   1      43.943  31.322  31.218  1.00  0.00     0.031 A 
ATOM     24  C   UNL A   1      42.668  24.825  28.559  1.00  0.00     0.031 A 
ATOM     25  C   UNL A   1      44.994  30.364  31.393  1.00  0.00     0.049 A 
ATOM     26  C   UNL A   1      43.986  25.203  29.169  1.00  0.00     0.074 A 
ATOM     27  C   UNL A   1      46.205  30.514  32.034  1.00  0.00     0.029 A 
ATOM     28  N   UNL A   1      44.940  29.060  30.913  1.00  0.00    -0.354 N 
ATOM     29  N   UNL A   1      44.341  26.351  29.703  1.00  0.00    -0.248 NA
ATOM     30  C   UNL A   1      45.019  24.164  29.225  1.00  0.00     0.031 C 
ATOM     31  C   UNL A   1      46.907  29.311  31.896  1.00  0.00     0.029 A 
ATOM     32  C   UNL A   1      46.107  28.395  31.226  1.00  0.00     0.049 A 
ATOM     33  H   UNL A   1      44.180  28.669  30.423  1.00  0.00     0.167 HD
ATOM     34  C   UNL A   1      45.615  26.156  30.215  1.00  0.00     0.074 A 
ATOM     35  C   UNL A   1      45.976  24.785  29.904  1.00  0.00     0.031 C 
ATOM     36  C   UNL A   1      46.403  27.019  30.905  1.00  0.00     0.031 A 
BRANCH  23  37
ATOM     37  C   UNL A   1      44.099  32.743  31.691  1.00  0.00    -0.014 A 
ATOM     38  C   UNL A   1      43.555  33.169  32.920  1.00  0.00     0.010 A 
ATOM     39  C   UNL A   1      44.723  33.688  30.861  1.00  0.00     0.010 A 
ATOM     40  C   UNL A   1      43.547  34.523  33.263  1.00  0.00     0.020 A 
ATOM     41  C   UNL A   1      44.753  35.040  31.220  1.00  0.00     0.020 A 
ATOM     42  C   UNL A   1      44.135  35.453  32.402  1.00  0.00     0.054 A 
BRANCH  42  43
ATOM     43  S   UNL A   1      44.071  37.209  32.848  1.00  0.00     0.124 S 
ATOM     44  O   UNL A   1      42.922  37.249  33.749  1.00  0.00    -0.237 OA
ATOM     45  O   UNL A   1      45.371  37.427  33.478  1.00  0.00    -0.237 OA
ATOM     46  O   UNL A   1      43.881  37.884  31.567  1.00  0.00    -0.744 OA
ENDBRANCH  42  43
ENDBRANCH  23  37
BRANCH  24  47
ATOM     47  C   UNL A   1      42.422  23.517  27.894  1.00  0.00    -0.014 A 
ATOM     48  C   UNL A   1      42.817  23.295  26.565  1.00  0.00     0.010 A 
ATOM     49  C   UNL A   1      41.874  22.448  28.629  1.00  0.00     0.010 A 
ATOM     50  C   UNL A   1      42.669  22.030  25.983  1.00  0.00     0.020 A 
ATOM     51  C   UNL A   1      41.740  21.178  28.056  1.00  0.00     0.020 A 
ATOM     52  C   UNL A   1      42.139  20.977  26.734  1.00  0.00     0.054 A 
BRANCH  52  53
ATOM     53  S   UNL A   1      42.031  19.331  25.975  1.00  0.00     0.124 S 
ATOM     54  O   UNL A   1      42.882  19.480  24.797  1.00  0.00    -0.237 OA
ATOM     55  O   UNL A   1      42.559  18.467  27.029  1.00  0.00    -0.237 OA
ATOM     56  O   UNL A   1      40.607  19.168  25.699  1.00  0.00    -0.744 OA
ENDBRANCH  52  53
ENDBRANCH  24  47
BRANCH  36  57
ATOM     57  C   UNL A   1      47.706  26.491  31.427  1.00  0.00    -0.014 A 
ATOM     58  C   UNL A   1      47.796  25.911  32.702  1.00  0.00     0.010 A 
ATOM     59  C   UNL A   1      48.813  26.447  30.558  1.00  0.00     0.010 A 
ATOM     60  C   UNL A   1      48.978  25.284  33.098  1.00  0.00     0.020 A 
ATOM     61  C   UNL A   1      49.983  25.795  30.941  1.00  0.00     0.020 A 
ATOM     62  C   UNL A   1      50.058  25.217  32.209  1.00  0.00     0.054 A 
BRANCH  62  63
ATOM     63  S   UNL A   1      51.533  24.290  32.705  1.00  0.00     0.124 S 
ATOM     64  O   UNL A   1      52.606  25.102  32.138  1.00  0.00    -0.237 OA
ATOM     65  O   UNL A   1      51.439  24.299  34.163  1.00  0.00    -0.237 OA
ATOM     66  O   UNL A   1      51.345  22.981  32.082  1.00  0.00    -0.744 OA
ENDBRANCH  62  63
ENDBRANCH  36  57
ENDBRANCH  10  11
ENDBRANCH   3   5
ENDBRANCH   2   3
ENDBRANCH   1   2
BRANCH   1  67
ATOM     67  C   UNL A   1      31.756  29.113  26.823  1.00  0.00     0.275 C 
BRANCH  67  68
ATOM     68  O   UNL A   1      31.905  29.793  25.562  1.00  0.00    -0.458 OA
BRANCH  68  69
ATOM     69  C   UNL A   1      32.051  29.035  24.437  1.00  0.00     0.340 C 
ATOM     70  O   UNL A   1      33.075  28.881  23.800  1.00  0.00    -0.246 OA
BRANCH  69  71
ATOM     71  C   UNL A   1      30.716  28.516  24.045  1.00  0.00     0.086 A 
ATOM     72  C   UNL A   1      29.880  29.412  23.357  1.00  0.00     0.057 A 
ATOM     73  C   UNL A   1      30.314  27.174  24.220  1.00  0.00     0.056 A 
ATOM     74  C   UNL A   1      28.636  28.991  22.901  1.00  0.00     0.124 A 
ATOM     75  C   UNL A   1      28.997  26.822  23.834  1.00  0.00     0.030 A 
ATOM     76  F   UNL A   1      27.893  29.821  22.160  1.00  0.00    -0.207 F 
ATOM     77  C   UNL A   1      28.159  27.723  23.181  1.00  0.00     0.041 A 
BRANCH  73  78
ATOM     78  N   UNL A   1      31.158  26.129  24.642  1.00  0.00    -0.341 N 
ATOM     79  C   UNL A   1      31.111  25.699  26.036  1.00  0.00     0.123 C 
ATOM     80  C   UNL A   1      31.810  25.221  23.775  1.00  0.00     0.044 A 
ATOM     81  C   UNL A   1      30.539  24.290  26.122  1.00  0.00     0.027 C 
ATOM     82  C   UNL A   1      32.032  23.878  24.146  1.00  0.00    -0.024 A 
ATOM     83  C   UNL A   1      32.243  25.653  22.512  1.00  0.00     0.026 A 
ATOM     84  C   UNL A   1      31.523  23.335  25.460  1.00  0.00     0.039 C 
ATOM     85  C   UNL A   1      32.740  23.027  23.287  1.00  0.00     0.006 A 
ATOM     86  C   UNL A   1      32.927  24.795  21.656  1.00  0.00     0.002 A 
ATOM     87  C   UNL A   1      33.189  23.487  22.050  1.00  0.00     0.000 A 
ENDBRANCH  73  78
ENDBRANCH  69  71
ENDBRANCH  68  69
ENDBRANCH  67  68
ENDBRANCH   1  67
TORSDOF 15
ENDMDL
MODEL 3
REMARK VINA RESULT:     -11.2      2.663      9.140
REMARK SMILES O=C(OCCOC(=O)c1cc(F)ccc1N1CCCc2ccccc21)c1ccc(-c2c3nc(c(-c4ccc(S(=O)(=O)[O-])cc4)c4ccc([nH]4)c(-c4ccc(S(=O)(=O)[O-])cc4)c4nc(c(-c5ccc(S(=O)(=O)[O-])cc5)c5ccc2[nH]5)C=C4)C=C3)cc1
REMARK SMILES IDX 4 1 3 2 2 3 1 4 26 5 27 6 85 7 28 8 84 9 29 10 30 11 31 12
REMARK SMILES IDX 78 13 32 14 83 15 77 16 79 17 33 18 82 19 76 20 75 21 34 23
REMARK SMILES IDX 64 24 45 25 63 26 46 27 49 28 62 29 80 30 47 31 48 32 61 34
REMARK SMILES IDX 81 35 50 36 35 37 36 38 44 39 37 40 43 41 38 42 39 43 40 44
REMARK SMILES IDX 41 45 42 46 65 47 66 48 74 49 67 50 73 51 68 52 69 53 70 54
REMARK SMILES IDX 71 55 72 56 51 57 52 58 60 59 53 60 59 61 54 62 55 63 56 64
REMARK SMILES IDX 57 65 58 66 5 67 6 68 7 69 8 70 9 71 10 72 15 73 11 74 14 75
REMARK SMILES IDX 12 76 13 77 16 78 17 79 25 80 18 81 20 82 24 83 19 84 21 85
REMARK SMILES IDX 23 86 22 87
REMARK H PARENT 79 22 49 33
REMARK Flexibility Score: inf
ROOT
ATOM      1  C   UNL A   1      37.604  22.110  24.960  1.00  0.00     0.275 C 
ENDROOT
BRANCH   1   2
ATOM      2  O   UNL A   1      38.082  22.792  26.118  1.00  0.00    -0.458 OA
BRANCH   2   3
ATOM      3  C   UNL A   1      39.419  22.842  26.273  1.00  0.00     0.338 C 
ATOM      4  O   UNL A   1      40.196  21.915  26.079  1.00  0.00    -0.246 OA
BRANCH   3   5
ATOM      5  C   UNL A   1      39.725  24.143  26.929  1.00  0.00     0.060 A 
ATOM      6  C   UNL A   1      40.340  25.160  26.178  1.00  0.00     0.016 A 
ATOM      7  C   UNL A   1      39.260  24.424  28.214  1.00  0.00     0.016 A 
ATOM      8  C   UNL A   1      40.509  26.426  26.703  1.00  0.00     0.010 A 
ATOM      9  C   UNL A   1      39.320  25.724  28.699  1.00  0.00     0.010 A 
ATOM     10  C   UNL A   1      40.008  26.706  27.970  1.00  0.00    -0.014 A 
BRANCH  10  11
ATOM     11  C   UNL A   1      40.437  27.937  28.646  1.00  0.00     0.031 A 
ATOM     12  C   UNL A   1      41.802  27.923  29.266  1.00  0.00     0.074 A 
ATOM     13  C   UNL A   1      39.636  29.014  28.686  1.00  0.00     0.049 A 
ATOM     14  N   UNL A   1      42.391  28.833  29.989  1.00  0.00    -0.248 NA
ATOM     15  C   UNL A   1      42.605  26.698  29.073  1.00  0.00     0.031 C 
ATOM     16  C   UNL A   1      38.311  29.109  28.073  1.00  0.00     0.029 A 
ATOM     17  N   UNL A   1      39.805  30.225  29.298  1.00  0.00    -0.354 N 
ATOM     18  C   UNL A   1      43.615  28.279  30.342  1.00  0.00     0.074 A 
ATOM     19  C   UNL A   1      43.635  26.920  29.867  1.00  0.00     0.031 C 
ATOM     20  C   UNL A   1      37.751  30.281  28.410  1.00  0.00     0.029 A 
ATOM     21  C   UNL A   1      38.687  31.021  29.245  1.00  0.00     0.049 A 
ATOM     22  H   UNL A   1      40.645  30.499  29.733  1.00  0.00     0.167 HD
ATOM     23  C   UNL A   1      44.659  28.881  30.951  1.00  0.00     0.031 A 
ATOM     24  C   UNL A   1      38.450  32.211  29.828  1.00  0.00     0.031 A 
ATOM     25  C   UNL A   1      44.603  30.248  31.378  1.00  0.00     0.049 A 
ATOM     26  C   UNL A   1      39.592  32.857  30.557  1.00  0.00     0.074 A 
ATOM     27  C   UNL A   1      45.594  31.019  31.945  1.00  0.00     0.029 A 
ATOM     28  N   UNL A   1      43.469  31.046  31.272  1.00  0.00    -0.354 N 
ATOM     29  N   UNL A   1      40.783  32.361  30.814  1.00  0.00    -0.248 NA
ATOM     30  C   UNL A   1      39.396  34.234  31.019  1.00  0.00     0.031 C 
ATOM     31  C   UNL A   1      45.042  32.273  32.231  1.00  0.00     0.029 A 
ATOM     32  C   UNL A   1      43.727  32.300  31.783  1.00  0.00     0.049 A 
ATOM     33  H   UNL A   1      42.609  30.757  30.889  1.00  0.00     0.167 HD
ATOM     34  C   UNL A   1      41.500  33.386  31.413  1.00  0.00     0.074 A 
ATOM     35  C   UNL A   1      40.599  34.521  31.500  1.00  0.00     0.031 C 
ATOM     36  C   UNL A   1      42.792  33.400  31.826  1.00  0.00     0.031 A 
BRANCH  23  37
ATOM     37  C   UNL A   1      45.894  28.048  31.170  1.00  0.00    -0.014 A 
ATOM     38  C   UNL A   1      46.027  27.221  32.304  1.00  0.00     0.010 A 
ATOM     39  C   UNL A   1      46.973  28.155  30.277  1.00  0.00     0.010 A 
ATOM     40  C   UNL A   1      47.243  26.597  32.590  1.00  0.00     0.020 A 
ATOM     41  C   UNL A   1      48.180  27.497  30.538  1.00  0.00     0.020 A 
ATOM     42  C   UNL A   1      48.318  26.751  31.711  1.00  0.00     0.054 A 
BRANCH  42  43
ATOM     43  S   UNL A   1      49.900  25.968  32.127  1.00  0.00     0.124 S 
ATOM     44  O   UNL A   1      49.910  24.817  31.227  1.00  0.00    -0.237 OA
ATOM     45  O   UNL A   1      50.868  27.016  31.815  1.00  0.00    -0.237 OA
ATOM     46  O   UNL A   1      49.765  25.648  33.545  1.00  0.00    -0.744 OA
ENDBRANCH  42  43
ENDBRANCH  23  37
BRANCH  24  47
ATOM     47  C   UNL A   1      37.110  32.842  29.688  1.00  0.00    -0.014 A 
ATOM     48  C   UNL A   1      36.135  32.704  30.689  1.00  0.00     0.010 A 
ATOM     49  C   UNL A   1      36.838  33.675  28.585  1.00  0.00     0.010 A 
ATOM     50  C   UNL A   1      34.915  33.383  30.591  1.00  0.00     0.020 A 
ATOM     51  C   UNL A   1      35.626  34.369  28.491  1.00  0.00     0.020 A 
ATOM     52  C   UNL A   1      34.671  34.218  29.497  1.00  0.00     0.054 A 
BRANCH  52  53
ATOM     53  S   UNL A   1      33.110  35.144  29.437  1.00  0.00     0.124 S 
ATOM     54  O   UNL A   1      32.376  34.442  28.388  1.00  0.00    -0.237 OA
ATOM     55  O   UNL A   1      32.593  34.971  30.793  1.00  0.00    -0.237 OA
ATOM     56  O   UNL A   1      33.526  36.504  29.105  1.00  0.00    -0.744 OA
ENDBRANCH  52  53
ENDBRANCH  24  47
BRANCH  36  57
ATOM     57  C   UNL A   1      43.333  34.697  32.351  1.00  0.00    -0.014 A 
ATOM     58  C   UNL A   1      43.851  35.671  31.484  1.00  0.00     0.010 A 
ATOM     59  C   UNL A   1      43.173  34.990  33.719  1.00  0.00     0.010 A 
ATOM     60  C   UNL A   1      44.195  36.929  31.979  1.00  0.00     0.020 A 
ATOM     61  C   UNL A   1      43.489  36.255  34.209  1.00  0.00     0.020 A 
ATOM     62  C   UNL A   1      43.998  37.217  33.335  1.00  0.00     0.054 A 
BRANCH  62  63
ATOM     63  S   UNL A   1      44.338  38.897  33.924  1.00  0.00     0.124 S 
ATOM     64  O   UNL A   1      43.533  39.706  33.014  1.00  0.00    -0.237 OA
ATOM     65  O   UNL A   1      43.869  38.849  35.307  1.00  0.00    -0.237 OA
ATOM     66  O   UNL A   1      45.785  39.032  33.767  1.00  0.00    -0.744 OA
ENDBRANCH  62  63
ENDBRANCH  36  57
ENDBRANCH  10  11
ENDBRANCH   3   5
ENDBRANCH   2   3
ENDBRANCH   1   2
BRANCH   1  67
ATOM     67  C   UNL A   1      36.816  22.947  23.921  1.00  0.00     0.275 C 
BRANCH  67  68
ATOM     68  O   UNL A   1      35.942  23.957  24.461  1.00  0.00    -0.458 OA
BRANCH  68  69
ATOM     69  C   UNL A   1      34.688  24.070  23.936  1.00  0.00     0.340 C 
ATOM     70  O   UNL A   1      34.411  24.381  22.793  1.00  0.00    -0.246 OA
BRANCH  69  71
ATOM     71  C   UNL A   1      33.702  23.863  25.026  1.00  0.00     0.086 A 
ATOM     72  C   UNL A   1      33.959  22.792  25.900  1.00  0.00     0.057 A 
ATOM     73  C   UNL A   1      32.625  24.738  25.287  1.00  0.00     0.056 A 
ATOM     74  C   UNL A   1      33.120  22.562  26.983  1.00  0.00     0.124 A 
ATOM     75  C   UNL A   1      31.737  24.400  26.337  1.00  0.00     0.030 A 
ATOM     76  F   UNL A   1      33.431  21.605  27.865  1.00  0.00    -0.207 F 
ATOM     77  C   UNL A   1      31.978  23.318  27.181  1.00  0.00     0.041 A 
BRANCH  73  78
ATOM     78  N   UNL A   1      32.428  25.982  24.657  1.00  0.00    -0.341 N 
ATOM     79  C   UNL A   1      31.524  26.062  23.514  1.00  0.00     0.123 C 
ATOM     80  C   UNL A   1      32.755  27.234  25.228  1.00  0.00     0.044 A 
ATOM     81  C   UNL A   1      30.294  26.880  23.885  1.00  0.00     0.027 C 
ATOM     82  C   UNL A   1      31.983  28.386  24.971  1.00  0.00    -0.024 A 
ATOM     83  C   UNL A   1      33.868  27.342  26.076  1.00  0.00     0.026 A 
ATOM     84  C   UNL A   1      30.732  28.318  24.127  1.00  0.00     0.039 C 
ATOM     85  C   UNL A   1      32.378  29.621  25.502  1.00  0.00     0.006 A 
ATOM     86  C   UNL A   1      34.242  28.569  26.617  1.00  0.00     0.002 A 
ATOM     87  C   UNL A   1      33.506  29.711  26.316  1.00  0.00     0.000 A 
ENDBRANCH  73  78
ENDBRANCH  69  71
ENDBRANCH  68  69
ENDBRANCH  67  68
ENDBRANCH   1  67
TORSDOF 15
ENDMDL
