MODEL 1
REMARK VINA RESULT:     -12.8      0.000      0.000
REMARK SMILES O=C(OCCOC(=O)c1ccc(-c2c3nc(c(-c4ccc(S(=O)(=O)[O-])cc4)c4ccc([nH]4)c(-c4ccc(S(=O)(=O)[O-])cc4)c4nc(c(-c5ccc(S(=O)(=O)[O-])cc5)c5ccc2[nH]5)C=C4)C=C3)cc1)C1=Cc2cc(Cl)cc(Cl)c2O[C@@H]1C(F)(F)F
REMARK SMILES IDX 5 1 4 2 3 3 2 4 1 5 69 6 70 7 80 8 71 9 79 10 72 11 78 12
REMARK SMILES IDX 73 13 76 14 74 15 75 16 77 17 81 18 82 19 83 20 84 21 6 22
REMARK SMILES IDX 7 23 8 24 9 25 10 26 68 27 11 28 67 29 12 30 13 31 14 32
REMARK SMILES IDX 61 33 15 34 66 35 60 36 62 37 16 38 65 39 59 40 58 41 17 43
REMARK SMILES IDX 47 44 28 45 46 46 29 47 32 48 45 49 63 50 30 51 31 52 44 54
REMARK SMILES IDX 64 55 33 56 18 57 19 58 27 59 20 60 26 61 21 62 22 63 23 64
REMARK SMILES IDX 24 65 25 66 48 67 49 68 57 69 50 70 56 71 51 72 52 73 53 74
REMARK SMILES IDX 54 75 55 76 34 77 35 78 43 79 36 80 42 81 37 82 38 83 39 84
REMARK SMILES IDX 40 85 41 86
REMARK H PARENT 62 42 32 53
REMARK Flexibility Score: inf
ROOT
ATOM      1  C   UNL A   1      39.508  23.066  26.669  1.00  0.00     0.275 C 
ENDROOT
BRANCH   1   2
ATOM      2  C   UNL A   1      38.228  21.699  25.582  1.00  0.00     0.275 C 
BRANCH   2   3
ATOM      3  O   UNL A   1      36.678  21.683  25.589  1.00  0.00    -0.459 OA
BRANCH   3   4
ATOM      4  C   UNL A   1      36.140  22.351  24.560  1.00  0.00     0.338 C 
ATOM      5  O   UNL A   1      36.673  22.848  23.603  1.00  0.00    -0.246 OA
BRANCH   4   6
ATOM      6  C   UNL A   1      34.873  22.594  25.209  1.00  0.00     0.087 C 
ATOM      7  C   UNL A   1      34.809  23.903  25.862  1.00  0.00     0.027 C 
ATOM      8  C   UNL A   1      33.791  22.027  23.717  1.00  0.00     0.316 C 
ATOM      9  C   UNL A   1      33.838  25.275  25.220  1.00  0.00     0.020 A 
ATOM     10  O   UNL A   1      32.795  23.507  22.973  1.00  0.00    -0.474 OA
ATOM     11  C   UNL A   1      34.036  26.504  25.785  1.00  0.00     0.032 A 
ATOM     12  C   UNL A   1      32.910  25.155  23.758  1.00  0.00     0.146 A 
ATOM     13  C   UNL A   1      33.459  27.573  25.084  1.00  0.00     0.043 A 
ATOM     14  C   UNL A   1      32.387  26.265  23.151  1.00  0.00     0.085 A 
ATOM     15  Cl  UNL A   1      33.744  29.158  25.733  1.00  0.00    -0.084 Cl
ATOM     16  C   UNL A   1      32.690  27.467  23.848  1.00  0.00     0.045 A 
ATOM     17  Cl  UNL A   1      31.539  26.284  21.681  1.00  0.00    -0.080 Cl
BRANCH   8  18
ATOM     18  C   UNL A   1      33.399  20.626  24.361  1.00  0.00     0.430 C 
ATOM     19  F   UNL A   1      32.637  20.780  25.452  1.00  0.00    -0.167 F 
ATOM     20  F   UNL A   1      32.577  19.957  23.491  1.00  0.00    -0.167 F 
ATOM     21  F   UNL A   1      34.376  19.731  24.564  1.00  0.00    -0.167 F 
ENDBRANCH   8  18
ENDBRANCH   4   6
ENDBRANCH   3   4
ENDBRANCH   2   3
ENDBRANCH   1   2
BRANCH   1  22
ATOM     22  O   UNL A   1      39.617  24.776  26.378  1.00  0.00    -0.458 OA
BRANCH  22  23
ATOM     23  C   UNL A   1      40.496  25.835  26.311  1.00  0.00     0.338 C 
ATOM     24  O   UNL A   1      41.313  26.115  25.452  1.00  0.00    -0.246 OA
BRANCH  23  25
ATOM     25  C   UNL A   1      39.983  26.855  27.283  1.00  0.00     0.060 A 
ATOM     26  C   UNL A   1      39.286  26.406  28.420  1.00  0.00     0.016 A 
ATOM     27  C   UNL A   1      40.520  28.141  27.267  1.00  0.00     0.016 A 
ATOM     28  C   UNL A   1      39.336  27.156  29.612  1.00  0.00     0.010 A 
ATOM     29  C   UNL A   1      40.563  28.884  28.452  1.00  0.00     0.010 A 
ATOM     30  C   UNL A   1      40.038  28.369  29.652  1.00  0.00    -0.014 A 
BRANCH  30  31
ATOM     31  C   UNL A   1      40.001  29.247  30.854  1.00  0.00     0.031 A 
ATOM     32  C   UNL A   1      41.092  28.999  31.855  1.00  0.00     0.074 A 
ATOM     33  C   UNL A   1      39.039  30.164  31.110  1.00  0.00     0.049 A 
ATOM     34  N   UNL A   1      41.289  29.534  33.027  1.00  0.00    -0.248 NA
ATOM     35  C   UNL A   1      42.079  27.970  31.479  1.00  0.00     0.031 C 
ATOM     36  C   UNL A   1      37.913  30.505  30.240  1.00  0.00     0.029 A 
ATOM     37  N   UNL A   1      38.850  30.975  32.212  1.00  0.00    -0.354 N 
ATOM     38  C   UNL A   1      42.428  28.913  33.520  1.00  0.00     0.074 A 
ATOM     39  C   UNL A   1      42.824  27.907  32.565  1.00  0.00     0.031 C 
ATOM     40  C   UNL A   1      37.154  31.446  30.841  1.00  0.00     0.029 A 
ATOM     41  C   UNL A   1      37.725  31.772  32.148  1.00  0.00     0.049 A 
ATOM     42  H   UNL A   1      39.467  30.985  32.979  1.00  0.00     0.167 HD
ATOM     43  C   UNL A   1      43.116  29.174  34.651  1.00  0.00     0.031 A 
ATOM     44  C   UNL A   1      37.223  32.657  33.042  1.00  0.00     0.031 A 
ATOM     45  C   UNL A   1      42.709  30.141  35.624  1.00  0.00     0.049 A 
ATOM     46  C   UNL A   1      37.969  32.878  34.346  1.00  0.00     0.074 A 
ATOM     47  C   UNL A   1      43.322  30.475  36.816  1.00  0.00     0.029 A 
ATOM     48  N   UNL A   1      41.572  30.926  35.516  1.00  0.00    -0.354 N 
ATOM     49  N   UNL A   1      39.086  32.328  34.766  1.00  0.00    -0.248 NA
ATOM     50  C   UNL A   1      37.395  33.850  35.291  1.00  0.00     0.031 C 
ATOM     51  C   UNL A   1      42.529  31.433  37.453  1.00  0.00     0.029 A 
ATOM     52  C   UNL A   1      41.457  31.740  36.627  1.00  0.00     0.049 A 
ATOM     53  H   UNL A   1      40.940  30.907  34.761  1.00  0.00     0.167 HD
ATOM     54  C   UNL A   1      39.369  32.924  35.995  1.00  0.00     0.074 A 
ATOM     55  C   UNL A   1      38.313  33.880  36.248  1.00  0.00     0.031 C 
ATOM     56  C   UNL A   1      40.408  32.704  36.839  1.00  0.00     0.031 A 
BRANCH  43  57
ATOM     57  C   UNL A   1      44.371  28.379  34.861  1.00  0.00    -0.014 A 
ATOM     58  C   UNL A   1      44.330  27.156  35.562  1.00  0.00     0.010 A 
ATOM     59  C   UNL A   1      45.607  28.879  34.419  1.00  0.00     0.010 A 
ATOM     60  C   UNL A   1      45.509  26.480  35.868  1.00  0.00     0.020 A 
ATOM     61  C   UNL A   1      46.787  28.184  34.693  1.00  0.00     0.020 A 
ATOM     62  C   UNL A   1      46.730  27.001  35.435  1.00  0.00     0.054 A 
BRANCH  62  63
ATOM     63  S   UNL A   1      48.247  26.096  35.844  1.00  0.00     0.124 S 
ATOM     64  O   UNL A   1      49.264  27.136  35.702  1.00  0.00    -0.237 OA
ATOM     65  O   UNL A   1      47.991  25.650  37.211  1.00  0.00    -0.237 OA
ATOM     66  O   UNL A   1      48.298  25.034  34.843  1.00  0.00    -0.744 OA
ENDBRANCH  62  63
ENDBRANCH  43  57
BRANCH  44  67
ATOM     67  C   UNL A   1      35.963  33.427  32.776  1.00  0.00    -0.014 A 
ATOM     68  C   UNL A   1      35.992  34.618  32.022  1.00  0.00     0.010 A 
ATOM     69  C   UNL A   1      34.739  33.032  33.349  1.00  0.00     0.010 A 
ATOM     70  C   UNL A   1      34.844  35.412  31.881  1.00  0.00     0.020 A 
ATOM     71  C   UNL A   1      33.581  33.807  33.185  1.00  0.00     0.020 A 
ATOM     72  C   UNL A   1      33.644  35.002  32.467  1.00  0.00     0.054 A 
BRANCH  72  73
ATOM     73  S   UNL A   1      32.166  36.042  32.263  1.00  0.00     0.124 S 
ATOM     74  O   UNL A   1      32.242  36.410  30.852  1.00  0.00    -0.237 OA
ATOM     75  O   UNL A   1      31.085  35.128  32.619  1.00  0.00    -0.237 OA
ATOM     76  O   UNL A   1      32.385  37.136  33.206  1.00  0.00    -0.744 OA
ENDBRANCH  72  73
ENDBRANCH  44  67
BRANCH  56  77
ATOM     77  C   UNL A   1      40.501  33.549  38.084  1.00  0.00    -0.014 A 
ATOM     78  C   UNL A   1      41.150  34.794  38.083  1.00  0.00     0.010 A 
ATOM     79  C   UNL A   1      39.838  33.122  39.251  1.00  0.00     0.010 A 
ATOM     80  C   UNL A   1      41.155  35.587  39.234  1.00  0.00     0.020 A 
ATOM     81  C   UNL A   1      39.813  33.926  40.393  1.00  0.00     0.020 A 
ATOM     82  C   UNL A   1      40.484  35.149  40.380  1.00  0.00     0.054 A 
BRANCH  82  83
ATOM     83  S   UNL A   1      40.456  36.224  41.841  1.00  0.00     0.124 S 
ATOM     84  O   UNL A   1      41.778  36.841  41.790  1.00  0.00    -0.237 OA
ATOM     85  O   UNL A   1      39.335  37.117  41.559  1.00  0.00    -0.237 OA
ATOM     86  O   UNL A   1      40.243  35.298  42.950  1.00  0.00    -0.744 OA
ENDBRANCH  82  83
ENDBRANCH  56  77
ENDBRANCH  30  31
ENDBRANCH  23  25
ENDBRANCH  22  23
ENDBRANCH   1  22
TORSDOF 15
ENDMDL
MODEL 2
REMARK VINA RESULT:     -12.5      3.512      4.367
REMARK SMILES O=C(OCCOC(=O)c1ccc(-c2c3nc(c(-c4ccc(S(=O)(=O)[O-])cc4)c4ccc([nH]4)c(-c4ccc(S(=O)(=O)[O-])cc4)c4nc(c(-c5ccc(S(=O)(=O)[O-])cc5)c5ccc2[nH]5)C=C4)C=C3)cc1)C1=Cc2cc(Cl)cc(Cl)c2O[C@@H]1C(F)(F)F
REMARK SMILES IDX 5 1 4 2 3 3 2 4 1 5 69 6 70 7 80 8 71 9 79 10 72 11 78 12
REMARK SMILES IDX 73 13 76 14 74 15 75 16 77 17 81 18 82 19 83 20 84 21 6 22
REMARK SMILES IDX 7 23 8 24 9 25 10 26 68 27 11 28 67 29 12 30 13 31 14 32
REMARK SMILES IDX 61 33 15 34 66 35 60 36 62 37 16 38 65 39 59 40 58 41 17 43
REMARK SMILES IDX 47 44 28 45 46 46 29 47 32 48 45 49 63 50 30 51 31 52 44 54
REMARK SMILES IDX 64 55 33 56 18 57 19 58 27 59 20 60 26 61 21 62 22 63 23 64
REMARK SMILES IDX 24 65 25 66 48 67 49 68 57 69 50 70 56 71 51 72 52 73 53 74
REMARK SMILES IDX 54 75 55 76 34 77 35 78 43 79 36 80 42 81 37 82 38 83 39 84
REMARK SMILES IDX 40 85 41 86
REMARK H PARENT 62 42 32 53
REMARK Flexibility Score: inf
ROOT
ATOM      1  C   UNL A   1      37.174  21.874  25.197  1.00  0.00     0.275 C 
ENDROOT
BRANCH   1   2
ATOM      2  C   UNL A   1      35.781  23.015  23.994  1.00  0.00     0.275 C 
BRANCH   2   3
ATOM      3  O   UNL A   1      35.229  24.427  24.313  1.00  0.00    -0.459 OA
BRANCH   3   4
ATOM      4  C   UNL A   1      34.149  24.747  23.588  1.00  0.00     0.338 C 
ATOM      5  O   UNL A   1      34.070  25.098  22.441  1.00  0.00    -0.246 OA
BRANCH   4   6
ATOM      6  C   UNL A   1      33.274  24.914  24.725  1.00  0.00     0.087 C 
ATOM      7  C   UNL A   1      33.786  25.876  25.702  1.00  0.00     0.027 C 
ATOM      8  C   UNL A   1      31.662  25.117  23.686  1.00  0.00     0.316 C 
ATOM      9  C   UNL A   1      33.084  27.516  25.929  1.00  0.00     0.020 A 
ATOM     10  O   UNL A   1      30.934  26.900  23.865  1.00  0.00    -0.474 OA
ATOM     11  C   UNL A   1      33.784  28.399  26.704  1.00  0.00     0.032 A 
ATOM     12  C   UNL A   1      31.745  28.095  24.987  1.00  0.00     0.146 A 
ATOM     13  C   UNL A   1      33.336  29.726  26.633  1.00  0.00     0.043 A 
ATOM     14  C   UNL A   1      31.388  29.416  24.990  1.00  0.00     0.085 A 
ATOM     15  Cl  UNL A   1      34.241  30.890  27.552  1.00  0.00    -0.084 Cl
ATOM     16  C   UNL A   1      32.217  30.208  25.829  1.00  0.00     0.045 A 
ATOM     17  Cl  UNL A   1      30.158  30.112  24.050  1.00  0.00    -0.080 Cl
BRANCH   8  18
ATOM     18  C   UNL A   1      31.121  23.652  23.990  1.00  0.00     0.430 C 
ATOM     19  F   UNL A   1      30.395  23.618  25.115  1.00  0.00    -0.167 F 
ATOM     20  F   UNL A   1      30.218  23.307  23.019  1.00  0.00    -0.167 F 
ATOM     21  F   UNL A   1      31.992  22.635  23.935  1.00  0.00    -0.167 F 
ENDBRANCH   8  18
ENDBRANCH   4   6
ENDBRANCH   3   4
ENDBRANCH   2   3
ENDBRANCH   1   2
BRANCH   1  22
ATOM     22  O   UNL A   1      38.850  22.269  25.429  1.00  0.00    -0.458 OA
BRANCH  22  23
ATOM     23  C   UNL A   1      39.802  22.544  26.387  1.00  0.00     0.338 C 
ATOM     24  O   UNL A   1      40.818  21.936  26.671  1.00  0.00    -0.246 OA
BRANCH  23  25
ATOM     25  C   UNL A   1      39.609  23.985  26.754  1.00  0.00     0.060 A 
ATOM     26  C   UNL A   1      38.969  24.287  27.971  1.00  0.00     0.016 A 
ATOM     27  C   UNL A   1      40.380  24.957  26.120  1.00  0.00     0.016 A 
ATOM     28  C   UNL A   1      39.297  25.474  28.657  1.00  0.00     0.010 A 
ATOM     29  C   UNL A   1      40.698  26.137  26.803  1.00  0.00     0.010 A 
ATOM     30  C   UNL A   1      40.222  26.373  28.106  1.00  0.00    -0.014 A 
BRANCH  30  31
ATOM     31  C   UNL A   1      40.491  27.694  28.739  1.00  0.00     0.031 A 
ATOM     32  C   UNL A   1      41.834  27.820  29.397  1.00  0.00     0.074 A 
ATOM     33  C   UNL A   1      39.600  28.710  28.811  1.00  0.00     0.049 A 
ATOM     34  N   UNL A   1      42.335  28.801  30.095  1.00  0.00    -0.248 NA
ATOM     35  C   UNL A   1      42.719  26.648  29.267  1.00  0.00     0.031 C 
ATOM     36  C   UNL A   1      38.256  28.729  28.232  1.00  0.00     0.029 A 
ATOM     37  N   UNL A   1      39.699  29.941  29.431  1.00  0.00    -0.354 N 
ATOM     38  C   UNL A   1      43.596  28.364  30.476  1.00  0.00     0.074 A 
ATOM     39  C   UNL A   1      43.748  27.007  30.010  1.00  0.00     0.031 C 
ATOM     40  C   UNL A   1      37.659  29.902  28.528  1.00  0.00     0.029 A 
ATOM     41  C   UNL A   1      38.566  30.723  29.331  1.00  0.00     0.049 A 
ATOM     42  H   UNL A   1      40.510  30.235  29.906  1.00  0.00     0.167 HD
ATOM     43  C   UNL A   1      44.568  29.038  31.126  1.00  0.00     0.031 A 
ATOM     44  C   UNL A   1      38.302  31.954  29.830  1.00  0.00     0.031 A 
ATOM     45  C   UNL A   1      44.413  30.369  31.628  1.00  0.00     0.049 A 
ATOM     46  C   UNL A   1      39.380  32.664  30.628  1.00  0.00     0.074 A 
ATOM     47  C   UNL A   1      45.327  31.141  32.317  1.00  0.00     0.029 A 
ATOM     48  N   UNL A   1      43.256  31.123  31.499  1.00  0.00    -0.354 N 
ATOM     49  N   UNL A   1      40.596  32.261  30.922  1.00  0.00    -0.248 NA
ATOM     50  C   UNL A   1      39.057  34.002  31.151  1.00  0.00     0.031 C 
ATOM     51  C   UNL A   1      44.706  32.350  32.647  1.00  0.00     0.029 A 
ATOM     52  C   UNL A   1      43.428  32.352  32.106  1.00  0.00     0.049 A 
ATOM     53  H   UNL A   1      42.435  30.826  31.043  1.00  0.00     0.167 HD
ATOM     54  C   UNL A   1      41.192  33.313  31.616  1.00  0.00     0.074 A 
ATOM     55  C   UNL A   1      40.210  34.372  31.693  1.00  0.00     0.031 C 
ATOM     56  C   UNL A   1      42.440  33.399  32.143  1.00  0.00     0.031 A 
BRANCH  43  57
ATOM     57  C   UNL A   1      45.867  28.310  31.314  1.00  0.00    -0.014 A 
ATOM     58  C   UNL A   1      46.095  27.552  32.479  1.00  0.00     0.010 A 
ATOM     59  C   UNL A   1      46.890  28.434  30.360  1.00  0.00     0.010 A 
ATOM     60  C   UNL A   1      47.343  26.980  32.715  1.00  0.00     0.020 A 
ATOM     61  C   UNL A   1      48.131  27.832  30.576  1.00  0.00     0.020 A 
ATOM     62  C   UNL A   1      48.355  27.127  31.763  1.00  0.00     0.054 A 
BRANCH  62  63
ATOM     63  S   UNL A   1      49.967  26.369  32.094  1.00  0.00     0.124 S 
ATOM     64  O   UNL A   1      50.779  27.531  32.449  1.00  0.00    -0.237 OA
ATOM     65  O   UNL A   1      49.668  25.453  33.192  1.00  0.00    -0.237 OA
ATOM     66  O   UNL A   1      50.316  25.729  30.829  1.00  0.00    -0.744 OA
ENDBRANCH  62  63
ENDBRANCH  43  57
BRANCH  44  67
ATOM     67  C   UNL A   1      36.983  32.635  29.607  1.00  0.00    -0.014 A 
ATOM     68  C   UNL A   1      36.785  33.476  28.493  1.00  0.00     0.010 A 
ATOM     69  C   UNL A   1      35.944  32.525  30.550  1.00  0.00     0.010 A 
ATOM     70  C   UNL A   1      35.604  34.219  28.349  1.00  0.00     0.020 A 
ATOM     71  C   UNL A   1      34.748  33.243  30.395  1.00  0.00     0.020 A 
ATOM     72  C   UNL A   1      34.592  34.100  29.304  1.00  0.00     0.054 A 
BRANCH  72  73
ATOM     73  S   UNL A   1      33.065  35.064  29.092  1.00  0.00     0.124 S 
ATOM     74  O   UNL A   1      32.501  35.047  30.438  1.00  0.00    -0.237 OA
ATOM     75  O   UNL A   1      33.568  36.357  28.635  1.00  0.00    -0.237 OA
ATOM     76  O   UNL A   1      32.317  34.305  28.092  1.00  0.00    -0.744 OA
ENDBRANCH  72  73
ENDBRANCH  44  67
BRANCH  56  77
ATOM     77  C   UNL A   1      42.848  34.697  32.792  1.00  0.00    -0.014 A 
ATOM     78  C   UNL A   1      42.726  34.899  34.176  1.00  0.00     0.010 A 
ATOM     79  C   UNL A   1      43.456  35.694  32.003  1.00  0.00     0.010 A 
ATOM     80  C   UNL A   1      43.182  36.086  34.757  1.00  0.00     0.020 A 
ATOM     81  C   UNL A   1      43.942  36.866  32.586  1.00  0.00     0.020 A 
ATOM     82  C   UNL A   1      43.790  37.060  33.959  1.00  0.00     0.054 A 
BRANCH  82  83
ATOM     83  S   UNL A   1      44.427  38.564  34.748  1.00  0.00     0.124 S 
ATOM     84  O   UNL A   1      43.998  38.387  36.132  1.00  0.00    -0.237 OA
ATOM     85  O   UNL A   1      45.865  38.462  34.517  1.00  0.00    -0.237 OA
ATOM     86  O   UNL A   1      43.762  39.645  34.024  1.00  0.00    -0.744 OA
ENDBRANCH  82  83
ENDBRANCH  56  77
ENDBRANCH  30  31
ENDBRANCH  23  25
ENDBRANCH  22  23
ENDBRANCH   1  22
TORSDOF 15
ENDMDL
MODEL 3
REMARK VINA RESULT:     -12.3      5.712     12.277
REMARK SMILES O=C(OCCOC(=O)c1ccc(-c2c3nc(c(-c4ccc(S(=O)(=O)[O-])cc4)c4ccc([nH]4)c(-c4ccc(S(=O)(=O)[O-])cc4)c4nc(c(-c5ccc(S(=O)(=O)[O-])cc5)c5ccc2[nH]5)C=C4)C=C3)cc1)C1=Cc2cc(Cl)cc(Cl)c2O[C@@H]1C(F)(F)F
REMARK SMILES IDX 5 1 4 2 3 3 2 4 1 5 69 6 70 7 80 8 71 9 79 10 72 11 78 12
REMARK SMILES IDX 73 13 76 14 74 15 75 16 77 17 81 18 82 19 83 20 84 21 6 22
REMARK SMILES IDX 7 23 8 24 9 25 10 26 68 27 11 28 67 29 12 30 13 31 14 32
REMARK SMILES IDX 61 33 15 34 66 35 60 36 62 37 16 38 65 39 59 40 58 41 17 43
REMARK SMILES IDX 47 44 28 45 46 46 29 47 32 48 45 49 63 50 30 51 31 52 44 54
REMARK SMILES IDX 64 55 33 56 18 57 19 58 27 59 20 60 26 61 21 62 22 63 23 64
REMARK SMILES IDX 24 65 25 66 48 67 49 68 57 69 50 70 56 71 51 72 52 73 53 74
REMARK SMILES IDX 54 75 55 76 34 77 35 78 43 79 36 80 42 81 37 82 38 83 39 84
REMARK SMILES IDX 40 85 41 86
REMARK H PARENT 62 42 32 53
REMARK Flexibility Score: inf
ROOT
ATOM      1  C   UNL A   1      33.425  33.315  27.848  1.00  0.00     0.275 C 
ENDROOT
BRANCH   1   2
ATOM      2  C   UNL A   1      33.281  34.467  29.677  1.00  0.00     0.275 C 
BRANCH   2   3
ATOM      3  O   UNL A   1      34.433  34.767  30.670  1.00  0.00    -0.459 OA
BRANCH   3   4
ATOM      4  C   UNL A   1      34.863  33.679  31.322  1.00  0.00     0.338 C 
ATOM      5  O   UNL A   1      34.253  32.707  31.682  1.00  0.00    -0.246 OA
BRANCH   4   6
ATOM      6  C   UNL A   1      36.106  34.271  31.759  1.00  0.00     0.087 C 
ATOM      7  C   UNL A   1      36.121  34.570  33.193  1.00  0.00     0.027 C 
ATOM      8  C   UNL A   1      37.242  32.996  30.865  1.00  0.00     0.316 C 
ATOM      9  C   UNL A   1      37.076  33.619  34.385  1.00  0.00     0.020 A 
ATOM     10  O   UNL A   1      38.223  31.919  32.136  1.00  0.00    -0.474 OA
ATOM     11  C   UNL A   1      36.834  33.848  35.711  1.00  0.00     0.032 A 
ATOM     12  C   UNL A   1      38.048  32.256  33.925  1.00  0.00     0.146 A 
ATOM     13  C   UNL A   1      37.405  32.909  36.583  1.00  0.00     0.043 A 
ATOM     14  C   UNL A   1      38.560  31.397  34.860  1.00  0.00     0.085 A 
ATOM     15  Cl  UNL A   1      37.065  33.127  38.272  1.00  0.00    -0.084 Cl
ATOM     16  C   UNL A   1      38.210  31.757  36.189  1.00  0.00     0.045 A 
ATOM     17  Cl  UNL A   1      39.448  29.988  34.529  1.00  0.00    -0.080 Cl
BRANCH   8  18
ATOM     18  C   UNL A   1      37.649  33.984  29.685  1.00  0.00     0.430 C 
ATOM     19  F   UNL A   1      38.261  35.080  30.150  1.00  0.00    -0.167 F 
ATOM     20  F   UNL A   1      38.614  33.381  28.921  1.00  0.00    -0.167 F 
ATOM     21  F   UNL A   1      36.719  34.288  28.770  1.00  0.00    -0.167 F 
ENDBRANCH   8  18
ENDBRANCH   4   6
ENDBRANCH   3   4
ENDBRANCH   2   3
ENDBRANCH   1   2
BRANCH   1  22
ATOM     22  O   UNL A   1      34.460  31.939  27.614  1.00  0.00    -0.458 OA
BRANCH  22  23
ATOM     23  C   UNL A   1      34.640  30.616  27.953  1.00  0.00     0.338 C 
ATOM     24  O   UNL A   1      34.006  29.633  27.615  1.00  0.00    -0.246 OA
BRANCH  23  25
ATOM     25  C   UNL A   1      36.038  30.516  28.486  1.00  0.00     0.060 A 
ATOM     26  C   UNL A   1      36.250  29.813  29.687  1.00  0.00     0.016 A 
ATOM     27  C   UNL A   1      37.111  30.757  27.630  1.00  0.00     0.016 A 
ATOM     28  C   UNL A   1      37.477  29.156  29.905  1.00  0.00     0.010 A 
ATOM     29  C   UNL A   1      38.329  30.106  27.854  1.00  0.00     0.010 A 
ATOM     30  C   UNL A   1      38.502  29.242  28.951  1.00  0.00    -0.014 A 
BRANCH  30  31
ATOM     31  C   UNL A   1      39.852  28.671  29.210  1.00  0.00     0.031 A 
ATOM     32  C   UNL A   1      40.818  29.605  29.879  1.00  0.00     0.074 A 
ATOM     33  C   UNL A   1      40.254  27.438  28.826  1.00  0.00     0.049 A 
ATOM     34  N   UNL A   1      42.080  29.441  30.165  1.00  0.00    -0.248 NA
ATOM     35  C   UNL A   1      40.277  30.928  30.242  1.00  0.00     0.031 C 
ATOM     36  C   UNL A   1      39.433  26.427  28.158  1.00  0.00     0.029 A 
ATOM     37  N   UNL A   1      41.488  26.828  28.936  1.00  0.00    -0.354 N 
ATOM     38  C   UNL A   1      42.475  30.635  30.751  1.00  0.00     0.074 A 
ATOM     39  C   UNL A   1      41.352  31.540  30.700  1.00  0.00     0.031 C 
ATOM     40  C   UNL A   1      40.185  25.332  27.915  1.00  0.00     0.029 A 
ATOM     41  C   UNL A   1      41.549  25.559  28.394  1.00  0.00     0.049 A 
ATOM     42  H   UNL A   1      42.262  27.261  29.364  1.00  0.00     0.167 HD
ATOM     43  C   UNL A   1      43.657  30.951  31.321  1.00  0.00     0.031 A 
ATOM     44  C   UNL A   1      42.584  24.692  28.301  1.00  0.00     0.031 A 
ATOM     45  C   UNL A   1      44.790  30.076  31.340  1.00  0.00     0.049 A 
ATOM     46  C   UNL A   1      43.930  25.098  28.876  1.00  0.00     0.074 A 
ATOM     47  C   UNL A   1      46.043  30.302  31.875  1.00  0.00     0.029 A 
ATOM     48  N   UNL A   1      44.803  28.804  30.788  1.00  0.00    -0.354 N 
ATOM     49  N   UNL A   1      44.268  26.210  29.490  1.00  0.00    -0.248 NA
ATOM     50  C   UNL A   1      45.030  24.127  28.761  1.00  0.00     0.031 C 
ATOM     51  C   UNL A   1      46.832  29.180  31.606  1.00  0.00     0.029 A 
ATOM     52  C   UNL A   1      46.049  28.233  30.960  1.00  0.00     0.049 A 
ATOM     53  H   UNL A   1      44.039  28.373  30.341  1.00  0.00     0.167 HD
ATOM     54  C   UNL A   1      45.598  26.048  29.873  1.00  0.00     0.074 A 
ATOM     55  C   UNL A   1      46.003  24.731  29.430  1.00  0.00     0.031 C 
ATOM     56  C   UNL A   1      46.415  26.907  30.532  1.00  0.00     0.031 A 
BRANCH  43  57
ATOM     57  C   UNL A   1      43.745  32.309  31.954  1.00  0.00    -0.014 A 
ATOM     58  C   UNL A   1      43.325  32.501  33.286  1.00  0.00     0.010 A 
ATOM     59  C   UNL A   1      44.183  33.411  31.203  1.00  0.00     0.010 A 
ATOM     60  C   UNL A   1      43.286  33.781  33.834  1.00  0.00     0.020 A 
ATOM     61  C   UNL A   1      44.179  34.691  31.762  1.00  0.00     0.020 A 
ATOM     62  C   UNL A   1      43.710  34.869  33.067  1.00  0.00     0.054 A 
BRANCH  62  63
ATOM     63  S   UNL A   1      43.652  36.521  33.808  1.00  0.00     0.124 S 
ATOM     64  O   UNL A   1      42.358  36.501  34.488  1.00  0.00    -0.237 OA
ATOM     65  O   UNL A   1      44.821  36.518  34.684  1.00  0.00    -0.237 OA
ATOM     66  O   UNL A   1      43.738  37.420  32.660  1.00  0.00    -0.744 OA
ENDBRANCH  62  63
ENDBRANCH  43  57
BRANCH  44  67
ATOM     67  C   UNL A   1      42.436  23.344  27.658  1.00  0.00    -0.014 A 
ATOM     68  C   UNL A   1      41.834  22.276  28.355  1.00  0.00     0.010 A 
ATOM     69  C   UNL A   1      42.976  23.087  26.384  1.00  0.00     0.010 A 
ATOM     70  C   UNL A   1      41.812  20.981  27.813  1.00  0.00     0.020 A 
ATOM     71  C   UNL A   1      42.928  21.801  25.825  1.00  0.00     0.020 A 
ATOM     72  C   UNL A   1      42.363  20.751  26.551  1.00  0.00     0.054 A 
BRANCH  72  73
ATOM     73  S   UNL A   1      42.313  19.068  25.864  1.00  0.00     0.124 S 
ATOM     74  O   UNL A   1      42.899  18.279  26.942  1.00  0.00    -0.237 OA
ATOM     75  O   UNL A   1      40.885  18.862  25.634  1.00  0.00    -0.237 OA
ATOM     76  O   UNL A   1      43.124  19.169  24.652  1.00  0.00    -0.744 OA
ENDBRANCH  72  73
ENDBRANCH  44  67
BRANCH  56  77
ATOM     77  C   UNL A   1      47.806  26.440  30.879  1.00  0.00    -0.014 A 
ATOM     78  C   UNL A   1      48.884  26.616  29.997  1.00  0.00     0.010 A 
ATOM     79  C   UNL A   1      48.047  25.902  32.159  1.00  0.00     0.010 A 
ATOM     80  C   UNL A   1      50.175  26.239  30.378  1.00  0.00     0.020 A 
ATOM     81  C   UNL A   1      49.340  25.555  32.554  1.00  0.00     0.020 A 
ATOM     82  C   UNL A   1      50.395  25.714  31.655  1.00  0.00     0.054 A 
BRANCH  82  83
ATOM     83  S   UNL A   1      52.089  25.289  32.146  1.00  0.00     0.124 S 
ATOM     84  O   UNL A   1      52.866  25.776  31.010  1.00  0.00    -0.237 OA
ATOM     85  O   UNL A   1      52.258  26.035  33.390  1.00  0.00    -0.237 OA
ATOM     86  O   UNL A   1      52.052  23.837  32.298  1.00  0.00    -0.744 OA
ENDBRANCH  82  83
ENDBRANCH  56  77
ENDBRANCH  30  31
ENDBRANCH  23  25
ENDBRANCH  22  23
ENDBRANCH   1  22
TORSDOF 15
ENDMDL
