MODEL 1
REMARK VINA RESULT:      -8.6      0.000      0.000
REMARK SMILES CCCN(CC)C(=O)N(CC(=O)OCCOC(=O)c1ccc(-c2c3nc(c(-c4ccc(S(=O)(=O)[O-])cc4)c4ccc([nH]4)c(-c4ccc(S(=O)(=O)[O-])cc4)c4nc(c(-c5ccc(S(=O)(=O)[O-])cc5)c5ccc2[nH]5)C=C4)C=C3)cc1)C(C)(C)C
REMARK SMILES IDX 14 1 13 2 11 3 12 4 10 5 9 6 7 7 8 8 4 9 3 10 2 11 1 12 5 13
REMARK SMILES IDX 6 14 79 15 80 16 81 17 82 18 15 19 16 20 17 21 18 22 19 23
REMARK SMILES IDX 20 24 78 25 21 26 77 27 22 28 23 29 24 30 71 31 25 32 76 33
REMARK SMILES IDX 70 34 72 35 26 36 75 37 69 38 68 39 27 41 57 42 38 43 56 44
REMARK SMILES IDX 39 45 42 46 55 47 73 48 40 49 41 50 54 52 74 53 43 54 28 55
REMARK SMILES IDX 29 56 37 57 30 58 36 59 31 60 32 61 33 62 34 63 35 64 58 65
REMARK SMILES IDX 59 66 67 67 60 68 66 69 61 70 62 71 63 72 64 73 65 74 44 75
REMARK SMILES IDX 45 76 53 77 46 78 52 79 47 80 48 81 49 82 50 83 51 84
REMARK H PARENT 72 40 42 51
REMARK Flexibility Score: inf
ROOT
ATOM      1  C   UNL A   1      32.705  27.833  26.954  1.00  0.00     0.274 C 
ENDROOT
BRANCH   1   2
ATOM      2  O   UNL A   1      31.426  27.174  27.055  1.00  0.00    -0.461 OA
BRANCH   2   3
ATOM      3  C   UNL A   1      30.763  26.987  25.879  1.00  0.00     0.325 C 
ATOM      4  O   UNL A   1      30.858  27.725  24.903  1.00  0.00    -0.250 OA
BRANCH   3   5
ATOM      5  C   UNL A   1      30.020  25.655  25.819  1.00  0.00     0.244 C 
BRANCH   5   6
ATOM      6  N   UNL A   1      30.738  24.519  25.246  1.00  0.00    -0.309 N 
BRANCH   6   7
ATOM      7  C   UNL A   1      31.176  24.454  23.927  1.00  0.00     0.320 C 
ATOM      8  O   UNL A   1      30.400  24.025  23.062  1.00  0.00    -0.248 OA
BRANCH   7   9
ATOM      9  N   UNL A   1      32.470  24.769  23.523  1.00  0.00    -0.325 N 
BRANCH   9  10
ATOM     10  C   UNL A   1      32.786  24.406  22.126  1.00  0.00     0.121 C 
BRANCH  10  11
ATOM     11  C   UNL A   1      32.967  25.633  21.219  1.00  0.00     0.018 C 
ATOM     12  C   UNL A   1      32.409  25.451  19.816  1.00  0.00     0.006 C 
ENDBRANCH  10  11
ENDBRANCH   9  10
BRANCH   9  13
ATOM     13  C   UNL A   1      33.591  25.450  24.191  1.00  0.00     0.118 C 
ATOM     14  C   UNL A   1      34.655  24.466  24.657  1.00  0.00     0.027 C 
ENDBRANCH   9  13
ENDBRANCH   7   9
ENDBRANCH   6   7
BRANCH   6  15
ATOM     15  C   UNL A   1      31.056  23.335  26.161  1.00  0.00     0.037 C 
ATOM     16  C   UNL A   1      29.825  22.937  27.004  1.00  0.00     0.034 C 
ATOM     17  C   UNL A   1      31.551  22.130  25.320  1.00  0.00     0.034 C 
ATOM     18  C   UNL A   1      32.199  23.584  27.184  1.00  0.00     0.034 C 
ENDBRANCH   6  15
ENDBRANCH   5   6
ENDBRANCH   3   5
ENDBRANCH   2   3
ENDBRANCH   1   2
BRANCH   1  19
ATOM     19  C   UNL A   1      32.552  29.330  27.216  1.00  0.00     0.275 C 
BRANCH  19  20
ATOM     20  O   UNL A   1      33.743  30.016  26.790  1.00  0.00    -0.458 OA
BRANCH  20  21
ATOM     21  C   UNL A   1      34.161  31.023  27.593  1.00  0.00     0.338 C 
ATOM     22  O   UNL A   1      33.566  32.063  27.828  1.00  0.00    -0.246 OA
BRANCH  21  23
ATOM     23  C   UNL A   1      35.470  30.691  28.202  1.00  0.00     0.060 A 
ATOM     24  C   UNL A   1      35.655  29.533  28.961  1.00  0.00     0.016 A 
ATOM     25  C   UNL A   1      36.512  31.614  28.089  1.00  0.00     0.016 A 
ATOM     26  C   UNL A   1      36.843  29.336  29.667  1.00  0.00     0.010 A 
ATOM     27  C   UNL A   1      37.738  31.361  28.709  1.00  0.00     0.010 A 
ATOM     28  C   UNL A   1      37.913  30.229  29.522  1.00  0.00    -0.014 A 
BRANCH  28  29
ATOM     29  C   UNL A   1      39.230  29.978  30.172  1.00  0.00     0.031 A 
ATOM     30  C   UNL A   1      40.149  28.902  29.652  1.00  0.00     0.074 A 
ATOM     31  C   UNL A   1      39.580  30.672  31.275  1.00  0.00     0.049 A 
ATOM     32  N   UNL A   1      41.204  28.373  30.219  1.00  0.00    -0.248 NA
ATOM     33  C   UNL A   1      39.830  28.335  28.331  1.00  0.00     0.031 C 
ATOM     34  C   UNL A   1      38.807  31.760  31.879  1.00  0.00     0.029 A 
ATOM     35  N   UNL A   1      40.674  30.553  32.096  1.00  0.00    -0.354 N 
ATOM     36  C   UNL A   1      41.639  27.373  29.357  1.00  0.00     0.074 A 
ATOM     37  C   UNL A   1      40.739  27.375  28.222  1.00  0.00     0.031 C 
ATOM     38  C   UNL A   1      39.458  32.221  32.956  1.00  0.00     0.029 A 
ATOM     39  C   UNL A   1      40.646  31.405  33.174  1.00  0.00     0.049 A 
ATOM     40  H   UNL A   1      41.408  29.918  31.928  1.00  0.00     0.167 HD
ATOM     41  C   UNL A   1      42.685  26.525  29.502  1.00  0.00     0.031 A 
ATOM     42  C   UNL A   1      41.447  31.493  34.253  1.00  0.00     0.031 A 
ATOM     43  C   UNL A   1      43.599  26.548  30.615  1.00  0.00     0.049 A 
ATOM     44  C   UNL A   1      42.586  30.530  34.407  1.00  0.00     0.074 A 
ATOM     45  C   UNL A   1      44.702  25.740  30.839  1.00  0.00     0.029 A 
ATOM     46  N   UNL A   1      43.527  27.427  31.683  1.00  0.00    -0.354 N 
ATOM     47  N   UNL A   1      42.952  29.560  33.605  1.00  0.00    -0.248 NA
ATOM     48  C   UNL A   1      43.406  30.663  35.617  1.00  0.00     0.031 C 
ATOM     49  C   UNL A   1      45.277  26.112  32.060  1.00  0.00     0.029 A 
ATOM     50  C   UNL A   1      44.556  27.177  32.575  1.00  0.00     0.049 A 
ATOM     51  H   UNL A   1      42.844  28.128  31.792  1.00  0.00     0.167 HD
ATOM     52  C   UNL A   1      44.053  28.968  34.211  1.00  0.00     0.074 A 
ATOM     53  C   UNL A   1      44.303  29.700  35.437  1.00  0.00     0.031 C 
ATOM     54  C   UNL A   1      44.788  27.909  33.792  1.00  0.00     0.031 A 
BRANCH  41  55
ATOM     55  C   UNL A   1      42.878  25.466  28.450  1.00  0.00    -0.014 A 
ATOM     56  C   UNL A   1      43.464  25.764  27.208  1.00  0.00     0.010 A 
ATOM     57  C   UNL A   1      42.510  24.137  28.733  1.00  0.00     0.010 A 
ATOM     58  C   UNL A   1      43.649  24.757  26.255  1.00  0.00     0.020 A 
ATOM     59  C   UNL A   1      42.713  23.124  27.791  1.00  0.00     0.020 A 
ATOM     60  C   UNL A   1      43.265  23.445  26.551  1.00  0.00     0.054 A 
BRANCH  60  61
ATOM     61  S   UNL A   1      43.536  22.151  25.308  1.00  0.00     0.124 S 
ATOM     62  O   UNL A   1      44.798  21.565  25.756  1.00  0.00    -0.237 OA
ATOM     63  O   UNL A   1      42.360  21.299  25.465  1.00  0.00    -0.237 OA
ATOM     64  O   UNL A   1      43.604  22.888  24.049  1.00  0.00    -0.744 OA
ENDBRANCH  60  61
ENDBRANCH  41  55
BRANCH  42  65
ATOM     65  C   UNL A   1      41.155  32.510  35.298  1.00  0.00    -0.014 A 
ATOM     66  C   UNL A   1      41.785  33.765  35.266  1.00  0.00     0.010 A 
ATOM     67  C   UNL A   1      40.201  32.244  36.299  1.00  0.00     0.010 A 
ATOM     68  C   UNL A   1      41.464  34.739  36.214  1.00  0.00     0.020 A 
ATOM     69  C   UNL A   1      39.861  33.224  37.233  1.00  0.00     0.020 A 
ATOM     70  C   UNL A   1      40.499  34.465  37.188  1.00  0.00     0.054 A 
BRANCH  70  71
ATOM     71  S   UNL A   1      40.026  35.773  38.354  1.00  0.00     0.124 S 
ATOM     72  O   UNL A   1      38.924  35.149  39.078  1.00  0.00    -0.237 OA
ATOM     73  O   UNL A   1      41.253  35.977  39.121  1.00  0.00    -0.237 OA
ATOM     74  O   UNL A   1      39.657  36.885  37.482  1.00  0.00    -0.744 OA
ENDBRANCH  70  71
ENDBRANCH  42  65
BRANCH  54  75
ATOM     75  C   UNL A   1      45.947  27.498  34.654  1.00  0.00    -0.014 A 
ATOM     76  C   UNL A   1      47.218  28.076  34.480  1.00  0.00     0.010 A 
ATOM     77  C   UNL A   1      45.755  26.549  35.674  1.00  0.00     0.010 A 
ATOM     78  C   UNL A   1      48.284  27.688  35.295  1.00  0.00     0.020 A 
ATOM     79  C   UNL A   1      46.815  26.174  36.502  1.00  0.00     0.020 A 
ATOM     80  C   UNL A   1      48.077  26.735  36.298  1.00  0.00     0.054 A 
BRANCH  80  81
ATOM     81  S   UNL A   1      49.467  26.271  37.367  1.00  0.00     0.124 S 
ATOM     82  O   UNL A   1      48.994  26.699  38.681  1.00  0.00    -0.237 OA
ATOM     83  O   UNL A   1      49.559  24.827  37.172  1.00  0.00    -0.237 OA
ATOM     84  O   UNL A   1      50.587  27.038  36.828  1.00  0.00    -0.744 OA
ENDBRANCH  80  81
ENDBRANCH  54  75
ENDBRANCH  28  29
ENDBRANCH  21  23
ENDBRANCH  20  21
ENDBRANCH  19  20
ENDBRANCH   1  19
TORSDOF 21
ENDMDL
MODEL 2
REMARK VINA RESULT:      -8.6      0.894      2.298
REMARK SMILES CCCN(CC)C(=O)N(CC(=O)OCCOC(=O)c1ccc(-c2c3nc(c(-c4ccc(S(=O)(=O)[O-])cc4)c4ccc([nH]4)c(-c4ccc(S(=O)(=O)[O-])cc4)c4nc(c(-c5ccc(S(=O)(=O)[O-])cc5)c5ccc2[nH]5)C=C4)C=C3)cc1)C(C)(C)C
REMARK SMILES IDX 14 1 13 2 11 3 12 4 10 5 9 6 7 7 8 8 4 9 3 10 2 11 1 12 5 13
REMARK SMILES IDX 6 14 79 15 80 16 81 17 82 18 15 19 16 20 17 21 18 22 19 23
REMARK SMILES IDX 20 24 78 25 21 26 77 27 22 28 23 29 24 30 71 31 25 32 76 33
REMARK SMILES IDX 70 34 72 35 26 36 75 37 69 38 68 39 27 41 57 42 38 43 56 44
REMARK SMILES IDX 39 45 42 46 55 47 73 48 40 49 41 50 54 52 74 53 43 54 28 55
REMARK SMILES IDX 29 56 37 57 30 58 36 59 31 60 32 61 33 62 34 63 35 64 58 65
REMARK SMILES IDX 59 66 67 67 60 68 66 69 61 70 62 71 63 72 64 73 65 74 44 75
REMARK SMILES IDX 45 76 53 77 46 78 52 79 47 80 48 81 49 82 50 83 51 84
REMARK H PARENT 72 40 42 51
REMARK Flexibility Score: inf
ROOT
ATOM      1  C   UNL A   1      32.455  27.928  26.729  1.00  0.00     0.274 C 
ENDROOT
BRANCH   1   2
ATOM      2  O   UNL A   1      31.135  27.570  26.272  1.00  0.00    -0.461 OA
BRANCH   2   3
ATOM      3  C   UNL A   1      31.035  27.242  24.953  1.00  0.00     0.325 C 
ATOM      4  O   UNL A   1      30.010  27.347  24.286  1.00  0.00    -0.250 OA
BRANCH   3   5
ATOM      5  C   UNL A   1      32.381  26.897  24.321  1.00  0.00     0.244 C 
BRANCH   5   6
ATOM      6  N   UNL A   1      32.665  25.482  24.096  1.00  0.00    -0.309 N 
BRANCH   6   7
ATOM      7  C   UNL A   1      33.379  24.676  24.978  1.00  0.00     0.320 C 
ATOM      8  O   UNL A   1      34.615  24.765  24.997  1.00  0.00    -0.248 OA
BRANCH   7   9
ATOM      9  N   UNL A   1      32.796  23.711  25.793  1.00  0.00    -0.325 N 
BRANCH   9  10
ATOM     10  C   UNL A   1      33.220  22.325  25.506  1.00  0.00     0.121 C 
BRANCH  10  11
ATOM     11  C   UNL A   1      34.154  21.754  26.584  1.00  0.00     0.018 C 
ATOM     12  C   UNL A   1      35.585  21.544  26.112  1.00  0.00     0.006 C 
ENDBRANCH  10  11
ENDBRANCH   9  10
BRANCH   9  13
ATOM     13  C   UNL A   1      31.872  23.789  26.936  1.00  0.00     0.118 C 
ATOM     14  C   UNL A   1      30.600  22.988  26.692  1.00  0.00     0.027 C 
ENDBRANCH   9  13
ENDBRANCH   7   9
ENDBRANCH   6   7
BRANCH   6  15
ATOM     15  C   UNL A   1      32.118  24.832  22.824  1.00  0.00     0.037 C 
ATOM     16  C   UNL A   1      30.781  24.110  23.098  1.00  0.00     0.034 C 
ATOM     17  C   UNL A   1      31.941  25.900  21.714  1.00  0.00     0.034 C 
ATOM     18  C   UNL A   1      33.044  23.763  22.181  1.00  0.00     0.034 C 
ENDBRANCH   6  15
ENDBRANCH   5   6
ENDBRANCH   3   5
ENDBRANCH   2   3
ENDBRANCH   1   2
BRANCH   1  19
ATOM     19  C   UNL A   1      32.484  29.390  27.172  1.00  0.00     0.275 C 
BRANCH  19  20
ATOM     20  O   UNL A   1      33.723  29.992  26.755  1.00  0.00    -0.458 OA
BRANCH  20  21
ATOM     21  C   UNL A   1      34.153  31.033  27.507  1.00  0.00     0.338 C 
ATOM     22  O   UNL A   1      33.570  32.090  27.689  1.00  0.00    -0.246 OA
BRANCH  21  23
ATOM     23  C   UNL A   1      35.458  30.717  28.133  1.00  0.00     0.060 A 
ATOM     24  C   UNL A   1      35.653  29.551  28.877  1.00  0.00     0.016 A 
ATOM     25  C   UNL A   1      36.483  31.661  28.051  1.00  0.00     0.016 A 
ATOM     26  C   UNL A   1      36.833  29.366  29.599  1.00  0.00     0.010 A 
ATOM     27  C   UNL A   1      37.704  31.422  28.687  1.00  0.00     0.010 A 
ATOM     28  C   UNL A   1      37.888  30.281  29.486  1.00  0.00    -0.014 A 
BRANCH  28  29
ATOM     29  C   UNL A   1      39.199  30.045  30.153  1.00  0.00     0.031 A 
ATOM     30  C   UNL A   1      40.124  28.961  29.664  1.00  0.00     0.074 A 
ATOM     31  C   UNL A   1      39.536  30.762  31.245  1.00  0.00     0.049 A 
ATOM     32  N   UNL A   1      41.174  28.445  30.252  1.00  0.00    -0.248 NA
ATOM     33  C   UNL A   1      39.818  28.367  28.352  1.00  0.00     0.031 C 
ATOM     34  C   UNL A   1      38.756  31.861  31.820  1.00  0.00     0.029 A 
ATOM     35  N   UNL A   1      40.623  30.661  32.079  1.00  0.00    -0.354 N 
ATOM     36  C   UNL A   1      41.619  27.428  29.414  1.00  0.00     0.074 A 
ATOM     37  C   UNL A   1      40.730  27.405  28.272  1.00  0.00     0.031 C 
ATOM     38  C   UNL A   1      39.396  32.344  32.893  1.00  0.00     0.029 A 
ATOM     39  C   UNL A   1      40.583  31.534  33.140  1.00  0.00     0.049 A 
ATOM     40  H   UNL A   1      41.360  30.023  31.932  1.00  0.00     0.167 HD
ATOM     41  C   UNL A   1      42.664  26.585  29.587  1.00  0.00     0.031 A 
ATOM     42  C   UNL A   1      41.373  31.645  34.225  1.00  0.00     0.031 A 
ATOM     43  C   UNL A   1      43.568  26.631  30.708  1.00  0.00     0.049 A 
ATOM     44  C   UNL A   1      42.512  30.687  34.409  1.00  0.00     0.074 A 
ATOM     45  C   UNL A   1      44.670  25.830  30.959  1.00  0.00     0.029 A 
ATOM     46  N   UNL A   1      43.484  27.532  31.757  1.00  0.00    -0.354 N 
ATOM     47  N   UNL A   1      42.887  29.702  33.630  1.00  0.00    -0.248 NA
ATOM     48  C   UNL A   1      43.320  30.846  35.624  1.00  0.00     0.031 C 
ATOM     49  C   UNL A   1      45.232  26.227  32.179  1.00  0.00     0.029 A 
ATOM     50  C   UNL A   1      44.504  27.301  32.664  1.00  0.00     0.049 A 
ATOM     51  H   UNL A   1      42.799  28.233  31.845  1.00  0.00     0.167 HD
ATOM     52  C   UNL A   1      43.983  29.124  34.259  1.00  0.00     0.074 A 
ATOM     53  C   UNL A   1      44.219  29.881  35.472  1.00  0.00     0.031 C 
ATOM     54  C   UNL A   1      44.723  28.057  33.869  1.00  0.00     0.031 A 
BRANCH  41  55
ATOM     55  C   UNL A   1      42.869  25.505  28.558  1.00  0.00    -0.014 A 
ATOM     56  C   UNL A   1      42.201  24.272  28.646  1.00  0.00     0.010 A 
ATOM     57  C   UNL A   1      43.710  25.753  27.456  1.00  0.00     0.010 A 
ATOM     58  C   UNL A   1      42.396  23.293  27.666  1.00  0.00     0.020 A 
ATOM     59  C   UNL A   1      43.890  24.785  26.464  1.00  0.00     0.020 A 
ATOM     60  C   UNL A   1      43.245  23.554  26.585  1.00  0.00     0.054 A 
BRANCH  60  61
ATOM     61  S   UNL A   1      43.463  22.278  25.313  1.00  0.00     0.124 S 
ATOM     62  O   UNL A   1      42.318  21.406  25.565  1.00  0.00    -0.237 OA
ATOM     63  O   UNL A   1      43.406  23.044  24.071  1.00  0.00    -0.237 OA
ATOM     64  O   UNL A   1      44.768  21.698  25.624  1.00  0.00    -0.744 OA
ENDBRANCH  60  61
ENDBRANCH  41  55
BRANCH  42  65
ATOM     65  C   UNL A   1      41.069  32.683  35.246  1.00  0.00    -0.014 A 
ATOM     66  C   UNL A   1      40.240  32.383  36.339  1.00  0.00     0.010 A 
ATOM     67  C   UNL A   1      41.656  33.959  35.156  1.00  0.00     0.010 A 
ATOM     68  C   UNL A   1      40.004  33.342  37.329  1.00  0.00     0.020 A 
ATOM     69  C   UNL A   1      41.443  34.910  36.155  1.00  0.00     0.020 A 
ATOM     70  C   UNL A   1      40.613  34.597  37.233  1.00  0.00     0.054 A 
BRANCH  70  71
ATOM     71  S   UNL A   1      40.372  35.797  38.573  1.00  0.00     0.124 S 
ATOM     72  O   UNL A   1      41.740  36.025  39.026  1.00  0.00    -0.237 OA
ATOM     73  O   UNL A   1      39.737  36.920  37.887  1.00  0.00    -0.237 OA
ATOM     74  O   UNL A   1      39.508  35.086  39.513  1.00  0.00    -0.744 OA
ENDBRANCH  70  71
ENDBRANCH  42  65
BRANCH  54  75
ATOM     75  C   UNL A   1      45.875  27.666  34.751  1.00  0.00    -0.014 A 
ATOM     76  C   UNL A   1      45.711  26.717  35.775  1.00  0.00     0.010 A 
ATOM     77  C   UNL A   1      47.144  28.229  34.528  1.00  0.00     0.010 A 
ATOM     78  C   UNL A   1      46.794  26.359  36.582  1.00  0.00     0.020 A 
ATOM     79  C   UNL A   1      48.232  27.859  35.320  1.00  0.00     0.020 A 
ATOM     80  C   UNL A   1      48.047  26.936  36.352  1.00  0.00     0.054 A 
BRANCH  80  81
ATOM     81  S   UNL A   1      49.448  26.433  37.388  1.00  0.00     0.124 S 
ATOM     82  O   UNL A   1      49.960  25.274  36.663  1.00  0.00    -0.237 OA
ATOM     83  O   UNL A   1      50.306  27.614  37.372  1.00  0.00    -0.237 OA
ATOM     84  O   UNL A   1      48.832  26.137  38.680  1.00  0.00    -0.744 OA
ENDBRANCH  80  81
ENDBRANCH  54  75
ENDBRANCH  28  29
ENDBRANCH  21  23
ENDBRANCH  20  21
ENDBRANCH  19  20
ENDBRANCH   1  19
TORSDOF 21
ENDMDL
MODEL 3
REMARK VINA RESULT:      -8.4      1.202      8.493
REMARK SMILES CCCN(CC)C(=O)N(CC(=O)OCCOC(=O)c1ccc(-c2c3nc(c(-c4ccc(S(=O)(=O)[O-])cc4)c4ccc([nH]4)c(-c4ccc(S(=O)(=O)[O-])cc4)c4nc(c(-c5ccc(S(=O)(=O)[O-])cc5)c5ccc2[nH]5)C=C4)C=C3)cc1)C(C)(C)C
REMARK SMILES IDX 14 1 13 2 11 3 12 4 10 5 9 6 7 7 8 8 4 9 3 10 2 11 1 12 5 13
REMARK SMILES IDX 6 14 79 15 80 16 81 17 82 18 15 19 16 20 17 21 18 22 19 23
REMARK SMILES IDX 20 24 78 25 21 26 77 27 22 28 23 29 24 30 71 31 25 32 76 33
REMARK SMILES IDX 70 34 72 35 26 36 75 37 69 38 68 39 27 41 57 42 38 43 56 44
REMARK SMILES IDX 39 45 42 46 55 47 73 48 40 49 41 50 54 52 74 53 43 54 28 55
REMARK SMILES IDX 29 56 37 57 30 58 36 59 31 60 32 61 33 62 34 63 35 64 58 65
REMARK SMILES IDX 59 66 67 67 60 68 66 69 61 70 62 71 63 72 64 73 65 74 44 75
REMARK SMILES IDX 45 76 53 77 46 78 52 79 47 80 48 81 49 82 50 83 51 84
REMARK H PARENT 72 40 42 51
REMARK Flexibility Score: inf
ROOT
ATOM      1  C   UNL A   1      33.302  28.523  25.923  1.00  0.00     0.274 C 
ENDROOT
BRANCH   1   2
ATOM      2  O   UNL A   1      32.087  27.903  25.457  1.00  0.00    -0.461 OA
BRANCH   2   3
ATOM      3  C   UNL A   1      31.508  27.018  26.317  1.00  0.00     0.325 C 
ATOM      4  O   UNL A   1      31.208  27.274  27.480  1.00  0.00    -0.250 OA
BRANCH   3   5
ATOM      5  C   UNL A   1      31.092  25.714  25.642  1.00  0.00     0.244 C 
BRANCH   5   6
ATOM      6  N   UNL A   1      32.084  24.642  25.600  1.00  0.00    -0.309 N 
BRANCH   6   7
ATOM      7  C   UNL A   1      33.411  24.817  25.218  1.00  0.00     0.320 C 
ATOM      8  O   UNL A   1      34.227  25.209  26.065  1.00  0.00    -0.248 OA
BRANCH   7   9
ATOM      9  N   UNL A   1      33.871  24.656  23.915  1.00  0.00    -0.325 N 
BRANCH   9  10
ATOM     10  C   UNL A   1      33.647  25.822  23.035  1.00  0.00     0.121 C 
BRANCH  10  11
ATOM     11  C   UNL A   1      32.627  25.538  21.921  1.00  0.00     0.018 C 
ATOM     12  C   UNL A   1      31.396  26.430  21.970  1.00  0.00     0.006 C 
ENDBRANCH  10  11
ENDBRANCH   9  10
BRANCH   9  13
ATOM     13  C   UNL A   1      34.595  23.571  23.234  1.00  0.00     0.118 C 
ATOM     14  C   UNL A   1      35.041  22.489  24.208  1.00  0.00     0.027 C 
ENDBRANCH   9  13
ENDBRANCH   7   9
ENDBRANCH   6   7
BRANCH   6  15
ATOM     15  C   UNL A   1      31.647  23.242  26.032  1.00  0.00     0.037 C 
ATOM     16  C   UNL A   1      31.472  22.312  24.813  1.00  0.00     0.034 C 
ATOM     17  C   UNL A   1      32.676  22.645  27.027  1.00  0.00     0.034 C 
ATOM     18  C   UNL A   1      30.296  23.182  26.798  1.00  0.00     0.034 C 
ENDBRANCH   6  15
ENDBRANCH   5   6
ENDBRANCH   3   5
ENDBRANCH   2   3
ENDBRANCH   1   2
BRANCH   1  19
ATOM     19  C   UNL A   1      33.082  30.019  26.145  1.00  0.00     0.275 C 
BRANCH  19  20
ATOM     20  O   UNL A   1      33.413  30.355  27.505  1.00  0.00    -0.458 OA
BRANCH  20  21
ATOM     21  C   UNL A   1      34.340  31.329  27.661  1.00  0.00     0.338 C 
ATOM     22  O   UNL A   1      34.223  32.503  27.349  1.00  0.00    -0.246 OA
BRANCH  21  23
ATOM     23  C   UNL A   1      35.558  30.787  28.307  1.00  0.00     0.060 A 
ATOM     24  C   UNL A   1      35.501  29.709  29.194  1.00  0.00     0.016 A 
ATOM     25  C   UNL A   1      36.774  31.440  28.093  1.00  0.00     0.016 A 
ATOM     26  C   UNL A   1      36.633  29.335  29.920  1.00  0.00     0.010 A 
ATOM     27  C   UNL A   1      37.928  30.994  28.741  1.00  0.00     0.010 A 
ATOM     28  C   UNL A   1      37.870  29.949  29.678  1.00  0.00    -0.014 A 
BRANCH  28  29
ATOM     29  C   UNL A   1      39.114  29.488  30.356  1.00  0.00     0.031 A 
ATOM     30  C   UNL A   1      39.619  30.189  31.590  1.00  0.00     0.074 A 
ATOM     31  C   UNL A   1      39.833  28.477  29.827  1.00  0.00     0.049 A 
ATOM     32  N   UNL A   1      40.790  30.099  32.169  1.00  0.00    -0.248 NA
ATOM     33  C   UNL A   1      38.694  31.126  32.249  1.00  0.00     0.031 C 
ATOM     34  C   UNL A   1      39.458  27.686  28.651  1.00  0.00     0.029 A 
ATOM     35  N   UNL A   1      41.044  27.949  30.203  1.00  0.00    -0.354 N 
ATOM     36  C   UNL A   1      40.766  31.008  33.221  1.00  0.00     0.074 A 
ATOM     37  C   UNL A   1      39.460  31.634  33.206  1.00  0.00     0.031 C 
ATOM     38  C   UNL A   1      40.403  26.765  28.417  1.00  0.00     0.029 A 
ATOM     39  C   UNL A   1      41.494  26.956  29.365  1.00  0.00     0.049 A 
ATOM     40  H   UNL A   1      41.542  28.253  30.996  1.00  0.00     0.167 HD
ATOM     41  C   UNL A   1      41.745  31.302  34.109  1.00  0.00     0.031 A 
ATOM     42  C   UNL A   1      42.671  26.305  29.319  1.00  0.00     0.031 A 
ATOM     43  C   UNL A   1      43.031  30.654  34.143  1.00  0.00     0.049 A 
ATOM     44  C   UNL A   1      43.750  26.661  30.296  1.00  0.00     0.074 A 
ATOM     45  C   UNL A   1      44.081  30.871  35.020  1.00  0.00     0.029 A 
ATOM     46  N   UNL A   1      43.439  29.657  33.272  1.00  0.00    -0.354 N 
ATOM     47  N   UNL A   1      43.727  27.557  31.253  1.00  0.00    -0.248 NA
ATOM     48  C   UNL A   1      45.019  25.931  30.177  1.00  0.00     0.031 C 
ATOM     49  C   UNL A   1      45.137  30.026  34.657  1.00  0.00     0.029 A 
ATOM     50  C   UNL A   1      44.729  29.256  33.581  1.00  0.00     0.049 A 
ATOM     51  H   UNL A   1      42.894  29.289  32.540  1.00  0.00     0.167 HD
ATOM     52  C   UNL A   1      44.977  27.495  31.856  1.00  0.00     0.074 A 
ATOM     53  C   UNL A   1      45.725  26.462  31.168  1.00  0.00     0.031 C 
ATOM     54  C   UNL A   1      45.462  28.232  32.884  1.00  0.00     0.031 A 
BRANCH  41  55
ATOM     55  C   UNL A   1      41.483  32.405  35.100  1.00  0.00    -0.014 A 
ATOM     56  C   UNL A   1      41.759  33.748  34.792  1.00  0.00     0.010 A 
ATOM     57  C   UNL A   1      40.900  32.091  36.343  1.00  0.00     0.010 A 
ATOM     58  C   UNL A   1      41.489  34.755  35.724  1.00  0.00     0.020 A 
ATOM     59  C   UNL A   1      40.610  33.098  37.268  1.00  0.00     0.020 A 
ATOM     60  C   UNL A   1      40.922  34.423  36.959  1.00  0.00     0.054 A 
BRANCH  60  61
ATOM     61  S   UNL A   1      40.557  35.749  38.143  1.00  0.00     0.124 S 
ATOM     62  O   UNL A   1      39.729  35.053  39.125  1.00  0.00    -0.237 OA
ATOM     63  O   UNL A   1      41.885  36.141  38.609  1.00  0.00    -0.237 OA
ATOM     64  O   UNL A   1      39.861  36.750  37.338  1.00  0.00    -0.744 OA
ENDBRANCH  60  61
ENDBRANCH  41  55
BRANCH  42  65
ATOM     65  C   UNL A   1      42.897  25.280  28.264  1.00  0.00    -0.014 A 
ATOM     66  C   UNL A   1      43.565  25.618  27.075  1.00  0.00     0.010 A 
ATOM     67  C   UNL A   1      42.494  23.948  28.472  1.00  0.00     0.010 A 
ATOM     68  C   UNL A   1      43.829  24.641  26.113  1.00  0.00     0.020 A 
ATOM     69  C   UNL A   1      42.777  22.964  27.523  1.00  0.00     0.020 A 
ATOM     70  C   UNL A   1      43.438  23.318  26.346  1.00  0.00     0.054 A 
BRANCH  70  71
ATOM     71  S   UNL A   1      43.871  22.043  25.128  1.00  0.00     0.124 S 
ATOM     72  O   UNL A   1      43.570  22.715  23.868  1.00  0.00    -0.237 OA
ATOM     73  O   UNL A   1      45.287  21.810  25.399  1.00  0.00    -0.237 OA
ATOM     74  O   UNL A   1      42.989  20.931  25.475  1.00  0.00    -0.744 OA
ENDBRANCH  70  71
ENDBRANCH  42  65
BRANCH  54  75
ATOM     75  C   UNL A   1      46.860  27.927  33.343  1.00  0.00    -0.014 A 
ATOM     76  C   UNL A   1      47.102  26.940  34.315  1.00  0.00     0.010 A 
ATOM     77  C   UNL A   1      47.946  28.611  32.770  1.00  0.00     0.010 A 
ATOM     78  C   UNL A   1      48.407  26.663  34.726  1.00  0.00     0.020 A 
ATOM     79  C   UNL A   1      49.254  28.323  33.165  1.00  0.00     0.020 A 
ATOM     80  C   UNL A   1      49.475  27.360  34.152  1.00  0.00     0.054 A 
BRANCH  80  81
ATOM     81  S   UNL A   1      51.166  26.961  34.675  1.00  0.00     0.124 S 
ATOM     82  O   UNL A   1      51.718  28.285  34.949  1.00  0.00    -0.237 OA
ATOM     83  O   UNL A   1      50.953  26.115  35.846  1.00  0.00    -0.237 OA
ATOM     84  O   UNL A   1      51.733  26.278  33.515  1.00  0.00    -0.744 OA
ENDBRANCH  80  81
ENDBRANCH  54  75
ENDBRANCH  28  29
ENDBRANCH  21  23
ENDBRANCH  20  21
ENDBRANCH  19  20
ENDBRANCH   1  19
TORSDOF 21
ENDMDL
