MODEL 1
REMARK VINA RESULT:     -10.8      0.000      0.000
REMARK SMILES CCOC(=O)C1=NN(c2ccc(Br)cc2F)[C@](C)(C(=O)OCCOC(=O)c2ccc(-c3c4nc(c(-c5ccc(S(=O)(=O)[O-])cc5)c5ccc([nH]5)c(-c5ccc(S(=O)(=O)[O-])cc5)c5nc(c(-c6ccc(S(=O)(=O)[O-])cc6)c6ccc3[nH]6)C=C5)C=C4)cc2)C1
REMARK SMILES IDX 22 1 21 2 19 3 20 4 17 5 6 6 7 7 87 8 8 9 18 10 4 11 5 12
REMARK SMILES IDX 3 13 2 14 1 15 9 16 10 17 15 18 11 19 14 20 16 21 12 22
REMARK SMILES IDX 13 23 23 24 24 25 25 26 26 27 27 28 28 29 86 30 29 31 85 32
REMARK SMILES IDX 30 33 31 34 32 35 79 36 33 37 84 38 78 39 80 40 34 41 83 42
REMARK SMILES IDX 77 43 76 44 35 46 65 47 46 48 64 49 47 50 50 51 63 52 81 53
REMARK SMILES IDX 48 54 49 55 62 57 82 58 51 59 36 60 37 61 45 62 38 63 44 64
REMARK SMILES IDX 39 65 40 66 41 67 42 68 43 69 66 70 67 71 75 72 68 73 74 74
REMARK SMILES IDX 69 75 70 76 71 77 72 78 73 79 52 80 53 81 61 82 54 83 60 84
REMARK SMILES IDX 55 85 56 86 57 87 58 88 59 89
REMARK H PARENT 80 45 50 56
REMARK Flexibility Score: inf
ROOT
ATOM      1  C   UNL A   1      34.047  30.551  27.283  1.00  0.00     0.274 C 
ENDROOT
BRANCH   1   2
ATOM      2  O   UNL A   1      33.868  29.176  26.894  1.00  0.00    -0.460 OA
BRANCH   2   3
ATOM      3  C   UNL A   1      32.584  28.761  26.675  1.00  0.00     0.334 C 
ATOM      4  O   UNL A   1      31.727  28.697  27.549  1.00  0.00    -0.249 OA
BRANCH   3   5
ATOM      5  C   UNL A   1      32.338  28.416  25.194  1.00  0.00     0.163 C 
ATOM      6  C   UNL A   1      30.539  28.414  23.747  1.00  0.00     0.149 C 
ATOM      7  N   UNL A   1      30.728  27.154  23.997  1.00  0.00    -0.169 NA
ATOM      8  C   UNL A   1      31.321  29.387  24.563  1.00  0.00     0.108 C 
ATOM      9  N   UNL A   1      31.631  27.127  25.024  1.00  0.00    -0.245 N 
ATOM     10  C   UNL A   1      33.638  28.434  24.369  1.00  0.00     0.050 C 
BRANCH   6  11
ATOM     11  C   UNL A   1      29.596  28.943  22.708  1.00  0.00     0.354 C 
ATOM     12  O   UNL A   1      29.996  29.306  21.620  1.00  0.00    -0.245 OA
BRANCH  11  13
ATOM     13  O   UNL A   1      28.354  29.019  23.219  1.00  0.00    -0.461 OA
BRANCH  13  14
ATOM     14  C   UNL A   1      27.521  30.048  22.665  1.00  0.00     0.230 C 
ATOM     15  C   UNL A   1      27.582  31.296  23.527  1.00  0.00     0.049 C 
ENDBRANCH  13  14
ENDBRANCH  11  13
ENDBRANCH   6  11
BRANCH   9  16
ATOM     16  C   UNL A   1      32.140  25.920  25.487  1.00  0.00     0.097 A 
ATOM     17  C   UNL A   1      33.448  25.519  25.182  1.00  0.00     0.032 A 
ATOM     18  C   UNL A   1      31.373  25.074  26.304  1.00  0.00     0.149 A 
ATOM     19  C   UNL A   1      33.980  24.344  25.721  1.00  0.00     0.018 A 
ATOM     20  C   UNL A   1      31.885  23.898  26.840  1.00  0.00     0.057 A 
ATOM     21  F   UNL A   1      30.104  25.398  26.598  1.00  0.00    -0.205 F 
ATOM     22  C   UNL A   1      33.196  23.543  26.552  1.00  0.00     0.021 A 
ATOM     23  Br  UNL A   1      33.920  21.964  27.299  1.00  0.00    -0.051 Br
ENDBRANCH   9  16
ENDBRANCH   3   5
ENDBRANCH   2   3
ENDBRANCH   1   2
BRANCH   1  24
ATOM     24  C   UNL A   1      35.463  30.795  27.802  1.00  0.00     0.275 C 
BRANCH  24  25
ATOM     25  O   UNL A   1      36.240  29.586  27.743  1.00  0.00    -0.458 OA
BRANCH  25  26
ATOM     26  C   UNL A   1      36.884  29.261  28.888  1.00  0.00     0.338 C 
ATOM     27  O   UNL A   1      36.397  29.074  29.989  1.00  0.00    -0.246 OA
BRANCH  26  28
ATOM     28  C   UNL A   1      38.299  29.010  28.589  1.00  0.00     0.060 A 
ATOM     29  C   UNL A   1      39.109  28.531  29.617  1.00  0.00     0.016 A 
ATOM     30  C   UNL A   1      38.848  29.342  27.355  1.00  0.00     0.016 A 
ATOM     31  C   UNL A   1      40.480  28.419  29.443  1.00  0.00     0.010 A 
ATOM     32  C   UNL A   1      40.221  29.167  27.155  1.00  0.00     0.010 A 
ATOM     33  C   UNL A   1      41.049  28.716  28.202  1.00  0.00    -0.014 A 
BRANCH  33  34
ATOM     34  C   UNL A   1      42.510  28.554  28.003  1.00  0.00     0.031 A 
ATOM     35  C   UNL A   1      43.439  29.700  28.284  1.00  0.00     0.074 A 
ATOM     36  C   UNL A   1      42.996  27.375  27.570  1.00  0.00     0.049 A 
ATOM     37  N   UNL A   1      44.713  29.813  28.014  1.00  0.00    -0.248 NA
ATOM     38  C   UNL A   1      42.857  30.876  28.952  1.00  0.00     0.031 C 
ATOM     39  C   UNL A   1      42.204  26.166  27.327  1.00  0.00     0.029 A 
ATOM     40  N   UNL A   1      44.276  26.999  27.249  1.00  0.00    -0.354 N 
ATOM     41  C   UNL A   1      45.078  31.085  28.438  1.00  0.00     0.074 A 
ATOM     42  C   UNL A   1      43.889  31.708  28.982  1.00  0.00     0.031 C 
ATOM     43  C   UNL A   1      43.015  25.186  26.902  1.00  0.00     0.029 A 
ATOM     44  C   UNL A   1      44.366  25.716  26.765  1.00  0.00     0.049 A 
ATOM     45  H   UNL A   1      45.056  27.592  27.356  1.00  0.00     0.167 HD
ATOM     46  C   UNL A   1      46.294  31.678  28.371  1.00  0.00     0.031 A 
ATOM     47  C   UNL A   1      45.404  25.055  26.218  1.00  0.00     0.031 A 
ATOM     48  C   UNL A   1      47.469  31.042  27.835  1.00  0.00     0.049 A 
ATOM     49  C   UNL A   1      46.723  25.763  26.081  1.00  0.00     0.074 A 
ATOM     50  C   UNL A   1      48.750  31.554  27.727  1.00  0.00     0.029 A 
ATOM     51  N   UNL A   1      47.508  29.755  27.317  1.00  0.00    -0.354 N 
ATOM     52  N   UNL A   1      47.048  26.977  26.458  1.00  0.00    -0.248 NA
ATOM     53  C   UNL A   1      47.809  25.019  25.432  1.00  0.00     0.031 C 
ATOM     54  C   UNL A   1      49.551  30.596  27.094  1.00  0.00     0.029 A 
ATOM     55  C   UNL A   1      48.783  29.465  26.862  1.00  0.00     0.049 A 
ATOM     56  H   UNL A   1      46.741  29.140  27.280  1.00  0.00     0.167 HD
ATOM     57  C   UNL A   1      48.384  27.136  26.106  1.00  0.00     0.074 A 
ATOM     58  C   UNL A   1      48.809  25.886  25.506  1.00  0.00     0.031 C 
ATOM     59  C   UNL A   1      49.184  28.218  26.262  1.00  0.00     0.031 A 
BRANCH  46  60
ATOM     60  C   UNL A   1      46.404  33.105  28.841  1.00  0.00    -0.014 A 
ATOM     61  C   UNL A   1      46.192  34.186  27.968  1.00  0.00     0.010 A 
ATOM     62  C   UNL A   1      46.684  33.364  30.195  1.00  0.00     0.010 A 
ATOM     63  C   UNL A   1      46.292  35.500  28.433  1.00  0.00     0.020 A 
ATOM     64  C   UNL A   1      46.758  34.676  30.671  1.00  0.00     0.020 A 
ATOM     65  C   UNL A   1      46.576  35.737  29.782  1.00  0.00     0.054 A 
BRANCH  65  66
ATOM     66  S   UNL A   1      46.677  37.452  30.366  1.00  0.00     0.124 S 
ATOM     67  O   UNL A   1      45.764  38.135  29.451  1.00  0.00    -0.237 OA
ATOM     68  O   UNL A   1      46.217  37.348  31.748  1.00  0.00    -0.237 OA
ATOM     69  O   UNL A   1      48.088  37.792  30.205  1.00  0.00    -0.744 OA
ENDBRANCH  65  66
ENDBRANCH  46  60
BRANCH  47  70
ATOM     70  C   UNL A   1      45.218  23.671  25.706  1.00  0.00    -0.014 A 
ATOM     71  C   UNL A   1      44.940  23.439  24.348  1.00  0.00     0.010 A 
ATOM     72  C   UNL A   1      45.331  22.571  26.578  1.00  0.00     0.010 A 
ATOM     73  C   UNL A   1      44.765  22.135  23.875  1.00  0.00     0.020 A 
ATOM     74  C   UNL A   1      45.189  21.265  26.103  1.00  0.00     0.020 A 
ATOM     75  C   UNL A   1      44.893  21.056  24.755  1.00  0.00     0.054 A 
BRANCH  75  76
ATOM     76  S   UNL A   1      44.714  19.370  24.108  1.00  0.00     0.124 S 
ATOM     77  O   UNL A   1      44.298  19.618  22.731  1.00  0.00    -0.237 OA
ATOM     78  O   UNL A   1      46.057  18.822  24.277  1.00  0.00    -0.237 OA
ATOM     79  O   UNL A   1      43.696  18.779  24.975  1.00  0.00    -0.744 OA
ENDBRANCH  75  76
ENDBRANCH  47  70
BRANCH  59  80
ATOM     80  C   UNL A   1      50.610  28.089  25.800  1.00  0.00    -0.014 A 
ATOM     81  C   UNL A   1      51.578  27.453  26.597  1.00  0.00     0.010 A 
ATOM     82  C   UNL A   1      50.975  28.573  24.530  1.00  0.00     0.010 A 
ATOM     83  C   UNL A   1      52.894  27.330  26.145  1.00  0.00     0.020 A 
ATOM     84  C   UNL A   1      52.283  28.427  24.063  1.00  0.00     0.020 A 
ATOM     85  C   UNL A   1      53.238  27.819  24.880  1.00  0.00     0.054 A 
BRANCH  85  86
ATOM     86  S   UNL A   1      54.944  27.611  24.300  1.00  0.00     0.124 S 
ATOM     87  O   UNL A   1      54.922  26.251  23.771  1.00  0.00    -0.237 OA
ATOM     88  O   UNL A   1      55.076  28.671  23.303  1.00  0.00    -0.237 OA
ATOM     89  O   UNL A   1      55.745  27.798  25.507  1.00  0.00    -0.744 OA
ENDBRANCH  85  86
ENDBRANCH  59  80
ENDBRANCH  33  34
ENDBRANCH  26  28
ENDBRANCH  25  26
ENDBRANCH  24  25
ENDBRANCH   1  24
TORSDOF 18
ENDMDL
MODEL 2
REMARK VINA RESULT:     -10.6      3.535      8.105
REMARK SMILES CCOC(=O)C1=NN(c2ccc(Br)cc2F)[C@](C)(C(=O)OCCOC(=O)c2ccc(-c3c4nc(c(-c5ccc(S(=O)(=O)[O-])cc5)c5ccc([nH]5)c(-c5ccc(S(=O)(=O)[O-])cc5)c5nc(c(-c6ccc(S(=O)(=O)[O-])cc6)c6ccc3[nH]6)C=C5)C=C4)cc2)C1
REMARK SMILES IDX 22 1 21 2 19 3 20 4 17 5 6 6 7 7 87 8 8 9 18 10 4 11 5 12
REMARK SMILES IDX 3 13 2 14 1 15 9 16 10 17 15 18 11 19 14 20 16 21 12 22
REMARK SMILES IDX 13 23 23 24 24 25 25 26 26 27 27 28 28 29 86 30 29 31 85 32
REMARK SMILES IDX 30 33 31 34 32 35 79 36 33 37 84 38 78 39 80 40 34 41 83 42
REMARK SMILES IDX 77 43 76 44 35 46 65 47 46 48 64 49 47 50 50 51 63 52 81 53
REMARK SMILES IDX 48 54 49 55 62 57 82 58 51 59 36 60 37 61 45 62 38 63 44 64
REMARK SMILES IDX 39 65 40 66 41 67 42 68 43 69 66 70 67 71 75 72 68 73 74 74
REMARK SMILES IDX 69 75 70 76 71 77 72 78 73 79 52 80 53 81 61 82 54 83 60 84
REMARK SMILES IDX 55 85 56 86 57 87 58 88 59 89
REMARK H PARENT 80 45 50 56
REMARK Flexibility Score: inf
ROOT
ATOM      1  C   UNL A   1      38.428  21.362  25.727  1.00  0.00     0.274 C 
ENDROOT
BRANCH   1   2
ATOM      2  O   UNL A   1      37.077  21.301  25.230  1.00  0.00    -0.460 OA
BRANCH   2   3
ATOM      3  C   UNL A   1      36.235  22.307  25.614  1.00  0.00     0.334 C 
ATOM      4  O   UNL A   1      36.585  23.472  25.763  1.00  0.00    -0.249 OA
BRANCH   3   5
ATOM      5  C   UNL A   1      34.792  21.805  25.806  1.00  0.00     0.163 C 
ATOM      6  C   UNL A   1      33.310  20.468  24.646  1.00  0.00     0.149 C 
ATOM      7  N   UNL A   1      32.855  21.668  24.447  1.00  0.00    -0.169 NA
ATOM      8  C   UNL A   1      34.640  20.354  25.309  1.00  0.00     0.108 C 
ATOM      9  N   UNL A   1      33.830  22.502  24.922  1.00  0.00    -0.245 N 
ATOM     10  C   UNL A   1      34.337  21.891  27.275  1.00  0.00     0.050 C 
BRANCH   6  11
ATOM     11  C   UNL A   1      32.594  19.210  24.252  1.00  0.00     0.354 C 
ATOM     12  O   UNL A   1      32.254  19.012  23.104  1.00  0.00    -0.245 OA
BRANCH  11  13
ATOM     13  O   UNL A   1      32.342  18.471  25.347  1.00  0.00    -0.461 OA
BRANCH  13  14
ATOM     14  C   UNL A   1      32.499  17.054  25.183  1.00  0.00     0.230 C 
ATOM     15  C   UNL A   1      33.962  16.705  24.985  1.00  0.00     0.049 C 
ENDBRANCH  13  14
ENDBRANCH  11  13
ENDBRANCH   6  11
BRANCH   9  16
ATOM     16  C   UNL A   1      33.630  23.876  24.958  1.00  0.00     0.097 A 
ATOM     17  C   UNL A   1      33.088  24.502  26.087  1.00  0.00     0.032 A 
ATOM     18  C   UNL A   1      33.996  24.690  23.873  1.00  0.00     0.149 A 
ATOM     19  C   UNL A   1      32.970  25.895  26.146  1.00  0.00     0.018 A 
ATOM     20  C   UNL A   1      33.875  26.075  23.913  1.00  0.00     0.057 A 
ATOM     21  F   UNL A   1      34.489  24.134  22.755  1.00  0.00    -0.205 F 
ATOM     22  C   UNL A   1      33.370  26.673  25.060  1.00  0.00     0.021 A 
ATOM     23  Br  UNL A   1      33.230  28.556  25.145  1.00  0.00    -0.051 Br
ENDBRANCH   9  16
ENDBRANCH   3   5
ENDBRANCH   2   3
ENDBRANCH   1   2
BRANCH   1  24
ATOM     24  C   UNL A   1      39.152  20.033  25.514  1.00  0.00     0.275 C 
BRANCH  24  25
ATOM     25  O   UNL A   1      40.140  19.823  26.537  1.00  0.00    -0.458 OA
BRANCH  25  26
ATOM     26  C   UNL A   1      41.424  19.949  26.129  1.00  0.00     0.338 C 
ATOM     27  O   UNL A   1      42.059  19.188  25.420  1.00  0.00    -0.246 OA
BRANCH  26  28
ATOM     28  C   UNL A   1      41.938  21.256  26.555  1.00  0.00     0.060 A 
ATOM     29  C   UNL A   1      42.191  22.211  25.572  1.00  0.00     0.016 A 
ATOM     30  C   UNL A   1      42.270  21.505  27.883  1.00  0.00     0.016 A 
ATOM     31  C   UNL A   1      42.818  23.406  25.891  1.00  0.00     0.010 A 
ATOM     32  C   UNL A   1      42.842  22.737  28.218  1.00  0.00     0.010 A 
ATOM     33  C   UNL A   1      43.132  23.691  27.223  1.00  0.00    -0.014 A 
BRANCH  33  34
ATOM     34  C   UNL A   1      43.762  24.988  27.570  1.00  0.00     0.031 A 
ATOM     35  C   UNL A   1      42.926  26.106  28.123  1.00  0.00     0.074 A 
ATOM     36  C   UNL A   1      45.086  25.155  27.386  1.00  0.00     0.049 A 
ATOM     37  N   UNL A   1      43.251  27.356  28.325  1.00  0.00    -0.248 NA
ATOM     38  C   UNL A   1      41.539  25.777  28.491  1.00  0.00     0.031 C 
ATOM     39  C   UNL A   1      46.016  24.123  26.920  1.00  0.00     0.029 A 
ATOM     40  N   UNL A   1      45.880  26.260  27.563  1.00  0.00    -0.354 N 
ATOM     41  C   UNL A   1      42.102  27.973  28.803  1.00  0.00     0.074 A 
ATOM     42  C   UNL A   1      41.069  26.961  28.859  1.00  0.00     0.031 C 
ATOM     43  C   UNL A   1      47.252  24.642  26.854  1.00  0.00     0.029 A 
ATOM     44  C   UNL A   1      47.189  26.059  27.193  1.00  0.00     0.049 A 
ATOM     45  H   UNL A   1      45.546  27.114  27.920  1.00  0.00     0.167 HD
ATOM     46  C   UNL A   1      41.928  29.269  29.156  1.00  0.00     0.031 A 
ATOM     47  C   UNL A   1      48.213  26.927  27.083  1.00  0.00     0.031 A 
ATOM     48  C   UNL A   1      42.968  30.264  29.104  1.00  0.00     0.049 A 
ATOM     49  C   UNL A   1      47.972  28.376  27.402  1.00  0.00     0.074 A 
ATOM     50  C   UNL A   1      42.897  31.602  29.446  1.00  0.00     0.029 A 
ATOM     51  N   UNL A   1      44.270  30.027  28.685  1.00  0.00    -0.354 N 
ATOM     52  N   UNL A   1      46.873  28.953  27.825  1.00  0.00    -0.248 NA
ATOM     53  C   UNL A   1      49.106  29.290  27.217  1.00  0.00     0.031 C 
ATOM     54  C   UNL A   1      44.141  32.188  29.180  1.00  0.00     0.029 A 
ATOM     55  C   UNL A   1      45.003  31.200  28.731  1.00  0.00     0.049 A 
ATOM     56  H   UNL A   1      44.619  29.153  28.397  1.00  0.00     0.167 HD
ATOM     57  C   UNL A   1      47.187  30.300  27.972  1.00  0.00     0.074 A 
ATOM     58  C   UNL A   1      48.585  30.444  27.613  1.00  0.00     0.031 C 
ATOM     59  C   UNL A   1      46.392  31.324  28.363  1.00  0.00     0.031 A 
BRANCH  46  60
ATOM     60  C   UNL A   1      40.548  29.700  29.579  1.00  0.00    -0.014 A 
ATOM     61  C   UNL A   1      40.211  29.870  30.933  1.00  0.00     0.010 A 
ATOM     62  C   UNL A   1      39.582  29.980  28.594  1.00  0.00     0.010 A 
ATOM     63  C   UNL A   1      38.925  30.279  31.295  1.00  0.00     0.020 A 
ATOM     64  C   UNL A   1      38.303  30.415  28.950  1.00  0.00     0.020 A 
ATOM     65  C   UNL A   1      37.978  30.547  30.302  1.00  0.00     0.054 A 
BRANCH  65  66
ATOM     66  S   UNL A   1      36.323  31.100  30.799  1.00  0.00     0.124 S 
ATOM     67  O   UNL A   1      35.943  30.076  31.770  1.00  0.00    -0.237 OA
ATOM     68  O   UNL A   1      36.581  32.426  31.354  1.00  0.00    -0.237 OA
ATOM     69  O   UNL A   1      35.562  31.088  29.552  1.00  0.00    -0.744 OA
ENDBRANCH  65  66
ENDBRANCH  46  60
BRANCH  47  70
ATOM     70  C   UNL A   1      49.536  26.457  26.590  1.00  0.00    -0.014 A 
ATOM     71  C   UNL A   1      49.905  26.630  25.246  1.00  0.00     0.010 A 
ATOM     72  C   UNL A   1      50.444  25.842  27.475  1.00  0.00     0.010 A 
ATOM     73  C   UNL A   1      51.150  26.184  24.792  1.00  0.00     0.020 A 
ATOM     74  C   UNL A   1      51.701  25.424  27.032  1.00  0.00     0.020 A 
ATOM     75  C   UNL A   1      52.041  25.587  25.688  1.00  0.00     0.054 A 
BRANCH  75  76
ATOM     76  S   UNL A   1      53.671  25.064  25.087  1.00  0.00     0.124 S 
ATOM     77  O   UNL A   1      53.605  23.616  25.255  1.00  0.00    -0.237 OA
ATOM     78  O   UNL A   1      53.668  25.544  23.708  1.00  0.00    -0.237 OA
ATOM     79  O   UNL A   1      54.601  25.757  25.977  1.00  0.00    -0.744 OA
ENDBRANCH  75  76
ENDBRANCH  47  70
BRANCH  59  80
ATOM     80  C   UNL A   1      47.021  32.687  28.451  1.00  0.00    -0.014 A 
ATOM     81  C   UNL A   1      47.652  33.122  29.630  1.00  0.00     0.010 A 
ATOM     82  C   UNL A   1      47.019  33.528  27.322  1.00  0.00     0.010 A 
ATOM     83  C   UNL A   1      48.243  34.387  29.688  1.00  0.00     0.020 A 
ATOM     84  C   UNL A   1      47.634  34.781  27.368  1.00  0.00     0.020 A 
ATOM     85  C   UNL A   1      48.230  35.209  28.556  1.00  0.00     0.054 A 
BRANCH  85  86
ATOM     86  S   UNL A   1      49.040  36.828  28.644  1.00  0.00     0.124 S 
ATOM     87  O   UNL A   1      50.066  36.713  27.612  1.00  0.00    -0.237 OA
ATOM     88  O   UNL A   1      47.948  37.751  28.346  1.00  0.00    -0.237 OA
ATOM     89  O   UNL A   1      49.541  36.890  30.016  1.00  0.00    -0.744 OA
ENDBRANCH  85  86
ENDBRANCH  59  80
ENDBRANCH  33  34
ENDBRANCH  26  28
ENDBRANCH  25  26
ENDBRANCH  24  25
ENDBRANCH   1  24
TORSDOF 18
ENDMDL
MODEL 3
REMARK VINA RESULT:     -10.4      0.844      8.170
REMARK SMILES CCOC(=O)C1=NN(c2ccc(Br)cc2F)[C@](C)(C(=O)OCCOC(=O)c2ccc(-c3c4nc(c(-c5ccc(S(=O)(=O)[O-])cc5)c5ccc([nH]5)c(-c5ccc(S(=O)(=O)[O-])cc5)c5nc(c(-c6ccc(S(=O)(=O)[O-])cc6)c6ccc3[nH]6)C=C5)C=C4)cc2)C1
REMARK SMILES IDX 22 1 21 2 19 3 20 4 17 5 6 6 7 7 87 8 8 9 18 10 4 11 5 12
REMARK SMILES IDX 3 13 2 14 1 15 9 16 10 17 15 18 11 19 14 20 16 21 12 22
REMARK SMILES IDX 13 23 23 24 24 25 25 26 26 27 27 28 28 29 86 30 29 31 85 32
REMARK SMILES IDX 30 33 31 34 32 35 79 36 33 37 84 38 78 39 80 40 34 41 83 42
REMARK SMILES IDX 77 43 76 44 35 46 65 47 46 48 64 49 47 50 50 51 63 52 81 53
REMARK SMILES IDX 48 54 49 55 62 57 82 58 51 59 36 60 37 61 45 62 38 63 44 64
REMARK SMILES IDX 39 65 40 66 41 67 42 68 43 69 66 70 67 71 75 72 68 73 74 74
REMARK SMILES IDX 69 75 70 76 71 77 72 78 73 79 52 80 53 81 61 82 54 83 60 84
REMARK SMILES IDX 55 85 56 86 57 87 58 88 59 89
REMARK H PARENT 80 45 50 56
REMARK Flexibility Score: inf
ROOT
ATOM      1  C   UNL A   1      34.412  30.503  27.429  1.00  0.00     0.274 C 
ENDROOT
BRANCH   1   2
ATOM      2  O   UNL A   1      34.267  29.118  27.060  1.00  0.00    -0.460 OA
BRANCH   2   3
ATOM      3  C   UNL A   1      32.994  28.670  26.843  1.00  0.00     0.334 C 
ATOM      4  O   UNL A   1      32.150  28.554  27.725  1.00  0.00    -0.249 OA
BRANCH   3   5
ATOM      5  C   UNL A   1      32.740  28.360  25.356  1.00  0.00     0.163 C 
ATOM      6  C   UNL A   1      30.951  28.462  23.901  1.00  0.00     0.149 C 
ATOM      7  N   UNL A   1      31.081  27.190  24.132  1.00  0.00    -0.169 NA
ATOM      8  C   UNL A   1      31.772  29.385  24.735  1.00  0.00     0.108 C 
ATOM      9  N   UNL A   1      31.977  27.106  25.162  1.00  0.00    -0.245 N 
ATOM     10  C   UNL A   1      34.045  28.331  24.538  1.00  0.00     0.050 C 
BRANCH   6  11
ATOM     11  C   UNL A   1      30.038  29.049  22.865  1.00  0.00     0.354 C 
ATOM     12  O   UNL A   1      29.991  28.598  21.739  1.00  0.00    -0.245 OA
BRANCH  11  13
ATOM     13  O   UNL A   1      29.423  30.135  23.367  1.00  0.00    -0.461 OA
BRANCH  13  14
ATOM     14  C   UNL A   1      28.152  30.450  22.780  1.00  0.00     0.230 C 
ATOM     15  C   UNL A   1      27.395  31.428  23.657  1.00  0.00     0.049 C 
ENDBRANCH  13  14
ENDBRANCH  11  13
ENDBRANCH   6  11
BRANCH   9  16
ATOM     16  C   UNL A   1      32.429  25.870  25.608  1.00  0.00     0.097 A 
ATOM     17  C   UNL A   1      33.746  25.453  25.378  1.00  0.00     0.032 A 
ATOM     18  C   UNL A   1      31.589  25.010  26.334  1.00  0.00     0.149 A 
ATOM     19  C   UNL A   1      34.216  24.245  25.903  1.00  0.00     0.018 A 
ATOM     20  C   UNL A   1      32.039  23.802  26.854  1.00  0.00     0.057 A 
ATOM     21  F   UNL A   1      30.309  25.350  26.552  1.00  0.00    -0.205 F 
ATOM     22  C   UNL A   1      33.360  23.429  26.644  1.00  0.00     0.021 A 
ATOM     23  Br  UNL A   1      33.999  21.806  27.372  1.00  0.00    -0.051 Br
ENDBRANCH   9  16
ENDBRANCH   3   5
ENDBRANCH   2   3
ENDBRANCH   1   2
BRANCH   1  24
ATOM     24  C   UNL A   1      35.651  30.712  28.298  1.00  0.00     0.275 C 
BRANCH  24  25
ATOM     25  O   UNL A   1      36.713  29.832  27.887  1.00  0.00    -0.458 OA
BRANCH  25  26
ATOM     26  C   UNL A   1      37.458  29.323  28.895  1.00  0.00     0.338 C 
ATOM     27  O   UNL A   1      37.076  28.953  29.992  1.00  0.00    -0.246 OA
BRANCH  26  28
ATOM     28  C   UNL A   1      38.836  29.132  28.426  1.00  0.00     0.060 A 
ATOM     29  C   UNL A   1      39.827  28.914  29.380  1.00  0.00     0.016 A 
ATOM     30  C   UNL A   1      39.168  29.273  27.082  1.00  0.00     0.016 A 
ATOM     31  C   UNL A   1      41.165  28.878  29.015  1.00  0.00     0.010 A 
ATOM     32  C   UNL A   1      40.511  29.171  26.703  1.00  0.00     0.010 A 
ATOM     33  C   UNL A   1      41.520  28.986  27.668  1.00  0.00    -0.014 A 
BRANCH  33  34
ATOM     34  C   UNL A   1      42.947  28.903  27.273  1.00  0.00     0.031 A 
ATOM     35  C   UNL A   1      43.504  27.618  26.733  1.00  0.00     0.074 A 
ATOM     36  C   UNL A   1      43.738  29.986  27.402  1.00  0.00     0.049 A 
ATOM     37  N   UNL A   1      44.749  27.294  26.495  1.00  0.00    -0.248 NA
ATOM     38  C   UNL A   1      42.535  26.553  26.425  1.00  0.00     0.031 C 
ATOM     39  C   UNL A   1      43.298  31.310  27.851  1.00  0.00     0.029 A 
ATOM     40  N   UNL A   1      45.081  30.144  27.174  1.00  0.00    -0.354 N 
ATOM     41  C   UNL A   1      44.719  25.979  26.050  1.00  0.00     0.074 A 
ATOM     42  C   UNL A   1      43.333  25.561  26.053  1.00  0.00     0.031 C 
ATOM     43  C   UNL A   1      44.350  32.144  27.859  1.00  0.00     0.029 A 
ATOM     44  C   UNL A   1      45.548  31.396  27.497  1.00  0.00     0.049 A 
ATOM     45  H   UNL A   1      45.656  29.430  26.815  1.00  0.00     0.167 HD
ATOM     46  C   UNL A   1      45.758  25.192  25.681  1.00  0.00     0.031 A 
ATOM     47  C   UNL A   1      46.805  31.877  27.552  1.00  0.00     0.031 A 
ATOM     48  C   UNL A   1      47.131  25.624  25.674  1.00  0.00     0.049 A 
ATOM     49  C   UNL A   1      47.947  30.959  27.215  1.00  0.00     0.074 A 
ATOM     50  C   UNL A   1      48.258  24.907  25.311  1.00  0.00     0.029 A 
ATOM     51  N   UNL A   1      47.565  26.888  26.047  1.00  0.00    -0.354 N 
ATOM     52  N   UNL A   1      47.909  29.707  26.825  1.00  0.00    -0.248 NA
ATOM     53  C   UNL A   1      49.300  31.515  27.339  1.00  0.00     0.031 C 
ATOM     54  C   UNL A   1      49.378  25.721  25.518  1.00  0.00     0.029 A 
ATOM     55  C   UNL A   1      48.945  26.963  25.951  1.00  0.00     0.049 A 
ATOM     56  H   UNL A   1      46.979  27.624  26.337  1.00  0.00     0.167 HD
ATOM     57  C   UNL A   1      49.234  29.329  26.641  1.00  0.00     0.074 A 
ATOM     58  C   UNL A   1      50.046  30.492  26.943  1.00  0.00     0.031 C 
ATOM     59  C   UNL A   1      49.735  28.128  26.262  1.00  0.00     0.031 A 
BRANCH  46  60
ATOM     60  C   UNL A   1      45.456  23.765  25.304  1.00  0.00    -0.014 A 
ATOM     61  C   UNL A   1      45.196  23.393  23.973  1.00  0.00     0.010 A 
ATOM     62  C   UNL A   1      45.475  22.771  26.301  1.00  0.00     0.010 A 
ATOM     63  C   UNL A   1      44.927  22.060  23.652  1.00  0.00     0.020 A 
ATOM     64  C   UNL A   1      45.233  21.433  25.979  1.00  0.00     0.020 A 
ATOM     65  C   UNL A   1      44.945  21.088  24.658  1.00  0.00     0.054 A 
BRANCH  65  66
ATOM     66  S   UNL A   1      44.617  19.361  24.209  1.00  0.00     0.124 S 
ATOM     67  O   UNL A   1      45.768  18.675  24.791  1.00  0.00    -0.237 OA
ATOM     68  O   UNL A   1      43.336  19.099  24.859  1.00  0.00    -0.237 OA
ATOM     69  O   UNL A   1      44.578  19.382  22.749  1.00  0.00    -0.744 OA
ENDBRANCH  65  66
ENDBRANCH  46  60
BRANCH  47  70
ATOM     70  C   UNL A   1      47.048  33.274  28.001  1.00  0.00    -0.014 A 
ATOM     71  C   UNL A   1      47.251  33.567  29.359  1.00  0.00     0.010 A 
ATOM     72  C   UNL A   1      47.090  34.323  27.061  1.00  0.00     0.010 A 
ATOM     73  C   UNL A   1      47.478  34.884  29.773  1.00  0.00     0.020 A 
ATOM     74  C   UNL A   1      47.349  35.635  27.467  1.00  0.00     0.020 A 
ATOM     75  C   UNL A   1      47.528  35.908  28.823  1.00  0.00     0.054 A 
BRANCH  75  76
ATOM     76  S   UNL A   1      47.875  37.601  29.378  1.00  0.00     0.124 S 
ATOM     77  O   UNL A   1      48.418  38.210  28.168  1.00  0.00    -0.237 OA
ATOM     78  O   UNL A   1      46.556  38.075  29.789  1.00  0.00    -0.237 OA
ATOM     79  O   UNL A   1      48.829  37.414  30.469  1.00  0.00    -0.744 OA
ENDBRANCH  75  76
ENDBRANCH  47  70
BRANCH  59  80
ATOM     80  C   UNL A   1      51.228  28.020  26.125  1.00  0.00    -0.014 A 
ATOM     81  C   UNL A   1      52.029  27.598  27.202  1.00  0.00     0.010 A 
ATOM     82  C   UNL A   1      51.835  28.301  24.887  1.00  0.00     0.010 A 
ATOM     83  C   UNL A   1      53.414  27.490  27.052  1.00  0.00     0.020 A 
ATOM     84  C   UNL A   1      53.215  28.167  24.725  1.00  0.00     0.020 A 
ATOM     85  C   UNL A   1      53.998  27.776  25.813  1.00  0.00     0.054 A 
BRANCH  85  86
ATOM     86  S   UNL A   1      55.793  27.588  25.632  1.00  0.00     0.124 S 
ATOM     87  O   UNL A   1      55.892  26.700  24.478  1.00  0.00    -0.237 OA
ATOM     88  O   UNL A   1      56.239  28.961  25.409  1.00  0.00    -0.237 OA
ATOM     89  O   UNL A   1      56.209  27.004  26.905  1.00  0.00    -0.744 OA
ENDBRANCH  85  86
ENDBRANCH  59  80
ENDBRANCH  33  34
ENDBRANCH  26  28
ENDBRANCH  25  26
ENDBRANCH  24  25
ENDBRANCH   1  24
TORSDOF 18
ENDMDL
