MODEL 1
REMARK VINA RESULT:     -11.8      0.000      0.000
REMARK SMILES O=C1CC[C@@H](CC(=O)N2CCC(Oc3ccccc3)(C(=O)OCCOC(=O)c3ccc(-c4c5nc(c(-c6ccc(S(=O)(=O)[O-])cc6)c6ccc([nH]6)c(-c6ccc(S(=O)(=O)[O-])cc6)c6nc(c(-c7ccc(S(=O)(=O)[O-])cc7)c7ccc4[nH]7)C=C6)C=C5)cc3)CC2)N1
REMARK SMILES IDX 24 1 23 2 22 3 20 4 21 5 12 6 7 7 8 8 9 9 10 10 89 11 11 12
REMARK SMILES IDX 88 13 6 14 5 15 1 16 2 17 3 18 90 19 4 20 13 22 14 23 15 24
REMARK SMILES IDX 19 25 16 26 18 27 17 28 25 29 26 30 27 31 28 32 29 33 87 34
REMARK SMILES IDX 30 35 86 36 31 37 32 38 33 39 80 40 34 41 85 42 79 43 81 44
REMARK SMILES IDX 35 45 84 46 78 47 77 48 36 50 66 51 47 52 65 53 48 54 51 55
REMARK SMILES IDX 64 56 82 57 49 58 50 59 63 61 83 62 52 63 37 64 38 65 46 66
REMARK SMILES IDX 39 67 45 68 40 69 41 70 42 71 43 72 44 73 67 74 68 75 76 76
REMARK SMILES IDX 69 77 75 78 70 79 71 80 72 81 73 82 74 83 53 84 54 85 62 86
REMARK SMILES IDX 55 87 61 88 56 89 57 90 58 91 59 92 60 93
REMARK H PARENT 90 21 81 49 51 60
REMARK Flexibility Score: inf
ROOT
ATOM      1  C   UNL A   1      32.145  30.775  26.835  1.00  0.00     0.275 C 
ENDROOT
BRANCH   1   2
ATOM      2  C   UNL A   1      31.596  30.261  25.506  1.00  0.00     0.274 C 
BRANCH   2   3
ATOM      3  O   UNL A   1      31.596  28.816  25.460  1.00  0.00    -0.459 OA
BRANCH   3   4
ATOM      4  C   UNL A   1      32.114  28.262  24.329  1.00  0.00     0.350 C 
ATOM      5  O   UNL A   1      33.069  28.742  23.724  1.00  0.00    -0.247 OA
BRANCH   4   6
ATOM      6  C   UNL A   1      31.365  26.995  23.855  1.00  0.00     0.209 C 
ATOM      7  C   UNL A   1      31.546  23.586  26.239  1.00  0.00     0.224 C 
ATOM      8  O   UNL A   1      30.417  23.111  26.395  1.00  0.00    -0.275 OA
ATOM      9  N   UNL A   1      31.712  24.910  25.862  1.00  0.00    -0.342 N 
ATOM     10  C   UNL A   1      30.640  25.881  26.070  1.00  0.00     0.124 C 
ATOM     11  C   UNL A   1      32.851  25.435  25.148  1.00  0.00     0.124 C 
ATOM     12  C   UNL A   1      30.201  26.555  24.772  1.00  0.00     0.082 C 
ATOM     13  C   UNL A   1      32.423  25.871  23.755  1.00  0.00     0.082 C 
BRANCH   7  14
ATOM     14  C   UNL A   1      32.765  22.759  26.658  1.00  0.00     0.125 C 
BRANCH  14  15
ATOM     15  C   UNL A   1      33.284  21.576  25.835  1.00  0.00     0.091 C 
ATOM     16  O   UNL A   1      32.168  18.316  25.189  1.00  0.00    -0.275 OA
ATOM     17  C   UNL A   1      32.511  19.474  25.115  1.00  0.00     0.220 C 
ATOM     18  C   UNL A   1      32.651  20.286  23.854  1.00  0.00     0.102 C 
ATOM     19  N   UNL A   1      32.819  20.274  26.198  1.00  0.00    -0.353 N 
ATOM     20  C   UNL A   1      32.955  21.695  24.349  1.00  0.00     0.035 C 
ATOM     21  H   UNL A   1      32.728  19.976  27.131  1.00  0.00     0.163 HD
ENDBRANCH  14  15
ENDBRANCH   7  14
BRANCH   6  22
ATOM     22  O   UNL A   1      30.848  27.472  22.574  1.00  0.00    -0.475 OA
BRANCH  22  23
ATOM     23  C   UNL A   1      29.786  28.327  22.655  1.00  0.00     0.121 A 
ATOM     24  C   UNL A   1      29.951  29.661  22.286  1.00  0.00     0.046 A 
ATOM     25  C   UNL A   1      28.560  27.879  23.143  1.00  0.00     0.046 A 
ATOM     26  C   UNL A   1      28.852  30.520  22.298  1.00  0.00     0.004 A 
ATOM     27  C   UNL A   1      27.462  28.736  23.148  1.00  0.00     0.004 A 
ATOM     28  C   UNL A   1      27.604  30.053  22.711  1.00  0.00     0.000 A 
ENDBRANCH  22  23
ENDBRANCH   6  22
ENDBRANCH   4   6
ENDBRANCH   3   4
ENDBRANCH   2   3
ENDBRANCH   1   2
BRANCH   1  29
ATOM     29  O   UNL A   1      33.582  30.689  26.843  1.00  0.00    -0.458 OA
BRANCH  29  30
ATOM     30  C   UNL A   1      34.235  31.566  27.642  1.00  0.00     0.338 C 
ATOM     31  O   UNL A   1      33.812  32.636  28.047  1.00  0.00    -0.246 OA
BRANCH  30  32
ATOM     32  C   UNL A   1      35.559  31.030  28.033  1.00  0.00     0.060 A 
ATOM     33  C   UNL A   1      35.682  29.705  28.430  1.00  0.00     0.016 A 
ATOM     34  C   UNL A   1      36.652  31.888  28.184  1.00  0.00     0.016 A 
ATOM     35  C   UNL A   1      36.824  29.299  29.123  1.00  0.00     0.010 A 
ATOM     36  C   UNL A   1      37.856  31.422  28.749  1.00  0.00     0.010 A 
ATOM     37  C   UNL A   1      37.950  30.133  29.294  1.00  0.00    -0.014 A 
BRANCH  37  38
ATOM     38  C   UNL A   1      39.145  29.654  30.095  1.00  0.00     0.031 A 
ATOM     39  C   UNL A   1      40.039  28.509  29.624  1.00  0.00     0.074 A 
ATOM     40  C   UNL A   1      39.554  30.337  31.191  1.00  0.00     0.049 A 
ATOM     41  N   UNL A   1      41.125  28.028  30.191  1.00  0.00    -0.248 NA
ATOM     42  C   UNL A   1      39.727  27.862  28.337  1.00  0.00     0.031 C 
ATOM     43  C   UNL A   1      38.889  31.511  31.760  1.00  0.00     0.029 A 
ATOM     44  N   UNL A   1      40.662  30.178  31.998  1.00  0.00    -0.354 N 
ATOM     45  C   UNL A   1      41.622  27.049  29.335  1.00  0.00     0.074 A 
ATOM     46  C   UNL A   1      40.715  26.985  28.211  1.00  0.00     0.031 C 
ATOM     47  C   UNL A   1      39.651  32.030  32.730  1.00  0.00     0.029 A 
ATOM     48  C   UNL A   1      40.764  31.126  32.992  1.00  0.00     0.049 A 
ATOM     49  H   UNL A   1      41.319  29.455  31.874  1.00  0.00     0.167 HD
ATOM     50  C   UNL A   1      42.729  26.271  29.455  1.00  0.00     0.031 A 
ATOM     51  C   UNL A   1      41.582  31.238  34.060  1.00  0.00     0.031 A 
ATOM     52  C   UNL A   1      43.622  26.261  30.586  1.00  0.00     0.049 A 
ATOM     53  C   UNL A   1      42.619  30.187  34.318  1.00  0.00     0.074 A 
ATOM     54  C   UNL A   1      44.706  25.425  30.814  1.00  0.00     0.029 A 
ATOM     55  N   UNL A   1      43.529  27.093  31.686  1.00  0.00    -0.354 N 
ATOM     56  N   UNL A   1      43.008  29.211  33.537  1.00  0.00    -0.248 NA
ATOM     57  C   UNL A   1      43.290  30.220  35.627  1.00  0.00     0.031 C 
ATOM     58  C   UNL A   1      45.208  25.694  32.093  1.00  0.00     0.029 A 
ATOM     59  C   UNL A   1      44.486  26.745  32.628  1.00  0.00     0.049 A 
ATOM     60  H   UNL A   1      42.879  27.825  31.785  1.00  0.00     0.167 HD
ATOM     61  C   UNL A   1      43.959  28.505  34.266  1.00  0.00     0.074 A 
ATOM     62  C   UNL A   1      44.113  29.185  35.534  1.00  0.00     0.031 C 
ATOM     63  C   UNL A   1      44.628  27.381  33.911  1.00  0.00     0.031 A 
BRANCH  50  64
ATOM     64  C   UNL A   1      43.008  25.274  28.358  1.00  0.00    -0.014 A 
ATOM     65  C   UNL A   1      43.881  25.569  27.296  1.00  0.00     0.010 A 
ATOM     66  C   UNL A   1      42.451  23.983  28.451  1.00  0.00     0.010 A 
ATOM     67  C   UNL A   1      44.173  24.596  26.333  1.00  0.00     0.020 A 
ATOM     68  C   UNL A   1      42.755  23.005  27.501  1.00  0.00     0.020 A 
ATOM     69  C   UNL A   1      43.605  23.321  26.441  1.00  0.00     0.054 A 
BRANCH  69  70
ATOM     70  S   UNL A   1      44.010  22.072  25.187  1.00  0.00     0.124 S 
ATOM     71  O   UNL A   1      45.320  21.608  25.640  1.00  0.00    -0.237 OA
ATOM     72  O   UNL A   1      42.920  21.112  25.327  1.00  0.00    -0.237 OA
ATOM     73  O   UNL A   1      44.017  22.827  23.936  1.00  0.00    -0.744 OA
ENDBRANCH  69  70
ENDBRANCH  50  64
BRANCH  51  74
ATOM     74  C   UNL A   1      41.322  32.307  35.070  1.00  0.00    -0.014 A 
ATOM     75  C   UNL A   1      42.013  33.530  35.049  1.00  0.00     0.010 A 
ATOM     76  C   UNL A   1      40.347  32.090  36.064  1.00  0.00     0.010 A 
ATOM     77  C   UNL A   1      41.716  34.521  35.993  1.00  0.00     0.020 A 
ATOM     78  C   UNL A   1      40.016  33.091  36.976  1.00  0.00     0.020 A 
ATOM     79  C   UNL A   1      40.709  34.298  36.941  1.00  0.00     0.054 A 
BRANCH  79  80
ATOM     80  S   UNL A   1      40.267  35.623  38.099  1.00  0.00     0.124 S 
ATOM     81  O   UNL A   1      39.955  36.724  37.193  1.00  0.00    -0.237 OA
ATOM     82  O   UNL A   1      39.132  35.051  38.818  1.00  0.00    -0.237 OA
ATOM     83  O   UNL A   1      41.478  35.791  38.898  1.00  0.00    -0.744 OA
ENDBRANCH  79  80
ENDBRANCH  51  74
BRANCH  63  84
ATOM     84  C   UNL A   1      45.581  26.791  34.914  1.00  0.00    -0.014 A 
ATOM     85  C   UNL A   1      45.144  25.824  35.838  1.00  0.00     0.010 A 
ATOM     86  C   UNL A   1      46.933  27.178  34.921  1.00  0.00     0.010 A 
ATOM     87  C   UNL A   1      46.032  25.278  36.769  1.00  0.00     0.020 A 
ATOM     88  C   UNL A   1      47.832  26.614  35.834  1.00  0.00     0.020 A 
ATOM     89  C   UNL A   1      47.372  25.678  36.761  1.00  0.00     0.054 A 
BRANCH  89  90
ATOM     90  S   UNL A   1      48.511  24.929  37.959  1.00  0.00     0.124 S 
ATOM     91  O   UNL A   1      48.612  23.559  37.467  1.00  0.00    -0.237 OA
ATOM     92  O   UNL A   1      49.715  25.743  37.808  1.00  0.00    -0.237 OA
ATOM     93  O   UNL A   1      47.820  25.083  39.237  1.00  0.00    -0.744 OA
ENDBRANCH  89  90
ENDBRANCH  63  84
ENDBRANCH  37  38
ENDBRANCH  30  32
ENDBRANCH  29  30
ENDBRANCH   1  29
TORSDOF 18
ENDMDL
MODEL 2
REMARK VINA RESULT:     -11.6      2.837      3.403
REMARK SMILES O=C1CC[C@@H](CC(=O)N2CCC(Oc3ccccc3)(C(=O)OCCOC(=O)c3ccc(-c4c5nc(c(-c6ccc(S(=O)(=O)[O-])cc6)c6ccc([nH]6)c(-c6ccc(S(=O)(=O)[O-])cc6)c6nc(c(-c7ccc(S(=O)(=O)[O-])cc7)c7ccc4[nH]7)C=C6)C=C5)cc3)CC2)N1
REMARK SMILES IDX 24 1 23 2 22 3 20 4 21 5 12 6 7 7 8 8 9 9 10 10 89 11 11 12
REMARK SMILES IDX 88 13 6 14 5 15 1 16 2 17 3 18 90 19 4 20 13 22 14 23 15 24
REMARK SMILES IDX 19 25 16 26 18 27 17 28 25 29 26 30 27 31 28 32 29 33 87 34
REMARK SMILES IDX 30 35 86 36 31 37 32 38 33 39 80 40 34 41 85 42 79 43 81 44
REMARK SMILES IDX 35 45 84 46 78 47 77 48 36 50 66 51 47 52 65 53 48 54 51 55
REMARK SMILES IDX 64 56 82 57 49 58 50 59 63 61 83 62 52 63 37 64 38 65 46 66
REMARK SMILES IDX 39 67 45 68 40 69 41 70 42 71 43 72 44 73 67 74 68 75 76 76
REMARK SMILES IDX 69 77 75 78 70 79 71 80 72 81 73 82 74 83 53 84 54 85 62 86
REMARK SMILES IDX 55 87 61 88 56 89 57 90 58 91 59 92 60 93
REMARK H PARENT 90 21 81 49 51 60
REMARK Flexibility Score: inf
ROOT
ATOM      1  C   UNL A   1      32.865  29.911  27.155  1.00  0.00     0.275 C 
ENDROOT
BRANCH   1   2
ATOM      2  C   UNL A   1      31.926  30.323  26.022  1.00  0.00     0.274 C 
BRANCH   2   3
ATOM      3  O   UNL A   1      31.299  29.172  25.413  1.00  0.00    -0.459 OA
BRANCH   3   4
ATOM      4  C   UNL A   1      31.976  28.616  24.370  1.00  0.00     0.350 C 
ATOM      5  O   UNL A   1      32.947  29.149  23.840  1.00  0.00    -0.247 OA
BRANCH   4   6
ATOM      6  C   UNL A   1      31.386  27.270  23.889  1.00  0.00     0.209 C 
ATOM      7  C   UNL A   1      31.819  23.935  26.343  1.00  0.00     0.224 C 
ATOM      8  O   UNL A   1      30.740  23.345  26.461  1.00  0.00    -0.275 OA
ATOM      9  N   UNL A   1      31.861  25.263  25.949  1.00  0.00    -0.342 N 
ATOM     10  C   UNL A   1      30.685  26.118  26.093  1.00  0.00     0.124 C 
ATOM     11  C   UNL A   1      32.969  25.895  25.273  1.00  0.00     0.124 C 
ATOM     12  C   UNL A   1      30.235  26.722  24.764  1.00  0.00     0.082 C 
ATOM     13  C   UNL A   1      32.559  26.263  23.855  1.00  0.00     0.082 C 
BRANCH   7  14
ATOM     14  C   UNL A   1      33.098  23.248  26.830  1.00  0.00     0.125 C 
BRANCH  14  15
ATOM     15  C   UNL A   1      33.608  21.932  26.232  1.00  0.00     0.091 C 
ATOM     16  O   UNL A   1      32.129  18.911  25.244  1.00  0.00    -0.275 OA
ATOM     17  C   UNL A   1      32.706  19.973  25.292  1.00  0.00     0.220 C 
ATOM     18  C   UNL A   1      33.422  20.654  24.154  1.00  0.00     0.102 C 
ATOM     19  N   UNL A   1      32.793  20.773  26.415  1.00  0.00    -0.353 N 
ATOM     20  C   UNL A   1      33.825  22.008  24.723  1.00  0.00     0.035 C 
ATOM     21  H   UNL A   1      32.337  20.563  27.262  1.00  0.00     0.163 HD
ENDBRANCH  14  15
ENDBRANCH   7  14
BRANCH   6  22
ATOM     22  O   UNL A   1      30.879  27.671  22.578  1.00  0.00    -0.475 OA
BRANCH  22  23
ATOM     23  C   UNL A   1      29.789  28.495  22.601  1.00  0.00     0.121 A 
ATOM     24  C   UNL A   1      28.564  27.997  23.042  1.00  0.00     0.046 A 
ATOM     25  C   UNL A   1      29.892  29.808  22.146  1.00  0.00     0.046 A 
ATOM     26  C   UNL A   1      27.466  28.852  23.135  1.00  0.00     0.004 A 
ATOM     27  C   UNL A   1      28.796  30.663  22.247  1.00  0.00     0.004 A 
ATOM     28  C   UNL A   1      27.587  30.189  22.756  1.00  0.00     0.000 A 
ENDBRANCH  22  23
ENDBRANCH   6  22
ENDBRANCH   4   6
ENDBRANCH   3   4
ENDBRANCH   2   3
ENDBRANCH   1   2
BRANCH   1  29
ATOM     29  O   UNL A   1      34.103  30.639  27.060  1.00  0.00    -0.458 OA
BRANCH  29  30
ATOM     30  C   UNL A   1      34.700  30.969  28.229  1.00  0.00     0.338 C 
ATOM     31  O   UNL A   1      34.266  31.728  29.080  1.00  0.00    -0.246 OA
BRANCH  30  32
ATOM     32  C   UNL A   1      35.973  30.228  28.393  1.00  0.00     0.060 A 
ATOM     33  C   UNL A   1      36.345  29.760  29.646  1.00  0.00     0.016 A 
ATOM     34  C   UNL A   1      36.889  30.154  27.340  1.00  0.00     0.016 A 
ATOM     35  C   UNL A   1      37.671  29.386  29.873  1.00  0.00     0.010 A 
ATOM     36  C   UNL A   1      38.180  29.630  27.550  1.00  0.00     0.010 A 
ATOM     37  C   UNL A   1      38.627  29.295  28.837  1.00  0.00    -0.014 A 
BRANCH  37  38
ATOM     38  C   UNL A   1      40.064  28.927  29.149  1.00  0.00     0.031 A 
ATOM     39  C   UNL A   1      40.647  27.556  28.814  1.00  0.00     0.074 A 
ATOM     40  C   UNL A   1      40.931  29.866  29.597  1.00  0.00     0.049 A 
ATOM     41  N   UNL A   1      41.879  27.124  28.985  1.00  0.00    -0.248 NA
ATOM     42  C   UNL A   1      39.776  26.568  28.154  1.00  0.00     0.031 C 
ATOM     43  C   UNL A   1      40.594  31.260  29.901  1.00  0.00     0.029 A 
ATOM     44  N   UNL A   1      42.290  29.811  29.829  1.00  0.00    -0.354 N 
ATOM     45  C   UNL A   1      41.930  25.840  28.448  1.00  0.00     0.074 A 
ATOM     46  C   UNL A   1      40.602  25.547  27.956  1.00  0.00     0.031 C 
ATOM     47  C   UNL A   1      41.716  31.944  30.155  1.00  0.00     0.029 A 
ATOM     48  C   UNL A   1      42.833  31.012  30.229  1.00  0.00     0.049 A 
ATOM     49  H   UNL A   1      42.821  28.989  29.719  1.00  0.00     0.167 HD
ATOM     50  C   UNL A   1      42.973  24.976  28.359  1.00  0.00     0.031 A 
ATOM     51  C   UNL A   1      44.056  31.345  30.695  1.00  0.00     0.031 A 
ATOM     52  C   UNL A   1      44.293  25.205  28.891  1.00  0.00     0.049 A 
ATOM     53  C   UNL A   1      45.106  30.288  30.855  1.00  0.00     0.074 A 
ATOM     54  C   UNL A   1      45.368  24.329  28.923  1.00  0.00     0.029 A 
ATOM     55  N   UNL A   1      44.716  26.369  29.506  1.00  0.00    -0.354 N 
ATOM     56  N   UNL A   1      45.096  29.052  30.424  1.00  0.00    -0.248 NA
ATOM     57  C   UNL A   1      46.312  30.657  31.612  1.00  0.00     0.031 C 
ATOM     58  C   UNL A   1      46.408  24.933  29.639  1.00  0.00     0.029 A 
ATOM     59  C   UNL A   1      46.007  26.210  29.986  1.00  0.00     0.049 A 
ATOM     60  H   UNL A   1      44.178  27.189  29.590  1.00  0.00     0.167 HD
ATOM     61  C   UNL A   1      46.288  28.490  30.872  1.00  0.00     0.074 A 
ATOM     62  C   UNL A   1      47.010  29.530  31.574  1.00  0.00     0.031 C 
ATOM     63  C   UNL A   1      46.726  27.217  30.723  1.00  0.00     0.031 A 
BRANCH  50  64
ATOM     64  C   UNL A   1      42.718  23.629  27.729  1.00  0.00    -0.014 A 
ATOM     65  C   UNL A   1      43.163  23.326  26.431  1.00  0.00     0.010 A 
ATOM     66  C   UNL A   1      42.100  22.623  28.496  1.00  0.00     0.010 A 
ATOM     67  C   UNL A   1      42.972  22.043  25.902  1.00  0.00     0.020 A 
ATOM     68  C   UNL A   1      41.924  21.337  27.978  1.00  0.00     0.020 A 
ATOM     69  C   UNL A   1      42.350  21.058  26.679  1.00  0.00     0.054 A 
BRANCH  69  70
ATOM     70  S   UNL A   1      42.127  19.400  25.977  1.00  0.00     0.124 S 
ATOM     71  O   UNL A   1      42.649  18.550  27.045  1.00  0.00    -0.237 OA
ATOM     72  O   UNL A   1      40.684  19.332  25.767  1.00  0.00    -0.237 OA
ATOM     73  O   UNL A   1      42.932  19.428  24.757  1.00  0.00    -0.744 OA
ENDBRANCH  69  70
ENDBRANCH  50  64
BRANCH  51  74
ATOM     74  C   UNL A   1      44.286  32.724  31.219  1.00  0.00    -0.014 A 
ATOM     75  C   UNL A   1      44.953  33.703  30.462  1.00  0.00     0.010 A 
ATOM     76  C   UNL A   1      43.809  33.061  32.502  1.00  0.00     0.010 A 
ATOM     77  C   UNL A   1      45.118  34.995  30.975  1.00  0.00     0.020 A 
ATOM     78  C   UNL A   1      43.931  34.357  32.996  1.00  0.00     0.020 A 
ATOM     79  C   UNL A   1      44.594  35.316  32.233  1.00  0.00     0.054 A 
BRANCH  79  80
ATOM     80  S   UNL A   1      44.730  37.017  32.848  1.00  0.00     0.124 S 
ATOM     81  O   UNL A   1      44.538  37.796  31.629  1.00  0.00    -0.237 OA
ATOM     82  O   UNL A   1      43.649  37.091  33.827  1.00  0.00    -0.237 OA
ATOM     83  O   UNL A   1      46.076  37.064  33.416  1.00  0.00    -0.744 OA
ENDBRANCH  79  80
ENDBRANCH  51  74
BRANCH  63  84
ATOM     84  C   UNL A   1      48.047  26.857  31.347  1.00  0.00    -0.014 A 
ATOM     85  C   UNL A   1      48.102  26.286  32.632  1.00  0.00     0.010 A 
ATOM     86  C   UNL A   1      49.245  27.060  30.640  1.00  0.00     0.010 A 
ATOM     87  C   UNL A   1      49.331  25.953  33.209  1.00  0.00     0.020 A 
ATOM     88  C   UNL A   1      50.476  26.703  31.203  1.00  0.00     0.020 A 
ATOM     89  C   UNL A   1      50.511  26.165  32.490  1.00  0.00     0.054 A 
BRANCH  89  90
ATOM     90  S   UNL A   1      52.090  25.694  33.251  1.00  0.00     0.124 S 
ATOM     91  O   UNL A   1      51.657  24.799  34.321  1.00  0.00    -0.237 OA
ATOM     92  O   UNL A   1      52.799  25.054  32.145  1.00  0.00    -0.237 OA
ATOM     93  O   UNL A   1      52.655  26.966  33.692  1.00  0.00    -0.744 OA
ENDBRANCH  89  90
ENDBRANCH  63  84
ENDBRANCH  37  38
ENDBRANCH  30  32
ENDBRANCH  29  30
ENDBRANCH   1  29
TORSDOF 18
ENDMDL
MODEL 3
REMARK VINA RESULT:     -11.2      1.198      8.062
REMARK SMILES O=C1CC[C@@H](CC(=O)N2CCC(Oc3ccccc3)(C(=O)OCCOC(=O)c3ccc(-c4c5nc(c(-c6ccc(S(=O)(=O)[O-])cc6)c6ccc([nH]6)c(-c6ccc(S(=O)(=O)[O-])cc6)c6nc(c(-c7ccc(S(=O)(=O)[O-])cc7)c7ccc4[nH]7)C=C6)C=C5)cc3)CC2)N1
REMARK SMILES IDX 24 1 23 2 22 3 20 4 21 5 12 6 7 7 8 8 9 9 10 10 89 11 11 12
REMARK SMILES IDX 88 13 6 14 5 15 1 16 2 17 3 18 90 19 4 20 13 22 14 23 15 24
REMARK SMILES IDX 19 25 16 26 18 27 17 28 25 29 26 30 27 31 28 32 29 33 87 34
REMARK SMILES IDX 30 35 86 36 31 37 32 38 33 39 80 40 34 41 85 42 79 43 81 44
REMARK SMILES IDX 35 45 84 46 78 47 77 48 36 50 66 51 47 52 65 53 48 54 51 55
REMARK SMILES IDX 64 56 82 57 49 58 50 59 63 61 83 62 52 63 37 64 38 65 46 66
REMARK SMILES IDX 39 67 45 68 40 69 41 70 42 71 43 72 44 73 67 74 68 75 76 76
REMARK SMILES IDX 69 77 75 78 70 79 71 80 72 81 73 82 74 83 53 84 54 85 62 86
REMARK SMILES IDX 55 87 61 88 56 89 57 90 58 91 59 92 60 93
REMARK H PARENT 90 21 81 49 51 60
REMARK Flexibility Score: inf
ROOT
ATOM      1  C   UNL A   1      32.493  30.688  26.560  1.00  0.00     0.275 C 
ENDROOT
BRANCH   1   2
ATOM      2  C   UNL A   1      32.986  29.522  25.704  1.00  0.00     0.274 C 
BRANCH   2   3
ATOM      3  O   UNL A   1      32.006  29.150  24.708  1.00  0.00    -0.459 OA
BRANCH   3   4
ATOM      4  C   UNL A   1      32.410  28.215  23.804  1.00  0.00     0.350 C 
ATOM      5  O   UNL A   1      33.390  28.365  23.078  1.00  0.00    -0.247 OA
BRANCH   4   6
ATOM      6  C   UNL A   1      31.501  26.967  23.746  1.00  0.00     0.209 C 
ATOM      7  C   UNL A   1      31.907  24.089  26.728  1.00  0.00     0.224 C 
ATOM      8  O   UNL A   1      30.799  23.776  27.176  1.00  0.00    -0.275 OA
ATOM      9  N   UNL A   1      32.086  25.289  26.057  1.00  0.00    -0.342 N 
ATOM     10  C   UNL A   1      31.142  26.390  26.239  1.00  0.00     0.124 C 
ATOM     11  C   UNL A   1      33.099  25.541  25.060  1.00  0.00     0.124 C 
ATOM     12  C   UNL A   1      30.508  26.839  24.924  1.00  0.00     0.082 C 
ATOM     13  C   UNL A   1      32.441  25.739  23.703  1.00  0.00     0.082 C 
BRANCH   7  14
ATOM     14  C   UNL A   1      33.125  23.236  27.093  1.00  0.00     0.125 C 
BRANCH  14  15
ATOM     15  C   UNL A   1      33.272  21.775  26.657  1.00  0.00     0.091 C 
ATOM     16  O   UNL A   1      32.159  19.869  23.932  1.00  0.00    -0.275 OA
ATOM     17  C   UNL A   1      32.815  20.463  24.758  1.00  0.00     0.220 C 
ATOM     18  C   UNL A   1      34.317  20.479  24.864  1.00  0.00     0.102 C 
ATOM     19  N   UNL A   1      32.289  21.261  25.755  1.00  0.00    -0.353 N 
ATOM     20  C   UNL A   1      34.604  21.489  25.968  1.00  0.00     0.035 C 
ATOM     21  H   UNL A   1      31.328  21.457  25.838  1.00  0.00     0.163 HD
ENDBRANCH  14  15
ENDBRANCH   7  14
BRANCH   6  22
ATOM     22  O   UNL A   1      30.780  27.236  22.503  1.00  0.00    -0.475 OA
BRANCH  22  23
ATOM     23  C   UNL A   1      29.771  28.152  22.600  1.00  0.00     0.121 A 
ATOM     24  C   UNL A   1      29.976  29.449  22.132  1.00  0.00     0.046 A 
ATOM     25  C   UNL A   1      28.564  27.804  23.202  1.00  0.00     0.046 A 
ATOM     26  C   UNL A   1      28.926  30.366  22.163  1.00  0.00     0.004 A 
ATOM     27  C   UNL A   1      27.513  28.719  23.225  1.00  0.00     0.004 A 
ATOM     28  C   UNL A   1      27.690  29.996  22.692  1.00  0.00     0.000 A 
ENDBRANCH  22  23
ENDBRANCH   6  22
ENDBRANCH   4   6
ENDBRANCH   3   4
ENDBRANCH   2   3
ENDBRANCH   1   2
BRANCH   1  29
ATOM     29  O   UNL A   1      33.235  30.743  27.792  1.00  0.00    -0.458 OA
BRANCH  29  30
ATOM     30  C   UNL A   1      34.069  31.798  27.947  1.00  0.00     0.338 C 
ATOM     31  O   UNL A   1      33.764  32.979  27.920  1.00  0.00    -0.246 OA
BRANCH  30  32
ATOM     32  C   UNL A   1      35.450  31.337  28.223  1.00  0.00     0.060 A 
ATOM     33  C   UNL A   1      35.685  30.009  28.554  1.00  0.00     0.016 A 
ATOM     34  C   UNL A   1      36.495  32.259  28.331  1.00  0.00     0.016 A 
ATOM     35  C   UNL A   1      36.897  29.654  29.148  1.00  0.00     0.010 A 
ATOM     36  C   UNL A   1      37.764  31.852  28.790  1.00  0.00     0.010 A 
ATOM     37  C   UNL A   1      37.978  30.553  29.274  1.00  0.00    -0.014 A 
BRANCH  37  38
ATOM     38  C   UNL A   1      39.256  30.126  29.969  1.00  0.00     0.031 A 
ATOM     39  C   UNL A   1      39.728  30.760  31.276  1.00  0.00     0.074 A 
ATOM     40  C   UNL A   1      39.948  29.048  29.529  1.00  0.00     0.049 A 
ATOM     41  N   UNL A   1      40.781  30.455  32.003  1.00  0.00    -0.248 NA
ATOM     42  C   UNL A   1      38.896  31.816  31.880  1.00  0.00     0.031 C 
ATOM     43  C   UNL A   1      39.618  28.248  28.347  1.00  0.00     0.029 A 
ATOM     44  N   UNL A   1      41.047  28.398  30.054  1.00  0.00    -0.354 N 
ATOM     45  C   UNL A   1      40.729  31.260  33.138  1.00  0.00     0.074 A 
ATOM     46  C   UNL A   1      39.548  32.084  33.005  1.00  0.00     0.031 C 
ATOM     47  C   UNL A   1      40.405  27.167  28.306  1.00  0.00     0.029 A 
ATOM     48  C   UNL A   1      41.426  27.284  29.339  1.00  0.00     0.049 A 
ATOM     49  H   UNL A   1      41.516  28.703  30.864  1.00  0.00     0.167 HD
ATOM     50  C   UNL A   1      41.571  31.318  34.202  1.00  0.00     0.031 A 
ATOM     51  C   UNL A   1      42.508  26.480  29.415  1.00  0.00     0.031 A 
ATOM     52  C   UNL A   1      42.789  30.560  34.344  1.00  0.00     0.049 A 
ATOM     53  C   UNL A   1      43.571  26.757  30.434  1.00  0.00     0.074 A 
ATOM     54  C   UNL A   1      43.739  30.644  35.350  1.00  0.00     0.029 A 
ATOM     55  N   UNL A   1      43.244  29.606  33.453  1.00  0.00    -0.354 N 
ATOM     56  N   UNL A   1      43.542  27.591  31.444  1.00  0.00    -0.248 NA
ATOM     57  C   UNL A   1      44.837  26.021  30.293  1.00  0.00     0.031 C 
ATOM     58  C   UNL A   1      44.811  29.808  35.017  1.00  0.00     0.029 A 
ATOM     59  C   UNL A   1      44.493  29.148  33.844  1.00  0.00     0.049 A 
ATOM     60  H   UNL A   1      42.753  29.297  32.658  1.00  0.00     0.167 HD
ATOM     61  C   UNL A   1      44.790  27.491  32.048  1.00  0.00     0.074 A 
ATOM     62  C   UNL A   1      45.538  26.491  31.316  1.00  0.00     0.031 C 
ATOM     63  C   UNL A   1      45.270  28.186  33.108  1.00  0.00     0.031 A 
BRANCH  50  64
ATOM     64  C   UNL A   1      41.260  32.315  35.291  1.00  0.00    -0.014 A 
ATOM     65  C   UNL A   1      40.520  31.956  36.430  1.00  0.00     0.010 A 
ATOM     66  C   UNL A   1      41.804  33.612  35.204  1.00  0.00     0.010 A 
ATOM     67  C   UNL A   1      40.310  32.887  37.455  1.00  0.00     0.020 A 
ATOM     68  C   UNL A   1      41.610  34.536  36.233  1.00  0.00     0.020 A 
ATOM     69  C   UNL A   1      40.854  34.172  37.348  1.00  0.00     0.054 A 
BRANCH  69  70
ATOM     70  S   UNL A   1      40.579  35.356  38.696  1.00  0.00     0.124 S 
ATOM     71  O   UNL A   1      41.766  36.202  38.598  1.00  0.00    -0.237 OA
ATOM     72  O   UNL A   1      39.320  35.990  38.315  1.00  0.00    -0.237 OA
ATOM     73  O   UNL A   1      40.514  34.514  39.889  1.00  0.00    -0.744 OA
ENDBRANCH  69  70
ENDBRANCH  50  64
BRANCH  51  74
ATOM     74  C   UNL A   1      42.720  25.440  28.365  1.00  0.00    -0.014 A 
ATOM     75  C   UNL A   1      43.307  25.747  27.126  1.00  0.00     0.010 A 
ATOM     76  C   UNL A   1      42.335  24.110  28.628  1.00  0.00     0.010 A 
ATOM     77  C   UNL A   1      43.521  24.737  26.181  1.00  0.00     0.020 A 
ATOM     78  C   UNL A   1      42.589  23.094  27.708  1.00  0.00     0.020 A 
ATOM     79  C   UNL A   1      43.173  23.415  26.484  1.00  0.00     0.054 A 
BRANCH  79  80
ATOM     80  S   UNL A   1      43.540  22.099  25.291  1.00  0.00     0.124 S 
ATOM     81  O   UNL A   1      44.884  21.695  25.692  1.00  0.00    -0.237 OA
ATOM     82  O   UNL A   1      42.481  21.129  25.550  1.00  0.00    -0.237 OA
ATOM     83  O   UNL A   1      43.449  22.778  24.001  1.00  0.00    -0.744 OA
ENDBRANCH  79  80
ENDBRANCH  51  74
BRANCH  63  84
ATOM     84  C   UNL A   1      46.685  27.910  33.539  1.00  0.00    -0.014 A 
ATOM     85  C   UNL A   1      46.969  26.879  34.454  1.00  0.00     0.010 A 
ATOM     86  C   UNL A   1      47.748  28.662  33.009  1.00  0.00     0.010 A 
ATOM     87  C   UNL A   1      48.285  26.626  34.853  1.00  0.00     0.020 A 
ATOM     88  C   UNL A   1      49.069  28.395  33.385  1.00  0.00     0.020 A 
ATOM     89  C   UNL A   1      49.327  27.387  34.316  1.00  0.00     0.054 A 
BRANCH  89  90
ATOM     90  S   UNL A   1      51.029  27.015  34.826  1.00  0.00     0.124 S 
ATOM     91  O   UNL A   1      51.527  28.334  35.207  1.00  0.00    -0.237 OA
ATOM     92  O   UNL A   1      50.835  26.074  35.926  1.00  0.00    -0.237 OA
ATOM     93  O   UNL A   1      51.633  26.444  33.625  1.00  0.00    -0.744 OA
ENDBRANCH  89  90
ENDBRANCH  63  84
ENDBRANCH  37  38
ENDBRANCH  30  32
ENDBRANCH  29  30
ENDBRANCH   1  29
TORSDOF 18
ENDMDL
