MODEL 1
REMARK VINA RESULT:     -10.9      0.000      0.000
REMARK SMILES Cc1c(Br)c(C)c2c(c1Br)O[C@H](C(F)(F)F)C(C(=O)OCCOC(=O)c1ccc(-c3c4nc(c(-c5ccc(S(=O)(=O)[O-])cc5)c5ccc([nH]5)c(-c5ccc(S(=O)(=O)[O-])cc5)c5nc(c(-c6ccc(S(=O)(=O)[O-])cc6)c6ccc3[nH]6)C=C5)C=C4)cc1)=C2
REMARK SMILES IDX 22 1 21 2 20 3 18 4 19 5 17 6 1 7 2 8 3 9 9 10 4 11 5 12
REMARK SMILES IDX 8 13 10 14 6 15 7 16 11 17 86 18 12 19 13 20 14 21 15 22
REMARK SMILES IDX 16 23 23 24 24 25 25 26 26 27 27 28 85 29 28 30 84 31 29 32
REMARK SMILES IDX 30 33 31 34 78 35 32 36 83 37 77 38 79 39 33 40 82 41 76 42
REMARK SMILES IDX 75 43 34 45 64 46 45 47 63 48 46 49 49 50 62 51 80 52 47 53
REMARK SMILES IDX 48 54 61 56 81 57 50 58 35 59 36 60 44 61 37 62 43 63 38 64
REMARK SMILES IDX 39 65 40 66 41 67 42 68 65 69 66 70 74 71 67 72 73 73 68 74
REMARK SMILES IDX 69 75 70 76 71 77 72 78 51 79 52 80 60 81 53 82 59 83 54 84
REMARK SMILES IDX 55 85 56 86 57 87 58 88
REMARK H PARENT 79 44 49 55
REMARK Flexibility Score: inf
ROOT
ATOM      1  C   UNL A   1      33.326  29.543  25.503  1.00  0.00     0.275 C 
ENDROOT
BRANCH   1   2
ATOM      2  C   UNL A   1      32.521  28.331  25.038  1.00  0.00     0.275 C 
BRANCH   2   3
ATOM      3  O   UNL A   1      33.105  27.098  25.512  1.00  0.00    -0.459 OA
BRANCH   3   4
ATOM      4  C   UNL A   1      32.261  26.263  26.158  1.00  0.00     0.338 C 
ATOM      5  O   UNL A   1      31.272  26.581  26.801  1.00  0.00    -0.246 OA
BRANCH   4   6
ATOM      6  C   UNL A   1      32.683  24.860  25.982  1.00  0.00     0.087 C 
ATOM      7  C   UNL A   1      35.728  19.226  24.651  1.00  0.00     0.047 C 
ATOM      8  C   UNL A   1      35.306  20.612  25.081  1.00  0.00    -0.019 A 
ATOM      9  C   UNL A   1      36.255  21.603  25.431  1.00  0.00     0.025 A 
ATOM     10  C   UNL A   1      33.939  20.968  25.077  1.00  0.00     0.064 A 
ATOM     11  Br  UNL A   1      38.126  21.180  25.346  1.00  0.00    -0.050 Br
ATOM     12  C   UNL A   1      35.851  22.907  25.809  1.00  0.00    -0.026 A 
ATOM     13  C   UNL A   1      33.519  22.261  25.434  1.00  0.00     0.142 A 
ATOM     14  Br  UNL A   1      32.600  19.708  24.525  1.00  0.00    -0.046 Br
ATOM     15  C   UNL A   1      36.846  23.965  26.241  1.00  0.00     0.046 C 
ATOM     16  C   UNL A   1      34.466  23.227  25.789  1.00  0.00     0.022 A 
ATOM     17  O   UNL A   1      32.167  22.502  25.439  1.00  0.00    -0.474 OA
ATOM     18  C   UNL A   1      33.984  24.573  26.093  1.00  0.00     0.027 C 
ATOM     19  C   UNL A   1      31.665  23.855  25.557  1.00  0.00     0.316 C 
BRANCH  19  20
ATOM     20  C   UNL A   1      30.989  24.259  24.237  1.00  0.00     0.430 C 
ATOM     21  F   UNL A   1      31.856  24.891  23.410  1.00  0.00    -0.167 F 
ATOM     22  F   UNL A   1      30.534  23.178  23.558  1.00  0.00    -0.167 F 
ATOM     23  F   UNL A   1      29.937  25.086  24.432  1.00  0.00    -0.167 F 
ENDBRANCH  19  20
ENDBRANCH   4   6
ENDBRANCH   3   4
ENDBRANCH   2   3
ENDBRANCH   1   2
BRANCH   1  24
ATOM     24  O   UNL A   1      34.308  29.151  26.479  1.00  0.00    -0.458 OA
BRANCH  24  25
ATOM     25  C   UNL A   1      34.487  30.019  27.501  1.00  0.00     0.338 C 
ATOM     26  O   UNL A   1      33.651  30.744  28.013  1.00  0.00    -0.246 OA
BRANCH  25  27
ATOM     27  C   UNL A   1      35.864  29.914  28.005  1.00  0.00     0.060 A 
ATOM     28  C   UNL A   1      36.907  30.194  27.131  1.00  0.00     0.016 A 
ATOM     29  C   UNL A   1      36.135  29.383  29.263  1.00  0.00     0.016 A 
ATOM     30  C   UNL A   1      38.203  29.806  27.447  1.00  0.00     0.010 A 
ATOM     31  C   UNL A   1      37.464  29.133  29.635  1.00  0.00     0.010 A 
ATOM     32  C   UNL A   1      38.516  29.294  28.714  1.00  0.00    -0.014 A 
BRANCH  32  33
ATOM     33  C   UNL A   1      39.928  28.920  29.038  1.00  0.00     0.031 A 
ATOM     34  C   UNL A   1      40.812  29.857  29.831  1.00  0.00     0.074 A 
ATOM     35  C   UNL A   1      40.412  27.712  28.673  1.00  0.00     0.049 A 
ATOM     36  N   UNL A   1      42.092  29.756  30.092  1.00  0.00    -0.248 NA
ATOM     37  C   UNL A   1      40.187  31.064  30.396  1.00  0.00     0.031 C 
ATOM     38  C   UNL A   1      39.662  26.678  27.951  1.00  0.00     0.029 A 
ATOM     39  N   UNL A   1      41.636  27.126  28.889  1.00  0.00    -0.354 N 
ATOM     40  C   UNL A   1      42.433  30.907  30.797  1.00  0.00     0.074 A 
ATOM     41  C   UNL A   1      41.229  31.699  30.916  1.00  0.00     0.031 C 
ATOM     42  C   UNL A   1      40.400  25.563  27.874  1.00  0.00     0.029 A 
ATOM     43  C   UNL A   1      41.724  25.835  28.417  1.00  0.00     0.049 A 
ATOM     44  H   UNL A   1      42.382  27.586  29.338  1.00  0.00     0.167 HD
ATOM     45  C   UNL A   1      43.637  31.270  31.302  1.00  0.00     0.031 A 
ATOM     46  C   UNL A   1      42.758  24.970  28.379  1.00  0.00     0.031 A 
ATOM     47  C   UNL A   1      44.823  30.456  31.223  1.00  0.00     0.049 A 
ATOM     48  C   UNL A   1      44.097  25.420  28.888  1.00  0.00     0.074 A 
ATOM     49  C   UNL A   1      46.094  30.743  31.691  1.00  0.00     0.029 A 
ATOM     50  N   UNL A   1      44.881  29.188  30.666  1.00  0.00    -0.354 N 
ATOM     51  N   UNL A   1      44.415  26.551  29.470  1.00  0.00    -0.248 NA
ATOM     52  C   UNL A   1      45.222  24.492  28.710  1.00  0.00     0.031 C 
ATOM     53  C   UNL A   1      46.930  29.668  31.377  1.00  0.00     0.029 A 
ATOM     54  C   UNL A   1      46.166  28.685  30.768  1.00  0.00     0.049 A 
ATOM     55  H   UNL A   1      44.119  28.715  30.259  1.00  0.00     0.167 HD
ATOM     56  C   UNL A   1      45.775  26.465  29.738  1.00  0.00     0.074 A 
ATOM     57  C   UNL A   1      46.215  25.165  29.274  1.00  0.00     0.031 C 
ATOM     58  C   UNL A   1      46.587  27.386  30.311  1.00  0.00     0.031 A 
BRANCH  45  59
ATOM     59  C   UNL A   1      43.754  32.618  31.968  1.00  0.00    -0.014 A 
ATOM     60  C   UNL A   1      44.012  33.783  31.225  1.00  0.00     0.010 A 
ATOM     61  C   UNL A   1      43.521  32.729  33.352  1.00  0.00     0.010 A 
ATOM     62  C   UNL A   1      44.058  35.030  31.858  1.00  0.00     0.020 A 
ATOM     63  C   UNL A   1      43.538  33.977  33.984  1.00  0.00     0.020 A 
ATOM     64  C   UNL A   1      43.817  35.118  33.233  1.00  0.00     0.054 A 
BRANCH  64  65
ATOM     65  S   UNL A   1      43.840  36.756  34.016  1.00  0.00     0.124 S 
ATOM     66  O   UNL A   1      42.449  36.910  34.434  1.00  0.00    -0.237 OA
ATOM     67  O   UNL A   1      44.804  36.577  35.099  1.00  0.00    -0.237 OA
ATOM     68  O   UNL A   1      44.269  37.650  32.944  1.00  0.00    -0.744 OA
ENDBRANCH  64  65
ENDBRANCH  45  59
BRANCH  46  69
ATOM     69  C   UNL A   1      42.576  23.614  27.790  1.00  0.00    -0.014 A 
ATOM     70  C   UNL A   1      42.948  23.355  26.459  1.00  0.00     0.010 A 
ATOM     71  C   UNL A   1      42.049  22.562  28.565  1.00  0.00     0.010 A 
ATOM     72  C   UNL A   1      42.796  22.074  25.916  1.00  0.00     0.020 A 
ATOM     73  C   UNL A   1      41.929  21.275  28.038  1.00  0.00     0.020 A 
ATOM     74  C   UNL A   1      42.292  21.041  26.711  1.00  0.00     0.054 A 
BRANCH  74  75
ATOM     75  S   UNL A   1      42.159  19.376  26.005  1.00  0.00     0.124 S 
ATOM     76  O   UNL A   1      42.749  18.553  27.055  1.00  0.00    -0.237 OA
ATOM     77  O   UNL A   1      40.718  19.227  25.817  1.00  0.00    -0.237 OA
ATOM     78  O   UNL A   1      42.934  19.464  24.769  1.00  0.00    -0.744 OA
ENDBRANCH  74  75
ENDBRANCH  46  69
BRANCH  58  79
ATOM     79  C   UNL A   1      48.032  27.016  30.505  1.00  0.00    -0.014 A 
ATOM     80  C   UNL A   1      49.013  27.416  29.581  1.00  0.00     0.010 A 
ATOM     81  C   UNL A   1      48.421  26.337  31.674  1.00  0.00     0.010 A 
ATOM     82  C   UNL A   1      50.359  27.131  29.819  1.00  0.00     0.020 A 
ATOM     83  C   UNL A   1      49.768  26.074  31.927  1.00  0.00     0.020 A 
ATOM     84  C   UNL A   1      50.729  26.469  30.995  1.00  0.00     0.054 A 
BRANCH  84  85
ATOM     85  S   UNL A   1      52.491  26.180  31.312  1.00  0.00     0.124 S 
ATOM     86  O   UNL A   1      52.468  24.908  32.027  1.00  0.00    -0.237 OA
ATOM     87  O   UNL A   1      53.053  26.133  29.964  1.00  0.00    -0.237 OA
ATOM     88  O   UNL A   1      52.895  27.336  32.108  1.00  0.00    -0.744 OA
ENDBRANCH  84  85
ENDBRANCH  58  79
ENDBRANCH  32  33
ENDBRANCH  25  27
ENDBRANCH  24  25
ENDBRANCH   1  24
TORSDOF 15
ENDMDL
MODEL 2
REMARK VINA RESULT:     -10.8      2.993      8.532
REMARK SMILES Cc1c(Br)c(C)c2c(c1Br)O[C@H](C(F)(F)F)C(C(=O)OCCOC(=O)c1ccc(-c3c4nc(c(-c5ccc(S(=O)(=O)[O-])cc5)c5ccc([nH]5)c(-c5ccc(S(=O)(=O)[O-])cc5)c5nc(c(-c6ccc(S(=O)(=O)[O-])cc6)c6ccc3[nH]6)C=C5)C=C4)cc1)=C2
REMARK SMILES IDX 22 1 21 2 20 3 18 4 19 5 17 6 1 7 2 8 3 9 9 10 4 11 5 12
REMARK SMILES IDX 8 13 10 14 6 15 7 16 11 17 86 18 12 19 13 20 14 21 15 22
REMARK SMILES IDX 16 23 23 24 24 25 25 26 26 27 27 28 85 29 28 30 84 31 29 32
REMARK SMILES IDX 30 33 31 34 78 35 32 36 83 37 77 38 79 39 33 40 82 41 76 42
REMARK SMILES IDX 75 43 34 45 64 46 45 47 63 48 46 49 49 50 62 51 80 52 47 53
REMARK SMILES IDX 48 54 61 56 81 57 50 58 35 59 36 60 44 61 37 62 43 63 38 64
REMARK SMILES IDX 39 65 40 66 41 67 42 68 65 69 66 70 74 71 67 72 73 73 68 74
REMARK SMILES IDX 69 75 70 76 71 77 72 78 51 79 52 80 60 81 53 82 59 83 54 84
REMARK SMILES IDX 55 85 56 86 57 87 58 88
REMARK H PARENT 79 44 49 55
REMARK Flexibility Score: inf
ROOT
ATOM      1  C   UNL A   1      32.166  29.958  26.757  1.00  0.00     0.275 C 
ENDROOT
BRANCH   1   2
ATOM      2  C   UNL A   1      31.780  28.809  25.827  1.00  0.00     0.275 C 
BRANCH   2   3
ATOM      3  O   UNL A   1      32.556  27.623  26.106  1.00  0.00    -0.459 OA
BRANCH   3   4
ATOM      4  C   UNL A   1      33.342  27.190  25.094  1.00  0.00     0.338 C 
ATOM      5  O   UNL A   1      33.889  27.882  24.250  1.00  0.00    -0.246 OA
BRANCH   4   6
ATOM      6  C   UNL A   1      33.477  25.721  25.135  1.00  0.00     0.087 C 
ATOM      7  C   UNL A   1      35.363  19.468  24.777  1.00  0.00     0.047 C 
ATOM      8  C   UNL A   1      35.214  20.957  24.989  1.00  0.00    -0.019 A 
ATOM      9  C   UNL A   1      36.329  21.782  25.273  1.00  0.00     0.025 A 
ATOM     10  C   UNL A   1      33.950  21.570  24.841  1.00  0.00     0.064 A 
ATOM     11  Br  UNL A   1      38.077  20.993  25.378  1.00  0.00    -0.050 Br
ATOM     12  C   UNL A   1      36.183  23.181  25.446  1.00  0.00    -0.026 A 
ATOM     13  C   UNL A   1      33.788  22.958  24.994  1.00  0.00     0.142 A 
ATOM     14  Br  UNL A   1      32.407  20.532  24.365  1.00  0.00    -0.046 Br
ATOM     15  C   UNL A   1      37.354  24.074  25.805  1.00  0.00     0.046 C 
ATOM     16  C   UNL A   1      34.896  23.761  25.285  1.00  0.00     0.022 A 
ATOM     17  O   UNL A   1      32.515  23.458  24.870  1.00  0.00    -0.474 OA
ATOM     18  C   UNL A   1      34.686  25.204  25.375  1.00  0.00     0.027 C 
ATOM     19  C   UNL A   1      32.294  24.885  24.773  1.00  0.00     0.316 C 
BRANCH  19  20
ATOM     20  C   UNL A   1      31.773  25.221  23.367  1.00  0.00     0.430 C 
ATOM     21  F   UNL A   1      32.792  25.449  22.503  1.00  0.00    -0.167 F 
ATOM     22  F   UNL A   1      31.052  24.199  22.845  1.00  0.00    -0.167 F 
ATOM     23  F   UNL A   1      30.983  26.318  23.362  1.00  0.00    -0.167 F 
ENDBRANCH  19  20
ENDBRANCH   4   6
ENDBRANCH   3   4
ENDBRANCH   2   3
ENDBRANCH   1   2
BRANCH   1  24
ATOM     24  O   UNL A   1      33.540  30.333  26.550  1.00  0.00    -0.458 OA
BRANCH  24  25
ATOM     25  C   UNL A   1      34.015  31.278  27.394  1.00  0.00     0.338 C 
ATOM     26  O   UNL A   1      33.441  32.280  27.784  1.00  0.00    -0.246 OA
BRANCH  25  27
ATOM     27  C   UNL A   1      35.347  30.886  27.877  1.00  0.00     0.060 A 
ATOM     28  C   UNL A   1      35.513  29.601  28.376  1.00  0.00     0.016 A 
ATOM     29  C   UNL A   1      36.374  31.819  28.001  1.00  0.00     0.016 A 
ATOM     30  C   UNL A   1      36.638  29.287  29.129  1.00  0.00     0.010 A 
ATOM     31  C   UNL A   1      37.570  31.448  28.632  1.00  0.00     0.010 A 
ATOM     32  C   UNL A   1      37.702  30.191  29.251  1.00  0.00    -0.014 A 
BRANCH  32  33
ATOM     33  C   UNL A   1      38.917  29.809  30.037  1.00  0.00     0.031 A 
ATOM     34  C   UNL A   1      39.871  28.754  29.523  1.00  0.00     0.074 A 
ATOM     35  C   UNL A   1      39.205  30.448  31.194  1.00  0.00     0.049 A 
ATOM     36  N   UNL A   1      40.897  28.208  30.127  1.00  0.00    -0.248 NA
ATOM     37  C   UNL A   1      39.641  28.238  28.163  1.00  0.00     0.031 C 
ATOM     38  C   UNL A   1      38.410  31.527  31.791  1.00  0.00     0.029 A 
ATOM     39  N   UNL A   1      40.265  30.316  32.059  1.00  0.00    -0.354 N 
ATOM     40  C   UNL A   1      41.396  27.250  29.248  1.00  0.00     0.074 A 
ATOM     41  C   UNL A   1      40.555  27.280  28.073  1.00  0.00     0.031 C 
ATOM     42  C   UNL A   1      39.055  32.018  32.857  1.00  0.00     0.029 A 
ATOM     43  C   UNL A   1      40.241  31.210  33.106  1.00  0.00     0.049 A 
ATOM     44  H   UNL A   1      40.975  29.644  31.942  1.00  0.00     0.167 HD
ATOM     45  C   UNL A   1      42.458  26.424  29.405  1.00  0.00     0.031 A 
ATOM     46  C   UNL A   1      41.049  31.348  34.176  1.00  0.00     0.031 A 
ATOM     47  C   UNL A   1      43.322  26.430  30.558  1.00  0.00     0.049 A 
ATOM     48  C   UNL A   1      42.182  30.379  34.358  1.00  0.00     0.074 A 
ATOM     49  C   UNL A   1      44.415  25.621  30.816  1.00  0.00     0.029 A 
ATOM     50  N   UNL A   1      43.210  27.302  31.629  1.00  0.00    -0.354 N 
ATOM     51  N   UNL A   1      42.578  29.422  33.555  1.00  0.00    -0.248 NA
ATOM     52  C   UNL A   1      42.957  30.489  35.602  1.00  0.00     0.031 C 
ATOM     53  C   UNL A   1      44.936  25.973  32.063  1.00  0.00     0.029 A 
ATOM     54  C   UNL A   1      44.206  27.043  32.555  1.00  0.00     0.049 A 
ATOM     55  H   UNL A   1      42.524  28.003  31.718  1.00  0.00     0.167 HD
ATOM     56  C   UNL A   1      43.658  28.822  34.191  1.00  0.00     0.074 A 
ATOM     57  C   UNL A   1      43.865  29.537  35.435  1.00  0.00     0.031 C 
ATOM     58  C   UNL A   1      44.405  27.769  33.783  1.00  0.00     0.031 A 
BRANCH  45  59
ATOM     59  C   UNL A   1      42.745  25.417  28.319  1.00  0.00    -0.014 A 
ATOM     60  C   UNL A   1      43.634  25.703  27.270  1.00  0.00     0.010 A 
ATOM     61  C   UNL A   1      42.174  24.132  28.398  1.00  0.00     0.010 A 
ATOM     62  C   UNL A   1      43.928  24.732  26.307  1.00  0.00     0.020 A 
ATOM     63  C   UNL A   1      42.487  23.149  27.454  1.00  0.00     0.020 A 
ATOM     64  C   UNL A   1      43.355  23.461  26.407  1.00  0.00     0.054 A 
BRANCH  64  65
ATOM     65  S   UNL A   1      43.791  22.209  25.167  1.00  0.00     0.124 S 
ATOM     66  O   UNL A   1      42.756  21.200  25.379  1.00  0.00    -0.237 OA
ATOM     67  O   UNL A   1      43.693  22.954  23.914  1.00  0.00    -0.237 OA
ATOM     68  O   UNL A   1      45.142  21.801  25.542  1.00  0.00    -0.744 OA
ENDBRANCH  64  65
ENDBRANCH  45  59
BRANCH  46  69
ATOM     69  C   UNL A   1      40.780  32.414  35.183  1.00  0.00    -0.014 A 
ATOM     70  C   UNL A   1      39.901  32.181  36.255  1.00  0.00     0.010 A 
ATOM     71  C   UNL A   1      41.422  33.664  35.089  1.00  0.00     0.010 A 
ATOM     72  C   UNL A   1      39.668  33.177  37.210  1.00  0.00     0.020 A 
ATOM     73  C   UNL A   1      41.219  34.648  36.059  1.00  0.00     0.020 A 
ATOM     74  C   UNL A   1      40.333  34.402  37.109  1.00  0.00     0.054 A 
BRANCH  74  75
ATOM     75  S   UNL A   1      40.061  35.656  38.390  1.00  0.00     0.124 S 
ATOM     76  O   UNL A   1      41.371  35.725  39.030  1.00  0.00    -0.237 OA
ATOM     77  O   UNL A   1      39.675  36.828  37.608  1.00  0.00    -0.237 OA
ATOM     78  O   UNL A   1      38.995  35.084  39.210  1.00  0.00    -0.744 OA
ENDBRANCH  74  75
ENDBRANCH  46  69
BRANCH  58  79
ATOM     79  C   UNL A   1      45.543  27.337  34.667  1.00  0.00    -0.014 A 
ATOM     80  C   UNL A   1      46.808  27.942  34.568  1.00  0.00     0.010 A 
ATOM     81  C   UNL A   1      45.314  26.378  35.670  1.00  0.00     0.010 A 
ATOM     82  C   UNL A   1      47.829  27.583  35.450  1.00  0.00     0.020 A 
ATOM     83  C   UNL A   1      46.324  26.036  36.570  1.00  0.00     0.020 A 
ATOM     84  C   UNL A   1      47.579  26.638  36.451  1.00  0.00     0.054 A 
BRANCH  84  85
ATOM     85  S   UNL A   1      48.901  26.249  37.628  1.00  0.00     0.124 S 
ATOM     86  O   UNL A   1      49.482  25.041  37.047  1.00  0.00    -0.237 OA
ATOM     87  O   UNL A   1      49.743  27.441  37.568  1.00  0.00    -0.237 OA
ATOM     88  O   UNL A   1      48.196  26.054  38.892  1.00  0.00    -0.744 OA
ENDBRANCH  84  85
ENDBRANCH  58  79
ENDBRANCH  32  33
ENDBRANCH  25  27
ENDBRANCH  24  25
ENDBRANCH   1  24
TORSDOF 15
ENDMDL
MODEL 3
REMARK VINA RESULT:     -10.6      3.107      9.020
REMARK SMILES Cc1c(Br)c(C)c2c(c1Br)O[C@H](C(F)(F)F)C(C(=O)OCCOC(=O)c1ccc(-c3c4nc(c(-c5ccc(S(=O)(=O)[O-])cc5)c5ccc([nH]5)c(-c5ccc(S(=O)(=O)[O-])cc5)c5nc(c(-c6ccc(S(=O)(=O)[O-])cc6)c6ccc3[nH]6)C=C5)C=C4)cc1)=C2
REMARK SMILES IDX 22 1 21 2 20 3 18 4 19 5 17 6 1 7 2 8 3 9 9 10 4 11 5 12
REMARK SMILES IDX 8 13 10 14 6 15 7 16 11 17 86 18 12 19 13 20 14 21 15 22
REMARK SMILES IDX 16 23 23 24 24 25 25 26 26 27 27 28 85 29 28 30 84 31 29 32
REMARK SMILES IDX 30 33 31 34 78 35 32 36 83 37 77 38 79 39 33 40 82 41 76 42
REMARK SMILES IDX 75 43 34 45 64 46 45 47 63 48 46 49 49 50 62 51 80 52 47 53
REMARK SMILES IDX 48 54 61 56 81 57 50 58 35 59 36 60 44 61 37 62 43 63 38 64
REMARK SMILES IDX 39 65 40 66 41 67 42 68 65 69 66 70 74 71 67 72 73 73 68 74
REMARK SMILES IDX 69 75 70 76 71 77 72 78 51 79 52 80 60 81 53 82 59 83 54 84
REMARK SMILES IDX 55 85 56 86 57 87 58 88
REMARK H PARENT 79 44 49 55
REMARK Flexibility Score: inf
ROOT
ATOM      1  C   UNL A   1      37.027  21.185  24.973  1.00  0.00     0.275 C 
ENDROOT
BRANCH   1   2
ATOM      2  C   UNL A   1      35.540  21.516  24.862  1.00  0.00     0.275 C 
BRANCH   2   3
ATOM      3  O   UNL A   1      35.327  22.936  24.704  1.00  0.00    -0.459 OA
BRANCH   3   4
ATOM      4  C   UNL A   1      34.660  23.541  25.712  1.00  0.00     0.338 C 
ATOM      5  O   UNL A   1      34.670  23.218  26.889  1.00  0.00    -0.246 OA
BRANCH   4   6
ATOM      6  C   UNL A   1      33.891  24.694  25.205  1.00  0.00     0.087 C 
ATOM      7  C   UNL A   1      30.482  30.207  24.321  1.00  0.00     0.047 C 
ATOM      8  C   UNL A   1      31.460  29.119  24.699  1.00  0.00    -0.019 A 
ATOM      9  C   UNL A   1      32.398  29.293  25.746  1.00  0.00     0.025 A 
ATOM     10  C   UNL A   1      31.412  27.866  24.048  1.00  0.00     0.064 A 
ATOM     11  Br  UNL A   1      32.418  30.948  26.721  1.00  0.00    -0.050 Br
ATOM     12  C   UNL A   1      33.294  28.258  26.110  1.00  0.00    -0.026 A 
ATOM     13  C   UNL A   1      32.283  26.822  24.404  1.00  0.00     0.142 A 
ATOM     14  Br  UNL A   1      30.109  27.522  22.681  1.00  0.00    -0.046 Br
ATOM     15  C   UNL A   1      34.342  28.443  27.190  1.00  0.00     0.046 C 
ATOM     16  C   UNL A   1      33.212  27.011  25.433  1.00  0.00     0.022 A 
ATOM     17  O   UNL A   1      32.189  25.655  23.688  1.00  0.00    -0.474 OA
ATOM     18  C   UNL A   1      34.054  25.877  25.808  1.00  0.00     0.027 C 
ATOM     19  C   UNL A   1      32.871  24.461  24.140  1.00  0.00     0.316 C 
BRANCH  19  20
ATOM     20  C   UNL A   1      31.829  23.418  24.574  1.00  0.00     0.430 C 
ATOM     21  F   UNL A   1      32.249  22.157  24.307  1.00  0.00    -0.167 F 
ATOM     22  F   UNL A   1      31.600  23.468  25.910  1.00  0.00    -0.167 F 
ATOM     23  F   UNL A   1      30.641  23.591  23.953  1.00  0.00    -0.167 F 
ENDBRANCH  19  20
ENDBRANCH   4   6
ENDBRANCH   3   4
ENDBRANCH   2   3
ENDBRANCH   1   2
BRANCH   1  24
ATOM     24  O   UNL A   1      37.760  22.319  25.470  1.00  0.00    -0.458 OA
BRANCH  24  25
ATOM     25  C   UNL A   1      38.930  22.028  26.084  1.00  0.00     0.338 C 
ATOM     26  O   UNL A   1      39.547  20.978  26.044  1.00  0.00    -0.246 OA
BRANCH  25  27
ATOM     27  C   UNL A   1      39.437  23.223  26.775  1.00  0.00     0.060 A 
ATOM     28  C   UNL A   1      38.916  24.460  26.418  1.00  0.00     0.016 A 
ATOM     29  C   UNL A   1      40.529  23.150  27.636  1.00  0.00     0.016 A 
ATOM     30  C   UNL A   1      39.572  25.626  26.794  1.00  0.00     0.010 A 
ATOM     31  C   UNL A   1      41.095  24.333  28.134  1.00  0.00     0.010 A 
ATOM     32  C   UNL A   1      40.657  25.591  27.681  1.00  0.00    -0.014 A 
BRANCH  32  33
ATOM     33  C   UNL A   1      41.319  26.867  28.097  1.00  0.00     0.031 A 
ATOM     34  C   UNL A   1      42.801  27.075  27.879  1.00  0.00     0.074 A 
ATOM     35  C   UNL A   1      40.584  27.874  28.622  1.00  0.00     0.049 A 
ATOM     36  N   UNL A   1      43.563  28.057  28.292  1.00  0.00    -0.248 NA
ATOM     37  C   UNL A   1      43.524  26.048  27.111  1.00  0.00     0.031 C 
ATOM     38  C   UNL A   1      39.134  27.843  28.843  1.00  0.00     0.029 A 
ATOM     39  N   UNL A   1      40.943  29.135  29.033  1.00  0.00    -0.354 N 
ATOM     40  C   UNL A   1      44.856  27.740  27.884  1.00  0.00     0.074 A 
ATOM     41  C   UNL A   1      44.779  26.468  27.201  1.00  0.00     0.031 C 
ATOM     42  C   UNL A   1      38.719  29.050  29.249  1.00  0.00     0.029 A 
ATOM     43  C   UNL A   1      39.881  29.906  29.450  1.00  0.00     0.049 A 
ATOM     44  H   UNL A   1      41.873  29.458  29.030  1.00  0.00     0.167 HD
ATOM     45  C   UNL A   1      46.001  28.443  28.061  1.00  0.00     0.031 A 
ATOM     46  C   UNL A   1      39.834  31.146  29.977  1.00  0.00     0.031 A 
ATOM     47  C   UNL A   1      46.065  29.732  28.700  1.00  0.00     0.049 A 
ATOM     48  C   UNL A   1      41.122  31.878  30.219  1.00  0.00     0.074 A 
ATOM     49  C   UNL A   1      47.180  30.517  28.940  1.00  0.00     0.029 A 
ATOM     50  N   UNL A   1      44.971  30.438  29.176  1.00  0.00    -0.354 N 
ATOM     51  N   UNL A   1      42.343  31.516  29.906  1.00  0.00    -0.248 NA
ATOM     52  C   UNL A   1      41.032  33.171  30.911  1.00  0.00     0.031 C 
ATOM     53  C   UNL A   1      46.765  31.676  29.601  1.00  0.00     0.029 A 
ATOM     54  C   UNL A   1      45.385  31.642  29.719  1.00  0.00     0.049 A 
ATOM     55  H   UNL A   1      44.037  30.128  29.134  1.00  0.00     0.167 HD
ATOM     56  C   UNL A   1      43.165  32.542  30.353  1.00  0.00     0.074 A 
ATOM     57  C   UNL A   1      42.303  33.549  30.939  1.00  0.00     0.031 C 
ATOM     58  C   UNL A   1      44.515  32.638  30.289  1.00  0.00     0.031 A 
BRANCH  45  59
ATOM     59  C   UNL A   1      47.293  27.833  27.580  1.00  0.00    -0.014 A 
ATOM     60  C   UNL A   1      47.811  28.119  26.306  1.00  0.00     0.010 A 
ATOM     61  C   UNL A   1      48.044  27.022  28.454  1.00  0.00     0.010 A 
ATOM     62  C   UNL A   1      49.041  27.588  25.905  1.00  0.00     0.020 A 
ATOM     63  C   UNL A   1      49.287  26.511  28.069  1.00  0.00     0.020 A 
ATOM     64  C   UNL A   1      49.772  26.790  26.791  1.00  0.00     0.054 A 
BRANCH  64  65
ATOM     65  S   UNL A   1      51.385  26.151  26.257  1.00  0.00     0.124 S 
ATOM     66  O   UNL A   1      52.307  27.082  26.903  1.00  0.00    -0.237 OA
ATOM     67  O   UNL A   1      51.385  24.793  26.796  1.00  0.00    -0.237 OA
ATOM     68  O   UNL A   1      51.332  26.241  24.800  1.00  0.00    -0.744 OA
ENDBRANCH  64  65
ENDBRANCH  45  59
BRANCH  46  69
ATOM     69  C   UNL A   1      38.525  31.747  30.358  1.00  0.00    -0.014 A 
ATOM     70  C   UNL A   1      37.979  31.523  31.634  1.00  0.00     0.010 A 
ATOM     71  C   UNL A   1      37.825  32.569  29.454  1.00  0.00     0.010 A 
ATOM     72  C   UNL A   1      36.760  32.107  31.997  1.00  0.00     0.020 A 
ATOM     73  C   UNL A   1      36.626  33.182  29.824  1.00  0.00     0.020 A 
ATOM     74  C   UNL A   1      36.094  32.937  31.090  1.00  0.00     0.054 A 
BRANCH  74  75
ATOM     75  S   UNL A   1      34.545  33.730  31.602  1.00  0.00     0.124 S 
ATOM     76  O   UNL A   1      33.933  32.694  32.427  1.00  0.00    -0.237 OA
ATOM     77  O   UNL A   1      35.018  34.913  32.318  1.00  0.00    -0.237 OA
ATOM     78  O   UNL A   1      33.867  34.007  30.338  1.00  0.00    -0.744 OA
ENDBRANCH  74  75
ENDBRANCH  46  69
BRANCH  58  79
ATOM     79  C   UNL A   1      45.152  33.886  30.834  1.00  0.00    -0.014 A 
ATOM     80  C   UNL A   1      45.315  35.027  30.030  1.00  0.00     0.010 A 
ATOM     81  C   UNL A   1      45.508  33.944  32.194  1.00  0.00     0.010 A 
ATOM     82  C   UNL A   1      45.837  36.202  30.576  1.00  0.00     0.020 A 
ATOM     83  C   UNL A   1      46.004  35.124  32.749  1.00  0.00     0.020 A 
ATOM     84  C   UNL A   1      46.171  36.246  31.934  1.00  0.00     0.054 A 
BRANCH  84  85
ATOM     85  S   UNL A   1      46.774  37.808  32.630  1.00  0.00     0.124 S 
ATOM     86  O   UNL A   1      47.858  38.151  31.715  1.00  0.00    -0.237 OA
ATOM     87  O   UNL A   1      45.594  38.666  32.556  1.00  0.00    -0.237 OA
ATOM     88  O   UNL A   1      47.191  37.447  33.983  1.00  0.00    -0.744 OA
ENDBRANCH  84  85
ENDBRANCH  58  79
ENDBRANCH  32  33
ENDBRANCH  25  27
ENDBRANCH  24  25
ENDBRANCH   1  24
TORSDOF 15
ENDMDL
