MODEL 1
REMARK VINA RESULT:     -11.4      0.000      0.000
REMARK SMILES CC[C@@H]1CC(=O)N(Cc2ccc(/C=C/C(=O)OCCOC(=O)c3ccc(-c4c5nc(c(-c6ccc(S(=O)(=O)[O-])cc6)c6ccc([nH]6)c(-c6ccc(S(=O)(=O)[O-])cc6)c6nc(c(-c7ccc(S(=O)(=O)[O-])cc7)c7ccc4[nH]7)C=C6)C=C5)cc3)cc2)C1
REMARK SMILES IDX 18 1 17 2 15 3 16 4 14 5 13 6 12 7 9 8 10 9 84 10 11 11
REMARK SMILES IDX 83 12 8 13 7 14 3 15 4 16 85 17 5 18 6 19 2 20 1 21 19 22
REMARK SMILES IDX 20 23 21 24 22 25 23 26 24 27 82 28 25 29 81 30 26 31 27 32
REMARK SMILES IDX 28 33 75 34 29 35 80 36 74 37 76 38 30 39 79 40 73 41 72 42
REMARK SMILES IDX 31 44 61 45 42 46 60 47 43 48 46 49 59 50 77 51 44 52 45 53
REMARK SMILES IDX 58 55 78 56 47 57 32 58 33 59 41 60 34 61 40 62 35 63 36 64
REMARK SMILES IDX 37 65 38 66 39 67 62 68 63 69 71 70 64 71 70 72 65 73 66 74
REMARK SMILES IDX 67 75 68 76 69 77 48 78 49 79 57 80 50 81 56 82 51 83 52 84
REMARK SMILES IDX 53 85 54 86 55 87
REMARK H PARENT 76 43 46 54
REMARK Flexibility Score: inf
ROOT
ATOM      1  C   UNL A   1      41.769  21.654  26.790  1.00  0.00     0.275 C 
ENDROOT
BRANCH   1   2
ATOM      2  O   UNL A   1      40.386  21.357  27.051  1.00  0.00    -0.459 OA
BRANCH   2   3
ATOM      3  C   UNL A   1      39.769  20.601  26.113  1.00  0.00     0.330 C 
ATOM      4  O   UNL A   1      40.127  19.496  25.730  1.00  0.00    -0.247 OA
BRANCH   3   5
ATOM      5  C   UNL A   1      38.546  21.228  25.581  1.00  0.00     0.094 C 
ATOM      6  C   UNL A   1      38.181  22.510  25.736  1.00  0.00     0.015 C 
BRANCH   6   7
ATOM      7  C   UNL A   1      36.907  23.025  25.212  1.00  0.00    -0.025 A 
ATOM      8  C   UNL A   1      34.488  24.116  24.234  1.00  0.00    -0.029 A 
ATOM      9  C   UNL A   1      35.391  23.495  23.364  1.00  0.00     0.006 A 
ATOM     10  C   UNL A   1      34.782  24.130  25.606  1.00  0.00     0.006 A 
ATOM     11  C   UNL A   1      36.579  22.941  23.852  1.00  0.00     0.008 A 
ATOM     12  C   UNL A   1      35.982  23.598  26.089  1.00  0.00     0.008 A 
BRANCH   8  13
ATOM     13  C   UNL A   1      33.244  24.781  23.694  1.00  0.00     0.155 C 
BRANCH  13  14
ATOM     14  N   UNL A   1      33.455  26.181  23.359  1.00  0.00    -0.338 N 
ATOM     15  C   UNL A   1      33.466  28.502  23.615  1.00  0.00     0.017 C 
ATOM     16  C   UNL A   1      33.825  28.153  22.164  1.00  0.00     0.105 C 
ATOM     17  C   UNL A   1      33.744  27.192  24.343  1.00  0.00     0.124 C 
ATOM     18  C   UNL A   1      33.508  26.678  22.068  1.00  0.00     0.223 C 
ATOM     19  O   UNL A   1      33.359  26.055  21.031  1.00  0.00    -0.275 OA
BRANCH  15  20
ATOM     20  C   UNL A   1      31.999  28.957  23.731  1.00  0.00     0.002 C 
ATOM     21  C   UNL A   1      31.313  28.447  24.993  1.00  0.00     0.004 C 
ENDBRANCH  15  20
ENDBRANCH  13  14
ENDBRANCH   8  13
ENDBRANCH   6   7
ENDBRANCH   3   5
ENDBRANCH   2   3
ENDBRANCH   1   2
BRANCH   1  22
ATOM     22  C   UNL A   1      41.927  22.993  26.064  1.00  0.00     0.275 C 
BRANCH  22  23
ATOM     23  O   UNL A   1      41.001  23.986  26.540  1.00  0.00    -0.458 OA
BRANCH  23  24
ATOM     24  C   UNL A   1      41.261  25.254  26.137  1.00  0.00     0.338 C 
ATOM     25  O   UNL A   1      41.552  25.620  25.010  1.00  0.00    -0.246 OA
BRANCH  24  26
ATOM     26  C   UNL A   1      41.032  26.191  27.251  1.00  0.00     0.060 A 
ATOM     27  C   UNL A   1      41.830  27.337  27.321  1.00  0.00     0.016 A 
ATOM     28  C   UNL A   1      40.094  25.920  28.250  1.00  0.00     0.016 A 
ATOM     29  C   UNL A   1      41.691  28.219  28.391  1.00  0.00     0.010 A 
ATOM     30  C   UNL A   1      39.957  26.807  29.324  1.00  0.00     0.010 A 
ATOM     31  C   UNL A   1      40.758  27.959  29.406  1.00  0.00    -0.014 A 
BRANCH  31  32
ATOM     32  C   UNL A   1      40.632  28.894  30.551  1.00  0.00     0.031 A 
ATOM     33  C   UNL A   1      41.533  28.758  31.747  1.00  0.00     0.074 A 
ATOM     34  C   UNL A   1      39.710  29.874  30.512  1.00  0.00     0.049 A 
ATOM     35  N   UNL A   1      41.553  29.465  32.849  1.00  0.00    -0.248 NA
ATOM     36  C   UNL A   1      42.539  27.687  31.700  1.00  0.00     0.031 C 
ATOM     37  C   UNL A   1      38.793  30.124  29.398  1.00  0.00     0.029 A 
ATOM     38  N   UNL A   1      39.391  30.842  31.432  1.00  0.00    -0.354 N 
ATOM     39  C   UNL A   1      42.564  28.919  33.632  1.00  0.00     0.074 A 
ATOM     40  C   UNL A   1      43.119  27.809  32.887  1.00  0.00     0.031 C 
ATOM     41  C   UNL A   1      38.016  31.178  29.699  1.00  0.00     0.029 A 
ATOM     42  C   UNL A   1      38.351  31.652  31.039  1.00  0.00     0.049 A 
ATOM     43  H   UNL A   1      39.861  30.946  32.290  1.00  0.00     0.167 HD
ATOM     44  C   UNL A   1      42.989  29.310  34.859  1.00  0.00     0.031 A 
ATOM     45  C   UNL A   1      37.721  32.647  31.692  1.00  0.00     0.031 A 
ATOM     46  C   UNL A   1      42.429  30.409  35.600  1.00  0.00     0.049 A 
ATOM     47  C   UNL A   1      38.174  33.025  33.076  1.00  0.00     0.074 A 
ATOM     48  C   UNL A   1      42.816  30.900  36.837  1.00  0.00     0.029 A 
ATOM     49  N   UNL A   1      41.354  31.182  35.184  1.00  0.00    -0.354 N 
ATOM     50  N   UNL A   1      39.155  32.520  33.786  1.00  0.00    -0.248 NA
ATOM     51  C   UNL A   1      37.436  34.105  33.746  1.00  0.00     0.031 C 
ATOM     52  C   UNL A   1      41.939  31.930  37.193  1.00  0.00     0.029 A 
ATOM     53  C   UNL A   1      41.041  32.121  36.155  1.00  0.00     0.049 A 
ATOM     54  H   UNL A   1      40.883  31.079  34.326  1.00  0.00     0.167 HD
ATOM     55  C   UNL A   1      39.160  33.231  34.982  1.00  0.00     0.074 A 
ATOM     56  C   UNL A   1      38.098  34.213  34.890  1.00  0.00     0.031 C 
ATOM     57  C   UNL A   1      39.971  33.083  36.059  1.00  0.00     0.031 A 
BRANCH  44  58
ATOM     58  C   UNL A   1      44.096  28.511  35.497  1.00  0.00    -0.014 A 
ATOM     59  C   UNL A   1      45.447  28.769  35.203  1.00  0.00     0.010 A 
ATOM     60  C   UNL A   1      43.779  27.513  36.436  1.00  0.00     0.010 A 
ATOM     61  C   UNL A   1      46.459  28.013  35.806  1.00  0.00     0.020 A 
ATOM     62  C   UNL A   1      44.788  26.772  37.059  1.00  0.00     0.020 A 
ATOM     63  C   UNL A   1      46.122  27.015  36.726  1.00  0.00     0.054 A 
BRANCH  63  64
ATOM     64  S   UNL A   1      47.452  26.054  37.498  1.00  0.00     0.124 S 
ATOM     65  O   UNL A   1      48.637  26.821  37.120  1.00  0.00    -0.237 OA
ATOM     66  O   UNL A   1      47.101  26.101  38.916  1.00  0.00    -0.237 OA
ATOM     67  O   UNL A   1      47.337  24.737  36.875  1.00  0.00    -0.744 OA
ENDBRANCH  63  64
ENDBRANCH  44  58
BRANCH  45  68
ATOM     68  C   UNL A   1      36.569  33.337  31.049  1.00  0.00    -0.014 A 
ATOM     69  C   UNL A   1      35.425  33.673  31.790  1.00  0.00     0.010 A 
ATOM     70  C   UNL A   1      36.628  33.684  29.686  1.00  0.00     0.010 A 
ATOM     71  C   UNL A   1      34.357  34.337  31.179  1.00  0.00     0.020 A 
ATOM     72  C   UNL A   1      35.576  34.371  29.078  1.00  0.00     0.020 A 
ATOM     73  C   UNL A   1      34.441  34.686  29.828  1.00  0.00     0.054 A 
BRANCH  73  74
ATOM     74  S   UNL A   1      33.072  35.608  29.072  1.00  0.00     0.124 S 
ATOM     75  O   UNL A   1      32.476  34.603  28.198  1.00  0.00    -0.237 OA
ATOM     76  O   UNL A   1      32.271  35.994  30.231  1.00  0.00    -0.237 OA
ATOM     77  O   UNL A   1      33.741  36.715  28.391  1.00  0.00    -0.744 OA
ENDBRANCH  73  74
ENDBRANCH  45  68
BRANCH  57  78
ATOM     78  C   UNL A   1      39.751  34.010  37.225  1.00  0.00    -0.014 A 
ATOM     79  C   UNL A   1      40.216  35.337  37.195  1.00  0.00     0.010 A 
ATOM     80  C   UNL A   1      39.027  33.563  38.345  1.00  0.00     0.010 A 
ATOM     81  C   UNL A   1      39.983  36.192  38.275  1.00  0.00     0.020 A 
ATOM     82  C   UNL A   1      38.770  34.423  39.417  1.00  0.00     0.020 A 
ATOM     83  C   UNL A   1      39.262  35.729  39.381  1.00  0.00     0.054 A 
BRANCH  83  84
ATOM     84  S   UNL A   1      38.935  36.871  40.752  1.00  0.00     0.124 S 
ATOM     85  O   UNL A   1      38.025  36.092  41.587  1.00  0.00    -0.237 OA
ATOM     86  O   UNL A   1      40.266  37.092  41.311  1.00  0.00    -0.237 OA
ATOM     87  O   UNL A   1      38.340  38.035  40.100  1.00  0.00    -0.744 OA
ENDBRANCH  83  84
ENDBRANCH  57  78
ENDBRANCH  31  32
ENDBRANCH  24  26
ENDBRANCH  23  24
ENDBRANCH  22  23
ENDBRANCH   1  22
TORSDOF 18
ENDMDL
MODEL 2
REMARK VINA RESULT:     -11.1      2.039      3.084
REMARK SMILES CC[C@@H]1CC(=O)N(Cc2ccc(/C=C/C(=O)OCCOC(=O)c3ccc(-c4c5nc(c(-c6ccc(S(=O)(=O)[O-])cc6)c6ccc([nH]6)c(-c6ccc(S(=O)(=O)[O-])cc6)c6nc(c(-c7ccc(S(=O)(=O)[O-])cc7)c7ccc4[nH]7)C=C6)C=C5)cc3)cc2)C1
REMARK SMILES IDX 18 1 17 2 15 3 16 4 14 5 13 6 12 7 9 8 10 9 84 10 11 11
REMARK SMILES IDX 83 12 8 13 7 14 3 15 4 16 85 17 5 18 6 19 2 20 1 21 19 22
REMARK SMILES IDX 20 23 21 24 22 25 23 26 24 27 82 28 25 29 81 30 26 31 27 32
REMARK SMILES IDX 28 33 75 34 29 35 80 36 74 37 76 38 30 39 79 40 73 41 72 42
REMARK SMILES IDX 31 44 61 45 42 46 60 47 43 48 46 49 59 50 77 51 44 52 45 53
REMARK SMILES IDX 58 55 78 56 47 57 32 58 33 59 41 60 34 61 40 62 35 63 36 64
REMARK SMILES IDX 37 65 38 66 39 67 62 68 63 69 71 70 64 71 70 72 65 73 66 74
REMARK SMILES IDX 67 75 68 76 69 77 48 78 49 79 57 80 50 81 56 82 51 83 52 84
REMARK SMILES IDX 53 85 54 86 55 87
REMARK H PARENT 76 43 46 54
REMARK Flexibility Score: inf
ROOT
ATOM      1  C   UNL A   1      43.358  21.841  26.483  1.00  0.00     0.275 C 
ENDROOT
BRANCH   1   2
ATOM      2  O   UNL A   1      42.188  21.449  27.223  1.00  0.00    -0.459 OA
BRANCH   2   3
ATOM      3  C   UNL A   1      41.568  20.333  26.776  1.00  0.00     0.330 C 
ATOM      4  O   UNL A   1      42.064  19.218  26.692  1.00  0.00    -0.247 OA
BRANCH   3   5
ATOM      5  C   UNL A   1      40.159  20.565  26.408  1.00  0.00     0.094 C 
ATOM      6  C   UNL A   1      39.625  21.734  26.023  1.00  0.00     0.015 C 
BRANCH   6   7
ATOM      7  C   UNL A   1      38.189  21.874  25.730  1.00  0.00    -0.025 A 
ATOM      8  C   UNL A   1      35.412  22.054  25.231  1.00  0.00    -0.029 A 
ATOM      9  C   UNL A   1      36.083  23.087  25.894  1.00  0.00     0.006 A 
ATOM     10  C   UNL A   1      36.158  20.960  24.766  1.00  0.00     0.006 A 
ATOM     11  C   UNL A   1      37.460  23.003  26.126  1.00  0.00     0.008 A 
ATOM     12  C   UNL A   1      37.530  20.867  25.020  1.00  0.00     0.008 A 
BRANCH   8  13
ATOM     13  C   UNL A   1      33.913  22.112  25.051  1.00  0.00     0.155 C 
BRANCH  13  14
ATOM     14  N   UNL A   1      33.332  20.809  24.766  1.00  0.00    -0.338 N 
ATOM     15  C   UNL A   1      33.001  18.500  24.886  1.00  0.00     0.017 C 
ATOM     16  C   UNL A   1      32.155  19.073  23.740  1.00  0.00     0.105 C 
ATOM     17  C   UNL A   1      33.287  19.739  25.728  1.00  0.00     0.124 C 
ATOM     18  C   UNL A   1      32.669  20.486  23.594  1.00  0.00     0.223 C 
ATOM     19  O   UNL A   1      32.496  21.203  22.623  1.00  0.00    -0.275 OA
BRANCH  15  20
ATOM     20  C   UNL A   1      34.278  17.826  24.351  1.00  0.00     0.002 C 
ATOM     21  C   UNL A   1      34.027  16.955  23.126  1.00  0.00     0.004 C 
ENDBRANCH  15  20
ENDBRANCH  13  14
ENDBRANCH   8  13
ENDBRANCH   6   7
ENDBRANCH   3   5
ENDBRANCH   2   3
ENDBRANCH   1   2
BRANCH   1  22
ATOM     22  C   UNL A   1      43.284  23.309  26.054  1.00  0.00     0.275 C 
BRANCH  22  23
ATOM     23  O   UNL A   1      42.127  23.977  26.588  1.00  0.00    -0.458 OA
BRANCH  23  24
ATOM     24  C   UNL A   1      41.922  25.233  26.121  1.00  0.00     0.338 C 
ATOM     25  O   UNL A   1      41.892  25.585  24.953  1.00  0.00    -0.246 OA
BRANCH  24  26
ATOM     26  C   UNL A   1      41.620  26.142  27.240  1.00  0.00     0.060 A 
ATOM     27  C   UNL A   1      42.417  27.280  27.398  1.00  0.00     0.016 A 
ATOM     28  C   UNL A   1      40.612  25.850  28.163  1.00  0.00     0.016 A 
ATOM     29  C   UNL A   1      42.206  28.134  28.480  1.00  0.00     0.010 A 
ATOM     30  C   UNL A   1      40.403  26.710  29.249  1.00  0.00     0.010 A 
ATOM     31  C   UNL A   1      41.203  27.853  29.418  1.00  0.00    -0.014 A 
BRANCH  31  32
ATOM     32  C   UNL A   1      41.001  28.758  30.577  1.00  0.00     0.031 A 
ATOM     33  C   UNL A   1      41.846  28.613  31.812  1.00  0.00     0.074 A 
ATOM     34  C   UNL A   1      40.059  29.719  30.514  1.00  0.00     0.049 A 
ATOM     35  N   UNL A   1      41.797  29.295  32.929  1.00  0.00    -0.248 NA
ATOM     36  C   UNL A   1      42.877  27.566  31.789  1.00  0.00     0.031 C 
ATOM     37  C   UNL A   1      39.191  29.975  29.363  1.00  0.00     0.029 A 
ATOM     38  N   UNL A   1      39.675  30.658  31.439  1.00  0.00    -0.354 N 
ATOM     39  C   UNL A   1      42.781  28.752  33.748  1.00  0.00     0.074 A 
ATOM     40  C   UNL A   1      43.397  27.672  33.006  1.00  0.00     0.031 C 
ATOM     41  C   UNL A   1      38.377  31.004  29.650  1.00  0.00     0.029 A 
ATOM     42  C   UNL A   1      38.637  31.454  31.015  1.00  0.00     0.049 A 
ATOM     43  H   UNL A   1      40.100  30.752  32.322  1.00  0.00     0.167 HD
ATOM     44  C   UNL A   1      43.138  29.123  35.002  1.00  0.00     0.031 A 
ATOM     45  C   UNL A   1      37.953  32.419  31.659  1.00  0.00     0.031 A 
ATOM     46  C   UNL A   1      42.518  30.192  35.740  1.00  0.00     0.049 A 
ATOM     47  C   UNL A   1      38.331  32.774  33.071  1.00  0.00     0.074 A 
ATOM     48  C   UNL A   1      42.834  30.662  37.004  1.00  0.00     0.029 A 
ATOM     49  N   UNL A   1      41.447  30.951  35.290  1.00  0.00    -0.354 N 
ATOM     50  N   UNL A   1      39.287  32.275  33.817  1.00  0.00    -0.248 NA
ATOM     51  C   UNL A   1      37.537  33.822  33.729  1.00  0.00     0.031 C 
ATOM     52  C   UNL A   1      41.917  31.664  37.341  1.00  0.00     0.029 A 
ATOM     53  C   UNL A   1      41.066  31.860  36.264  1.00  0.00     0.049 A 
ATOM     54  H   UNL A   1      41.020  30.858  34.408  1.00  0.00     0.167 HD
ATOM     55  C   UNL A   1      39.219  32.957  35.027  1.00  0.00     0.074 A 
ATOM     56  C   UNL A   1      38.141  33.917  34.905  1.00  0.00     0.031 C 
ATOM     57  C   UNL A   1      39.981  32.801  36.139  1.00  0.00     0.031 A 
BRANCH  44  58
ATOM     58  C   UNL A   1      44.231  28.334  35.675  1.00  0.00    -0.014 A 
ATOM     59  C   UNL A   1      45.581  28.715  35.568  1.00  0.00     0.010 A 
ATOM     60  C   UNL A   1      43.896  27.215  36.460  1.00  0.00     0.010 A 
ATOM     61  C   UNL A   1      46.579  27.965  36.200  1.00  0.00     0.020 A 
ATOM     62  C   UNL A   1      44.889  26.478  37.113  1.00  0.00     0.020 A 
ATOM     63  C   UNL A   1      46.227  26.848  36.963  1.00  0.00     0.054 A 
BRANCH  63  64
ATOM     64  S   UNL A   1      47.540  25.898  37.777  1.00  0.00     0.124 S 
ATOM     65  O   UNL A   1      47.647  24.727  36.910  1.00  0.00    -0.237 OA
ATOM     66  O   UNL A   1      48.676  26.817  37.735  1.00  0.00    -0.237 OA
ATOM     67  O   UNL A   1      47.005  25.637  39.112  1.00  0.00    -0.744 OA
ENDBRANCH  63  64
ENDBRANCH  44  58
BRANCH  45  68
ATOM     68  C   UNL A   1      36.819  33.099  30.976  1.00  0.00    -0.014 A 
ATOM     69  C   UNL A   1      37.042  33.950  29.881  1.00  0.00     0.010 A 
ATOM     70  C   UNL A   1      35.498  32.872  31.408  1.00  0.00     0.010 A 
ATOM     71  C   UNL A   1      35.967  34.569  29.236  1.00  0.00     0.020 A 
ATOM     72  C   UNL A   1      34.420  33.466  30.749  1.00  0.00     0.020 A 
ATOM     73  C   UNL A   1      34.662  34.319  29.671  1.00  0.00     0.054 A 
BRANCH  73  74
ATOM     74  S   UNL A   1      33.277  35.078  28.777  1.00  0.00     0.124 S 
ATOM     75  O   UNL A   1      32.427  35.539  29.870  1.00  0.00    -0.237 OA
ATOM     76  O   UNL A   1      33.936  36.127  28.002  1.00  0.00    -0.237 OA
ATOM     77  O   UNL A   1      32.737  33.975  27.983  1.00  0.00    -0.744 OA
ENDBRANCH  73  74
ENDBRANCH  45  68
BRANCH  57  78
ATOM     78  C   UNL A   1      39.684  33.695  37.313  1.00  0.00    -0.014 A 
ATOM     79  C   UNL A   1      38.800  33.289  38.329  1.00  0.00     0.010 A 
ATOM     80  C   UNL A   1      40.334  34.937  37.427  1.00  0.00     0.010 A 
ATOM     81  C   UNL A   1      38.552  34.120  39.424  1.00  0.00     0.020 A 
ATOM     82  C   UNL A   1      40.108  35.760  38.534  1.00  0.00     0.020 A 
ATOM     83  C   UNL A   1      39.207  35.352  39.520  1.00  0.00     0.054 A 
BRANCH  83  84
ATOM     84  S   UNL A   1      38.902  36.394  40.973  1.00  0.00     0.124 S 
ATOM     85  O   UNL A   1      38.526  37.666  40.362  1.00  0.00    -0.237 OA
ATOM     86  O   UNL A   1      37.826  35.684  41.659  1.00  0.00    -0.237 OA
ATOM     87  O   UNL A   1      40.184  36.395  41.675  1.00  0.00    -0.744 OA
ENDBRANCH  83  84
ENDBRANCH  57  78
ENDBRANCH  31  32
ENDBRANCH  24  26
ENDBRANCH  23  24
ENDBRANCH  22  23
ENDBRANCH   1  22
TORSDOF 18
ENDMDL
MODEL 3
REMARK VINA RESULT:     -10.9      1.362      8.354
REMARK SMILES CC[C@@H]1CC(=O)N(Cc2ccc(/C=C/C(=O)OCCOC(=O)c3ccc(-c4c5nc(c(-c6ccc(S(=O)(=O)[O-])cc6)c6ccc([nH]6)c(-c6ccc(S(=O)(=O)[O-])cc6)c6nc(c(-c7ccc(S(=O)(=O)[O-])cc7)c7ccc4[nH]7)C=C6)C=C5)cc3)cc2)C1
REMARK SMILES IDX 18 1 17 2 15 3 16 4 14 5 13 6 12 7 9 8 10 9 84 10 11 11
REMARK SMILES IDX 83 12 8 13 7 14 3 15 4 16 85 17 5 18 6 19 2 20 1 21 19 22
REMARK SMILES IDX 20 23 21 24 22 25 23 26 24 27 82 28 25 29 81 30 26 31 27 32
REMARK SMILES IDX 28 33 75 34 29 35 80 36 74 37 76 38 30 39 79 40 73 41 72 42
REMARK SMILES IDX 31 44 61 45 42 46 60 47 43 48 46 49 59 50 77 51 44 52 45 53
REMARK SMILES IDX 58 55 78 56 47 57 32 58 33 59 41 60 34 61 40 62 35 63 36 64
REMARK SMILES IDX 37 65 38 66 39 67 62 68 63 69 71 70 64 71 70 72 65 73 66 74
REMARK SMILES IDX 67 75 68 76 69 77 48 78 49 79 57 80 50 81 56 82 51 83 52 84
REMARK SMILES IDX 53 85 54 86 55 87
REMARK H PARENT 76 43 46 54
REMARK Flexibility Score: inf
ROOT
ATOM      1  C   UNL A   1      41.492  22.086  26.990  1.00  0.00     0.275 C 
ENDROOT
BRANCH   1   2
ATOM      2  O   UNL A   1      40.130  22.529  27.120  1.00  0.00    -0.459 OA
BRANCH   2   3
ATOM      3  C   UNL A   1      39.256  21.978  26.245  1.00  0.00     0.330 C 
ATOM      4  O   UNL A   1      39.365  20.883  25.712  1.00  0.00    -0.247 OA
BRANCH   3   5
ATOM      5  C   UNL A   1      38.079  22.829  25.994  1.00  0.00     0.094 C 
ATOM      6  C   UNL A   1      36.924  22.437  25.434  1.00  0.00     0.015 C 
BRANCH   6   7
ATOM      7  C   UNL A   1      35.826  23.382  25.175  1.00  0.00    -0.025 A 
ATOM      8  C   UNL A   1      33.660  25.116  24.629  1.00  0.00    -0.029 A 
ATOM      9  C   UNL A   1      34.045  24.854  25.948  1.00  0.00     0.006 A 
ATOM     10  C   UNL A   1      34.409  24.550  23.587  1.00  0.00     0.006 A 
ATOM     11  C   UNL A   1      35.128  24.009  26.216  1.00  0.00     0.008 A 
ATOM     12  C   UNL A   1      35.476  23.686  23.856  1.00  0.00     0.008 A 
BRANCH   8  13
ATOM     13  C   UNL A   1      32.444  25.966  24.345  1.00  0.00     0.155 C 
BRANCH  13  14
ATOM     14  N   UNL A   1      32.415  27.187  25.137  1.00  0.00    -0.338 N 
ATOM     15  C   UNL A   1      33.168  29.185  26.084  1.00  0.00     0.017 C 
ATOM     16  C   UNL A   1      31.815  28.810  26.705  1.00  0.00     0.105 C 
ATOM     17  C   UNL A   1      33.174  28.363  24.799  1.00  0.00     0.124 C 
ATOM     18  C   UNL A   1      31.589  27.394  26.228  1.00  0.00     0.223 C 
ATOM     19  O   UNL A   1      30.797  26.604  26.714  1.00  0.00    -0.275 OA
BRANCH  15  20
ATOM     20  C   UNL A   1      34.331  28.834  27.030  1.00  0.00     0.002 C 
ATOM     21  C   UNL A   1      35.039  30.062  27.589  1.00  0.00     0.004 C 
ENDBRANCH  15  20
ENDBRANCH  13  14
ENDBRANCH   8  13
ENDBRANCH   6   7
ENDBRANCH   3   5
ENDBRANCH   2   3
ENDBRANCH   1   2
BRANCH   1  22
ATOM     22  C   UNL A   1      42.333  23.086  26.192  1.00  0.00     0.275 C 
BRANCH  22  23
ATOM     23  O   UNL A   1      41.746  24.400  26.173  1.00  0.00    -0.458 OA
BRANCH  23  24
ATOM     24  C   UNL A   1      42.633  25.426  26.193  1.00  0.00     0.338 C 
ATOM     25  O   UNL A   1      43.446  25.708  25.328  1.00  0.00    -0.246 OA
BRANCH  24  26
ATOM     26  C   UNL A   1      42.412  26.257  27.389  1.00  0.00     0.060 A 
ATOM     27  C   UNL A   1      41.443  25.843  28.308  1.00  0.00     0.016 A 
ATOM     28  C   UNL A   1      43.097  27.460  27.577  1.00  0.00     0.016 A 
ATOM     29  C   UNL A   1      41.157  26.631  29.421  1.00  0.00     0.010 A 
ATOM     30  C   UNL A   1      42.807  28.249  28.696  1.00  0.00     0.010 A 
ATOM     31  C   UNL A   1      41.831  27.844  29.622  1.00  0.00    -0.014 A 
BRANCH  31  32
ATOM     32  C   UNL A   1      41.504  28.685  30.801  1.00  0.00     0.031 A 
ATOM     33  C   UNL A   1      40.334  29.628  30.761  1.00  0.00     0.074 A 
ATOM     34  C   UNL A   1      42.258  28.594  31.913  1.00  0.00     0.049 A 
ATOM     35  N   UNL A   1      39.912  30.457  31.683  1.00  0.00    -0.248 NA
ATOM     36  C   UNL A   1      39.537  29.643  29.526  1.00  0.00     0.031 C 
ATOM     37  C   UNL A   1      43.406  27.700  32.082  1.00  0.00     0.029 A 
ATOM     38  N   UNL A   1      42.173  29.260  33.110  1.00  0.00    -0.354 N 
ATOM     39  C   UNL A   1      38.807  31.101  31.137  1.00  0.00     0.074 A 
ATOM     40  C   UNL A   1      38.639  30.582  29.796  1.00  0.00     0.031 C 
ATOM     41  C   UNL A   1      43.916  27.873  33.312  1.00  0.00     0.029 A 
ATOM     42  C   UNL A   1      43.160  28.914  34.003  1.00  0.00     0.049 A 
ATOM     43  H   UNL A   1      41.473  29.923  33.310  1.00  0.00     0.167 HD
ATOM     44  C   UNL A   1      38.008  32.039  31.703  1.00  0.00     0.031 A 
ATOM     45  C   UNL A   1      43.441  29.397  35.228  1.00  0.00     0.031 A 
ATOM     46  C   UNL A   1      38.185  32.559  33.033  1.00  0.00     0.049 A 
ATOM     47  C   UNL A   1      42.574  30.479  35.812  1.00  0.00     0.074 A 
ATOM     48  C   UNL A   1      37.405  33.487  33.705  1.00  0.00     0.029 A 
ATOM     49  N   UNL A   1      39.216  32.209  33.893  1.00  0.00    -0.354 N 
ATOM     50  N   UNL A   1      41.513  31.051  35.295  1.00  0.00    -0.248 NA
ATOM     51  C   UNL A   1      42.941  30.979  37.145  1.00  0.00     0.031 C 
ATOM     52  C   UNL A   1      37.999  33.742  34.946  1.00  0.00     0.029 A 
ATOM     53  C   UNL A   1      39.115  32.930  35.073  1.00  0.00     0.049 A 
ATOM     54  H   UNL A   1      39.917  31.547  33.694  1.00  0.00     0.167 HD
ATOM     55  C   UNL A   1      41.077  31.970  36.245  1.00  0.00     0.074 A 
ATOM     56  C   UNL A   1      41.978  31.861  37.374  1.00  0.00     0.031 C 
ATOM     57  C   UNL A   1      40.027  32.826  36.185  1.00  0.00     0.031 A 
BRANCH  44  58
ATOM     58  C   UNL A   1      36.888  32.595  30.863  1.00  0.00    -0.014 A 
ATOM     59  C   UNL A   1      37.119  33.595  29.903  1.00  0.00     0.010 A 
ATOM     60  C   UNL A   1      35.587  32.077  31.012  1.00  0.00     0.010 A 
ATOM     61  C   UNL A   1      36.062  34.098  29.136  1.00  0.00     0.020 A 
ATOM     62  C   UNL A   1      34.533  32.560  30.230  1.00  0.00     0.020 A 
ATOM     63  C   UNL A   1      34.775  33.581  29.309  1.00  0.00     0.054 A 
BRANCH  63  64
ATOM     64  S   UNL A   1      33.423  34.246  28.298  1.00  0.00     0.124 S 
ATOM     65  O   UNL A   1      32.575  34.877  29.306  1.00  0.00    -0.237 OA
ATOM     66  O   UNL A   1      34.117  35.164  27.398  1.00  0.00    -0.237 OA
ATOM     67  O   UNL A   1      32.854  33.062  27.657  1.00  0.00    -0.744 OA
ENDBRANCH  63  64
ENDBRANCH  44  58
BRANCH  45  68
ATOM     68  C   UNL A   1      44.620  28.876  35.972  1.00  0.00    -0.014 A 
ATOM     69  C   UNL A   1      44.500  27.774  36.834  1.00  0.00     0.010 A 
ATOM     70  C   UNL A   1      45.884  29.472  35.796  1.00  0.00     0.010 A 
ATOM     71  C   UNL A   1      45.618  27.282  37.514  1.00  0.00     0.020 A 
ATOM     72  C   UNL A   1      47.008  28.966  36.451  1.00  0.00     0.020 A 
ATOM     73  C   UNL A   1      46.866  27.878  37.314  1.00  0.00     0.054 A 
BRANCH  73  74
ATOM     74  S   UNL A   1      48.317  27.181  38.153  1.00  0.00     0.124 S 
ATOM     75  O   UNL A   1      48.280  27.865  39.442  1.00  0.00    -0.237 OA
ATOM     76  O   UNL A   1      48.010  25.753  38.185  1.00  0.00    -0.237 OA
ATOM     77  O   UNL A   1      49.428  27.551  37.278  1.00  0.00    -0.744 OA
ENDBRANCH  73  74
ENDBRANCH  45  68
BRANCH  57  78
ATOM     78  C   UNL A   1      39.786  33.710  37.379  1.00  0.00    -0.014 A 
ATOM     79  C   UNL A   1      40.428  34.955  37.502  1.00  0.00     0.010 A 
ATOM     80  C   UNL A   1      38.867  33.313  38.368  1.00  0.00     0.010 A 
ATOM     81  C   UNL A   1      40.175  35.775  38.605  1.00  0.00     0.020 A 
ATOM     82  C   UNL A   1      38.594  34.141  39.460  1.00  0.00     0.020 A 
ATOM     83  C   UNL A   1      39.260  35.363  39.578  1.00  0.00     0.054 A 
BRANCH  83  84
ATOM     84  S   UNL A   1      38.917  36.464  40.978  1.00  0.00     0.124 S 
ATOM     85  O   UNL A   1      37.941  35.691  41.742  1.00  0.00    -0.237 OA
ATOM     86  O   UNL A   1      40.229  36.609  41.603  1.00  0.00    -0.237 OA
ATOM     87  O   UNL A   1      38.397  37.675  40.348  1.00  0.00    -0.744 OA
ENDBRANCH  83  84
ENDBRANCH  57  78
ENDBRANCH  31  32
ENDBRANCH  24  26
ENDBRANCH  23  24
ENDBRANCH  22  23
ENDBRANCH   1  22
TORSDOF 18
ENDMDL
