MODEL 1
REMARK VINA RESULT:     -12.0      0.000      0.000
REMARK SMILES O=C(OCCOC(=O)c1cc(S(=O)(=O)Nc2ccc(F)c(C(F)(F)F)c2)c[nH]1)c1ccc(-c2c3nc(c(-c4ccc(S(=O)(=O)[O-])cc4)c4ccc([nH]4)c(-c4ccc(S(=O)(=O)[O-])cc4)c4nc(c(-c5ccc(S(=O)(=O)[O-])cc5)c5ccc2[nH]5)C=C4)C=C3)cc1
REMARK SMILES IDX 5 1 4 2 3 3 2 4 1 5 29 6 30 7 88 8 31 9 87 10 32 11 33 12
REMARK SMILES IDX 34 13 81 14 35 15 86 16 80 17 82 18 36 19 85 20 79 21 78 22
REMARK SMILES IDX 37 24 67 25 48 26 66 27 49 28 52 29 65 30 83 31 50 32 51 33
REMARK SMILES IDX 64 35 84 36 53 37 38 38 39 39 47 40 40 41 46 42 41 43 42 44
REMARK SMILES IDX 43 45 44 46 45 47 68 48 69 49 77 50 70 51 76 52 71 53 72 54
REMARK SMILES IDX 73 55 74 56 75 57 54 58 55 59 63 60 56 61 62 62 57 63 58 64
REMARK SMILES IDX 59 65 60 66 61 67 6 68 7 69 8 70 9 71 10 72 28 73 11 74
REMARK SMILES IDX 27 75 12 77 13 78 14 79 15 80 16 82 17 83 26 84 18 85 21 86
REMARK SMILES IDX 19 87 20 88 22 89 23 90 24 91 25 92
REMARK H PARENT 82 23 52 34 28 76 15 81
REMARK Flexibility Score: inf
ROOT
ATOM      1  C   UNL A   1      31.794  31.493  26.864  1.00  0.00     0.275 C 
ENDROOT
BRANCH   1   2
ATOM      2  C   UNL A   1      32.792  32.519  27.403  1.00  0.00     0.275 C 
BRANCH   2   3
ATOM      3  O   UNL A   1      32.275  33.841  27.670  1.00  0.00    -0.458 OA
BRANCH   3   4
ATOM      4  C   UNL A   1      32.955  34.718  28.447  1.00  0.00     0.338 C 
ATOM      5  O   UNL A   1      32.492  35.788  28.818  1.00  0.00    -0.246 OA
BRANCH   4   6
ATOM      6  C   UNL A   1      34.181  34.158  29.062  1.00  0.00     0.060 A 
ATOM      7  C   UNL A   1      35.453  34.409  28.548  1.00  0.00     0.016 A 
ATOM      8  C   UNL A   1      34.040  33.392  30.229  1.00  0.00     0.016 A 
ATOM      9  C   UNL A   1      36.568  33.844  29.150  1.00  0.00     0.010 A 
ATOM     10  C   UNL A   1      35.161  32.833  30.846  1.00  0.00     0.010 A 
ATOM     11  C   UNL A   1      36.428  33.047  30.293  1.00  0.00    -0.014 A 
BRANCH  11  12
ATOM     12  C   UNL A   1      37.670  32.506  30.889  1.00  0.00     0.031 A 
ATOM     13  C   UNL A   1      38.128  31.201  30.252  1.00  0.00     0.074 A 
ATOM     14  C   UNL A   1      38.142  33.126  32.008  1.00  0.00     0.049 A 
ATOM     15  N   UNL A   1      38.616  30.142  30.822  1.00  0.00    -0.248 NA
ATOM     16  C   UNL A   1      37.904  30.996  28.801  1.00  0.00     0.031 C 
ATOM     17  C   UNL A   1      37.607  34.395  32.542  1.00  0.00     0.029 A 
ATOM     18  N   UNL A   1      39.133  32.829  32.921  1.00  0.00    -0.354 N 
ATOM     19  C   UNL A   1      38.871  29.196  29.808  1.00  0.00     0.074 A 
ATOM     20  C   UNL A   1      38.327  29.744  28.598  1.00  0.00     0.031 C 
ATOM     21  C   UNL A   1      38.234  34.730  33.688  1.00  0.00     0.029 A 
ATOM     22  C   UNL A   1      39.211  33.711  34.022  1.00  0.00     0.049 A 
ATOM     23  H   UNL A   1      39.739  32.060  32.815  1.00  0.00     0.167 HD
ATOM     24  C   UNL A   1      39.605  28.061  30.002  1.00  0.00     0.031 A 
ATOM     25  C   UNL A   1      39.966  33.622  35.156  1.00  0.00     0.031 A 
ATOM     26  C   UNL A   1      40.074  27.976  31.346  1.00  0.00     0.049 A 
ATOM     27  C   UNL A   1      40.777  32.395  35.054  1.00  0.00     0.074 A 
ATOM     28  C   UNL A   1      39.501  27.661  32.551  1.00  0.00     0.029 A 
ATOM     29  N   UNL A   1      41.330  28.481  31.585  1.00  0.00    -0.354 N 
ATOM     30  N   UNL A   1      41.795  32.228  34.269  1.00  0.00    -0.248 NA
ATOM     31  C   UNL A   1      40.422  31.241  35.891  1.00  0.00     0.031 C 
ATOM     32  C   UNL A   1      40.270  28.369  33.506  1.00  0.00     0.029 A 
ATOM     33  C   UNL A   1      41.297  29.043  32.838  1.00  0.00     0.049 A 
ATOM     34  H   UNL A   1      42.102  28.447  30.975  1.00  0.00     0.167 HD
ATOM     35  C   UNL A   1      41.945  30.863  34.244  1.00  0.00     0.074 A 
ATOM     36  C   UNL A   1      41.307  30.356  35.439  1.00  0.00     0.031 C 
ATOM     37  C   UNL A   1      42.094  30.232  33.053  1.00  0.00     0.031 A 
BRANCH  24  38
ATOM     38  C   UNL A   1      40.178  27.067  29.023  1.00  0.00    -0.014 A 
ATOM     39  C   UNL A   1      39.301  26.062  28.540  1.00  0.00     0.010 A 
ATOM     40  C   UNL A   1      41.551  26.882  28.807  1.00  0.00     0.010 A 
ATOM     41  C   UNL A   1      39.772  24.873  27.981  1.00  0.00     0.020 A 
ATOM     42  C   UNL A   1      42.032  25.702  28.209  1.00  0.00     0.020 A 
ATOM     43  C   UNL A   1      41.143  24.686  27.850  1.00  0.00     0.054 A 
BRANCH  43  44
ATOM     44  S   UNL A   1      41.737  23.071  27.277  1.00  0.00     0.124 S 
ATOM     45  O   UNL A   1      42.579  22.641  28.389  1.00  0.00    -0.237 OA
ATOM     46  O   UNL A   1      40.496  22.316  27.106  1.00  0.00    -0.237 OA
ATOM     47  O   UNL A   1      42.442  23.383  26.036  1.00  0.00    -0.744 OA
ENDBRANCH  43  44
ENDBRANCH  24  38
BRANCH  25  48
ATOM     48  C   UNL A   1      40.062  34.352  36.472  1.00  0.00    -0.014 A 
ATOM     49  C   UNL A   1      40.991  35.350  36.786  1.00  0.00     0.010 A 
ATOM     50  C   UNL A   1      39.036  34.128  37.433  1.00  0.00     0.010 A 
ATOM     51  C   UNL A   1      40.829  36.166  37.926  1.00  0.00     0.020 A 
ATOM     52  C   UNL A   1      38.835  34.960  38.538  1.00  0.00     0.020 A 
ATOM     53  C   UNL A   1      39.725  35.997  38.766  1.00  0.00     0.054 A 
BRANCH  53  54
ATOM     54  S   UNL A   1      39.352  37.207  40.064  1.00  0.00     0.124 S 
ATOM     55  O   UNL A   1      40.677  37.709  40.414  1.00  0.00    -0.237 OA
ATOM     56  O   UNL A   1      38.476  38.161  39.385  1.00  0.00    -0.237 OA
ATOM     57  O   UNL A   1      38.693  36.401  41.090  1.00  0.00    -0.744 OA
ENDBRANCH  53  54
ENDBRANCH  25  48
BRANCH  37  58
ATOM     58  C   UNL A   1      42.644  31.120  31.944  1.00  0.00    -0.014 A 
ATOM     59  C   UNL A   1      41.773  31.760  31.045  1.00  0.00     0.010 A 
ATOM     60  C   UNL A   1      44.026  31.234  31.698  1.00  0.00     0.010 A 
ATOM     61  C   UNL A   1      42.264  32.469  29.937  1.00  0.00     0.020 A 
ATOM     62  C   UNL A   1      44.529  31.949  30.601  1.00  0.00     0.020 A 
ATOM     63  C   UNL A   1      43.641  32.557  29.718  1.00  0.00     0.054 A 
BRANCH  63  64
ATOM     64  S   UNL A   1      44.247  33.443  28.253  1.00  0.00     0.124 S 
ATOM     65  O   UNL A   1      45.574  33.887  28.670  1.00  0.00    -0.237 OA
ATOM     66  O   UNL A   1      44.229  32.404  27.226  1.00  0.00    -0.237 OA
ATOM     67  O   UNL A   1      43.272  34.517  28.063  1.00  0.00    -0.744 OA
ENDBRANCH  63  64
ENDBRANCH  37  58
ENDBRANCH  11  12
ENDBRANCH   4   6
ENDBRANCH   3   4
ENDBRANCH   2   3
ENDBRANCH   1   2
BRANCH   1  68
ATOM     68  O   UNL A   1      32.241  30.155  27.127  1.00  0.00    -0.457 OA
BRANCH  68  69
ATOM     69  C   UNL A   1      32.584  29.439  26.021  1.00  0.00     0.354 C 
ATOM     70  O   UNL A   1      32.922  29.907  24.942  1.00  0.00    -0.244 OA
BRANCH  69  71
ATOM     71  C   UNL A   1      32.496  28.032  26.292  1.00  0.00     0.126 A 
ATOM     72  C   UNL A   1      31.390  27.242  26.546  1.00  0.00     0.057 A 
ATOM     73  N   UNL A   1      33.584  27.190  26.220  1.00  0.00    -0.354 N 
ATOM     74  C   UNL A   1      31.776  25.909  26.238  1.00  0.00     0.106 A 
ATOM     75  C   UNL A   1      33.153  25.890  26.148  1.00  0.00     0.105 A 
ATOM     76  H   UNL A   1      34.527  27.476  26.222  1.00  0.00     0.166 HD
BRANCH  74  77
ATOM     77  S   UNL A   1      30.670  24.616  25.923  1.00  0.00     0.263 S 
ATOM     78  O   UNL A   1      31.483  23.416  25.917  1.00  0.00    -0.201 OA
ATOM     79  O   UNL A   1      29.594  24.819  26.860  1.00  0.00    -0.201 OA
BRANCH  77  80
ATOM     80  N   UNL A   1      29.993  24.748  24.356  1.00  0.00    -0.280 N 
ATOM     81  H   UNL A   1      29.529  23.986  23.941  1.00  0.00     0.180 HD
BRANCH  80  82
ATOM     82  C   UNL A   1      30.118  25.991  23.666  1.00  0.00     0.050 A 
ATOM     83  C   UNL A   1      31.338  26.293  23.055  1.00  0.00     0.030 A 
ATOM     84  C   UNL A   1      29.079  26.925  23.647  1.00  0.00     0.043 A 
ATOM     85  C   UNL A   1      31.530  27.532  22.446  1.00  0.00     0.042 A 
ATOM     86  C   UNL A   1      29.256  28.171  23.008  1.00  0.00     0.093 A 
ATOM     87  C   UNL A   1      30.489  28.455  22.421  1.00  0.00     0.135 A 
ATOM     88  F   UNL A   1      30.700  29.632  21.817  1.00  0.00    -0.206 F 
BRANCH  86  89
ATOM     89  C   UNL A   1      28.126  29.154  22.916  1.00  0.00     0.419 C 
ATOM     90  F   UNL A   1      26.965  28.638  23.411  1.00  0.00    -0.166 F 
ATOM     91  F   UNL A   1      28.362  30.285  23.637  1.00  0.00    -0.166 F 
ATOM     92  F   UNL A   1      27.834  29.579  21.657  1.00  0.00    -0.166 F 
ENDBRANCH  86  89
ENDBRANCH  80  82
ENDBRANCH  77  80
ENDBRANCH  74  77
ENDBRANCH  69  71
ENDBRANCH  68  69
ENDBRANCH   1  68
TORSDOF 18
ENDMDL
MODEL 2
REMARK VINA RESULT:     -11.8      4.662      6.436
REMARK SMILES O=C(OCCOC(=O)c1cc(S(=O)(=O)Nc2ccc(F)c(C(F)(F)F)c2)c[nH]1)c1ccc(-c2c3nc(c(-c4ccc(S(=O)(=O)[O-])cc4)c4ccc([nH]4)c(-c4ccc(S(=O)(=O)[O-])cc4)c4nc(c(-c5ccc(S(=O)(=O)[O-])cc5)c5ccc2[nH]5)C=C4)C=C3)cc1
REMARK SMILES IDX 5 1 4 2 3 3 2 4 1 5 29 6 30 7 88 8 31 9 87 10 32 11 33 12
REMARK SMILES IDX 34 13 81 14 35 15 86 16 80 17 82 18 36 19 85 20 79 21 78 22
REMARK SMILES IDX 37 24 67 25 48 26 66 27 49 28 52 29 65 30 83 31 50 32 51 33
REMARK SMILES IDX 64 35 84 36 53 37 38 38 39 39 47 40 40 41 46 42 41 43 42 44
REMARK SMILES IDX 43 45 44 46 45 47 68 48 69 49 77 50 70 51 76 52 71 53 72 54
REMARK SMILES IDX 73 55 74 56 75 57 54 58 55 59 63 60 56 61 62 62 57 63 58 64
REMARK SMILES IDX 59 65 60 66 61 67 6 68 7 69 8 70 9 71 10 72 28 73 11 74
REMARK SMILES IDX 27 75 12 77 13 78 14 79 15 80 16 82 17 83 26 84 18 85 21 86
REMARK SMILES IDX 19 87 20 88 22 89 23 90 24 91 25 92
REMARK H PARENT 82 23 52 34 28 76 15 81
REMARK Flexibility Score: inf
ROOT
ATOM      1  C   UNL A   1      32.614  29.838  27.177  1.00  0.00     0.275 C 
ENDROOT
BRANCH   1   2
ATOM      2  C   UNL A   1      33.823  29.037  27.662  1.00  0.00     0.275 C 
BRANCH   2   3
ATOM      3  O   UNL A   1      35.090  29.342  27.038  1.00  0.00    -0.458 OA
BRANCH   3   4
ATOM      4  C   UNL A   1      35.961  30.211  27.605  1.00  0.00     0.338 C 
ATOM      5  O   UNL A   1      35.639  31.324  27.999  1.00  0.00    -0.246 OA
BRANCH   4   6
ATOM      6  C   UNL A   1      37.258  29.608  27.986  1.00  0.00     0.060 A 
ATOM      7  C   UNL A   1      37.423  28.878  29.164  1.00  0.00     0.016 A 
ATOM      8  C   UNL A   1      38.335  29.747  27.097  1.00  0.00     0.016 A 
ATOM      9  C   UNL A   1      38.666  28.351  29.485  1.00  0.00     0.010 A 
ATOM     10  C   UNL A   1      39.584  29.206  27.411  1.00  0.00     0.010 A 
ATOM     11  C   UNL A   1      39.752  28.521  28.618  1.00  0.00    -0.014 A 
BRANCH  11  12
ATOM     12  C   UNL A   1      41.035  27.902  29.023  1.00  0.00     0.031 A 
ATOM     13  C   UNL A   1      41.393  26.665  28.212  1.00  0.00     0.074 A 
ATOM     14  C   UNL A   1      41.633  28.395  30.145  1.00  0.00     0.049 A 
ATOM     15  N   UNL A   1      41.909  25.545  28.616  1.00  0.00    -0.248 NA
ATOM     16  C   UNL A   1      41.017  26.616  26.778  1.00  0.00     0.031 C 
ATOM     17  C   UNL A   1      41.188  29.608  30.860  1.00  0.00     0.029 A 
ATOM     18  N   UNL A   1      42.703  27.990  30.915  1.00  0.00    -0.354 N 
ATOM     19  C   UNL A   1      42.036  24.707  27.489  1.00  0.00     0.074 A 
ATOM     20  C   UNL A   1      41.386  25.387  26.405  1.00  0.00     0.031 C 
ATOM     21  C   UNL A   1      41.936  29.812  31.963  1.00  0.00     0.029 A 
ATOM     22  C   UNL A   1      42.915  28.750  32.087  1.00  0.00     0.049 A 
ATOM     23  H   UNL A   1      43.276  27.227  30.668  1.00  0.00     0.167 HD
ATOM     24  C   UNL A   1      42.757  23.548  27.488  1.00  0.00     0.031 A 
ATOM     25  C   UNL A   1      43.780  28.532  33.121  1.00  0.00     0.031 A 
ATOM     26  C   UNL A   1      43.358  23.315  28.761  1.00  0.00     0.049 A 
ATOM     27  C   UNL A   1      44.545  27.311  32.810  1.00  0.00     0.074 A 
ATOM     28  C   UNL A   1      42.902  22.885  29.980  1.00  0.00     0.029 A 
ATOM     29  N   UNL A   1      44.644  23.775  28.918  1.00  0.00    -0.354 N 
ATOM     30  N   UNL A   1      45.473  27.212  31.911  1.00  0.00    -0.248 NA
ATOM     31  C   UNL A   1      44.248  26.080  33.557  1.00  0.00     0.031 C 
ATOM     32  C   UNL A   1      43.782  23.477  30.917  1.00  0.00     0.029 A 
ATOM     33  C   UNL A   1      44.753  24.202  30.220  1.00  0.00     0.049 A 
ATOM     34  H   UNL A   1      45.349  23.794  28.231  1.00  0.00     0.167 HD
ATOM     35  C   UNL A   1      45.585  25.855  31.731  1.00  0.00     0.074 A 
ATOM     36  C   UNL A   1      45.059  25.236  32.926  1.00  0.00     0.031 C 
ATOM     37  C   UNL A   1      45.597  25.351  30.472  1.00  0.00     0.031 A 
BRANCH  24  38
ATOM     38  C   UNL A   1      43.203  22.654  26.359  1.00  0.00    -0.014 A 
ATOM     39  C   UNL A   1      42.704  21.325  26.355  1.00  0.00     0.010 A 
ATOM     40  C   UNL A   1      44.286  22.938  25.515  1.00  0.00     0.010 A 
ATOM     41  C   UNL A   1      43.330  20.300  25.644  1.00  0.00     0.020 A 
ATOM     42  C   UNL A   1      44.899  21.917  24.764  1.00  0.00     0.020 A 
ATOM     43  C   UNL A   1      44.450  20.599  24.876  1.00  0.00     0.054 A 
BRANCH  43  44
ATOM     44  S   UNL A   1      45.343  19.227  24.096  1.00  0.00     0.124 S 
ATOM     45  O   UNL A   1      46.725  19.697  24.138  1.00  0.00    -0.237 OA
ATOM     46  O   UNL A   1      45.040  18.103  24.980  1.00  0.00    -0.237 OA
ATOM     47  O   UNL A   1      44.748  19.140  22.765  1.00  0.00    -0.744 OA
ENDBRANCH  43  44
ENDBRANCH  24  38
BRANCH  25  48
ATOM     48  C   UNL A   1      44.026  29.118  34.489  1.00  0.00    -0.014 A 
ATOM     49  C   UNL A   1      45.104  29.937  34.843  1.00  0.00     0.010 A 
ATOM     50  C   UNL A   1      43.011  28.961  35.474  1.00  0.00     0.010 A 
ATOM     51  C   UNL A   1      45.104  30.662  36.053  1.00  0.00     0.020 A 
ATOM     52  C   UNL A   1      42.974  29.710  36.652  1.00  0.00     0.020 A 
ATOM     53  C   UNL A   1      44.016  30.581  36.926  1.00  0.00     0.054 A 
BRANCH  53  54
ATOM     54  S   UNL A   1      43.871  31.711  38.337  1.00  0.00     0.124 S 
ATOM     55  O   UNL A   1      44.161  33.006  37.731  1.00  0.00    -0.237 OA
ATOM     56  O   UNL A   1      42.490  31.516  38.776  1.00  0.00    -0.237 OA
ATOM     57  O   UNL A   1      44.881  31.211  39.268  1.00  0.00    -0.744 OA
ENDBRANCH  53  54
ENDBRANCH  25  48
BRANCH  37  58
ATOM     58  C   UNL A   1      46.054  26.342  29.409  1.00  0.00    -0.014 A 
ATOM     59  C   UNL A   1      45.111  27.039  28.632  1.00  0.00     0.010 A 
ATOM     60  C   UNL A   1      47.413  26.506  29.078  1.00  0.00     0.010 A 
ATOM     61  C   UNL A   1      45.512  27.850  27.558  1.00  0.00     0.020 A 
ATOM     62  C   UNL A   1      47.826  27.323  28.016  1.00  0.00     0.020 A 
ATOM     63  C   UNL A   1      46.868  27.986  27.254  1.00  0.00     0.054 A 
BRANCH  63  64
ATOM     64  S   UNL A   1      47.356  29.007  25.833  1.00  0.00     0.124 S 
ATOM     65  O   UNL A   1      46.140  29.037  25.024  1.00  0.00    -0.237 OA
ATOM     66  O   UNL A   1      47.719  30.273  26.463  1.00  0.00    -0.237 OA
ATOM     67  O   UNL A   1      48.470  28.270  25.236  1.00  0.00    -0.744 OA
ENDBRANCH  63  64
ENDBRANCH  37  58
ENDBRANCH  11  12
ENDBRANCH   4   6
ENDBRANCH   3   4
ENDBRANCH   2   3
ENDBRANCH   1   2
BRANCH   1  68
ATOM     68  O   UNL A   1      31.865  29.098  26.201  1.00  0.00    -0.457 OA
BRANCH  68  69
ATOM     69  C   UNL A   1      31.646  27.793  26.519  1.00  0.00     0.354 C 
ATOM     70  O   UNL A   1      31.026  27.387  27.493  1.00  0.00    -0.244 OA
BRANCH  69  71
ATOM     71  C   UNL A   1      32.251  26.934  25.541  1.00  0.00     0.126 A 
ATOM     72  C   UNL A   1      31.696  26.311  24.438  1.00  0.00     0.057 A 
ATOM     73  N   UNL A   1      33.606  26.684  25.504  1.00  0.00    -0.354 N 
ATOM     74  C   UNL A   1      32.775  26.028  23.558  1.00  0.00     0.106 A 
ATOM     75  C   UNL A   1      33.943  26.165  24.281  1.00  0.00     0.105 A 
ATOM     76  H   UNL A   1      34.235  26.851  26.244  1.00  0.00     0.166 HD
BRANCH  74  77
ATOM     77  S   UNL A   1      32.602  25.698  21.868  1.00  0.00     0.263 S 
ATOM     78  O   UNL A   1      31.238  26.067  21.548  1.00  0.00    -0.201 OA
ATOM     79  O   UNL A   1      33.741  26.333  21.254  1.00  0.00    -0.201 OA
BRANCH  77  80
ATOM     80  N   UNL A   1      32.737  24.022  21.546  1.00  0.00    -0.280 N 
ATOM     81  H   UNL A   1      32.621  23.673  20.634  1.00  0.00     0.180 HD
BRANCH  80  82
ATOM     82  C   UNL A   1      33.021  23.144  22.635  1.00  0.00     0.050 A 
ATOM     83  C   UNL A   1      31.950  22.557  23.314  1.00  0.00     0.030 A 
ATOM     84  C   UNL A   1      34.330  22.915  23.068  1.00  0.00     0.043 A 
ATOM     85  C   UNL A   1      32.180  21.763  24.435  1.00  0.00     0.042 A 
ATOM     86  C   UNL A   1      34.573  22.088  24.185  1.00  0.00     0.093 A 
ATOM     87  C   UNL A   1      33.486  21.530  24.858  1.00  0.00     0.135 A 
ATOM     88  F   UNL A   1      33.676  20.752  25.931  1.00  0.00    -0.206 F 
BRANCH  86  89
ATOM     89  C   UNL A   1      35.975  21.775  24.617  1.00  0.00     0.419 C 
ATOM     90  F   UNL A   1      36.380  22.576  25.644  1.00  0.00    -0.166 F 
ATOM     91  F   UNL A   1      36.106  20.499  25.074  1.00  0.00    -0.166 F 
ATOM     92  F   UNL A   1      36.920  21.913  23.647  1.00  0.00    -0.166 F 
ENDBRANCH  86  89
ENDBRANCH  80  82
ENDBRANCH  77  80
ENDBRANCH  74  77
ENDBRANCH  69  71
ENDBRANCH  68  69
ENDBRANCH   1  68
TORSDOF 18
ENDMDL
MODEL 3
REMARK VINA RESULT:     -11.8      4.668      6.478
REMARK SMILES O=C(OCCOC(=O)c1cc(S(=O)(=O)Nc2ccc(F)c(C(F)(F)F)c2)c[nH]1)c1ccc(-c2c3nc(c(-c4ccc(S(=O)(=O)[O-])cc4)c4ccc([nH]4)c(-c4ccc(S(=O)(=O)[O-])cc4)c4nc(c(-c5ccc(S(=O)(=O)[O-])cc5)c5ccc2[nH]5)C=C4)C=C3)cc1
REMARK SMILES IDX 5 1 4 2 3 3 2 4 1 5 29 6 30 7 88 8 31 9 87 10 32 11 33 12
REMARK SMILES IDX 34 13 81 14 35 15 86 16 80 17 82 18 36 19 85 20 79 21 78 22
REMARK SMILES IDX 37 24 67 25 48 26 66 27 49 28 52 29 65 30 83 31 50 32 51 33
REMARK SMILES IDX 64 35 84 36 53 37 38 38 39 39 47 40 40 41 46 42 41 43 42 44
REMARK SMILES IDX 43 45 44 46 45 47 68 48 69 49 77 50 70 51 76 52 71 53 72 54
REMARK SMILES IDX 73 55 74 56 75 57 54 58 55 59 63 60 56 61 62 62 57 63 58 64
REMARK SMILES IDX 59 65 60 66 61 67 6 68 7 69 8 70 9 71 10 72 28 73 11 74
REMARK SMILES IDX 27 75 12 77 13 78 14 79 15 80 16 82 17 83 26 84 18 85 21 86
REMARK SMILES IDX 19 87 20 88 22 89 23 90 24 91 25 92
REMARK H PARENT 82 23 52 34 28 76 15 81
REMARK Flexibility Score: inf
ROOT
ATOM      1  C   UNL A   1      32.660  29.952  26.363  1.00  0.00     0.275 C 
ENDROOT
BRANCH   1   2
ATOM      2  C   UNL A   1      33.594  29.112  27.234  1.00  0.00     0.275 C 
BRANCH   2   3
ATOM      3  O   UNL A   1      35.011  29.343  27.068  1.00  0.00    -0.458 OA
BRANCH   3   4
ATOM      4  C   UNL A   1      35.711  30.083  27.961  1.00  0.00     0.338 C 
ATOM      5  O   UNL A   1      35.214  30.978  28.631  1.00  0.00    -0.246 OA
BRANCH   4   6
ATOM      6  C   UNL A   1      37.048  29.535  28.287  1.00  0.00     0.060 A 
ATOM      7  C   UNL A   1      38.164  29.763  27.481  1.00  0.00     0.016 A 
ATOM      8  C   UNL A   1      37.187  28.803  29.477  1.00  0.00     0.016 A 
ATOM      9  C   UNL A   1      39.390  29.210  27.820  1.00  0.00     0.010 A 
ATOM     10  C   UNL A   1      38.423  28.256  29.828  1.00  0.00     0.010 A 
ATOM     11  C   UNL A   1      39.523  28.447  28.987  1.00  0.00    -0.014 A 
BRANCH  11  12
ATOM     12  C   UNL A   1      40.872  27.917  29.290  1.00  0.00     0.031 A 
ATOM     13  C   UNL A   1      41.239  26.691  28.466  1.00  0.00     0.074 A 
ATOM     14  C   UNL A   1      41.530  28.466  30.351  1.00  0.00     0.049 A 
ATOM     15  N   UNL A   1      41.858  25.612  28.839  1.00  0.00    -0.248 NA
ATOM     16  C   UNL A   1      40.749  26.594  27.070  1.00  0.00     0.031 C 
ATOM     17  C   UNL A   1      41.069  29.661  31.086  1.00  0.00     0.029 A 
ATOM     18  N   UNL A   1      42.684  28.141  31.033  1.00  0.00    -0.354 N 
ATOM     19  C   UNL A   1      41.943  24.764  27.716  1.00  0.00     0.074 A 
ATOM     20  C   UNL A   1      41.162  25.383  26.683  1.00  0.00     0.031 C 
ATOM     21  C   UNL A   1      41.893  29.930  32.120  1.00  0.00     0.029 A 
ATOM     22  C   UNL A   1      42.945  28.934  32.173  1.00  0.00     0.049 A 
ATOM     23  H   UNL A   1      43.282  27.412  30.748  1.00  0.00     0.167 HD
ATOM     24  C   UNL A   1      42.733  23.652  27.668  1.00  0.00     0.031 A 
ATOM     25  C   UNL A   1      43.904  28.787  33.134  1.00  0.00     0.031 A 
ATOM     26  C   UNL A   1      43.452  23.480  28.888  1.00  0.00     0.049 A 
ATOM     27  C   UNL A   1      44.717  27.611  32.774  1.00  0.00     0.074 A 
ATOM     28  C   UNL A   1      43.128  23.043  30.146  1.00  0.00     0.029 A 
ATOM     29  N   UNL A   1      44.715  24.021  28.931  1.00  0.00    -0.354 N 
ATOM     30  N   UNL A   1      45.571  27.555  31.801  1.00  0.00    -0.248 NA
ATOM     31  C   UNL A   1      44.562  26.378  33.558  1.00  0.00     0.031 C 
ATOM     32  C   UNL A   1      44.044  23.705  30.999  1.00  0.00     0.029 A 
ATOM     33  C   UNL A   1      44.905  24.477  30.213  1.00  0.00     0.049 A 
ATOM     34  H   UNL A   1      45.357  24.072  28.187  1.00  0.00     0.167 HD
ATOM     35  C   UNL A   1      45.754  26.204  31.628  1.00  0.00     0.074 A 
ATOM     36  C   UNL A   1      45.370  25.574  32.871  1.00  0.00     0.031 C 
ATOM     37  C   UNL A   1      45.692  25.680  30.379  1.00  0.00     0.031 A 
BRANCH  24  38
ATOM     38  C   UNL A   1      43.139  22.768  26.516  1.00  0.00    -0.014 A 
ATOM     39  C   UNL A   1      42.610  21.451  26.499  1.00  0.00     0.010 A 
ATOM     40  C   UNL A   1      44.213  23.042  25.657  1.00  0.00     0.010 A 
ATOM     41  C   UNL A   1      43.201  20.425  25.760  1.00  0.00     0.020 A 
ATOM     42  C   UNL A   1      44.790  22.021  24.879  1.00  0.00     0.020 A 
ATOM     43  C   UNL A   1      44.313  20.712  24.977  1.00  0.00     0.054 A 
BRANCH  43  44
ATOM     44  S   UNL A   1      45.162  19.334  24.157  1.00  0.00     0.124 S 
ATOM     45  O   UNL A   1      44.754  18.194  24.971  1.00  0.00    -0.237 OA
ATOM     46  O   UNL A   1      44.601  19.369  22.807  1.00  0.00    -0.237 OA
ATOM     47  O   UNL A   1      46.574  19.698  24.244  1.00  0.00    -0.744 OA
ENDBRANCH  43  44
ENDBRANCH  24  38
BRANCH  25  48
ATOM     48  C   UNL A   1      44.227  29.412  34.468  1.00  0.00    -0.014 A 
ATOM     49  C   UNL A   1      43.303  29.704  35.477  1.00  0.00     0.010 A 
ATOM     50  C   UNL A   1      45.598  29.587  34.806  1.00  0.00     0.010 A 
ATOM     51  C   UNL A   1      43.725  30.022  36.785  1.00  0.00     0.020 A 
ATOM     52  C   UNL A   1      46.031  29.852  36.108  1.00  0.00     0.020 A 
ATOM     53  C   UNL A   1      45.086  30.045  37.103  1.00  0.00     0.054 A 
BRANCH  53  54
ATOM     54  S   UNL A   1      45.636  30.172  38.826  1.00  0.00     0.124 S 
ATOM     55  O   UNL A   1      46.081  28.812  39.112  1.00  0.00    -0.237 OA
ATOM     56  O   UNL A   1      46.692  31.180  38.763  1.00  0.00    -0.237 OA
ATOM     57  O   UNL A   1      44.428  30.599  39.530  1.00  0.00    -0.744 OA
ENDBRANCH  53  54
ENDBRANCH  25  48
BRANCH  37  58
ATOM     58  C   UNL A   1      45.995  26.679  29.269  1.00  0.00    -0.014 A 
ATOM     59  C   UNL A   1      47.321  27.051  28.988  1.00  0.00     0.010 A 
ATOM     60  C   UNL A   1      44.972  27.356  28.577  1.00  0.00     0.010 A 
ATOM     61  C   UNL A   1      47.610  28.070  28.066  1.00  0.00     0.020 A 
ATOM     62  C   UNL A   1      45.248  28.367  27.646  1.00  0.00     0.020 A 
ATOM     63  C   UNL A   1      46.571  28.725  27.401  1.00  0.00     0.054 A 
BRANCH  63  64
ATOM     64  S   UNL A   1      46.972  30.069  26.246  1.00  0.00     0.124 S 
ATOM     65  O   UNL A   1      48.402  30.268  26.465  1.00  0.00    -0.237 OA
ATOM     66  O   UNL A   1      46.611  29.493  24.953  1.00  0.00    -0.237 OA
ATOM     67  O   UNL A   1      46.124  31.177  26.688  1.00  0.00    -0.744 OA
ENDBRANCH  63  64
ENDBRANCH  37  58
ENDBRANCH  11  12
ENDBRANCH   4   6
ENDBRANCH   3   4
ENDBRANCH   2   3
ENDBRANCH   1   2
BRANCH   1  68
ATOM     68  O   UNL A   1      32.835  29.640  24.973  1.00  0.00    -0.457 OA
BRANCH  68  69
ATOM     69  C   UNL A   1      31.697  29.273  24.323  1.00  0.00     0.354 C 
ATOM     70  O   UNL A   1      30.665  29.927  24.261  1.00  0.00    -0.244 OA
BRANCH  69  71
ATOM     71  C   UNL A   1      31.869  27.989  23.704  1.00  0.00     0.126 A 
ATOM     72  C   UNL A   1      31.945  26.730  24.272  1.00  0.00     0.057 A 
ATOM     73  N   UNL A   1      31.872  27.814  22.338  1.00  0.00    -0.354 N 
ATOM     74  C   UNL A   1      31.603  25.810  23.245  1.00  0.00     0.106 A 
ATOM     75  C   UNL A   1      31.672  26.490  22.045  1.00  0.00     0.105 A 
ATOM     76  H   UNL A   1      32.000  28.530  21.673  1.00  0.00     0.166 HD
BRANCH  74  77
ATOM     77  S   UNL A   1      31.084  24.183  23.518  1.00  0.00     0.263 S 
ATOM     78  O   UNL A   1      31.354  23.929  24.919  1.00  0.00    -0.201 OA
ATOM     79  O   UNL A   1      29.755  24.125  22.962  1.00  0.00    -0.201 OA
BRANCH  77  80
ATOM     80  N   UNL A   1      32.038  23.071  22.633  1.00  0.00    -0.280 N 
ATOM     81  H   UNL A   1      31.857  22.896  21.682  1.00  0.00     0.180 HD
BRANCH  80  82
ATOM     82  C   UNL A   1      33.104  22.403  23.309  1.00  0.00     0.050 A 
ATOM     83  C   UNL A   1      32.829  21.191  23.949  1.00  0.00     0.030 A 
ATOM     84  C   UNL A   1      34.380  22.964  23.396  1.00  0.00     0.043 A 
ATOM     85  C   UNL A   1      33.819  20.551  24.692  1.00  0.00     0.042 A 
ATOM     86  C   UNL A   1      35.396  22.307  24.124  1.00  0.00     0.093 A 
ATOM     87  C   UNL A   1      35.091  21.108  24.769  1.00  0.00     0.135 A 
ATOM     88  F   UNL A   1      36.024  20.462  25.481  1.00  0.00    -0.206 F 
BRANCH  86  89
ATOM     89  C   UNL A   1      36.790  22.860  24.166  1.00  0.00     0.419 C 
ATOM     90  F   UNL A   1      37.123  23.484  23.000  1.00  0.00    -0.166 F 
ATOM     91  F   UNL A   1      36.948  23.797  25.142  1.00  0.00    -0.166 F 
ATOM     92  F   UNL A   1      37.768  21.938  24.383  1.00  0.00    -0.166 F 
ENDBRANCH  86  89
ENDBRANCH  80  82
ENDBRANCH  77  80
ENDBRANCH  74  77
ENDBRANCH  69  71
ENDBRANCH  68  69
ENDBRANCH   1  68
TORSDOF 18
ENDMDL
