MODEL 1
REMARK VINA RESULT:     -10.9      0.000      0.000
REMARK SMILES Cc1ccc(Cl)c(Nc2ccccc2C(=O)NCC(=O)OCCOC(=O)c2ccc(-c3c4nc(c(-c5ccc(S(=O)(=O)[O-])cc5)c5ccc([nH]5)c(-c5ccc(S(=O)(=O)[O-])cc5)c5nc(c(-c6ccc(S(=O)(=O)[O-])cc6)c6ccc3[nH]6)C=C5)C=C4)cc2)c1Cl
REMARK SMILES IDX 22 1 21 2 19 3 20 4 18 5 17 6 15 7 16 8 14 10 9 11 10 12
REMARK SMILES IDX 11 13 13 14 12 15 8 16 7 18 1 19 2 20 3 21 87 22 4 23 88 24
REMARK SMILES IDX 5 25 6 26 23 27 24 28 25 29 26 30 27 31 28 32 86 33 29 34
REMARK SMILES IDX 85 35 30 36 31 37 32 38 79 39 33 40 84 41 78 42 80 43 34 44
REMARK SMILES IDX 83 45 77 46 76 47 35 49 65 50 46 51 64 52 47 53 50 54 63 55
REMARK SMILES IDX 81 56 48 57 49 58 62 60 82 61 51 62 36 63 37 64 45 65 38 66
REMARK SMILES IDX 44 67 39 68 40 69 41 70 42 71 43 72 66 73 67 74 75 75 68 76
REMARK SMILES IDX 74 77 69 78 70 79 71 80 72 81 73 82 52 83 53 84 61 85 54 86
REMARK SMILES IDX 60 87 55 88 56 89 57 90 58 91 59 92
REMARK H PARENT 17 9 8 17 80 48 50 59
REMARK Flexibility Score: inf
ROOT
ATOM      1  C   UNL A   1      32.263  31.407  26.705  1.00  0.00     0.274 C 
ENDROOT
BRANCH   1   2
ATOM      2  O   UNL A   1      32.792  30.300  25.952  1.00  0.00    -0.461 OA
BRANCH   2   3
ATOM      3  C   UNL A   1      31.930  29.259  25.857  1.00  0.00     0.325 C 
ATOM      4  O   UNL A   1      31.023  29.178  25.032  1.00  0.00    -0.250 OA
BRANCH   3   5
ATOM      5  C   UNL A   1      32.274  28.083  26.744  1.00  0.00     0.239 C 
BRANCH   5   6
ATOM      6  N   UNL A   1      31.467  26.891  26.872  1.00  0.00    -0.341 N 
ATOM      7  C   UNL A   1      31.553  25.696  26.197  1.00  0.00     0.253 C 
ATOM      8  O   UNL A   1      30.976  24.727  26.698  1.00  0.00    -0.269 OA
ATOM      9  H   UNL A   1      30.747  26.942  27.542  1.00  0.00     0.164 HD
BRANCH   7  10
ATOM     10  C   UNL A   1      32.123  25.549  24.818  1.00  0.00     0.063 A 
ATOM     11  C   UNL A   1      33.337  24.961  24.401  1.00  0.00     0.051 A 
ATOM     12  C   UNL A   1      33.692  25.078  23.034  1.00  0.00     0.027 A 
ATOM     13  C   UNL A   1      32.848  25.661  22.088  1.00  0.00     0.002 A 
ATOM     14  C   UNL A   1      31.267  26.103  23.834  1.00  0.00     0.016 A 
ATOM     15  C   UNL A   1      31.615  26.147  22.486  1.00  0.00     0.001 A 
BRANCH  11  16
ATOM     16  N   UNL A   1      34.214  24.153  25.154  1.00  0.00    -0.352 N 
ATOM     17  H   UNL A   1      34.566  24.611  25.952  1.00  0.00     0.167 HD
BRANCH  16  18
ATOM     18  C   UNL A   1      34.701  22.830  25.020  1.00  0.00     0.077 A 
ATOM     19  C   UNL A   1      33.594  19.181  24.546  1.00  0.00     0.046 C 
ATOM     20  C   UNL A   1      34.436  20.398  24.810  1.00  0.00    -0.030 A 
ATOM     21  C   UNL A   1      35.795  20.223  25.097  1.00  0.00     0.006 A 
ATOM     22  C   UNL A   1      33.901  21.704  24.740  1.00  0.00     0.069 A 
ATOM     23  C   UNL A   1      36.620  21.323  25.282  1.00  0.00     0.023 A 
ATOM     24  Cl  UNL A   1      32.282  21.898  24.132  1.00  0.00    -0.082 Cl
ATOM     25  C   UNL A   1      36.081  22.606  25.251  1.00  0.00     0.066 A 
ATOM     26  Cl  UNL A   1      37.159  23.935  25.539  1.00  0.00    -0.082 Cl
ENDBRANCH  16  18
ENDBRANCH  11  16
ENDBRANCH   7  10
ENDBRANCH   5   6
ENDBRANCH   3   5
ENDBRANCH   2   3
ENDBRANCH   1   2
BRANCH   1  27
ATOM     27  C   UNL A   1      33.312  31.965  27.669  1.00  0.00     0.275 C 
BRANCH  27  28
ATOM     28  O   UNL A   1      34.331  30.991  27.983  1.00  0.00    -0.458 OA
BRANCH  28  29
ATOM     29  C   UNL A   1      35.081  31.263  29.077  1.00  0.00     0.338 C 
ATOM     30  O   UNL A   1      34.794  32.034  29.985  1.00  0.00    -0.246 OA
BRANCH  29  31
ATOM     31  C   UNL A   1      36.360  30.527  29.053  1.00  0.00     0.060 A 
ATOM     32  C   UNL A   1      37.010  30.169  30.232  1.00  0.00     0.016 A 
ATOM     33  C   UNL A   1      36.992  30.314  27.826  1.00  0.00     0.016 A 
ATOM     34  C   UNL A   1      38.325  29.680  30.177  1.00  0.00     0.010 A 
ATOM     35  C   UNL A   1      38.276  29.752  27.779  1.00  0.00     0.010 A 
ATOM     36  C   UNL A   1      38.993  29.474  28.956  1.00  0.00    -0.014 A 
BRANCH  36  37
ATOM     37  C   UNL A   1      40.436  29.045  28.887  1.00  0.00     0.031 A 
ATOM     38  C   UNL A   1      41.548  30.026  29.215  1.00  0.00     0.074 A 
ATOM     39  C   UNL A   1      40.802  27.791  28.544  1.00  0.00     0.049 A 
ATOM     40  N   UNL A   1      42.832  29.946  28.953  1.00  0.00    -0.248 NA
ATOM     41  C   UNL A   1      41.161  31.264  29.908  1.00  0.00     0.031 C 
ATOM     42  C   UNL A   1      39.896  26.682  28.248  1.00  0.00     0.029 A 
ATOM     43  N   UNL A   1      42.056  27.236  28.392  1.00  0.00    -0.354 N 
ATOM     44  C   UNL A   1      43.382  31.163  29.349  1.00  0.00     0.074 A 
ATOM     45  C   UNL A   1      42.297  31.949  29.898  1.00  0.00     0.031 C 
ATOM     46  C   UNL A   1      40.614  25.574  28.015  1.00  0.00     0.029 A 
ATOM     47  C   UNL A   1      42.034  25.912  28.020  1.00  0.00     0.049 A 
ATOM     48  H   UNL A   1      42.889  27.742  28.534  1.00  0.00     0.167 HD
ATOM     49  C   UNL A   1      44.665  31.596  29.253  1.00  0.00     0.031 A 
ATOM     50  C   UNL A   1      43.021  25.065  27.660  1.00  0.00     0.031 A 
ATOM     51  C   UNL A   1      45.772  30.793  28.798  1.00  0.00     0.049 A 
ATOM     52  C   UNL A   1      44.439  25.549  27.570  1.00  0.00     0.074 A 
ATOM     53  C   UNL A   1      47.106  31.151  28.691  1.00  0.00     0.029 A 
ATOM     54  N   UNL A   1      45.685  29.468  28.406  1.00  0.00    -0.354 N 
ATOM     55  N   UNL A   1      44.919  26.740  27.829  1.00  0.00    -0.248 NA
ATOM     56  C   UNL A   1      45.444  24.580  27.104  1.00  0.00     0.031 C 
ATOM     57  C   UNL A   1      47.822  30.051  28.204  1.00  0.00     0.029 A 
ATOM     58  C   UNL A   1      46.939  28.995  28.052  1.00  0.00     0.049 A 
ATOM     59  H   UNL A   1      44.855  28.940  28.384  1.00  0.00     0.167 HD
ATOM     60  C   UNL A   1      46.279  26.669  27.544  1.00  0.00     0.074 A 
ATOM     61  C   UNL A   1      46.552  25.311  27.124  1.00  0.00     0.031 C 
ATOM     62  C   UNL A   1      47.211  27.651  27.615  1.00  0.00     0.031 A 
BRANCH  49  63
ATOM     63  C   UNL A   1      44.939  33.041  29.585  1.00  0.00    -0.014 A 
ATOM     64  C   UNL A   1      44.819  34.065  28.631  1.00  0.00     0.010 A 
ATOM     65  C   UNL A   1      45.291  33.376  30.907  1.00  0.00     0.010 A 
ATOM     66  C   UNL A   1      45.099  35.391  28.981  1.00  0.00     0.020 A 
ATOM     67  C   UNL A   1      45.545  34.702  31.267  1.00  0.00     0.020 A 
ATOM     68  C   UNL A   1      45.469  35.699  30.294  1.00  0.00     0.054 A 
BRANCH  68  69
ATOM     69  S   UNL A   1      45.827  37.424  30.727  1.00  0.00     0.124 S 
ATOM     70  O   UNL A   1      46.890  37.269  31.716  1.00  0.00    -0.237 OA
ATOM     71  O   UNL A   1      46.237  38.002  29.450  1.00  0.00    -0.237 OA
ATOM     72  O   UNL A   1      44.556  37.920  31.251  1.00  0.00    -0.744 OA
ENDBRANCH  68  69
ENDBRANCH  49  63
BRANCH  50  73
ATOM     73  C   UNL A   1      42.670  23.670  27.279  1.00  0.00    -0.014 A 
ATOM     74  C   UNL A   1      42.518  23.313  25.929  1.00  0.00     0.010 A 
ATOM     75  C   UNL A   1      42.564  22.675  28.269  1.00  0.00     0.010 A 
ATOM     76  C   UNL A   1      42.296  21.979  25.573  1.00  0.00     0.020 A 
ATOM     77  C   UNL A   1      42.372  21.338  27.916  1.00  0.00     0.020 A 
ATOM     78  C   UNL A   1      42.241  20.997  26.568  1.00  0.00     0.054 A 
BRANCH  78  79
ATOM     79  S   UNL A   1      42.103  19.255  26.085  1.00  0.00     0.124 S 
ATOM     80  O   UNL A   1      40.682  19.138  25.773  1.00  0.00    -0.237 OA
ATOM     81  O   UNL A   1      43.011  19.165  24.944  1.00  0.00    -0.237 OA
ATOM     82  O   UNL A   1      42.547  18.537  27.278  1.00  0.00    -0.744 OA
ENDBRANCH  78  79
ENDBRANCH  50  73
BRANCH  62  83
ATOM     83  C   UNL A   1      48.624  27.294  27.237  1.00  0.00    -0.014 A 
ATOM     84  C   UNL A   1      49.059  27.384  25.903  1.00  0.00     0.010 A 
ATOM     85  C   UNL A   1      49.536  26.898  28.231  1.00  0.00     0.010 A 
ATOM     86  C   UNL A   1      50.376  27.055  25.565  1.00  0.00     0.020 A 
ATOM     87  C   UNL A   1      50.858  26.585  27.900  1.00  0.00     0.020 A 
ATOM     88  C   UNL A   1      51.266  26.651  26.566  1.00  0.00     0.054 A 
BRANCH  88  89
ATOM     89  S   UNL A   1      52.977  26.253  26.110  1.00  0.00     0.124 S 
ATOM     90  O   UNL A   1      52.788  25.378  24.957  1.00  0.00    -0.237 OA
ATOM     91  O   UNL A   1      53.548  27.565  25.816  1.00  0.00    -0.237 OA
ATOM     92  O   UNL A   1      53.510  25.603  27.306  1.00  0.00    -0.744 OA
ENDBRANCH  88  89
ENDBRANCH  62  83
ENDBRANCH  36  37
ENDBRANCH  29  31
ENDBRANCH  28  29
ENDBRANCH  27  28
ENDBRANCH   1  27
TORSDOF 18
ENDMDL
MODEL 2
REMARK VINA RESULT:     -10.8      5.842     11.399
REMARK SMILES Cc1ccc(Cl)c(Nc2ccccc2C(=O)NCC(=O)OCCOC(=O)c2ccc(-c3c4nc(c(-c5ccc(S(=O)(=O)[O-])cc5)c5ccc([nH]5)c(-c5ccc(S(=O)(=O)[O-])cc5)c5nc(c(-c6ccc(S(=O)(=O)[O-])cc6)c6ccc3[nH]6)C=C5)C=C4)cc2)c1Cl
REMARK SMILES IDX 22 1 21 2 19 3 20 4 18 5 17 6 15 7 16 8 14 10 9 11 10 12
REMARK SMILES IDX 11 13 13 14 12 15 8 16 7 18 1 19 2 20 3 21 87 22 4 23 88 24
REMARK SMILES IDX 5 25 6 26 23 27 24 28 25 29 26 30 27 31 28 32 86 33 29 34
REMARK SMILES IDX 85 35 30 36 31 37 32 38 79 39 33 40 84 41 78 42 80 43 34 44
REMARK SMILES IDX 83 45 77 46 76 47 35 49 65 50 46 51 64 52 47 53 50 54 63 55
REMARK SMILES IDX 81 56 48 57 49 58 62 60 82 61 51 62 36 63 37 64 45 65 38 66
REMARK SMILES IDX 44 67 39 68 40 69 41 70 42 71 43 72 66 73 67 74 75 75 68 76
REMARK SMILES IDX 74 77 69 78 70 79 71 80 72 81 73 82 52 83 53 84 61 85 54 86
REMARK SMILES IDX 60 87 55 88 56 89 57 90 58 91 59 92
REMARK H PARENT 17 9 8 17 80 48 50 59
REMARK Flexibility Score: inf
ROOT
ATOM      1  C   UNL A   1      38.026  22.139  25.291  1.00  0.00     0.274 C 
ENDROOT
BRANCH   1   2
ATOM      2  O   UNL A   1      36.859  22.278  26.122  1.00  0.00    -0.461 OA
BRANCH   2   3
ATOM      3  C   UNL A   1      35.723  22.491  25.416  1.00  0.00     0.325 C 
ATOM      4  O   UNL A   1      34.833  21.658  25.260  1.00  0.00    -0.250 OA
BRANCH   3   5
ATOM      5  C   UNL A   1      35.530  23.921  24.964  1.00  0.00     0.239 C 
BRANCH   5   6
ATOM      6  N   UNL A   1      34.729  24.320  23.830  1.00  0.00    -0.341 N 
ATOM      7  C   UNL A   1      33.389  24.623  23.766  1.00  0.00     0.253 C 
ATOM      8  O   UNL A   1      33.002  25.244  22.772  1.00  0.00    -0.269 OA
ATOM      9  H   UNL A   1      35.214  24.385  22.976  1.00  0.00     0.164 HD
BRANCH   7  10
ATOM     10  C   UNL A   1      32.357  24.081  24.710  1.00  0.00     0.063 A 
ATOM     11  C   UNL A   1      31.764  24.682  25.841  1.00  0.00     0.051 A 
ATOM     12  C   UNL A   1      30.906  23.885  26.639  1.00  0.00     0.027 A 
ATOM     13  C   UNL A   1      30.561  22.578  26.292  1.00  0.00     0.002 A 
ATOM     14  C   UNL A   1      31.964  22.765  24.358  1.00  0.00     0.016 A 
ATOM     15  C   UNL A   1      31.068  22.027  25.129  1.00  0.00     0.001 A 
BRANCH  11  16
ATOM     16  N   UNL A   1      31.818  26.036  26.232  1.00  0.00    -0.352 N 
ATOM     17  H   UNL A   1      32.185  26.158  27.138  1.00  0.00     0.167 HD
BRANCH  16  18
ATOM     18  C   UNL A   1      31.462  27.260  25.613  1.00  0.00     0.077 A 
ATOM     19  C   UNL A   1      29.447  28.760  22.706  1.00  0.00     0.046 C 
ATOM     20  C   UNL A   1      30.393  28.611  23.865  1.00  0.00    -0.030 A 
ATOM     21  C   UNL A   1      31.109  29.736  24.294  1.00  0.00     0.006 A 
ATOM     22  C   UNL A   1      30.548  27.384  24.548  1.00  0.00     0.069 A 
ATOM     23  C   UNL A   1      31.942  29.656  25.400  1.00  0.00     0.023 A 
ATOM     24  Cl  UNL A   1      29.461  26.082  24.157  1.00  0.00    -0.082 Cl
ATOM     25  C   UNL A   1      32.122  28.436  26.045  1.00  0.00     0.066 A 
ATOM     26  Cl  UNL A   1      33.216  28.396  27.392  1.00  0.00    -0.082 Cl
ENDBRANCH  16  18
ENDBRANCH  11  16
ENDBRANCH   7  10
ENDBRANCH   5   6
ENDBRANCH   3   5
ENDBRANCH   2   3
ENDBRANCH   1   2
BRANCH   1  27
ATOM     27  C   UNL A   1      39.297  22.054  26.139  1.00  0.00     0.275 C 
BRANCH  27  28
ATOM     28  O   UNL A   1      39.401  23.154  27.070  1.00  0.00    -0.458 OA
BRANCH  28  29
ATOM     29  C   UNL A   1      40.452  23.984  26.877  1.00  0.00     0.338 C 
ATOM     30  O   UNL A   1      41.449  23.755  26.202  1.00  0.00    -0.246 OA
BRANCH  29  31
ATOM     31  C   UNL A   1      40.291  25.246  27.625  1.00  0.00     0.060 A 
ATOM     32  C   UNL A   1      41.158  26.318  27.430  1.00  0.00     0.016 A 
ATOM     33  C   UNL A   1      39.337  25.307  28.644  1.00  0.00     0.016 A 
ATOM     34  C   UNL A   1      41.120  27.409  28.313  1.00  0.00     0.010 A 
ATOM     35  C   UNL A   1      39.258  26.437  29.472  1.00  0.00     0.010 A 
ATOM     36  C   UNL A   1      40.184  27.488  29.360  1.00  0.00    -0.014 A 
BRANCH  36  37
ATOM     37  C   UNL A   1      40.197  28.604  30.374  1.00  0.00     0.031 A 
ATOM     38  C   UNL A   1      41.230  28.620  31.486  1.00  0.00     0.074 A 
ATOM     39  C   UNL A   1      39.314  29.624  30.338  1.00  0.00     0.049 A 
ATOM     40  N   UNL A   1      41.244  29.317  32.599  1.00  0.00    -0.248 NA
ATOM     41  C   UNL A   1      42.386  27.722  31.337  1.00  0.00     0.031 C 
ATOM     42  C   UNL A   1      38.281  29.831  29.325  1.00  0.00     0.029 A 
ATOM     43  N   UNL A   1      39.152  30.696  31.191  1.00  0.00    -0.354 N 
ATOM     44  C   UNL A   1      42.343  28.864  33.324  1.00  0.00     0.074 A 
ATOM     45  C   UNL A   1      42.989  27.855  32.511  1.00  0.00     0.031 C 
ATOM     46  C   UNL A   1      37.640  30.982  29.574  1.00  0.00     0.029 A 
ATOM     47  C   UNL A   1      38.125  31.540  30.832  1.00  0.00     0.049 A 
ATOM     48  H   UNL A   1      39.718  30.843  31.983  1.00  0.00     0.167 HD
ATOM     49  C   UNL A   1      42.770  29.236  34.558  1.00  0.00     0.031 A 
ATOM     50  C   UNL A   1      37.580  32.604  31.457  1.00  0.00     0.031 A 
ATOM     51  C   UNL A   1      42.196  30.303  35.338  1.00  0.00     0.049 A 
ATOM     52  C   UNL A   1      38.068  33.018  32.814  1.00  0.00     0.074 A 
ATOM     53  C   UNL A   1      42.584  30.758  36.589  1.00  0.00     0.029 A 
ATOM     54  N   UNL A   1      41.140  31.103  34.938  1.00  0.00    -0.354 N 
ATOM     55  N   UNL A   1      39.027  32.496  33.538  1.00  0.00    -0.248 NA
ATOM     56  C   UNL A   1      37.374  34.147  33.455  1.00  0.00     0.031 C 
ATOM     57  C   UNL A   1      41.740  31.813  36.958  1.00  0.00     0.029 A 
ATOM     58  C   UNL A   1      40.858  32.044  35.917  1.00  0.00     0.049 A 
ATOM     59  H   UNL A   1      40.660  31.017  34.082  1.00  0.00     0.167 HD
ATOM     60  C   UNL A   1      39.042  33.221  34.725  1.00  0.00     0.074 A 
ATOM     61  C   UNL A   1      38.019  34.240  34.610  1.00  0.00     0.031 C 
ATOM     62  C   UNL A   1      39.829  33.045  35.814  1.00  0.00     0.031 A 
BRANCH  49  63
ATOM     63  C   UNL A   1      43.883  28.433  35.182  1.00  0.00    -0.014 A 
ATOM     64  C   UNL A   1      45.237  28.757  34.993  1.00  0.00     0.010 A 
ATOM     65  C   UNL A   1      43.549  27.344  36.011  1.00  0.00     0.010 A 
ATOM     66  C   UNL A   1      46.237  27.973  35.580  1.00  0.00     0.020 A 
ATOM     67  C   UNL A   1      44.544  26.576  36.620  1.00  0.00     0.020 A 
ATOM     68  C   UNL A   1      45.884  26.883  36.382  1.00  0.00     0.054 A 
BRANCH  68  69
ATOM     69  S   UNL A   1      47.196  25.880  37.134  1.00  0.00     0.124 S 
ATOM     70  O   UNL A   1      48.399  26.558  36.658  1.00  0.00    -0.237 OA
ATOM     71  O   UNL A   1      46.925  26.011  38.563  1.00  0.00    -0.237 OA
ATOM     72  O   UNL A   1      46.972  24.547  36.581  1.00  0.00    -0.744 OA
ENDBRANCH  68  69
ENDBRANCH  49  63
BRANCH  50  73
ATOM     73  C   UNL A   1      36.438  33.309  30.813  1.00  0.00    -0.014 A 
ATOM     74  C   UNL A   1      35.239  33.519  31.513  1.00  0.00     0.010 A 
ATOM     75  C   UNL A   1      36.580  33.842  29.518  1.00  0.00     0.010 A 
ATOM     76  C   UNL A   1      34.212  34.277  30.942  1.00  0.00     0.020 A 
ATOM     77  C   UNL A   1      35.568  34.624  28.956  1.00  0.00     0.020 A 
ATOM     78  C   UNL A   1      34.390  34.838  29.674  1.00  0.00     0.054 A 
BRANCH  78  79
ATOM     79  S   UNL A   1      33.113  35.940  29.007  1.00  0.00     0.124 S 
ATOM     80  O   UNL A   1      32.334  35.032  28.172  1.00  0.00    -0.237 OA
ATOM     81  O   UNL A   1      32.444  36.423  30.213  1.00  0.00    -0.237 OA
ATOM     82  O   UNL A   1      33.883  36.953  28.288  1.00  0.00    -0.744 OA
ENDBRANCH  78  79
ENDBRANCH  50  73
BRANCH  62  83
ATOM     83  C   UNL A   1      39.624  33.981  36.975  1.00  0.00    -0.014 A 
ATOM     84  C   UNL A   1      38.891  33.580  38.106  1.00  0.00     0.010 A 
ATOM     85  C   UNL A   1      40.202  35.263  36.952  1.00  0.00     0.010 A 
ATOM     86  C   UNL A   1      38.713  34.457  39.181  1.00  0.00     0.020 A 
ATOM     87  C   UNL A   1      40.041  36.136  38.031  1.00  0.00     0.020 A 
ATOM     88  C   UNL A   1      39.284  35.732  39.134  1.00  0.00     0.054 A 
BRANCH  88  89
ATOM     89  S   UNL A   1      39.062  36.846  40.550  1.00  0.00     0.124 S 
ATOM     90  O   UNL A   1      38.544  38.051  39.909  1.00  0.00    -0.237 OA
ATOM     91  O   UNL A   1      38.109  36.121  41.386  1.00  0.00    -0.237 OA
ATOM     92  O   UNL A   1      40.407  36.965  41.110  1.00  0.00    -0.744 OA
ENDBRANCH  88  89
ENDBRANCH  62  83
ENDBRANCH  36  37
ENDBRANCH  29  31
ENDBRANCH  28  29
ENDBRANCH  27  28
ENDBRANCH   1  27
TORSDOF 18
ENDMDL
MODEL 3
REMARK VINA RESULT:     -10.7      6.098     11.331
REMARK SMILES Cc1ccc(Cl)c(Nc2ccccc2C(=O)NCC(=O)OCCOC(=O)c2ccc(-c3c4nc(c(-c5ccc(S(=O)(=O)[O-])cc5)c5ccc([nH]5)c(-c5ccc(S(=O)(=O)[O-])cc5)c5nc(c(-c6ccc(S(=O)(=O)[O-])cc6)c6ccc3[nH]6)C=C5)C=C4)cc2)c1Cl
REMARK SMILES IDX 22 1 21 2 19 3 20 4 18 5 17 6 15 7 16 8 14 10 9 11 10 12
REMARK SMILES IDX 11 13 13 14 12 15 8 16 7 18 1 19 2 20 3 21 87 22 4 23 88 24
REMARK SMILES IDX 5 25 6 26 23 27 24 28 25 29 26 30 27 31 28 32 86 33 29 34
REMARK SMILES IDX 85 35 30 36 31 37 32 38 79 39 33 40 84 41 78 42 80 43 34 44
REMARK SMILES IDX 83 45 77 46 76 47 35 49 65 50 46 51 64 52 47 53 50 54 63 55
REMARK SMILES IDX 81 56 48 57 49 58 62 60 82 61 51 62 36 63 37 64 45 65 38 66
REMARK SMILES IDX 44 67 39 68 40 69 41 70 42 71 43 72 66 73 67 74 75 75 68 76
REMARK SMILES IDX 74 77 69 78 70 79 71 80 72 81 73 82 52 83 53 84 61 85 54 86
REMARK SMILES IDX 60 87 55 88 56 89 57 90 58 91 59 92
REMARK H PARENT 17 9 8 17 80 48 50 59
REMARK Flexibility Score: inf
ROOT
ATOM      1  C   UNL A   1      37.630  22.422  25.700  1.00  0.00     0.274 C 
ENDROOT
BRANCH   1   2
ATOM      2  O   UNL A   1      36.606  23.389  25.404  1.00  0.00    -0.461 OA
BRANCH   2   3
ATOM      3  C   UNL A   1      36.125  23.287  24.141  1.00  0.00     0.325 C 
ATOM      4  O   UNL A   1      36.518  22.471  23.310  1.00  0.00    -0.250 OA
BRANCH   3   5
ATOM      5  C   UNL A   1      34.914  24.149  23.864  1.00  0.00     0.239 C 
BRANCH   5   6
ATOM      6  N   UNL A   1      34.327  24.340  22.557  1.00  0.00    -0.341 N 
ATOM      7  C   UNL A   1      33.284  25.150  22.174  1.00  0.00     0.253 C 
ATOM      8  O   UNL A   1      33.175  25.389  20.968  1.00  0.00    -0.269 OA
ATOM      9  H   UNL A   1      34.734  23.810  21.833  1.00  0.00     0.164 HD
BRANCH   7  10
ATOM     10  C   UNL A   1      32.177  25.585  23.088  1.00  0.00     0.063 A 
ATOM     11  C   UNL A   1      31.190  24.815  23.740  1.00  0.00     0.051 A 
ATOM     12  C   UNL A   1      30.174  25.505  24.447  1.00  0.00     0.027 A 
ATOM     13  C   UNL A   1      30.176  26.892  24.595  1.00  0.00     0.002 A 
ATOM     14  C   UNL A   1      32.179  26.988  23.283  1.00  0.00     0.016 A 
ATOM     15  C   UNL A   1      31.201  27.634  24.037  1.00  0.00     0.001 A 
BRANCH  11  16
ATOM     16  N   UNL A   1      31.138  23.413  23.885  1.00  0.00    -0.352 N 
ATOM     17  H   UNL A   1      30.343  23.013  23.463  1.00  0.00     0.167 HD
BRANCH  16  18
ATOM     18  C   UNL A   1      31.976  22.450  24.501  1.00  0.00     0.077 A 
ATOM     19  C   UNL A   1      34.020  21.741  27.676  1.00  0.00     0.046 C 
ATOM     20  C   UNL A   1      33.452  21.641  26.288  1.00  0.00    -0.030 A 
ATOM     21  C   UNL A   1      33.886  20.598  25.460  1.00  0.00     0.006 A 
ATOM     22  C   UNL A   1      32.474  22.544  25.816  1.00  0.00     0.069 A 
ATOM     23  C   UNL A   1      33.338  20.433  24.196  1.00  0.00     0.023 A 
ATOM     24  Cl  UNL A   1      31.772  23.664  26.950  1.00  0.00    -0.082 Cl
ATOM     25  C   UNL A   1      32.404  21.348  23.721  1.00  0.00     0.066 A 
ATOM     26  Cl  UNL A   1      31.795  21.110  22.113  1.00  0.00    -0.082 Cl
ENDBRANCH  16  18
ENDBRANCH  11  16
ENDBRANCH   7  10
ENDBRANCH   5   6
ENDBRANCH   3   5
ENDBRANCH   2   3
ENDBRANCH   1   2
BRANCH   1  27
ATOM     27  C   UNL A   1      38.776  23.062  26.486  1.00  0.00     0.275 C 
BRANCH  27  28
ATOM     28  O   UNL A   1      38.600  24.488  26.639  1.00  0.00    -0.458 OA
BRANCH  28  29
ATOM     29  C   UNL A   1      39.739  25.208  26.753  1.00  0.00     0.338 C 
ATOM     30  O   UNL A   1      40.789  25.014  26.151  1.00  0.00    -0.246 OA
BRANCH  29  31
ATOM     31  C   UNL A   1      39.600  26.288  27.749  1.00  0.00     0.060 A 
ATOM     32  C   UNL A   1      40.035  27.584  27.476  1.00  0.00     0.016 A 
ATOM     33  C   UNL A   1      39.153  25.967  29.032  1.00  0.00     0.016 A 
ATOM     34  C   UNL A   1      40.100  28.525  28.515  1.00  0.00     0.010 A 
ATOM     35  C   UNL A   1      39.150  26.939  30.044  1.00  0.00     0.010 A 
ATOM     36  C   UNL A   1      39.676  28.223  29.822  1.00  0.00    -0.014 A 
BRANCH  36  37
ATOM     37  C   UNL A   1      39.833  29.191  30.967  1.00  0.00     0.031 A 
ATOM     38  C   UNL A   1      41.059  29.135  31.860  1.00  0.00     0.074 A 
ATOM     39  C   UNL A   1      38.912  30.140  31.244  1.00  0.00     0.049 A 
ATOM     40  N   UNL A   1      41.255  29.676  33.040  1.00  0.00    -0.248 NA
ATOM     41  C   UNL A   1      42.205  28.352  31.370  1.00  0.00     0.031 C 
ATOM     42  C   UNL A   1      37.694  30.404  30.480  1.00  0.00     0.029 A 
ATOM     43  N   UNL A   1      38.868  31.074  32.258  1.00  0.00    -0.354 N 
ATOM     44  C   UNL A   1      42.494  29.212  33.476  1.00  0.00     0.074 A 
ATOM     45  C   UNL A   1      43.016  28.371  32.420  1.00  0.00     0.031 C 
ATOM     46  C   UNL A   1      37.061  31.461  31.007  1.00  0.00     0.029 A 
ATOM     47  C   UNL A   1      37.754  31.880  32.222  1.00  0.00     0.049 A 
ATOM     48  H   UNL A   1      39.569  31.155  32.945  1.00  0.00     0.167 HD
ATOM     49  C   UNL A   1      43.133  29.446  34.650  1.00  0.00     0.031 A 
ATOM     50  C   UNL A   1      37.290  32.808  33.084  1.00  0.00     0.031 A 
ATOM     51  C   UNL A   1      42.672  30.355  35.670  1.00  0.00     0.049 A 
ATOM     52  C   UNL A   1      38.012  33.072  34.374  1.00  0.00     0.074 A 
ATOM     53  C   UNL A   1      43.273  30.665  36.880  1.00  0.00     0.029 A 
ATOM     54  N   UNL A   1      41.522  31.121  35.592  1.00  0.00    -0.354 N 
ATOM     55  N   UNL A   1      39.116  32.529  34.824  1.00  0.00    -0.248 NA
ATOM     56  C   UNL A   1      37.403  34.051  35.288  1.00  0.00     0.031 C 
ATOM     57  C   UNL A   1      42.468  31.597  37.547  1.00  0.00     0.029 A 
ATOM     58  C   UNL A   1      41.391  31.899  36.732  1.00  0.00     0.049 A 
ATOM     59  H   UNL A   1      40.890  31.115  34.837  1.00  0.00     0.167 HD
ATOM     60  C   UNL A   1      39.326  33.089  36.080  1.00  0.00     0.074 A 
ATOM     61  C   UNL A   1      38.254  34.036  36.306  1.00  0.00     0.031 C 
ATOM     62  C   UNL A   1      40.317  32.827  36.968  1.00  0.00     0.031 A 
BRANCH  49  63
ATOM     63  C   UNL A   1      44.382  28.651  34.935  1.00  0.00    -0.014 A 
ATOM     64  C   UNL A   1      45.668  29.185  34.749  1.00  0.00     0.010 A 
ATOM     65  C   UNL A   1      44.250  27.342  35.437  1.00  0.00     0.010 A 
ATOM     66  C   UNL A   1      46.800  28.404  35.012  1.00  0.00     0.020 A 
ATOM     67  C   UNL A   1      45.377  26.569  35.726  1.00  0.00     0.020 A 
ATOM     68  C   UNL A   1      46.647  27.098  35.489  1.00  0.00     0.054 A 
BRANCH  68  69
ATOM     69  S   UNL A   1      48.126  26.102  35.824  1.00  0.00     0.124 S 
ATOM     70  O   UNL A   1      49.063  26.617  34.829  1.00  0.00    -0.237 OA
ATOM     71  O   UNL A   1      48.437  26.439  37.211  1.00  0.00    -0.237 OA
ATOM     72  O   UNL A   1      47.676  24.730  35.606  1.00  0.00    -0.744 OA
ENDBRANCH  68  69
ENDBRANCH  49  63
BRANCH  50  73
ATOM     73  C   UNL A   1      36.014  33.507  32.772  1.00  0.00    -0.014 A 
ATOM     74  C   UNL A   1      34.895  33.363  33.608  1.00  0.00     0.010 A 
ATOM     75  C   UNL A   1      35.943  34.385  31.674  1.00  0.00     0.010 A 
ATOM     76  C   UNL A   1      33.736  34.107  33.369  1.00  0.00     0.020 A 
ATOM     77  C   UNL A   1      34.797  35.151  31.449  1.00  0.00     0.020 A 
ATOM     78  C   UNL A   1      33.700  35.009  32.301  1.00  0.00     0.054 A 
BRANCH  78  79
ATOM     79  S   UNL A   1      32.248  36.076  32.092  1.00  0.00     0.124 S 
ATOM     80  O   UNL A   1      32.541  37.171  33.010  1.00  0.00    -0.237 OA
ATOM     81  O   UNL A   1      32.299  36.411  30.670  1.00  0.00    -0.237 OA
ATOM     82  O   UNL A   1      31.135  35.211  32.477  1.00  0.00    -0.744 OA
ENDBRANCH  78  79
ENDBRANCH  50  73
BRANCH  62  83
ATOM     83  C   UNL A   1      40.297  33.582  38.270  1.00  0.00    -0.014 A 
ATOM     84  C   UNL A   1      40.864  34.864  38.371  1.00  0.00     0.010 A 
ATOM     85  C   UNL A   1      39.672  33.017  39.397  1.00  0.00     0.010 A 
ATOM     86  C   UNL A   1      40.833  35.558  39.585  1.00  0.00     0.020 A 
ATOM     87  C   UNL A   1      39.623  33.715  40.607  1.00  0.00     0.020 A 
ATOM     88  C   UNL A   1      40.218  34.975  40.698  1.00  0.00     0.054 A 
BRANCH  88  89
ATOM     89  S   UNL A   1      40.167  35.902  42.258  1.00  0.00     0.124 S 
ATOM     90  O   UNL A   1      39.344  35.036  43.098  1.00  0.00    -0.237 OA
ATOM     91  O   UNL A   1      41.577  35.984  42.632  1.00  0.00    -0.237 OA
ATOM     92  O   UNL A   1      39.554  37.175  41.884  1.00  0.00    -0.744 OA
ENDBRANCH  88  89
ENDBRANCH  62  83
ENDBRANCH  36  37
ENDBRANCH  29  31
ENDBRANCH  28  29
ENDBRANCH  27  28
ENDBRANCH   1  27
TORSDOF 18
ENDMDL
