MODEL 1
REMARK VINA RESULT:     -10.7      0.000      0.000
REMARK SMILES O=C(C[C@H]1C[C@H]2CC[C@@H](C1)[N@H+]2[C@@H]1CCCSC1)OCCOC(=O)c1ccc(-c2c3nc(c(-c4ccc(S(=O)(=O)[O-])cc4)c4ccc([nH]4)c(-c4ccc(S(=O)(=O)[O-])cc4)c4nc(c(-c5ccc(S(=O)(=O)[O-])cc5)c5ccc2[nH]5)C=C4)C=C3)cc1
REMARK SMILES IDX 20 1 19 2 18 3 2 4 1 5 3 6 4 7 5 8 10 9 6 10 9 11 7 12 11 13
REMARK SMILES IDX 8 14 12 16 13 17 17 18 14 19 16 20 15 21 21 22 22 23 23 24
REMARK SMILES IDX 24 25 25 26 83 27 26 28 82 29 27 30 28 31 29 32 76 33 30 34
REMARK SMILES IDX 81 35 75 36 77 37 31 38 80 39 74 40 73 41 32 43 62 44 43 45
REMARK SMILES IDX 61 46 44 47 47 48 60 49 78 50 45 51 46 52 59 54 79 55 48 56
REMARK SMILES IDX 33 57 34 58 42 59 35 60 41 61 36 62 37 63 38 64 39 65 40 66
REMARK SMILES IDX 63 67 64 68 72 69 65 70 71 71 66 72 67 73 68 74 69 75 70 76
REMARK SMILES IDX 49 77 50 78 58 79 51 80 57 81 52 82 53 83 54 84 55 85 56 86
REMARK H PARENT 11 15 77 42 47 53
REMARK Flexibility Score: inf
ROOT
ATOM      1  C   UNL A   1      35.397  30.859  27.925  1.00  0.00     0.275 C 
ENDROOT
BRANCH   1   2
ATOM      2  C   UNL A   1      33.893  30.843  27.616  1.00  0.00     0.274 C 
BRANCH   2   3
ATOM      3  O   UNL A   1      33.611  30.230  26.352  1.00  0.00    -0.462 OA
BRANCH   3   4
ATOM      4  C   UNL A   1      32.334  29.775  26.232  1.00  0.00     0.306 C 
ATOM      5  O   UNL A   1      31.543  30.232  25.418  1.00  0.00    -0.252 OA
BRANCH   4   6
ATOM      6  C   UNL A   1      31.976  28.750  27.284  1.00  0.00     0.126 C 
BRANCH   6   7
ATOM      7  C   UNL A   1      32.106  27.288  26.833  1.00  0.00     0.012 C 
ATOM      8  C   UNL A   1      30.950  26.854  25.895  1.00  0.00     0.069 C 
ATOM      9  C   UNL A   1      33.529  27.029  26.281  1.00  0.00     0.069 C 
ATOM     10  C   UNL A   1      31.323  26.047  24.642  1.00  0.00     0.185 C 
ATOM     11  C   UNL A   1      33.594  26.308  24.928  1.00  0.00     0.185 C 
ATOM     12  C   UNL A   1      31.741  27.002  23.518  1.00  0.00     0.071 C 
ATOM     13  N   UNL A   1      32.559  25.301  24.764  1.00  0.00    -0.327 N 
ATOM     14  C   UNL A   1      33.214  27.278  23.802  1.00  0.00     0.071 C 
ATOM     15  H   UNL A   1      32.755  24.755  23.924  1.00  0.00     0.348 HD
BRANCH  13  16
ATOM     16  C   UNL A   1      32.597  24.012  25.451  1.00  0.00     0.194 C 
ATOM     17  C   UNL A   1      33.842  23.736  26.310  1.00  0.00     0.067 C 
ATOM     18  C   UNL A   1      32.318  22.882  24.432  1.00  0.00     0.134 C 
ATOM     19  C   UNL A   1      33.846  22.382  27.017  1.00  0.00     0.017 C 
ATOM     20  S   UNL A   1      32.155  21.244  25.205  1.00  0.00    -0.156 SA
ATOM     21  C   UNL A   1      33.757  21.216  26.045  1.00  0.00     0.070 C 
ENDBRANCH  13  16
ENDBRANCH   6   7
ENDBRANCH   4   6
ENDBRANCH   3   4
ENDBRANCH   2   3
ENDBRANCH   1   2
BRANCH   1  22
ATOM     22  O   UNL A   1      35.930  29.540  28.148  1.00  0.00    -0.458 OA
BRANCH  22  23
ATOM     23  C   UNL A   1      36.679  29.405  29.281  1.00  0.00     0.338 C 
ATOM     24  O   UNL A   1      36.266  29.363  30.421  1.00  0.00    -0.246 OA
BRANCH  23  25
ATOM     25  C   UNL A   1      38.089  29.123  28.911  1.00  0.00     0.060 A 
ATOM     26  C   UNL A   1      38.935  28.581  29.890  1.00  0.00     0.016 A 
ATOM     27  C   UNL A   1      38.568  29.337  27.618  1.00  0.00     0.016 A 
ATOM     28  C   UNL A   1      40.257  28.244  29.576  1.00  0.00     0.010 A 
ATOM     29  C   UNL A   1      39.893  29.005  27.309  1.00  0.00     0.010 A 
ATOM     30  C   UNL A   1      40.753  28.463  28.284  1.00  0.00    -0.014 A 
BRANCH  30  31
ATOM     31  C   UNL A   1      42.203  28.304  27.982  1.00  0.00     0.031 A 
ATOM     32  C   UNL A   1      43.107  29.489  28.199  1.00  0.00     0.074 A 
ATOM     33  C   UNL A   1      42.729  27.162  27.498  1.00  0.00     0.049 A 
ATOM     34  N   UNL A   1      44.381  29.623  27.934  1.00  0.00    -0.248 NA
ATOM     35  C   UNL A   1      42.478  30.689  28.773  1.00  0.00     0.031 C 
ATOM     36  C   UNL A   1      41.995  25.925  27.242  1.00  0.00     0.029 A 
ATOM     37  N   UNL A   1      44.019  26.867  27.117  1.00  0.00    -0.354 N 
ATOM     38  C   UNL A   1      44.696  30.932  28.275  1.00  0.00     0.074 A 
ATOM     39  C   UNL A   1      43.474  31.558  28.732  1.00  0.00     0.031 C 
ATOM     40  C   UNL A   1      42.841  25.010  26.733  1.00  0.00     0.029 A 
ATOM     41  C   UNL A   1      44.175  25.599  26.610  1.00  0.00     0.049 A 
ATOM     42  H   UNL A   1      44.763  27.507  27.200  1.00  0.00     0.167 HD
ATOM     43  C   UNL A   1      45.893  31.564  28.228  1.00  0.00     0.031 A 
ATOM     44  C   UNL A   1      45.260  24.982  26.094  1.00  0.00     0.031 A 
ATOM     45  C   UNL A   1      47.119  30.959  27.795  1.00  0.00     0.049 A 
ATOM     46  C   UNL A   1      46.586  25.701  26.039  1.00  0.00     0.074 A 
ATOM     47  C   UNL A   1      48.385  31.514  27.762  1.00  0.00     0.029 A 
ATOM     48  N   UNL A   1      47.234  29.664  27.315  1.00  0.00    -0.354 N 
ATOM     49  N   UNL A   1      46.878  26.921  26.424  1.00  0.00    -0.248 NA
ATOM     50  C   UNL A   1      47.732  24.957  25.492  1.00  0.00     0.031 C 
ATOM     51  C   UNL A   1      49.262  30.567  27.222  1.00  0.00     0.029 A 
ATOM     52  C   UNL A   1      48.546  29.408  26.964  1.00  0.00     0.049 A 
ATOM     53  H   UNL A   1      46.491  29.023  27.236  1.00  0.00     0.167 HD
ATOM     54  C   UNL A   1      48.243  27.077  26.193  1.00  0.00     0.074 A 
ATOM     55  C   UNL A   1      48.721  25.829  25.638  1.00  0.00     0.031 C 
ATOM     56  C   UNL A   1      49.025  28.158  26.428  1.00  0.00     0.031 A 
BRANCH  43  57
ATOM     57  C   UNL A   1      45.899  33.011  28.631  1.00  0.00    -0.014 A 
ATOM     58  C   UNL A   1      46.111  33.392  29.969  1.00  0.00     0.010 A 
ATOM     59  C   UNL A   1      45.637  33.997  27.665  1.00  0.00     0.010 A 
ATOM     60  C   UNL A   1      45.978  34.729  30.347  1.00  0.00     0.020 A 
ATOM     61  C   UNL A   1      45.532  35.339  28.035  1.00  0.00     0.020 A 
ATOM     62  C   UNL A   1      45.670  35.691  29.380  1.00  0.00     0.054 A 
BRANCH  62  63
ATOM     63  S   UNL A   1      45.446  37.413  29.900  1.00  0.00     0.124 S 
ATOM     64  O   UNL A   1      46.337  38.119  28.983  1.00  0.00    -0.237 OA
ATOM     65  O   UNL A   1      44.018  37.635  29.684  1.00  0.00    -0.237 OA
ATOM     66  O   UNL A   1      45.867  37.407  31.299  1.00  0.00    -0.744 OA
ENDBRANCH  62  63
ENDBRANCH  43  57
BRANCH  44  67
ATOM     67  C   UNL A   1      45.146  23.587  25.584  1.00  0.00    -0.014 A 
ATOM     68  C   UNL A   1      44.772  23.342  24.253  1.00  0.00     0.010 A 
ATOM     69  C   UNL A   1      45.414  22.497  26.433  1.00  0.00     0.010 A 
ATOM     70  C   UNL A   1      44.662  22.031  23.777  1.00  0.00     0.020 A 
ATOM     71  C   UNL A   1      45.326  21.186  25.955  1.00  0.00     0.020 A 
ATOM     72  C   UNL A   1      44.943  20.961  24.632  1.00  0.00     0.054 A 
BRANCH  72  73
ATOM     73  S   UNL A   1      44.862  19.271  23.974  1.00  0.00     0.124 S 
ATOM     74  O   UNL A   1      46.245  18.824  24.113  1.00  0.00    -0.237 OA
ATOM     75  O   UNL A   1      43.897  18.632  24.866  1.00  0.00    -0.237 OA
ATOM     76  O   UNL A   1      44.398  19.462  22.602  1.00  0.00    -0.744 OA
ENDBRANCH  72  73
ENDBRANCH  44  67
BRANCH  56  77
ATOM     77  C   UNL A   1      50.499  28.056  26.133  1.00  0.00    -0.014 A 
ATOM     78  C   UNL A   1      51.406  27.593  27.100  1.00  0.00     0.010 A 
ATOM     79  C   UNL A   1      50.960  28.308  24.826  1.00  0.00     0.010 A 
ATOM     80  C   UNL A   1      52.749  27.382  26.767  1.00  0.00     0.020 A 
ATOM     81  C   UNL A   1      52.296  28.078  24.484  1.00  0.00     0.020 A 
ATOM     82  C   UNL A   1      53.184  27.618  25.458  1.00  0.00     0.054 A 
BRANCH  82  83
ATOM     83  S   UNL A   1      54.905  27.241  25.023  1.00  0.00     0.124 S 
ATOM     84  O   UNL A   1      55.438  28.565  24.711  1.00  0.00    -0.237 OA
ATOM     85  O   UNL A   1      55.420  26.629  26.245  1.00  0.00    -0.237 OA
ATOM     86  O   UNL A   1      54.783  26.335  23.883  1.00  0.00    -0.744 OA
ENDBRANCH  82  83
ENDBRANCH  56  77
ENDBRANCH  30  31
ENDBRANCH  23  25
ENDBRANCH  22  23
ENDBRANCH   1  22
TORSDOF 16
ENDMDL
MODEL 2
REMARK VINA RESULT:     -10.6      7.175     12.921
REMARK SMILES O=C(C[C@H]1C[C@H]2CC[C@@H](C1)[N@H+]2[C@@H]1CCCSC1)OCCOC(=O)c1ccc(-c2c3nc(c(-c4ccc(S(=O)(=O)[O-])cc4)c4ccc([nH]4)c(-c4ccc(S(=O)(=O)[O-])cc4)c4nc(c(-c5ccc(S(=O)(=O)[O-])cc5)c5ccc2[nH]5)C=C4)C=C3)cc1
REMARK SMILES IDX 20 1 19 2 18 3 2 4 1 5 3 6 4 7 5 8 10 9 6 10 9 11 7 12 11 13
REMARK SMILES IDX 8 14 12 16 13 17 17 18 14 19 16 20 15 21 21 22 22 23 23 24
REMARK SMILES IDX 24 25 25 26 83 27 26 28 82 29 27 30 28 31 29 32 76 33 30 34
REMARK SMILES IDX 81 35 75 36 77 37 31 38 80 39 74 40 73 41 32 43 62 44 43 45
REMARK SMILES IDX 61 46 44 47 47 48 60 49 78 50 45 51 46 52 59 54 79 55 48 56
REMARK SMILES IDX 33 57 34 58 42 59 35 60 41 61 36 62 37 63 38 64 39 65 40 66
REMARK SMILES IDX 63 67 64 68 72 69 65 70 71 71 66 72 67 73 68 74 69 75 70 76
REMARK SMILES IDX 49 77 50 78 58 79 51 80 57 81 52 82 53 83 54 84 55 85 56 86
REMARK H PARENT 11 15 77 42 47 53
REMARK Flexibility Score: inf
ROOT
ATOM      1  C   UNL A   1      40.022  23.283  27.139  1.00  0.00     0.275 C 
ENDROOT
BRANCH   1   2
ATOM      2  C   UNL A   1      39.433  22.196  26.229  1.00  0.00     0.274 C 
BRANCH   2   3
ATOM      3  O   UNL A   1      38.124  22.541  25.759  1.00  0.00    -0.462 OA
BRANCH   3   4
ATOM      4  C   UNL A   1      37.351  21.468  25.440  1.00  0.00     0.306 C 
ATOM      5  O   UNL A   1      37.800  20.466  24.899  1.00  0.00    -0.252 OA
BRANCH   4   6
ATOM      6  C   UNL A   1      35.883  21.703  25.711  1.00  0.00     0.126 C 
BRANCH   6   7
ATOM      7  C   UNL A   1      35.341  23.052  25.215  1.00  0.00     0.012 C 
ATOM      8  C   UNL A   1      35.282  23.133  23.668  1.00  0.00     0.069 C 
ATOM      9  C   UNL A   1      34.013  23.386  25.938  1.00  0.00     0.069 C 
ATOM     10  C   UNL A   1      34.009  23.720  23.039  1.00  0.00     0.185 C 
ATOM     11  C   UNL A   1      32.857  23.828  25.032  1.00  0.00     0.185 C 
ATOM     12  C   UNL A   1      32.940  22.627  22.921  1.00  0.00     0.071 C 
ATOM     13  N   UNL A   1      33.289  24.634  23.902  1.00  0.00    -0.327 N 
ATOM     14  C   UNL A   1      32.278  22.613  24.295  1.00  0.00     0.071 C 
ATOM     15  H   UNL A   1      32.469  25.026  23.437  1.00  0.00     0.348 HD
BRANCH  13  16
ATOM     16  C   UNL A   1      33.711  26.027  24.042  1.00  0.00     0.194 C 
ATOM     17  C   UNL A   1      33.332  26.722  25.362  1.00  0.00     0.067 C 
ATOM     18  C   UNL A   1      33.254  26.826  22.799  1.00  0.00     0.134 C 
ATOM     19  C   UNL A   1      33.791  28.174  25.475  1.00  0.00     0.017 C 
ATOM     20  S   UNL A   1      33.882  28.532  22.773  1.00  0.00    -0.156 SA
ATOM     21  C   UNL A   1      33.221  29.054  24.374  1.00  0.00     0.070 C 
ENDBRANCH  13  16
ENDBRANCH   6   7
ENDBRANCH   4   6
ENDBRANCH   3   4
ENDBRANCH   2   3
ENDBRANCH   1   2
BRANCH   1  22
ATOM     22  O   UNL A   1      39.310  24.531  27.044  1.00  0.00    -0.458 OA
BRANCH  22  23
ATOM     23  C   UNL A   1      40.093  25.624  26.804  1.00  0.00     0.338 C 
ATOM     24  O   UNL A   1      40.645  25.905  25.761  1.00  0.00    -0.246 OA
BRANCH  23  25
ATOM     25  C   UNL A   1      40.025  26.544  27.967  1.00  0.00     0.060 A 
ATOM     26  C   UNL A   1      40.685  27.779  27.875  1.00  0.00     0.016 A 
ATOM     27  C   UNL A   1      39.291  26.232  29.112  1.00  0.00     0.016 A 
ATOM     28  C   UNL A   1      40.604  28.706  28.921  1.00  0.00     0.010 A 
ATOM     29  C   UNL A   1      39.217  27.159  30.160  1.00  0.00     0.010 A 
ATOM     30  C   UNL A   1      39.879  28.401  30.079  1.00  0.00    -0.014 A 
BRANCH  30  31
ATOM     31  C   UNL A   1      39.946  29.279  31.281  1.00  0.00     0.031 A 
ATOM     32  C   UNL A   1      41.061  29.050  32.266  1.00  0.00     0.074 A 
ATOM     33  C   UNL A   1      39.038  30.243  31.534  1.00  0.00     0.049 A 
ATOM     34  N   UNL A   1      41.284  29.626  33.419  1.00  0.00    -0.248 NA
ATOM     35  C   UNL A   1      42.043  28.015  31.905  1.00  0.00     0.031 C 
ATOM     36  C   UNL A   1      37.908  30.597  30.680  1.00  0.00     0.029 A 
ATOM     37  N   UNL A   1      38.922  31.094  32.609  1.00  0.00    -0.354 N 
ATOM     38  C   UNL A   1      42.409  28.997  33.937  1.00  0.00     0.074 A 
ATOM     39  C   UNL A   1      42.800  27.976  32.989  1.00  0.00     0.031 C 
ATOM     40  C   UNL A   1      37.204  31.582  31.269  1.00  0.00     0.029 A 
ATOM     41  C   UNL A   1      37.822  31.918  32.553  1.00  0.00     0.049 A 
ATOM     42  H   UNL A   1      39.568  31.112  33.353  1.00  0.00     0.167 HD
ATOM     43  C   UNL A   1      43.075  29.247  35.089  1.00  0.00     0.031 A 
ATOM     44  C   UNL A   1      37.357  32.830  33.433  1.00  0.00     0.031 A 
ATOM     45  C   UNL A   1      42.716  30.265  36.034  1.00  0.00     0.049 A 
ATOM     46  C   UNL A   1      38.102  33.092  34.718  1.00  0.00     0.074 A 
ATOM     47  C   UNL A   1      43.364  30.616  37.205  1.00  0.00     0.029 A 
ATOM     48  N   UNL A   1      41.610  31.092  35.922  1.00  0.00    -0.354 N 
ATOM     49  N   UNL A   1      39.201  32.529  35.163  1.00  0.00    -0.248 NA
ATOM     50  C   UNL A   1      37.552  34.121  35.617  1.00  0.00     0.031 C 
ATOM     51  C   UNL A   1      42.626  31.631  37.823  1.00  0.00     0.029 A 
ATOM     52  C   UNL A   1      41.545  31.941  37.012  1.00  0.00     0.049 A 
ATOM     53  H   UNL A   1      40.967  31.077  35.177  1.00  0.00     0.167 HD
ATOM     54  C   UNL A   1      39.487  33.156  36.374  1.00  0.00     0.074 A 
ATOM     55  C   UNL A   1      38.450  34.141  36.593  1.00  0.00     0.031 C 
ATOM     56  C   UNL A   1      40.521  32.934  37.221  1.00  0.00     0.031 A 
BRANCH  43  57
ATOM     57  C   UNL A   1      44.246  28.356  35.391  1.00  0.00    -0.014 A 
ATOM     58  C   UNL A   1      45.517  28.619  34.846  1.00  0.00     0.010 A 
ATOM     59  C   UNL A   1      44.056  27.214  36.186  1.00  0.00     0.010 A 
ATOM     60  C   UNL A   1      46.558  27.706  35.025  1.00  0.00     0.020 A 
ATOM     61  C   UNL A   1      45.105  26.314  36.391  1.00  0.00     0.020 A 
ATOM     62  C   UNL A   1      46.339  26.550  35.782  1.00  0.00     0.054 A 
BRANCH  62  63
ATOM     63  S   UNL A   1      47.686  25.351  35.955  1.00  0.00     0.124 S 
ATOM     64  O   UNL A   1      48.781  26.032  35.268  1.00  0.00    -0.237 OA
ATOM     65  O   UNL A   1      47.832  25.232  37.403  1.00  0.00    -0.237 OA
ATOM     66  O   UNL A   1      47.174  24.158  35.284  1.00  0.00    -0.744 OA
ENDBRANCH  62  63
ENDBRANCH  43  57
BRANCH  44  67
ATOM     67  C   UNL A   1      36.106  33.581  33.129  1.00  0.00    -0.014 A 
ATOM     68  C   UNL A   1      36.164  34.887  32.615  1.00  0.00     0.010 A 
ATOM     69  C   UNL A   1      34.850  32.987  33.351  1.00  0.00     0.010 A 
ATOM     70  C   UNL A   1      34.989  35.591  32.333  1.00  0.00     0.020 A 
ATOM     71  C   UNL A   1      33.673  33.680  33.051  1.00  0.00     0.020 A 
ATOM     72  C   UNL A   1      33.750  34.981  32.550  1.00  0.00     0.054 A 
BRANCH  72  73
ATOM     73  S   UNL A   1      32.239  35.887  32.112  1.00  0.00     0.124 S 
ATOM     74  O   UNL A   1      32.283  35.862  30.653  1.00  0.00    -0.237 OA
ATOM     75  O   UNL A   1      31.194  35.072  32.728  1.00  0.00    -0.237 OA
ATOM     76  O   UNL A   1      32.439  37.197  32.725  1.00  0.00    -0.744 OA
ENDBRANCH  72  73
ENDBRANCH  44  67
BRANCH  56  77
ATOM     77  C   UNL A   1      40.635  33.789  38.456  1.00  0.00    -0.014 A 
ATOM     78  C   UNL A   1      41.220  35.065  38.409  1.00  0.00     0.010 A 
ATOM     79  C   UNL A   1      40.030  33.356  39.652  1.00  0.00     0.010 A 
ATOM     80  C   UNL A   1      41.198  35.895  39.535  1.00  0.00     0.020 A 
ATOM     81  C   UNL A   1      39.988  34.190  40.773  1.00  0.00     0.020 A 
ATOM     82  C   UNL A   1      40.575  35.455  40.709  1.00  0.00     0.054 A 
BRANCH  82  83
ATOM     83  S   UNL A   1      40.470  36.585  42.125  1.00  0.00     0.124 S 
ATOM     84  O   UNL A   1      41.857  37.017  42.274  1.00  0.00    -0.237 OA
ATOM     85  O   UNL A   1      39.541  37.609  41.652  1.00  0.00    -0.237 OA
ATOM     86  O   UNL A   1      39.961  35.742  43.204  1.00  0.00    -0.744 OA
ENDBRANCH  82  83
ENDBRANCH  56  77
ENDBRANCH  30  31
ENDBRANCH  23  25
ENDBRANCH  22  23
ENDBRANCH   1  22
TORSDOF 16
ENDMDL
MODEL 3
REMARK VINA RESULT:     -10.6      3.454      4.309
REMARK SMILES O=C(C[C@H]1C[C@H]2CC[C@@H](C1)[N@H+]2[C@@H]1CCCSC1)OCCOC(=O)c1ccc(-c2c3nc(c(-c4ccc(S(=O)(=O)[O-])cc4)c4ccc([nH]4)c(-c4ccc(S(=O)(=O)[O-])cc4)c4nc(c(-c5ccc(S(=O)(=O)[O-])cc5)c5ccc2[nH]5)C=C4)C=C3)cc1
REMARK SMILES IDX 20 1 19 2 18 3 2 4 1 5 3 6 4 7 5 8 10 9 6 10 9 11 7 12 11 13
REMARK SMILES IDX 8 14 12 16 13 17 17 18 14 19 16 20 15 21 21 22 22 23 23 24
REMARK SMILES IDX 24 25 25 26 83 27 26 28 82 29 27 30 28 31 29 32 76 33 30 34
REMARK SMILES IDX 81 35 75 36 77 37 31 38 80 39 74 40 73 41 32 43 62 44 43 45
REMARK SMILES IDX 61 46 44 47 47 48 60 49 78 50 45 51 46 52 59 54 79 55 48 56
REMARK SMILES IDX 33 57 34 58 42 59 35 60 41 61 36 62 37 63 38 64 39 65 40 66
REMARK SMILES IDX 63 67 64 68 72 69 65 70 71 71 66 72 67 73 68 74 69 75 70 76
REMARK SMILES IDX 49 77 50 78 58 79 51 80 57 81 52 82 53 83 54 84 55 85 56 86
REMARK H PARENT 11 15 77 42 47 53
REMARK Flexibility Score: inf
ROOT
ATOM      1  C   UNL A   1      32.379  30.425  26.895  1.00  0.00     0.275 C 
ENDROOT
BRANCH   1   2
ATOM      2  C   UNL A   1      31.849  29.875  25.563  1.00  0.00     0.274 C 
BRANCH   2   3
ATOM      3  O   UNL A   1      32.908  29.578  24.645  1.00  0.00    -0.462 OA
BRANCH   3   4
ATOM      4  C   UNL A   1      32.523  28.819  23.584  1.00  0.00     0.306 C 
ATOM      5  O   UNL A   1      31.402  28.882  23.097  1.00  0.00    -0.252 OA
BRANCH   4   6
ATOM      6  C   UNL A   1      33.577  27.820  23.165  1.00  0.00     0.126 C 
BRANCH   6   7
ATOM      7  C   UNL A   1      33.428  26.423  23.786  1.00  0.00     0.012 C 
ATOM      8  C   UNL A   1      33.260  26.475  25.327  1.00  0.00     0.069 C 
ATOM      9  C   UNL A   1      32.333  25.625  23.036  1.00  0.00     0.069 C 
ATOM     10  C   UNL A   1      32.174  25.583  25.949  1.00  0.00     0.185 C 
ATOM     11  C   UNL A   1      31.290  24.934  23.923  1.00  0.00     0.185 C 
ATOM     12  C   UNL A   1      30.818  26.296  25.879  1.00  0.00     0.071 C 
ATOM     13  N   UNL A   1      31.844  24.413  25.162  1.00  0.00    -0.327 N 
ATOM     14  C   UNL A   1      30.307  25.973  24.479  1.00  0.00     0.071 C 
ATOM     15  H   UNL A   1      31.144  23.832  25.624  1.00  0.00     0.348 HD
BRANCH  13  16
ATOM     16  C   UNL A   1      32.679  23.214  25.210  1.00  0.00     0.194 C 
ATOM     17  C   UNL A   1      32.267  22.062  24.277  1.00  0.00     0.067 C 
ATOM     18  C   UNL A   1      32.834  22.759  26.680  1.00  0.00     0.134 C 
ATOM     19  C   UNL A   1      33.163  20.827  24.351  1.00  0.00     0.017 C 
ATOM     20  S   UNL A   1      34.004  21.382  26.884  1.00  0.00    -0.156 SA
ATOM     21  C   UNL A   1      33.210  20.223  25.745  1.00  0.00     0.070 C 
ENDBRANCH  13  16
ENDBRANCH   6   7
ENDBRANCH   4   6
ENDBRANCH   3   4
ENDBRANCH   2   3
ENDBRANCH   1   2
BRANCH   1  22
ATOM     22  O   UNL A   1      33.744  30.043  27.148  1.00  0.00    -0.458 OA
BRANCH  22  23
ATOM     23  C   UNL A   1      34.455  30.920  27.915  1.00  0.00     0.338 C 
ATOM     24  O   UNL A   1      34.041  31.944  28.417  1.00  0.00    -0.246 OA
BRANCH  23  25
ATOM     25  C   UNL A   1      35.789  30.343  28.217  1.00  0.00     0.060 A 
ATOM     26  C   UNL A   1      35.997  29.783  29.487  1.00  0.00     0.016 A 
ATOM     27  C   UNL A   1      36.807  30.303  27.264  1.00  0.00     0.016 A 
ATOM     28  C   UNL A   1      37.218  29.176  29.802  1.00  0.00     0.010 A 
ATOM     29  C   UNL A   1      38.030  29.699  27.584  1.00  0.00     0.010 A 
ATOM     30  C   UNL A   1      38.252  29.138  28.857  1.00  0.00    -0.014 A 
BRANCH  30  31
ATOM     31  C   UNL A   1      39.619  28.682  29.234  1.00  0.00     0.031 A 
ATOM     32  C   UNL A   1      40.512  29.647  29.969  1.00  0.00     0.074 A 
ATOM     33  C   UNL A   1      40.097  27.462  28.920  1.00  0.00     0.049 A 
ATOM     34  N   UNL A   1      41.761  29.514  30.330  1.00  0.00    -0.248 NA
ATOM     35  C   UNL A   1      39.913  30.944  30.322  1.00  0.00     0.031 C 
ATOM     36  C   UNL A   1      39.360  26.410  28.222  1.00  0.00     0.029 A 
ATOM     37  N   UNL A   1      41.337  26.908  29.139  1.00  0.00    -0.354 N 
ATOM     38  C   UNL A   1      42.109  30.723  30.920  1.00  0.00     0.074 A 
ATOM     39  C   UNL A   1      40.949  31.585  30.836  1.00  0.00     0.031 C 
ATOM     40  C   UNL A   1      40.166  25.345  28.057  1.00  0.00     0.029 A 
ATOM     41  C   UNL A   1      41.483  25.643  28.622  1.00  0.00     0.049 A 
ATOM     42  H   UNL A   1      42.057  27.376  29.623  1.00  0.00     0.167 HD
ATOM     43  C   UNL A   1      43.278  31.090  31.494  1.00  0.00     0.031 A 
ATOM     44  C   UNL A   1      42.553  24.819  28.593  1.00  0.00     0.031 A 
ATOM     45  C   UNL A   1      44.433  30.247  31.604  1.00  0.00     0.049 A 
ATOM     46  C   UNL A   1      43.854  25.244  29.229  1.00  0.00     0.074 A 
ATOM     47  C   UNL A   1      45.644  30.525  32.213  1.00  0.00     0.029 A 
ATOM     48  N   UNL A   1      44.526  28.964  31.089  1.00  0.00    -0.354 N 
ATOM     49  N   UNL A   1      44.145  26.370  29.837  1.00  0.00    -0.248 NA
ATOM     50  C   UNL A   1      44.969  24.283  29.185  1.00  0.00     0.031 C 
ATOM     51  C   UNL A   1      46.486  29.422  32.031  1.00  0.00     0.029 A 
ATOM     52  C   UNL A   1      45.780  28.442  31.349  1.00  0.00     0.049 A 
ATOM     53  H   UNL A   1      43.806  28.494  30.610  1.00  0.00     0.167 HD
ATOM     54  C   UNL A   1      45.462  26.238  30.272  1.00  0.00     0.074 A 
ATOM     55  C   UNL A   1      45.912  24.926  29.862  1.00  0.00     0.031 C 
ATOM     56  C   UNL A   1      46.222  27.128  30.955  1.00  0.00     0.031 A 
BRANCH  43  57
ATOM     57  C   UNL A   1      43.354  32.498  32.013  1.00  0.00    -0.014 A 
ATOM     58  C   UNL A   1      43.843  33.544  31.208  1.00  0.00     0.010 A 
ATOM     59  C   UNL A   1      42.982  32.764  33.341  1.00  0.00     0.010 A 
ATOM     60  C   UNL A   1      44.034  34.816  31.750  1.00  0.00     0.020 A 
ATOM     61  C   UNL A   1      43.144  34.043  33.878  1.00  0.00     0.020 A 
ATOM     62  C   UNL A   1      43.701  35.051  33.088  1.00  0.00     0.054 A 
BRANCH  62  63
ATOM     63  S   UNL A   1      44.010  36.694  33.789  1.00  0.00     0.124 S 
ATOM     64  O   UNL A   1      43.520  37.568  32.725  1.00  0.00    -0.237 OA
ATOM     65  O   UNL A   1      43.209  36.683  35.010  1.00  0.00    -0.237 OA
ATOM     66  O   UNL A   1      45.456  36.713  33.997  1.00  0.00    -0.744 OA
ENDBRANCH  62  63
ENDBRANCH  43  57
BRANCH  44  67
ATOM     67  C   UNL A   1      42.444  23.486  27.936  1.00  0.00    -0.014 A 
ATOM     68  C   UNL A   1      43.068  23.245  26.702  1.00  0.00     0.010 A 
ATOM     69  C   UNL A   1      41.713  22.451  28.549  1.00  0.00     0.010 A 
ATOM     70  C   UNL A   1      42.961  21.994  26.085  1.00  0.00     0.020 A 
ATOM     71  C   UNL A   1      41.621  21.192  27.946  1.00  0.00     0.020 A 
ATOM     72  C   UNL A   1      42.240  20.974  26.714  1.00  0.00     0.054 A 
BRANCH  72  73
ATOM     73  S   UNL A   1      42.173  19.338  25.929  1.00  0.00     0.124 S 
ATOM     74  O   UNL A   1      43.005  19.534  24.746  1.00  0.00    -0.237 OA
ATOM     75  O   UNL A   1      42.736  18.471  26.962  1.00  0.00    -0.237 OA
ATOM     76  O   UNL A   1      40.749  19.142  25.672  1.00  0.00    -0.744 OA
ENDBRANCH  72  73
ENDBRANCH  44  67
BRANCH  56  77
ATOM     77  C   UNL A   1      47.617  26.723  31.356  1.00  0.00    -0.014 A 
ATOM     78  C   UNL A   1      47.854  25.985  32.528  1.00  0.00     0.010 A 
ATOM     79  C   UNL A   1      48.688  26.976  30.477  1.00  0.00     0.010 A 
ATOM     80  C   UNL A   1      49.137  25.508  32.814  1.00  0.00     0.020 A 
ATOM     81  C   UNL A   1      49.967  26.482  30.749  1.00  0.00     0.020 A 
ATOM     82  C   UNL A   1      50.185  25.752  31.919  1.00  0.00     0.054 A 
BRANCH  82  83
ATOM     83  S   UNL A   1      51.817  25.037  32.260  1.00  0.00     0.124 S 
ATOM     84  O   UNL A   1      52.109  25.561  33.591  1.00  0.00    -0.237 OA
ATOM     85  O   UNL A   1      51.561  23.600  32.194  1.00  0.00    -0.237 OA
ATOM     86  O   UNL A   1      52.657  25.563  31.186  1.00  0.00    -0.744 OA
ENDBRANCH  82  83
ENDBRANCH  56  77
ENDBRANCH  30  31
ENDBRANCH  23  25
ENDBRANCH  22  23
ENDBRANCH   1  22
TORSDOF 16
ENDMDL
