MODEL 1
REMARK VINA RESULT:     -10.9      0.000      0.000
REMARK SMILES CCOc1ccc(-n2ncc(C(=O)OCCOC(=O)c3ccc(-c4c5nc(c(-c6ccc(S(=O)(=O)[O-])cc6)c6ccc([nH]6)c(-c6ccc(S(=O)(=O)[O-])cc6)c6nc(c(-c7ccc(S(=O)(=O)[O-])cc7)c7ccc4[nH]7)C=C6)C=C5)cc3)c2C)nn1
REMARK SMILES IDX 15 1 14 2 12 3 13 4 11 5 8 6 9 7 80 8 10 9 81 10 7 11 4 12
REMARK SMILES IDX 5 13 83 14 6 15 82 16 3 17 2 18 1 19 16 20 17 21 18 22 19 23
REMARK SMILES IDX 20 24 21 25 79 26 22 27 78 28 23 29 24 30 25 31 72 32 26 33
REMARK SMILES IDX 77 34 71 35 73 36 27 37 76 38 70 39 69 40 28 42 58 43 39 44
REMARK SMILES IDX 57 45 40 46 43 47 56 48 74 49 41 50 42 51 55 53 75 54 44 55
REMARK SMILES IDX 29 56 30 57 38 58 31 59 37 60 32 61 33 62 34 63 35 64 36 65
REMARK SMILES IDX 59 66 60 67 68 68 61 69 67 70 62 71 63 72 64 73 65 74 66 75
REMARK SMILES IDX 45 76 46 77 54 78 47 79 53 80 48 81 49 82 50 83 51 84 52 85
REMARK H PARENT 73 41 43 52
REMARK Flexibility Score: inf
ROOT
ATOM      1  C   UNL A   1      33.570  34.515  28.456  1.00  0.00     0.275 C 
ENDROOT
BRANCH   1   2
ATOM      2  O   UNL A   1      32.883  34.660  29.712  1.00  0.00    -0.458 OA
BRANCH   2   3
ATOM      3  C   UNL A   1      33.004  35.882  30.311  1.00  0.00     0.341 C 
ATOM      4  O   UNL A   1      32.506  36.916  29.871  1.00  0.00    -0.246 OA
BRANCH   3   5
ATOM      5  C   UNL A   1      33.776  35.833  31.538  1.00  0.00     0.101 A 
ATOM      6  N   UNL A   1      35.139  35.232  33.184  1.00  0.00    -0.217 N 
ATOM      7  N   UNL A   1      34.420  36.280  33.680  1.00  0.00    -0.174 NA
ATOM      8  C   UNL A   1      34.768  34.923  31.885  1.00  0.00     0.058 A 
ATOM      9  C   UNL A   1      33.697  36.700  32.642  1.00  0.00     0.151 A 
ATOM     10  C   UNL A   1      35.344  33.772  31.135  1.00  0.00     0.068 C 
BRANCH   6  11
ATOM     11  C   UNL A   1      36.031  34.504  34.018  1.00  0.00     0.176 A 
ATOM     12  C   UNL A   1      37.747  33.306  35.721  1.00  0.00     0.233 A 
ATOM     13  C   UNL A   1      38.273  33.988  34.641  1.00  0.00     0.074 A 
ATOM     14  N   UNL A   1      36.424  33.211  35.950  1.00  0.00    -0.110 NA
ATOM     15  C   UNL A   1      37.392  34.589  33.754  1.00  0.00     0.057 A 
ATOM     16  N   UNL A   1      35.556  33.846  35.104  1.00  0.00    -0.127 NA
BRANCH  12  17
ATOM     17  O   UNL A   1      38.596  32.624  36.554  1.00  0.00    -0.477 OA
BRANCH  17  18
ATOM     18  C   UNL A   1      38.363  31.215  36.481  1.00  0.00     0.228 C 
ATOM     19  C   UNL A   1      39.258  30.590  35.420  1.00  0.00     0.049 C 
ENDBRANCH  17  18
ENDBRANCH  12  17
ENDBRANCH   6  11
ENDBRANCH   3   5
ENDBRANCH   2   3
ENDBRANCH   1   2
BRANCH   1  20
ATOM     20  C   UNL A   1      33.547  33.074  27.960  1.00  0.00     0.275 C 
BRANCH  20  21
ATOM     21  O   UNL A   1      34.863  32.538  27.823  1.00  0.00    -0.458 OA
BRANCH  21  22
ATOM     22  C   UNL A   1      34.903  31.197  27.645  1.00  0.00     0.338 C 
ATOM     23  O   UNL A   1      34.043  30.501  27.132  1.00  0.00    -0.246 OA
BRANCH  22  24
ATOM     24  C   UNL A   1      36.056  30.643  28.353  1.00  0.00     0.060 A 
ATOM     25  C   UNL A   1      36.993  31.549  28.856  1.00  0.00     0.016 A 
ATOM     26  C   UNL A   1      36.329  29.272  28.243  1.00  0.00     0.016 A 
ATOM     27  C   UNL A   1      38.273  31.099  29.097  1.00  0.00     0.010 A 
ATOM     28  C   UNL A   1      37.606  28.827  28.483  1.00  0.00     0.010 A 
ATOM     29  C   UNL A   1      38.580  29.760  28.828  1.00  0.00    -0.014 A 
BRANCH  29  30
ATOM     30  C   UNL A   1      39.954  29.335  28.998  1.00  0.00     0.031 A 
ATOM     31  C   UNL A   1      40.355  29.218  30.421  1.00  0.00     0.074 A 
ATOM     32  C   UNL A   1      40.733  28.984  27.957  1.00  0.00     0.049 A 
ATOM     33  N   UNL A   1      41.257  29.901  31.041  1.00  0.00    -0.248 NA
ATOM     34  C   UNL A   1      39.538  28.360  31.297  1.00  0.00     0.031 C 
ATOM     35  C   UNL A   1      40.354  28.812  26.552  1.00  0.00     0.029 A 
ATOM     36  N   UNL A   1      42.027  28.574  27.971  1.00  0.00    -0.354 N 
ATOM     37  C   UNL A   1      41.257  29.429  32.347  1.00  0.00     0.074 A 
ATOM     38  C   UNL A   1      40.083  28.607  32.488  1.00  0.00     0.031 C 
ATOM     39  C   UNL A   1      41.303  28.078  25.927  1.00  0.00     0.029 A 
ATOM     40  C   UNL A   1      42.405  27.852  26.847  1.00  0.00     0.049 A 
ATOM     41  H   UNL A   1      42.642  28.771  28.713  1.00  0.00     0.167 HD
ATOM     42  C   UNL A   1      42.341  29.564  33.155  1.00  0.00     0.031 A 
ATOM     43  C   UNL A   1      43.494  27.045  26.740  1.00  0.00     0.031 A 
ATOM     44  C   UNL A   1      43.275  30.531  32.645  1.00  0.00     0.049 A 
ATOM     45  C   UNL A   1      44.440  27.448  27.816  1.00  0.00     0.074 A 
ATOM     46  C   UNL A   1      43.213  31.886  32.384  1.00  0.00     0.029 A 
ATOM     47  N   UNL A   1      44.350  30.052  31.933  1.00  0.00    -0.354 N 
ATOM     48  N   UNL A   1      45.032  28.610  27.845  1.00  0.00    -0.248 NA
ATOM     49  C   UNL A   1      44.346  26.767  29.099  1.00  0.00     0.031 C 
ATOM     50  C   UNL A   1      43.938  32.057  31.171  1.00  0.00     0.029 A 
ATOM     51  C   UNL A   1      44.464  30.818  30.800  1.00  0.00     0.049 A 
ATOM     52  H   UNL A   1      44.930  29.298  32.189  1.00  0.00     0.167 HD
ATOM     53  C   UNL A   1      44.983  29.001  29.176  1.00  0.00     0.074 A 
ATOM     54  C   UNL A   1      44.630  27.788  29.914  1.00  0.00     0.031 C 
ATOM     55  C   UNL A   1      44.948  30.321  29.529  1.00  0.00     0.031 A 
BRANCH  42  56
ATOM     56  C   UNL A   1      42.725  28.541  34.186  1.00  0.00    -0.014 A 
ATOM     57  C   UNL A   1      42.680  28.892  35.549  1.00  0.00     0.010 A 
ATOM     58  C   UNL A   1      43.392  27.345  33.848  1.00  0.00     0.010 A 
ATOM     59  C   UNL A   1      43.319  28.108  36.517  1.00  0.00     0.020 A 
ATOM     60  C   UNL A   1      43.995  26.535  34.809  1.00  0.00     0.020 A 
ATOM     61  C   UNL A   1      43.983  26.940  36.136  1.00  0.00     0.054 A 
BRANCH  61  62
ATOM     62  S   UNL A   1      44.886  25.988  37.380  1.00  0.00     0.124 S 
ATOM     63  O   UNL A   1      44.977  26.942  38.482  1.00  0.00    -0.237 OA
ATOM     64  O   UNL A   1      44.001  24.848  37.600  1.00  0.00    -0.237 OA
ATOM     65  O   UNL A   1      46.150  25.671  36.720  1.00  0.00    -0.744 OA
ENDBRANCH  61  62
ENDBRANCH  42  56
BRANCH  43  66
ATOM     66  C   UNL A   1      43.561  25.723  26.059  1.00  0.00    -0.014 A 
ATOM     67  C   UNL A   1      44.623  25.402  25.192  1.00  0.00     0.010 A 
ATOM     68  C   UNL A   1      42.728  24.666  26.484  1.00  0.00     0.010 A 
ATOM     69  C   UNL A   1      44.881  24.067  24.823  1.00  0.00     0.020 A 
ATOM     70  C   UNL A   1      42.972  23.339  26.115  1.00  0.00     0.020 A 
ATOM     71  C   UNL A   1      44.066  23.040  25.309  1.00  0.00     0.054 A 
BRANCH  71  72
ATOM     72  S   UNL A   1      44.518  21.306  25.001  1.00  0.00     0.124 S 
ATOM     73  O   UNL A   1      44.597  21.257  23.544  1.00  0.00    -0.237 OA
ATOM     74  O   UNL A   1      45.790  21.178  25.709  1.00  0.00    -0.237 OA
ATOM     75  O   UNL A   1      43.411  20.553  25.588  1.00  0.00    -0.744 OA
ENDBRANCH  71  72
ENDBRANCH  43  66
BRANCH  55  76
ATOM     76  C   UNL A   1      45.215  31.360  28.463  1.00  0.00    -0.014 A 
ATOM     77  C   UNL A   1      44.246  31.820  27.549  1.00  0.00     0.010 A 
ATOM     78  C   UNL A   1      46.463  32.007  28.494  1.00  0.00     0.010 A 
ATOM     79  C   UNL A   1      44.534  32.872  26.665  1.00  0.00     0.020 A 
ATOM     80  C   UNL A   1      46.751  33.065  27.631  1.00  0.00     0.020 A 
ATOM     81  C   UNL A   1      45.791  33.485  26.710  1.00  0.00     0.054 A 
BRANCH  81  82
ATOM     82  S   UNL A   1      46.162  34.855  25.578  1.00  0.00     0.124 S 
ATOM     83  O   UNL A   1      45.219  34.630  24.487  1.00  0.00    -0.237 OA
ATOM     84  O   UNL A   1      45.906  36.035  26.399  1.00  0.00    -0.237 OA
ATOM     85  O   UNL A   1      47.568  34.648  25.230  1.00  0.00    -0.744 OA
ENDBRANCH  81  82
ENDBRANCH  55  76
ENDBRANCH  29  30
ENDBRANCH  22  24
ENDBRANCH  21  22
ENDBRANCH  20  21
ENDBRANCH   1  20
TORSDOF 17
ENDMDL
MODEL 2
REMARK VINA RESULT:     -10.8      4.336     10.949
REMARK SMILES CCOc1ccc(-n2ncc(C(=O)OCCOC(=O)c3ccc(-c4c5nc(c(-c6ccc(S(=O)(=O)[O-])cc6)c6ccc([nH]6)c(-c6ccc(S(=O)(=O)[O-])cc6)c6nc(c(-c7ccc(S(=O)(=O)[O-])cc7)c7ccc4[nH]7)C=C6)C=C5)cc3)c2C)nn1
REMARK SMILES IDX 15 1 14 2 12 3 13 4 11 5 8 6 9 7 80 8 10 9 81 10 7 11 4 12
REMARK SMILES IDX 5 13 83 14 6 15 82 16 3 17 2 18 1 19 16 20 17 21 18 22 19 23
REMARK SMILES IDX 20 24 21 25 79 26 22 27 78 28 23 29 24 30 25 31 72 32 26 33
REMARK SMILES IDX 77 34 71 35 73 36 27 37 76 38 70 39 69 40 28 42 58 43 39 44
REMARK SMILES IDX 57 45 40 46 43 47 56 48 74 49 41 50 42 51 55 53 75 54 44 55
REMARK SMILES IDX 29 56 30 57 38 58 31 59 37 60 32 61 33 62 34 63 35 64 36 65
REMARK SMILES IDX 59 66 60 67 68 68 61 69 67 70 62 71 63 72 64 73 65 74 66 75
REMARK SMILES IDX 45 76 46 77 54 78 47 79 53 80 48 81 49 82 50 83 51 84 52 85
REMARK H PARENT 73 41 43 52
REMARK Flexibility Score: inf
ROOT
ATOM      1  C   UNL A   1      36.527  20.596  25.056  1.00  0.00     0.275 C 
ENDROOT
BRANCH   1   2
ATOM      2  O   UNL A   1      35.381  21.317  25.543  1.00  0.00    -0.458 OA
BRANCH   2   3
ATOM      3  C   UNL A   1      34.312  21.365  24.693  1.00  0.00     0.341 C 
ATOM      4  O   UNL A   1      33.605  20.397  24.423  1.00  0.00    -0.246 OA
BRANCH   3   5
ATOM      5  C   UNL A   1      34.086  22.689  24.149  1.00  0.00     0.101 A 
ATOM      6  N   UNL A   1      33.493  24.810  23.859  1.00  0.00    -0.217 N 
ATOM      7  N   UNL A   1      33.815  24.354  22.613  1.00  0.00    -0.174 NA
ATOM      8  C   UNL A   1      33.636  23.821  24.820  1.00  0.00     0.058 A 
ATOM      9  C   UNL A   1      34.279  23.123  22.825  1.00  0.00     0.151 A 
ATOM     10  C   UNL A   1      33.279  24.032  26.251  1.00  0.00     0.068 C 
BRANCH   6  11
ATOM     11  C   UNL A   1      32.942  26.108  24.037  1.00  0.00     0.176 A 
ATOM     12  C   UNL A   1      31.884  28.527  24.590  1.00  0.00     0.233 A 
ATOM     13  C   UNL A   1      31.018  27.476  24.361  1.00  0.00     0.074 A 
ATOM     14  N   UNL A   1      33.223  28.394  24.542  1.00  0.00    -0.110 NA
ATOM     15  C   UNL A   1      31.559  26.235  24.058  1.00  0.00     0.057 A 
ATOM     16  N   UNL A   1      33.758  27.159  24.292  1.00  0.00    -0.127 NA
BRANCH  12  17
ATOM     17  O   UNL A   1      31.368  29.782  24.795  1.00  0.00    -0.477 OA
BRANCH  17  18
ATOM     18  C   UNL A   1      31.880  30.355  26.000  1.00  0.00     0.228 C 
ATOM     19  C   UNL A   1      31.187  31.680  26.286  1.00  0.00     0.049 C 
ENDBRANCH  17  18
ENDBRANCH  12  17
ENDBRANCH   6  11
ENDBRANCH   3   5
ENDBRANCH   2   3
ENDBRANCH   1   2
BRANCH   1  20
ATOM     20  C   UNL A   1      37.732  21.509  24.861  1.00  0.00     0.275 C 
BRANCH  20  21
ATOM     21  O   UNL A   1      38.049  22.233  26.049  1.00  0.00    -0.458 OA
BRANCH  21  22
ATOM     22  C   UNL A   1      39.307  22.033  26.505  1.00  0.00     0.338 C 
ATOM     23  O   UNL A   1      39.784  20.983  26.902  1.00  0.00    -0.246 OA
BRANCH  22  24
ATOM     24  C   UNL A   1      39.982  23.320  26.660  1.00  0.00     0.060 A 
ATOM     25  C   UNL A   1      41.164  23.337  27.404  1.00  0.00     0.016 A 
ATOM     26  C   UNL A   1      39.293  24.496  26.330  1.00  0.00     0.016 A 
ATOM     27  C   UNL A   1      41.569  24.529  27.962  1.00  0.00     0.010 A 
ATOM     28  C   UNL A   1      39.699  25.684  26.889  1.00  0.00     0.010 A 
ATOM     29  C   UNL A   1      40.783  25.670  27.762  1.00  0.00    -0.014 A 
BRANCH  29  30
ATOM     30  C   UNL A   1      41.177  26.890  28.437  1.00  0.00     0.031 A 
ATOM     31  C   UNL A   1      42.499  27.397  27.996  1.00  0.00     0.074 A 
ATOM     32  C   UNL A   1      40.362  27.534  29.294  1.00  0.00     0.049 A 
ATOM     33  N   UNL A   1      43.568  27.522  28.706  1.00  0.00    -0.248 NA
ATOM     34  C   UNL A   1      42.700  27.631  26.555  1.00  0.00     0.031 C 
ATOM     35  C   UNL A   1      38.953  27.262  29.590  1.00  0.00     0.029 A 
ATOM     36  N   UNL A   1      40.602  28.672  29.993  1.00  0.00    -0.354 N 
ATOM     37  C   UNL A   1      44.534  28.033  27.848  1.00  0.00     0.074 A 
ATOM     38  C   UNL A   1      43.998  27.926  26.515  1.00  0.00     0.031 C 
ATOM     39  C   UNL A   1      38.407  28.354  30.172  1.00  0.00     0.029 A 
ATOM     40  C   UNL A   1      39.454  29.335  30.408  1.00  0.00     0.049 A 
ATOM     41  H   UNL A   1      41.509  29.000  30.187  1.00  0.00     0.167 HD
ATOM     42  C   UNL A   1      45.615  28.714  28.313  1.00  0.00     0.031 A 
ATOM     43  C   UNL A   1      39.376  30.631  30.810  1.00  0.00     0.031 A 
ATOM     44  C   UNL A   1      45.810  28.513  29.723  1.00  0.00     0.049 A 
ATOM     45  C   UNL A   1      40.752  31.050  31.191  1.00  0.00     0.074 A 
ATOM     46  C   UNL A   1      46.078  27.412  30.511  1.00  0.00     0.029 A 
ATOM     47  N   UNL A   1      45.323  29.482  30.569  1.00  0.00    -0.354 N 
ATOM     48  N   UNL A   1      41.394  30.546  32.208  1.00  0.00    -0.248 NA
ATOM     49  C   UNL A   1      41.591  31.657  30.167  1.00  0.00     0.031 C 
ATOM     50  C   UNL A   1      45.295  27.604  31.685  1.00  0.00     0.029 A 
ATOM     51  C   UNL A   1      44.654  28.841  31.582  1.00  0.00     0.049 A 
ATOM     52  H   UNL A   1      45.433  30.455  30.466  1.00  0.00     0.167 HD
ATOM     53  C   UNL A   1      42.695  30.369  31.756  1.00  0.00     0.074 A 
ATOM     54  C   UNL A   1      42.777  31.153  30.524  1.00  0.00     0.031 C 
ATOM     55  C   UNL A   1      43.495  29.382  32.259  1.00  0.00     0.031 A 
BRANCH  42  56
ATOM     56  C   UNL A   1      46.244  29.856  27.567  1.00  0.00    -0.014 A 
ATOM     57  C   UNL A   1      47.644  29.892  27.423  1.00  0.00     0.010 A 
ATOM     58  C   UNL A   1      45.531  31.030  27.248  1.00  0.00     0.010 A 
ATOM     59  C   UNL A   1      48.298  31.066  27.030  1.00  0.00     0.020 A 
ATOM     60  C   UNL A   1      46.169  32.192  26.816  1.00  0.00     0.020 A 
ATOM     61  C   UNL A   1      47.554  32.212  26.741  1.00  0.00     0.054 A 
BRANCH  61  62
ATOM     62  S   UNL A   1      48.417  33.747  26.330  1.00  0.00     0.124 S 
ATOM     63  O   UNL A   1      47.445  34.420  25.474  1.00  0.00    -0.237 OA
ATOM     64  O   UNL A   1      48.626  34.345  27.645  1.00  0.00    -0.237 OA
ATOM     65  O   UNL A   1      49.631  33.289  25.659  1.00  0.00    -0.744 OA
ENDBRANCH  61  62
ENDBRANCH  42  56
BRANCH  43  66
ATOM     66  C   UNL A   1      38.297  31.603  30.482  1.00  0.00    -0.014 A 
ATOM     67  C   UNL A   1      38.248  32.243  29.228  1.00  0.00     0.010 A 
ATOM     68  C   UNL A   1      37.150  31.689  31.300  1.00  0.00     0.010 A 
ATOM     69  C   UNL A   1      37.073  32.881  28.785  1.00  0.00     0.020 A 
ATOM     70  C   UNL A   1      35.983  32.328  30.870  1.00  0.00     0.020 A 
ATOM     71  C   UNL A   1      35.939  32.898  29.602  1.00  0.00     0.054 A 
BRANCH  71  72
ATOM     72  S   UNL A   1      34.366  33.539  28.950  1.00  0.00     0.124 S 
ATOM     73  O   UNL A   1      33.694  34.006  30.159  1.00  0.00    -0.237 OA
ATOM     74  O   UNL A   1      34.806  34.582  28.027  1.00  0.00    -0.237 OA
ATOM     75  O   UNL A   1      33.757  32.372  28.314  1.00  0.00    -0.744 OA
ENDBRANCH  71  72
ENDBRANCH  43  66
BRANCH  55  76
ATOM     76  C   UNL A   1      43.034  28.638  33.492  1.00  0.00    -0.014 A 
ATOM     77  C   UNL A   1      41.928  27.764  33.520  1.00  0.00     0.010 A 
ATOM     78  C   UNL A   1      43.853  28.713  34.632  1.00  0.00     0.010 A 
ATOM     79  C   UNL A   1      41.632  27.017  34.672  1.00  0.00     0.020 A 
ATOM     80  C   UNL A   1      43.575  27.960  35.774  1.00  0.00     0.020 A 
ATOM     81  C   UNL A   1      42.458  27.125  35.795  1.00  0.00     0.054 A 
BRANCH  81  82
ATOM     82  S   UNL A   1      42.086  26.150  37.280  1.00  0.00     0.124 S 
ATOM     83  O   UNL A   1      43.144  26.557  38.201  1.00  0.00    -0.237 OA
ATOM     84  O   UNL A   1      40.740  26.595  37.633  1.00  0.00    -0.237 OA
ATOM     85  O   UNL A   1      42.169  24.765  36.819  1.00  0.00    -0.744 OA
ENDBRANCH  81  82
ENDBRANCH  55  76
ENDBRANCH  29  30
ENDBRANCH  22  24
ENDBRANCH  21  22
ENDBRANCH  20  21
ENDBRANCH   1  20
TORSDOF 17
ENDMDL
MODEL 3
REMARK VINA RESULT:     -10.7      4.627     11.462
REMARK SMILES CCOc1ccc(-n2ncc(C(=O)OCCOC(=O)c3ccc(-c4c5nc(c(-c6ccc(S(=O)(=O)[O-])cc6)c6ccc([nH]6)c(-c6ccc(S(=O)(=O)[O-])cc6)c6nc(c(-c7ccc(S(=O)(=O)[O-])cc7)c7ccc4[nH]7)C=C6)C=C5)cc3)c2C)nn1
REMARK SMILES IDX 15 1 14 2 12 3 13 4 11 5 8 6 9 7 80 8 10 9 81 10 7 11 4 12
REMARK SMILES IDX 5 13 83 14 6 15 82 16 3 17 2 18 1 19 16 20 17 21 18 22 19 23
REMARK SMILES IDX 20 24 21 25 79 26 22 27 78 28 23 29 24 30 25 31 72 32 26 33
REMARK SMILES IDX 77 34 71 35 73 36 27 37 76 38 70 39 69 40 28 42 58 43 39 44
REMARK SMILES IDX 57 45 40 46 43 47 56 48 74 49 41 50 42 51 55 53 75 54 44 55
REMARK SMILES IDX 29 56 30 57 38 58 31 59 37 60 32 61 33 62 34 63 35 64 36 65
REMARK SMILES IDX 59 66 60 67 68 68 61 69 67 70 62 71 63 72 64 73 65 74 66 75
REMARK SMILES IDX 45 76 46 77 54 78 47 79 53 80 48 81 49 82 50 83 51 84 52 85
REMARK H PARENT 73 41 43 52
REMARK Flexibility Score: inf
ROOT
ATOM      1  C   UNL A   1      36.838  21.583  24.541  1.00  0.00     0.275 C 
ENDROOT
BRANCH   1   2
ATOM      2  O   UNL A   1      35.725  21.893  25.399  1.00  0.00    -0.458 OA
BRANCH   2   3
ATOM      3  C   UNL A   1      34.490  21.750  24.834  1.00  0.00     0.341 C 
ATOM      4  O   UNL A   1      33.807  20.732  24.923  1.00  0.00    -0.246 OA
BRANCH   3   5
ATOM      5  C   UNL A   1      34.055  22.937  24.124  1.00  0.00     0.101 A 
ATOM      6  N   UNL A   1      33.112  24.867  23.561  1.00  0.00    -0.217 N 
ATOM      7  N   UNL A   1      33.553  24.327  22.387  1.00  0.00    -0.174 NA
ATOM      8  C   UNL A   1      33.391  24.044  24.641  1.00  0.00     0.058 A 
ATOM      9  C   UNL A   1      34.218  23.234  22.759  1.00  0.00     0.151 A 
ATOM     10  C   UNL A   1      32.951  24.359  26.028  1.00  0.00     0.068 C 
BRANCH   6  11
ATOM     11  C   UNL A   1      32.336  26.058  23.566  1.00  0.00     0.176 A 
ATOM     12  C   UNL A   1      30.818  28.277  23.788  1.00  0.00     0.233 A 
ATOM     13  C   UNL A   1      30.193  27.093  23.452  1.00  0.00     0.074 A 
ATOM     14  N   UNL A   1      32.145  28.368  23.999  1.00  0.00    -0.110 NA
ATOM     15  C   UNL A   1      30.973  25.954  23.320  1.00  0.00     0.057 A 
ATOM     16  N   UNL A   1      32.909  27.235  23.918  1.00  0.00    -0.127 NA
BRANCH  12  17
ATOM     17  O   UNL A   1      30.079  29.432  23.828  1.00  0.00    -0.477 OA
BRANCH  17  18
ATOM     18  C   UNL A   1      29.289  29.576  22.646  1.00  0.00     0.228 C 
ATOM     19  C   UNL A   1      27.838  29.852  23.015  1.00  0.00     0.049 C 
ENDBRANCH  17  18
ENDBRANCH  12  17
ENDBRANCH   6  11
ENDBRANCH   3   5
ENDBRANCH   2   3
ENDBRANCH   1   2
BRANCH   1  20
ATOM     20  C   UNL A   1      38.144  21.475  25.322  1.00  0.00     0.275 C 
BRANCH  20  21
ATOM     21  O   UNL A   1      38.365  22.615  26.150  1.00  0.00    -0.458 OA
BRANCH  21  22
ATOM     22  C   UNL A   1      39.541  22.600  26.818  1.00  0.00     0.338 C 
ATOM     23  O   UNL A   1      40.086  21.631  27.320  1.00  0.00    -0.246 OA
BRANCH  22  24
ATOM     24  C   UNL A   1      39.993  23.971  27.046  1.00  0.00     0.060 A 
ATOM     25  C   UNL A   1      41.267  24.142  27.593  1.00  0.00     0.016 A 
ATOM     26  C   UNL A   1      39.058  25.015  26.995  1.00  0.00     0.016 A 
ATOM     27  C   UNL A   1      41.546  25.324  28.244  1.00  0.00     0.010 A 
ATOM     28  C   UNL A   1      39.338  26.192  27.646  1.00  0.00     0.010 A 
ATOM     29  C   UNL A   1      40.546  26.300  28.331  1.00  0.00    -0.014 A 
BRANCH  29  30
ATOM     30  C   UNL A   1      40.830  27.493  29.101  1.00  0.00     0.031 A 
ATOM     31  C   UNL A   1      41.916  28.316  28.518  1.00  0.00     0.074 A 
ATOM     32  C   UNL A   1      40.097  27.849  30.173  1.00  0.00     0.049 A 
ATOM     33  N   UNL A   1      43.064  28.587  29.043  1.00  0.00    -0.248 NA
ATOM     34  C   UNL A   1      41.777  28.746  27.116  1.00  0.00     0.031 C 
ATOM     35  C   UNL A   1      38.853  27.251  30.666  1.00  0.00     0.029 A 
ATOM     36  N   UNL A   1      40.253  28.927  30.982  1.00  0.00    -0.354 N 
ATOM     37  C   UNL A   1      43.724  29.384  28.116  1.00  0.00     0.074 A 
ATOM     38  C   UNL A   1      42.962  29.314  26.896  1.00  0.00     0.031 C 
ATOM     39  C   UNL A   1      38.239  28.131  31.491  1.00  0.00     0.029 A 
ATOM     40  C   UNL A   1      39.108  29.280  31.685  1.00  0.00     0.049 A 
ATOM     41  H   UNL A   1      41.103  29.417  31.063  1.00  0.00     0.167 HD
ATOM     42  C   UNL A   1      44.728  30.224  28.482  1.00  0.00     0.031 A 
ATOM     43  C   UNL A   1      38.869  30.476  32.283  1.00  0.00     0.031 A 
ATOM     44  C   UNL A   1      45.236  29.914  29.791  1.00  0.00     0.049 A 
ATOM     45  C   UNL A   1      40.190  31.135  32.478  1.00  0.00     0.074 A 
ATOM     46  C   UNL A   1      45.859  28.815  30.347  1.00  0.00     0.029 A 
ATOM     47  N   UNL A   1      44.755  30.657  30.843  1.00  0.00    -0.354 N 
ATOM     48  N   UNL A   1      41.106  30.669  33.281  1.00  0.00    -0.248 NA
ATOM     49  C   UNL A   1      40.677  32.016  31.426  1.00  0.00     0.031 C 
ATOM     50  C   UNL A   1      45.305  28.704  31.654  1.00  0.00     0.029 A 
ATOM     51  C   UNL A   1      44.436  29.780  31.850  1.00  0.00     0.049 A 
ATOM     52  H   UNL A   1      44.656  31.637  30.870  1.00  0.00     0.167 HD
ATOM     53  C   UNL A   1      42.299  30.825  32.589  1.00  0.00     0.074 A 
ATOM     54  C   UNL A   1      41.983  31.741  31.492  1.00  0.00     0.031 C 
ATOM     55  C   UNL A   1      43.355  29.982  32.792  1.00  0.00     0.031 A 
BRANCH  42  56
ATOM     56  C   UNL A   1      44.968  31.550  27.818  1.00  0.00    -0.014 A 
ATOM     57  C   UNL A   1      46.244  31.833  27.296  1.00  0.00     0.010 A 
ATOM     58  C   UNL A   1      44.064  32.626  27.938  1.00  0.00     0.010 A 
ATOM     59  C   UNL A   1      46.612  33.143  26.963  1.00  0.00     0.020 A 
ATOM     60  C   UNL A   1      44.406  33.926  27.569  1.00  0.00     0.020 A 
ATOM     61  C   UNL A   1      45.691  34.182  27.114  1.00  0.00     0.054 A 
BRANCH  61  62
ATOM     62  S   UNL A   1      46.210  35.880  26.772  1.00  0.00     0.124 S 
ATOM     63  O   UNL A   1      47.049  36.179  27.929  1.00  0.00    -0.237 OA
ATOM     64  O   UNL A   1      46.910  35.739  25.499  1.00  0.00    -0.237 OA
ATOM     65  O   UNL A   1      44.950  36.617  26.706  1.00  0.00    -0.744 OA
ENDBRANCH  61  62
ENDBRANCH  42  56
BRANCH  43  66
ATOM     66  C   UNL A   1      37.583  31.226  32.297  1.00  0.00    -0.014 A 
ATOM     67  C   UNL A   1      37.049  31.738  33.495  1.00  0.00     0.010 A 
ATOM     68  C   UNL A   1      37.021  31.686  31.087  1.00  0.00     0.010 A 
ATOM     69  C   UNL A   1      36.043  32.723  33.479  1.00  0.00     0.020 A 
ATOM     70  C   UNL A   1      36.014  32.658  31.063  1.00  0.00     0.020 A 
ATOM     71  C   UNL A   1      35.549  33.194  32.260  1.00  0.00     0.054 A 
BRANCH  71  72
ATOM     72  S   UNL A   1      34.401  34.605  32.234  1.00  0.00     0.124 S 
ATOM     73  O   UNL A   1      34.249  34.858  30.805  1.00  0.00    -0.237 OA
ATOM     74  O   UNL A   1      33.223  34.070  32.912  1.00  0.00    -0.237 OA
ATOM     75  O   UNL A   1      35.117  35.643  32.975  1.00  0.00    -0.744 OA
ENDBRANCH  71  72
ENDBRANCH  43  66
BRANCH  55  76
ATOM     76  C   UNL A   1      43.299  29.025  33.961  1.00  0.00    -0.014 A 
ATOM     77  C   UNL A   1      43.700  29.355  35.271  1.00  0.00     0.010 A 
ATOM     78  C   UNL A   1      42.667  27.787  33.749  1.00  0.00     0.010 A 
ATOM     79  C   UNL A   1      43.509  28.453  36.330  1.00  0.00     0.020 A 
ATOM     80  C   UNL A   1      42.456  26.893  34.800  1.00  0.00     0.020 A 
ATOM     81  C   UNL A   1      42.890  27.222  36.084  1.00  0.00     0.054 A 
BRANCH  81  82
ATOM     82  S   UNL A   1      42.628  26.060  37.453  1.00  0.00     0.124 S 
ATOM     83  O   UNL A   1      42.998  24.779  36.857  1.00  0.00    -0.237 OA
ATOM     84  O   UNL A   1      43.534  26.560  38.484  1.00  0.00    -0.237 OA
ATOM     85  O   UNL A   1      41.207  26.205  37.767  1.00  0.00    -0.744 OA
ENDBRANCH  81  82
ENDBRANCH  55  76
ENDBRANCH  29  30
ENDBRANCH  22  24
ENDBRANCH  21  22
ENDBRANCH  20  21
ENDBRANCH   1  20
TORSDOF 17
ENDMDL
