MODEL 1
REMARK VINA RESULT:     -11.8      0.000      0.000
REMARK SMILES C[C@H]1CCC[C@@H]1n1c(SCC(=O)OCCOC(=O)c2ccc(-c3c4nc(c(-c5ccc(S(=O)(=O)[O-])cc5)c5ccc([nH]5)c(-c5ccc(S(=O)(=O)[O-])cc5)c5nc(c(-c6ccc(S(=O)(=O)[O-])cc6)c6ccc3[nH]6)C=C5)C=C4)cc2)nc2cnccc21
REMARK SMILES IDX 14 1 13 2 11 3 12 4 10 5 9 6 8 7 7 8 85 9 79 10 80 11 84 12
REMARK SMILES IDX 81 13 83 14 82 15 6 16 1 17 2 18 3 19 4 20 5 21 15 22 16 23
REMARK SMILES IDX 17 24 18 25 19 26 20 27 78 28 21 29 77 30 22 31 23 32 24 33
REMARK SMILES IDX 71 34 25 35 76 36 70 37 72 38 26 39 75 40 69 41 68 42 27 44
REMARK SMILES IDX 57 45 38 46 56 47 39 48 42 49 55 50 73 51 40 52 41 53 54 55
REMARK SMILES IDX 74 56 43 57 28 58 29 59 37 60 30 61 36 62 31 63 32 64 33 65
REMARK SMILES IDX 34 66 35 67 58 68 59 69 67 70 60 71 66 72 61 73 62 74 63 75
REMARK SMILES IDX 64 76 65 77 44 78 45 79 53 80 46 81 52 82 47 83 48 84 49 85
REMARK SMILES IDX 50 86 51 87
REMARK H PARENT 72 43 42 54
REMARK Flexibility Score: inf
ROOT
ATOM      1  C   UNL A   1      39.332  22.665  26.488  1.00  0.00     0.274 C 
ENDROOT
BRANCH   1   2
ATOM      2  O   UNL A   1      38.781  21.494  25.746  1.00  0.00    -0.461 OA
BRANCH   2   3
ATOM      3  C   UNL A   1      37.507  21.557  25.193  1.00  0.00     0.316 C 
ATOM      4  O   UNL A   1      36.685  20.651  25.310  1.00  0.00    -0.251 OA
BRANCH   3   5
ATOM      5  C   UNL A   1      37.069  22.995  24.667  1.00  0.00     0.200 C 
BRANCH   5   6
ATOM      6  S   UNL A   1      35.334  23.159  24.130  1.00  0.00    -0.076 SA
BRANCH   6   7
ATOM      7  C   UNL A   1      34.063  23.807  25.189  1.00  0.00     0.169 A 
ATOM      8  N   UNL A   1      33.233  24.953  25.174  1.00  0.00    -0.315 N 
ATOM      9  C   UNL A   1      32.058  24.640  25.794  1.00  0.00     0.072 A 
ATOM     10  N   UNL A   1      33.562  22.945  26.054  1.00  0.00    -0.221 NA
ATOM     11  C   UNL A   1      32.310  23.401  26.372  1.00  0.00     0.108 A 
ATOM     12  C   UNL A   1      30.825  25.274  25.902  1.00  0.00     0.049 A 
ATOM     13  C   UNL A   1      31.306  22.785  27.116  1.00  0.00     0.141 A 
ATOM     14  C   UNL A   1      29.873  24.551  26.609  1.00  0.00     0.113 A 
ATOM     15  N   UNL A   1      30.080  23.359  27.219  1.00  0.00    -0.262 NA
BRANCH   8  16
ATOM     16  C   UNL A   1      33.634  26.238  24.713  1.00  0.00     0.093 C 
ATOM     17  C   UNL A   1      33.982  28.431  26.791  1.00  0.00     0.010 C 
ATOM     18  C   UNL A   1      33.740  28.165  25.209  1.00  0.00     0.009 C 
ATOM     19  C   UNL A   1      34.086  29.276  23.288  1.00  0.00     0.005 C 
ATOM     20  C   UNL A   1      33.749  27.909  21.872  1.00  0.00     0.002 C 
ATOM     21  C   UNL A   1      33.343  26.231  22.847  1.00  0.00     0.026 C 
ENDBRANCH   8  16
ENDBRANCH   6   7
ENDBRANCH   5   6
ENDBRANCH   3   5
ENDBRANCH   2   3
ENDBRANCH   1   2
BRANCH   1  22
ATOM     22  C   UNL A   1      40.629  22.352  27.409  1.00  0.00     0.275 C 
BRANCH  22  23
ATOM     23  O   UNL A   1      41.840  21.925  26.619  1.00  0.00    -0.458 OA
BRANCH  23  24
ATOM     24  C   UNL A   1      42.571  22.727  25.760  1.00  0.00     0.338 C 
ATOM     25  O   UNL A   1      42.979  22.367  24.664  1.00  0.00    -0.246 OA
BRANCH  24  26
ATOM     26  C   UNL A   1      42.626  24.294  26.173  1.00  0.00     0.060 A 
ATOM     27  C   UNL A   1      44.080  24.788  27.108  1.00  0.00     0.016 A 
ATOM     28  C   UNL A   1      41.427  25.876  25.858  1.00  0.00     0.016 A 
ATOM     29  C   UNL A   1      44.060  26.487  27.615  1.00  0.00     0.010 A 
ATOM     30  C   UNL A   1      41.714  27.377  26.170  1.00  0.00     0.010 A 
ATOM     31  C   UNL A   1      42.800  27.656  27.155  1.00  0.00    -0.014 A 
BRANCH  31  32
ATOM     32  C   UNL A   1      42.185  28.818  27.947  1.00  0.00     0.031 A 
ATOM     33  C   UNL A   1      43.132  29.894  27.879  1.00  0.00     0.074 A 
ATOM     34  C   UNL A   1      40.955  28.959  28.602  1.00  0.00     0.049 A 
ATOM     35  N   UNL A   1      44.052  30.062  28.761  1.00  0.00    -0.248 NA
ATOM     36  C   UNL A   1      43.313  30.610  26.614  1.00  0.00     0.031 C 
ATOM     37  C   UNL A   1      39.835  27.979  28.755  1.00  0.00     0.029 A 
ATOM     38  N   UNL A   1      40.365  30.045  29.249  1.00  0.00    -0.354 N 
ATOM     39  C   UNL A   1      44.673  31.199  28.325  1.00  0.00     0.074 A 
ATOM     40  C   UNL A   1      44.440  31.269  26.900  1.00  0.00     0.031 C 
ATOM     41  C   UNL A   1      38.677  28.574  29.130  1.00  0.00     0.029 A 
ATOM     42  C   UNL A   1      38.963  29.952  29.475  1.00  0.00     0.049 A 
ATOM     43  H   UNL A   1      40.888  30.830  29.532  1.00  0.00     0.167 HD
ATOM     44  C   UNL A   1      44.872  32.195  29.220  1.00  0.00     0.031 A 
ATOM     45  C   UNL A   1      38.099  30.790  30.136  1.00  0.00     0.031 A 
ATOM     46  C   UNL A   1      44.647  31.766  30.580  1.00  0.00     0.049 A 
ATOM     47  C   UNL A   1      38.912  31.554  31.089  1.00  0.00     0.074 A 
ATOM     48  C   UNL A   1      45.265  30.869  31.426  1.00  0.00     0.029 A 
ATOM     49  N   UNL A   1      43.366  31.954  31.050  1.00  0.00    -0.354 N 
ATOM     50  N   UNL A   1      39.437  31.025  32.155  1.00  0.00    -0.248 NA
ATOM     51  C   UNL A   1      39.463  32.830  30.664  1.00  0.00     0.031 C 
ATOM     52  C   UNL A   1      44.281  30.441  32.356  1.00  0.00     0.029 A 
ATOM     53  C   UNL A   1      43.097  31.132  32.120  1.00  0.00     0.049 A 
ATOM     54  H   UNL A   1      42.725  32.596  30.669  1.00  0.00     0.167 HD
ATOM     55  C   UNL A   1      40.673  31.631  32.225  1.00  0.00     0.074 A 
ATOM     56  C   UNL A   1      40.576  32.828  31.399  1.00  0.00     0.031 C 
ATOM     57  C   UNL A   1      41.756  30.923  32.638  1.00  0.00     0.031 A 
BRANCH  44  58
ATOM     58  C   UNL A   1      44.839  33.621  28.800  1.00  0.00    -0.014 A 
ATOM     59  C   UNL A   1      43.643  34.368  28.728  1.00  0.00     0.010 A 
ATOM     60  C   UNL A   1      46.050  34.287  28.596  1.00  0.00     0.010 A 
ATOM     61  C   UNL A   1      43.638  35.693  28.316  1.00  0.00     0.020 A 
ATOM     62  C   UNL A   1      46.060  35.634  28.233  1.00  0.00     0.020 A 
ATOM     63  C   UNL A   1      44.852  36.313  28.055  1.00  0.00     0.054 A 
BRANCH  63  64
ATOM     64  S   UNL A   1      44.814  38.020  27.478  1.00  0.00     0.124 S 
ATOM     65  O   UNL A   1      45.041  38.756  28.720  1.00  0.00    -0.237 OA
ATOM     66  O   UNL A   1      45.912  38.049  26.518  1.00  0.00    -0.237 OA
ATOM     67  O   UNL A   1      43.476  38.157  26.908  1.00  0.00    -0.744 OA
ENDBRANCH  63  64
ENDBRANCH  44  58
BRANCH  45  68
ATOM     68  C   UNL A   1      36.707  31.282  29.809  1.00  0.00    -0.014 A 
ATOM     69  C   UNL A   1      36.330  31.493  28.473  1.00  0.00     0.010 A 
ATOM     70  C   UNL A   1      35.890  31.891  30.802  1.00  0.00     0.010 A 
ATOM     71  C   UNL A   1      35.283  32.375  28.135  1.00  0.00     0.020 A 
ATOM     72  C   UNL A   1      34.838  32.777  30.472  1.00  0.00     0.020 A 
ATOM     73  C   UNL A   1      34.577  33.054  29.132  1.00  0.00     0.054 A 
BRANCH  73  74
ATOM     74  S   UNL A   1      33.404  34.360  28.634  1.00  0.00     0.124 S 
ATOM     75  O   UNL A   1      32.560  33.659  27.670  1.00  0.00    -0.237 OA
ATOM     76  O   UNL A   1      32.755  34.704  29.897  1.00  0.00    -0.237 OA
ATOM     77  O   UNL A   1      34.256  35.405  28.072  1.00  0.00    -0.744 OA
ENDBRANCH  73  74
ENDBRANCH  45  68
BRANCH  57  78
ATOM     78  C   UNL A   1      41.548  29.764  33.583  1.00  0.00    -0.014 A 
ATOM     79  C   UNL A   1      41.590  30.075  34.954  1.00  0.00     0.010 A 
ATOM     80  C   UNL A   1      41.477  28.410  33.202  1.00  0.00     0.010 A 
ATOM     81  C   UNL A   1      41.658  29.074  35.920  1.00  0.00     0.020 A 
ATOM     82  C   UNL A   1      41.515  27.394  34.174  1.00  0.00     0.020 A 
ATOM     83  C   UNL A   1      41.648  27.737  35.523  1.00  0.00     0.054 A 
BRANCH  83  84
ATOM     84  S   UNL A   1      41.872  26.477  36.809  1.00  0.00     0.124 S 
ATOM     85  O   UNL A   1      42.950  27.048  37.613  1.00  0.00    -0.237 OA
ATOM     86  O   UNL A   1      40.563  26.441  37.457  1.00  0.00    -0.237 OA
ATOM     87  O   UNL A   1      42.227  25.271  36.065  1.00  0.00    -0.744 OA
ENDBRANCH  83  84
ENDBRANCH  57  78
ENDBRANCH  31  32
ENDBRANCH  24  26
ENDBRANCH  23  24
ENDBRANCH  22  23
ENDBRANCH   1  22
TORSDOF 17
ENDMDL
MODEL 2
REMARK VINA RESULT:     -11.8      1.155      2.333
REMARK SMILES C[C@H]1CCC[C@@H]1n1c(SCC(=O)OCCOC(=O)c2ccc(-c3c4nc(c(-c5ccc(S(=O)(=O)[O-])cc5)c5ccc([nH]5)c(-c5ccc(S(=O)(=O)[O-])cc5)c5nc(c(-c6ccc(S(=O)(=O)[O-])cc6)c6ccc3[nH]6)C=C5)C=C4)cc2)nc2cnccc21
REMARK SMILES IDX 14 1 13 2 11 3 12 4 10 5 9 6 8 7 7 8 85 9 79 10 80 11 84 12
REMARK SMILES IDX 81 13 83 14 82 15 6 16 1 17 2 18 3 19 4 20 5 21 15 22 16 23
REMARK SMILES IDX 17 24 18 25 19 26 20 27 78 28 21 29 77 30 22 31 23 32 24 33
REMARK SMILES IDX 71 34 25 35 76 36 70 37 72 38 26 39 75 40 69 41 68 42 27 44
REMARK SMILES IDX 57 45 38 46 56 47 39 48 42 49 55 50 73 51 40 52 41 53 54 55
REMARK SMILES IDX 74 56 43 57 28 58 29 59 37 60 30 61 36 62 31 63 32 64 33 65
REMARK SMILES IDX 34 66 35 67 58 68 59 69 67 70 60 71 66 72 61 73 62 74 63 75
REMARK SMILES IDX 64 76 65 77 44 78 45 79 53 80 46 81 52 82 47 83 48 84 49 85
REMARK SMILES IDX 50 86 51 87
REMARK H PARENT 72 43 42 54
REMARK Flexibility Score: inf
ROOT
ATOM      1  C   UNL A   1      39.086  22.865  26.517  1.00  0.00     0.274 C 
ENDROOT
BRANCH   1   2
ATOM      2  O   UNL A   1      38.571  21.780  25.633  1.00  0.00    -0.461 OA
BRANCH   2   3
ATOM      3  C   UNL A   1      37.339  21.920  25.003  1.00  0.00     0.316 C 
ATOM      4  O   UNL A   1      36.466  21.058  25.049  1.00  0.00    -0.251 OA
BRANCH   3   5
ATOM      5  C   UNL A   1      37.012  23.389  24.479  1.00  0.00     0.200 C 
BRANCH   5   6
ATOM      6  S   UNL A   1      35.711  24.291  25.383  1.00  0.00    -0.076 SA
BRANCH   6   7
ATOM      7  C   UNL A   1      34.134  24.675  24.658  1.00  0.00     0.169 A 
ATOM      8  N   UNL A   1      32.862  24.055  24.639  1.00  0.00    -0.315 N 
ATOM      9  C   UNL A   1      31.912  25.029  24.534  1.00  0.00     0.072 A 
ATOM     10  N   UNL A   1      33.992  25.924  24.258  1.00  0.00    -0.221 NA
ATOM     11  C   UNL A   1      32.645  26.176  24.252  1.00  0.00     0.108 A 
ATOM     12  C   UNL A   1      30.528  25.045  24.667  1.00  0.00     0.049 A 
ATOM     13  C   UNL A   1      31.970  27.380  24.059  1.00  0.00     0.141 A 
ATOM     14  C   UNL A   1      29.956  26.301  24.519  1.00  0.00     0.113 A 
ATOM     15  N   UNL A   1      30.622  27.441  24.209  1.00  0.00    -0.262 NA
BRANCH   8  16
ATOM     16  C   UNL A   1      32.646  22.650  24.592  1.00  0.00     0.093 C 
ATOM     17  C   UNL A   1      33.457  21.021  27.029  1.00  0.00     0.010 C 
ATOM     18  C   UNL A   1      33.140  20.916  25.441  1.00  0.00     0.009 C 
ATOM     19  C   UNL A   1      32.492  19.319  24.001  1.00  0.00     0.005 C 
ATOM     20  C   UNL A   1      32.061  20.323  22.330  1.00  0.00     0.002 C 
ATOM     21  C   UNL A   1      32.347  22.233  22.774  1.00  0.00     0.026 C 
ENDBRANCH   8  16
ENDBRANCH   6   7
ENDBRANCH   5   6
ENDBRANCH   3   5
ENDBRANCH   2   3
ENDBRANCH   1   2
BRANCH   1  22
ATOM     22  C   UNL A   1      40.506  22.557  27.236  1.00  0.00     0.275 C 
BRANCH  22  23
ATOM     23  O   UNL A   1      41.554  22.019  26.295  1.00  0.00    -0.458 OA
BRANCH  23  24
ATOM     24  C   UNL A   1      42.487  22.773  25.605  1.00  0.00     0.338 C 
ATOM     25  O   UNL A   1      43.060  22.400  24.591  1.00  0.00    -0.246 OA
BRANCH  24  26
ATOM     26  C   UNL A   1      42.584  24.325  26.069  1.00  0.00     0.060 A 
ATOM     27  C   UNL A   1      43.971  24.717  27.143  1.00  0.00     0.016 A 
ATOM     28  C   UNL A   1      41.499  25.976  25.695  1.00  0.00     0.016 A 
ATOM     29  C   UNL A   1      43.991  26.402  27.696  1.00  0.00     0.010 A 
ATOM     30  C   UNL A   1      41.833  27.451  26.076  1.00  0.00     0.010 A 
ATOM     31  C   UNL A   1      42.839  27.647  27.162  1.00  0.00    -0.014 A 
BRANCH  31  32
ATOM     32  C   UNL A   1      42.214  28.820  27.930  1.00  0.00     0.031 A 
ATOM     33  C   UNL A   1      43.159  29.897  27.854  1.00  0.00     0.074 A 
ATOM     34  C   UNL A   1      40.978  28.968  28.572  1.00  0.00     0.049 A 
ATOM     35  N   UNL A   1      44.071  30.080  28.741  1.00  0.00    -0.248 NA
ATOM     36  C   UNL A   1      43.351  30.594  26.580  1.00  0.00     0.031 C 
ATOM     37  C   UNL A   1      39.859  27.989  28.730  1.00  0.00     0.029 A 
ATOM     38  N   UNL A   1      40.381  30.064  29.197  1.00  0.00    -0.354 N 
ATOM     39  C   UNL A   1      44.694  31.211  28.293  1.00  0.00     0.074 A 
ATOM     40  C   UNL A   1      44.474  31.259  26.866  1.00  0.00     0.031 C 
ATOM     41  C   UNL A   1      38.697  28.587  29.086  1.00  0.00     0.029 A 
ATOM     42  C   UNL A   1      38.976  29.970  29.412  1.00  0.00     0.049 A 
ATOM     43  H   UNL A   1      40.900  30.854  29.472  1.00  0.00     0.167 HD
ATOM     44  C   UNL A   1      44.883  32.222  29.174  1.00  0.00     0.031 A 
ATOM     45  C   UNL A   1      38.105  30.817  30.052  1.00  0.00     0.031 A 
ATOM     46  C   UNL A   1      44.647  31.814  30.539  1.00  0.00     0.049 A 
ATOM     47  C   UNL A   1      38.908  31.597  31.001  1.00  0.00     0.074 A 
ATOM     48  C   UNL A   1      45.260  30.931  31.403  1.00  0.00     0.029 A 
ATOM     49  N   UNL A   1      43.362  32.006  30.994  1.00  0.00    -0.354 N 
ATOM     50  N   UNL A   1      39.426  31.086  32.079  1.00  0.00    -0.248 NA
ATOM     51  C   UNL A   1      39.460  32.867  30.560  1.00  0.00     0.031 C 
ATOM     52  C   UNL A   1      44.269  30.515  32.332  1.00  0.00     0.029 A 
ATOM     53  C   UNL A   1      43.085  31.200  32.074  1.00  0.00     0.049 A 
ATOM     54  H   UNL A   1      42.723  32.640  30.598  1.00  0.00     0.167 HD
ATOM     55  C   UNL A   1      40.659  31.696  32.151  1.00  0.00     0.074 A 
ATOM     56  C   UNL A   1      40.567  32.879  31.305  1.00  0.00     0.031 C 
ATOM     57  C   UNL A   1      41.740  30.996  32.584  1.00  0.00     0.031 A 
BRANCH  44  58
ATOM     58  C   UNL A   1      44.851  33.641  28.733  1.00  0.00    -0.014 A 
ATOM     59  C   UNL A   1      46.019  34.371  28.422  1.00  0.00     0.010 A 
ATOM     60  C   UNL A   1      43.612  34.238  28.489  1.00  0.00     0.010 A 
ATOM     61  C   UNL A   1      45.962  35.700  28.030  1.00  0.00     0.020 A 
ATOM     62  C   UNL A   1      43.541  35.559  28.043  1.00  0.00     0.020 A 
ATOM     63  C   UNL A   1      44.717  36.291  27.859  1.00  0.00     0.054 A 
BRANCH  63  64
ATOM     64  S   UNL A   1      44.672  38.031  27.392  1.00  0.00     0.124 S 
ATOM     65  O   UNL A   1      44.786  38.688  28.693  1.00  0.00    -0.237 OA
ATOM     66  O   UNL A   1      45.837  38.151  26.522  1.00  0.00    -0.237 OA
ATOM     67  O   UNL A   1      43.377  38.174  26.733  1.00  0.00    -0.744 OA
ENDBRANCH  63  64
ENDBRANCH  44  58
BRANCH  45  68
ATOM     68  C   UNL A   1      36.716  31.301  29.705  1.00  0.00    -0.014 A 
ATOM     69  C   UNL A   1      36.388  31.612  28.376  1.00  0.00     0.010 A 
ATOM     70  C   UNL A   1      35.841  31.807  30.708  1.00  0.00     0.010 A 
ATOM     71  C   UNL A   1      35.333  32.494  28.065  1.00  0.00     0.020 A 
ATOM     72  C   UNL A   1      34.780  32.692  30.404  1.00  0.00     0.020 A 
ATOM     73  C   UNL A   1      34.568  33.071  29.081  1.00  0.00     0.054 A 
BRANCH  73  74
ATOM     74  S   UNL A   1      33.381  34.385  28.640  1.00  0.00     0.124 S 
ATOM     75  O   UNL A   1      32.768  34.686  29.930  1.00  0.00    -0.237 OA
ATOM     76  O   UNL A   1      34.249  35.430  28.103  1.00  0.00    -0.237 OA
ATOM     77  O   UNL A   1      32.499  33.751  27.663  1.00  0.00    -0.744 OA
ENDBRANCH  73  74
ENDBRANCH  45  68
BRANCH  57  78
ATOM     78  C   UNL A   1      41.526  29.851  33.545  1.00  0.00    -0.014 A 
ATOM     79  C   UNL A   1      41.606  30.174  34.912  1.00  0.00     0.010 A 
ATOM     80  C   UNL A   1      41.413  28.496  33.179  1.00  0.00     0.010 A 
ATOM     81  C   UNL A   1      41.673  29.180  35.885  1.00  0.00     0.020 A 
ATOM     82  C   UNL A   1      41.449  27.488  34.160  1.00  0.00     0.020 A 
ATOM     83  C   UNL A   1      41.621  27.841  35.503  1.00  0.00     0.054 A 
BRANCH  83  84
ATOM     84  S   UNL A   1      41.844  26.587  36.795  1.00  0.00     0.124 S 
ATOM     85  O   UNL A   1      42.026  25.367  36.010  1.00  0.00    -0.237 OA
ATOM     86  O   UNL A   1      43.035  27.059  37.499  1.00  0.00    -0.237 OA
ATOM     87  O   UNL A   1      40.605  26.648  37.565  1.00  0.00    -0.744 OA
ENDBRANCH  83  84
ENDBRANCH  57  78
ENDBRANCH  31  32
ENDBRANCH  24  26
ENDBRANCH  23  24
ENDBRANCH  22  23
ENDBRANCH   1  22
TORSDOF 17
ENDMDL
MODEL 3
REMARK VINA RESULT:     -11.7      0.981      1.972
REMARK SMILES C[C@H]1CCC[C@@H]1n1c(SCC(=O)OCCOC(=O)c2ccc(-c3c4nc(c(-c5ccc(S(=O)(=O)[O-])cc5)c5ccc([nH]5)c(-c5ccc(S(=O)(=O)[O-])cc5)c5nc(c(-c6ccc(S(=O)(=O)[O-])cc6)c6ccc3[nH]6)C=C5)C=C4)cc2)nc2cnccc21
REMARK SMILES IDX 14 1 13 2 11 3 12 4 10 5 9 6 8 7 7 8 85 9 79 10 80 11 84 12
REMARK SMILES IDX 81 13 83 14 82 15 6 16 1 17 2 18 3 19 4 20 5 21 15 22 16 23
REMARK SMILES IDX 17 24 18 25 19 26 20 27 78 28 21 29 77 30 22 31 23 32 24 33
REMARK SMILES IDX 71 34 25 35 76 36 70 37 72 38 26 39 75 40 69 41 68 42 27 44
REMARK SMILES IDX 57 45 38 46 56 47 39 48 42 49 55 50 73 51 40 52 41 53 54 55
REMARK SMILES IDX 74 56 43 57 28 58 29 59 37 60 30 61 36 62 31 63 32 64 33 65
REMARK SMILES IDX 34 66 35 67 58 68 59 69 67 70 60 71 66 72 61 73 62 74 63 75
REMARK SMILES IDX 64 76 65 77 44 78 45 79 53 80 46 81 52 82 47 83 48 84 49 85
REMARK SMILES IDX 50 86 51 87
REMARK H PARENT 72 43 42 54
REMARK Flexibility Score: inf
ROOT
ATOM      1  C   UNL A   1      38.952  23.488  26.405  1.00  0.00     0.274 C 
ENDROOT
BRANCH   1   2
ATOM      2  O   UNL A   1      37.603  22.855  26.466  1.00  0.00    -0.461 OA
BRANCH   2   3
ATOM      3  C   UNL A   1      37.288  21.800  25.616  1.00  0.00     0.316 C 
ATOM      4  O   UNL A   1      38.137  21.045  25.149  1.00  0.00    -0.251 OA
BRANCH   3   5
ATOM      5  C   UNL A   1      35.739  21.440  25.532  1.00  0.00     0.200 C 
BRANCH   5   6
ATOM      6  S   UNL A   1      34.579  22.801  25.890  1.00  0.00    -0.076 SA
BRANCH   6   7
ATOM      7  C   UNL A   1      33.584  23.566  24.631  1.00  0.00     0.169 A 
ATOM      8  N   UNL A   1      33.055  24.861  24.421  1.00  0.00    -0.315 N 
ATOM      9  C   UNL A   1      32.962  25.074  23.077  1.00  0.00     0.072 A 
ATOM     10  N   UNL A   1      33.512  22.900  23.494  1.00  0.00    -0.221 NA
ATOM     11  C   UNL A   1      33.208  23.821  22.527  1.00  0.00     0.108 A 
ATOM     12  C   UNL A   1      32.713  26.194  22.292  1.00  0.00     0.049 A 
ATOM     13  C   UNL A   1      33.170  23.671  21.142  1.00  0.00     0.141 A 
ATOM     14  C   UNL A   1      32.759  25.954  20.925  1.00  0.00     0.113 A 
ATOM     15  N   UNL A   1      32.959  24.747  20.342  1.00  0.00    -0.262 NA
BRANCH   8  16
ATOM     16  C   UNL A   1      32.576  25.718  25.452  1.00  0.00     0.093 C 
ATOM     17  C   UNL A   1      29.613  25.591  26.122  1.00  0.00     0.010 C 
ATOM     18  C   UNL A   1      30.935  26.525  26.241  1.00  0.00     0.009 C 
ATOM     19  C   UNL A   1      31.645  28.201  27.557  1.00  0.00     0.005 C 
ATOM     20  C   UNL A   1      33.569  28.414  27.071  1.00  0.00     0.002 C 
ATOM     21  C   UNL A   1      33.931  27.007  25.722  1.00  0.00     0.026 C 
ENDBRANCH   8  16
ENDBRANCH   6   7
ENDBRANCH   5   6
ENDBRANCH   3   5
ENDBRANCH   2   3
ENDBRANCH   1   2
BRANCH   1  22
ATOM     22  C   UNL A   1      40.149  22.632  27.084  1.00  0.00     0.275 C 
BRANCH  22  23
ATOM     23  O   UNL A   1      41.139  22.083  26.088  1.00  0.00    -0.458 OA
BRANCH  23  24
ATOM     24  C   UNL A   1      42.279  22.727  25.640  1.00  0.00     0.338 C 
ATOM     25  O   UNL A   1      43.048  22.264  24.809  1.00  0.00    -0.246 OA
BRANCH  24  26
ATOM     26  C   UNL A   1      42.400  24.282  26.082  1.00  0.00     0.060 A 
ATOM     27  C   UNL A   1      43.841  24.684  27.080  1.00  0.00     0.016 A 
ATOM     28  C   UNL A   1      41.298  25.931  25.749  1.00  0.00     0.016 A 
ATOM     29  C   UNL A   1      43.890  26.374  27.614  1.00  0.00     0.010 A 
ATOM     30  C   UNL A   1      41.652  27.409  26.097  1.00  0.00     0.010 A 
ATOM     31  C   UNL A   1      42.712  27.615  27.127  1.00  0.00    -0.014 A 
BRANCH  31  32
ATOM     32  C   UNL A   1      42.129  28.796  27.916  1.00  0.00     0.031 A 
ATOM     33  C   UNL A   1      43.101  29.848  27.840  1.00  0.00     0.074 A 
ATOM     34  C   UNL A   1      40.905  28.971  28.573  1.00  0.00     0.049 A 
ATOM     35  N   UNL A   1      44.028  29.997  28.718  1.00  0.00    -0.248 NA
ATOM     36  C   UNL A   1      43.297  30.553  26.570  1.00  0.00     0.031 C 
ATOM     37  C   UNL A   1      39.761  28.020  28.735  1.00  0.00     0.029 A 
ATOM     38  N   UNL A   1      40.344  30.075  29.217  1.00  0.00    -0.354 N 
ATOM     39  C   UNL A   1      44.676  31.116  28.274  1.00  0.00     0.074 A 
ATOM     40  C   UNL A   1      44.441  31.184  26.850  1.00  0.00     0.031 C 
ATOM     41  C   UNL A   1      38.620  28.645  29.111  1.00  0.00     0.029 A 
ATOM     42  C   UNL A   1      38.940  30.017  29.448  1.00  0.00     0.049 A 
ATOM     43  H   UNL A   1      40.888  30.848  29.494  1.00  0.00     0.167 HD
ATOM     44  C   UNL A   1      44.903  32.111  29.163  1.00  0.00     0.031 A 
ATOM     45  C   UNL A   1      38.100  30.880  30.107  1.00  0.00     0.031 A 
ATOM     46  C   UNL A   1      44.672  31.695  30.526  1.00  0.00     0.049 A 
ATOM     47  C   UNL A   1      38.935  31.628  31.054  1.00  0.00     0.074 A 
ATOM     48  C   UNL A   1      45.270  30.787  31.374  1.00  0.00     0.029 A 
ATOM     49  N   UNL A   1      43.397  31.917  30.999  1.00  0.00    -0.354 N 
ATOM     50  N   UNL A   1      39.450  31.091  32.120  1.00  0.00    -0.248 NA
ATOM     51  C   UNL A   1      39.516  32.888  30.620  1.00  0.00     0.031 C 
ATOM     52  C   UNL A   1      44.279  30.388  32.310  1.00  0.00     0.029 A 
ATOM     53  C   UNL A   1      43.111  31.107  32.074  1.00  0.00     0.049 A 
ATOM     54  H   UNL A   1      42.771  32.573  30.616  1.00  0.00     0.167 HD
ATOM     55  C   UNL A   1      40.701  31.667  32.184  1.00  0.00     0.074 A 
ATOM     56  C   UNL A   1      40.631  32.862  31.352  1.00  0.00     0.031 C 
ATOM     57  C   UNL A   1      41.768  30.934  32.597  1.00  0.00     0.031 A 
BRANCH  44  58
ATOM     58  C   UNL A   1      44.904  33.536  28.737  1.00  0.00    -0.014 A 
ATOM     59  C   UNL A   1      43.718  34.284  28.570  1.00  0.00     0.010 A 
ATOM     60  C   UNL A   1      46.128  34.199  28.623  1.00  0.00     0.010 A 
ATOM     61  C   UNL A   1      43.747  35.607  28.154  1.00  0.00     0.020 A 
ATOM     62  C   UNL A   1      46.168  35.545  28.256  1.00  0.00     0.020 A 
ATOM     63  C   UNL A   1      44.978  36.224  27.984  1.00  0.00     0.054 A 
BRANCH  63  64
ATOM     64  S   UNL A   1      44.987  37.929  27.399  1.00  0.00     0.124 S 
ATOM     65  O   UNL A   1      45.291  38.661  28.627  1.00  0.00    -0.237 OA
ATOM     66  O   UNL A   1      46.047  37.909  26.397  1.00  0.00    -0.237 OA
ATOM     67  O   UNL A   1      43.635  38.117  26.879  1.00  0.00    -0.744 OA
ENDBRANCH  63  64
ENDBRANCH  44  58
BRANCH  45  68
ATOM     68  C   UNL A   1      36.720  31.404  29.782  1.00  0.00    -0.014 A 
ATOM     69  C   UNL A   1      36.416  31.830  28.479  1.00  0.00     0.010 A 
ATOM     70  C   UNL A   1      35.834  31.833  30.811  1.00  0.00     0.010 A 
ATOM     71  C   UNL A   1      35.373  32.745  28.228  1.00  0.00     0.020 A 
ATOM     72  C   UNL A   1      34.785  32.751  30.567  1.00  0.00     0.020 A 
ATOM     73  C   UNL A   1      34.597  33.242  29.278  1.00  0.00     0.054 A 
BRANCH  73  74
ATOM     74  S   UNL A   1      33.429  34.600  28.932  1.00  0.00     0.124 S 
ATOM     75  O   UNL A   1      32.506  33.974  27.988  1.00  0.00    -0.237 OA
ATOM     76  O   UNL A   1      32.873  34.886  30.252  1.00  0.00    -0.237 OA
ATOM     77  O   UNL A   1      34.270  35.656  28.372  1.00  0.00    -0.744 OA
ENDBRANCH  73  74
ENDBRANCH  45  68
BRANCH  57  78
ATOM     78  C   UNL A   1      41.533  29.785  33.549  1.00  0.00    -0.014 A 
ATOM     79  C   UNL A   1      41.637  30.092  34.918  1.00  0.00     0.010 A 
ATOM     80  C   UNL A   1      41.381  28.437  33.170  1.00  0.00     0.010 A 
ATOM     81  C   UNL A   1      41.688  29.086  35.880  1.00  0.00     0.020 A 
ATOM     82  C   UNL A   1      41.401  27.419  34.141  1.00  0.00     0.020 A 
ATOM     83  C   UNL A   1      41.597  27.752  35.484  1.00  0.00     0.054 A 
BRANCH  83  84
ATOM     84  S   UNL A   1      41.801  26.480  36.761  1.00  0.00     0.124 S 
ATOM     85  O   UNL A   1      42.052  25.282  35.962  1.00  0.00    -0.237 OA
ATOM     86  O   UNL A   1      42.945  26.971  37.525  1.00  0.00    -0.237 OA
ATOM     87  O   UNL A   1      40.528  26.491  37.478  1.00  0.00    -0.744 OA
ENDBRANCH  83  84
ENDBRANCH  57  78
ENDBRANCH  31  32
ENDBRANCH  24  26
ENDBRANCH  23  24
ENDBRANCH  22  23
ENDBRANCH   1  22
TORSDOF 17
ENDMDL
