MODEL 1
REMARK VINA RESULT:      -8.6      0.000      0.000
REMARK SMILES O=C(CSC(=S)N1CCCCC1)OCCOC(=O)c1ccc(-c2c3nc(c(-c4ccc(S(=O)(=O)[O-])cc4)c4ccc([nH]4)c(-c4ccc(S(=O)(=O)[O-])cc4)c4nc(c(-c5ccc(S(=O)(=O)[O-])cc5)c5ccc2[nH]5)C=C4)C=C3)cc1
REMARK SMILES IDX 14 1 13 2 2 3 1 4 3 5 4 6 5 7 6 8 7 9 8 10 12 11 9 12 11 13
REMARK SMILES IDX 10 14 15 15 16 16 17 17 18 18 19 19 20 20 78 21 21 22 77 23
REMARK SMILES IDX 22 24 23 25 24 26 71 27 25 28 76 29 70 30 72 31 26 32 75 33
REMARK SMILES IDX 69 34 68 35 27 37 57 38 38 39 56 40 39 41 42 42 55 43 73 44
REMARK SMILES IDX 40 45 41 46 54 48 74 49 43 50 28 51 29 52 37 53 30 54 36 55
REMARK SMILES IDX 31 56 32 57 33 58 34 59 35 60 58 61 59 62 67 63 60 64 66 65
REMARK SMILES IDX 61 66 62 67 63 68 64 69 65 70 44 71 45 72 53 73 46 74 52 75
REMARK SMILES IDX 47 76 48 77 49 78 50 79 51 80
REMARK H PARENT 72 36 42 47
REMARK Flexibility Score: inf
ROOT
ATOM      1  C   UNL A   1      33.380  34.306  28.549  1.00  0.00     0.274 C 
ENDROOT
BRANCH   1   2
ATOM      2  O   UNL A   1      33.200  34.408  29.978  1.00  0.00    -0.461 OA
BRANCH   2   3
ATOM      3  C   UNL A   1      33.401  35.526  30.717  1.00  0.00     0.316 C 
ATOM      4  O   UNL A   1      33.332  36.626  30.173  1.00  0.00    -0.251 OA
BRANCH   3   5
ATOM      5  C   UNL A   1      33.706  35.391  32.195  1.00  0.00     0.199 C 
BRANCH   5   6
ATOM      6  S   UNL A   1      35.470  35.297  32.540  1.00  0.00    -0.085 SA
BRANCH   6   7
ATOM      7  C   UNL A   1      35.814  33.579  32.734  1.00  0.00     0.136 C 
ATOM      8  S   UNL A   1      34.826  32.308  32.272  1.00  0.00    -0.053 S 
BRANCH   7   9
ATOM      9  N   UNL A   1      37.097  33.391  33.238  1.00  0.00    -0.358 N 
ATOM     10  C   UNL A   1      37.378  33.403  34.672  1.00  0.00     0.118 C 
ATOM     11  C   UNL A   1      38.281  33.415  32.373  1.00  0.00     0.118 C 
ATOM     12  C   UNL A   1      38.215  34.615  35.055  1.00  0.00     0.021 C 
ATOM     13  C   UNL A   1      39.150  34.629  32.711  1.00  0.00     0.021 C 
ATOM     14  C   UNL A   1      39.481  34.686  34.202  1.00  0.00     0.004 C 
ENDBRANCH   7   9
ENDBRANCH   6   7
ENDBRANCH   5   6
ENDBRANCH   3   5
ENDBRANCH   2   3
ENDBRANCH   1   2
BRANCH   1  15
ATOM     15  C   UNL A   1      34.576  33.416  28.204  1.00  0.00     0.275 C 
BRANCH  15  16
ATOM     16  O   UNL A   1      34.460  32.154  28.885  1.00  0.00    -0.458 OA
BRANCH  16  17
ATOM     17  C   UNL A   1      34.560  31.044  28.111  1.00  0.00     0.338 C 
ATOM     18  O   UNL A   1      33.786  30.696  27.238  1.00  0.00    -0.246 OA
BRANCH  17  19
ATOM     19  C   UNL A   1      35.878  30.413  28.355  1.00  0.00     0.060 A 
ATOM     20  C   UNL A   1      36.123  29.846  29.613  1.00  0.00     0.016 A 
ATOM     21  C   UNL A   1      36.853  30.349  27.354  1.00  0.00     0.016 A 
ATOM     22  C   UNL A   1      37.357  29.247  29.882  1.00  0.00     0.010 A 
ATOM     23  C   UNL A   1      38.087  29.755  27.627  1.00  0.00     0.010 A 
ATOM     24  C   UNL A   1      38.357  29.228  28.902  1.00  0.00    -0.014 A 
BRANCH  24  25
ATOM     25  C   UNL A   1      39.747  28.839  29.244  1.00  0.00     0.031 A 
ATOM     26  C   UNL A   1      40.626  29.856  29.922  1.00  0.00     0.074 A 
ATOM     27  C   UNL A   1      40.238  27.625  28.936  1.00  0.00     0.049 A 
ATOM     28  N   UNL A   1      41.888  29.771  30.254  1.00  0.00    -0.248 NA
ATOM     29  C   UNL A   1      39.995  31.142  30.261  1.00  0.00     0.031 C 
ATOM     30  C   UNL A   1      39.489  26.540  28.307  1.00  0.00     0.029 A 
ATOM     31  N   UNL A   1      41.501  27.112  29.104  1.00  0.00    -0.354 N 
ATOM     32  C   UNL A   1      42.203  30.993  30.838  1.00  0.00     0.074 A 
ATOM     33  C   UNL A   1      41.011  31.810  30.784  1.00  0.00     0.031 C 
ATOM     34  C   UNL A   1      40.313  25.491  28.128  1.00  0.00     0.029 A 
ATOM     35  C   UNL A   1      41.651  25.841  28.605  1.00  0.00     0.049 A 
ATOM     36  H   UNL A   1      42.230  27.608  29.541  1.00  0.00     0.167 HD
ATOM     37  C   UNL A   1      43.378  31.398  31.375  1.00  0.00     0.031 A 
ATOM     38  C   UNL A   1      42.746  25.056  28.526  1.00  0.00     0.031 A 
ATOM     39  C   UNL A   1      44.573  30.602  31.408  1.00  0.00     0.049 A 
ATOM     40  C   UNL A   1      44.062  25.554  29.067  1.00  0.00     0.074 A 
ATOM     41  C   UNL A   1      45.808  30.926  31.940  1.00  0.00     0.029 A 
ATOM     42  N   UNL A   1      44.687  29.326  30.878  1.00  0.00    -0.354 N 
ATOM     43  N   UNL A   1      44.338  26.698  29.646  1.00  0.00    -0.248 NA
ATOM     44  C   UNL A   1      45.215  24.647  28.950  1.00  0.00     0.031 C 
ATOM     45  C   UNL A   1      46.684  29.864  31.687  1.00  0.00     0.029 A 
ATOM     46  C   UNL A   1      45.977  28.858  31.047  1.00  0.00     0.049 A 
ATOM     47  H   UNL A   1      43.957  28.827  30.444  1.00  0.00     0.167 HD
ATOM     48  C   UNL A   1      45.684  26.635  29.993  1.00  0.00     0.074 A 
ATOM     49  C   UNL A   1      46.168  25.341  29.560  1.00  0.00     0.031 C 
ATOM     50  C   UNL A   1      46.448  27.564  30.619  1.00  0.00     0.031 A 
BRANCH  37  51
ATOM     51  C   UNL A   1      43.425  32.792  31.937  1.00  0.00    -0.014 A 
ATOM     52  C   UNL A   1      43.761  33.891  31.126  1.00  0.00     0.010 A 
ATOM     53  C   UNL A   1      43.129  33.006  33.295  1.00  0.00     0.010 A 
ATOM     54  C   UNL A   1      43.850  35.173  31.675  1.00  0.00     0.020 A 
ATOM     55  C   UNL A   1      43.192  34.290  33.843  1.00  0.00     0.020 A 
ATOM     56  C   UNL A   1      43.574  35.362  33.032  1.00  0.00     0.054 A 
BRANCH  56  57
ATOM     57  S   UNL A   1      43.704  37.033  33.724  1.00  0.00     0.124 S 
ATOM     58  O   UNL A   1      42.343  37.263  34.207  1.00  0.00    -0.237 OA
ATOM     59  O   UNL A   1      44.719  36.875  34.763  1.00  0.00    -0.237 OA
ATOM     60  O   UNL A   1      44.106  37.851  32.583  1.00  0.00    -0.744 OA
ENDBRANCH  56  57
ENDBRANCH  37  51
BRANCH  38  61
ATOM     61  C   UNL A   1      42.648  23.710  27.897  1.00  0.00    -0.014 A 
ATOM     62  C   UNL A   1      42.450  22.565  28.687  1.00  0.00     0.010 A 
ATOM     63  C   UNL A   1      42.754  23.570  26.502  1.00  0.00     0.010 A 
ATOM     64  C   UNL A   1      42.370  21.300  28.094  1.00  0.00     0.020 A 
ATOM     65  C   UNL A   1      42.652  22.312  25.903  1.00  0.00     0.020 A 
ATOM     66  C   UNL A   1      42.468  21.182  26.704  1.00  0.00     0.054 A 
BRANCH  66  67
ATOM     67  S   UNL A   1      42.300  19.541  25.947  1.00  0.00     0.124 S 
ATOM     68  O   UNL A   1      42.584  18.657  27.073  1.00  0.00    -0.237 OA
ATOM     69  O   UNL A   1      40.915  19.549  25.481  1.00  0.00    -0.237 OA
ATOM     70  O   UNL A   1      43.304  19.551  24.887  1.00  0.00    -0.744 OA
ENDBRANCH  66  67
ENDBRANCH  38  61
BRANCH  50  71
ATOM     71  C   UNL A   1      47.881  27.211  30.923  1.00  0.00    -0.014 A 
ATOM     72  C   UNL A   1      48.229  26.487  32.076  1.00  0.00     0.010 A 
ATOM     73  C   UNL A   1      48.885  27.541  29.992  1.00  0.00     0.010 A 
ATOM     74  C   UNL A   1      49.558  26.117  32.302  1.00  0.00     0.020 A 
ATOM     75  C   UNL A   1      50.210  27.152  30.203  1.00  0.00     0.020 A 
ATOM     76  C   UNL A   1      50.540  26.451  31.364  1.00  0.00     0.054 A 
BRANCH  76  77
ATOM     77  S   UNL A   1      52.248  25.907  31.650  1.00  0.00     0.124 S 
ATOM     78  O   UNL A   1      52.056  24.542  32.131  1.00  0.00    -0.237 OA
ATOM     79  O   UNL A   1      52.851  26.027  30.324  1.00  0.00    -0.237 OA
ATOM     80  O   UNL A   1      52.751  26.853  32.644  1.00  0.00    -0.744 OA
ENDBRANCH  76  77
ENDBRANCH  50  71
ENDBRANCH  24  25
ENDBRANCH  17  19
ENDBRANCH  16  17
ENDBRANCH  15  16
ENDBRANCH   1  15
TORSDOF 17
ENDMDL
MODEL 2
REMARK VINA RESULT:      -8.4      4.576      6.683
REMARK SMILES O=C(CSC(=S)N1CCCCC1)OCCOC(=O)c1ccc(-c2c3nc(c(-c4ccc(S(=O)(=O)[O-])cc4)c4ccc([nH]4)c(-c4ccc(S(=O)(=O)[O-])cc4)c4nc(c(-c5ccc(S(=O)(=O)[O-])cc5)c5ccc2[nH]5)C=C4)C=C3)cc1
REMARK SMILES IDX 14 1 13 2 2 3 1 4 3 5 4 6 5 7 6 8 7 9 8 10 12 11 9 12 11 13
REMARK SMILES IDX 10 14 15 15 16 16 17 17 18 18 19 19 20 20 78 21 21 22 77 23
REMARK SMILES IDX 22 24 23 25 24 26 71 27 25 28 76 29 70 30 72 31 26 32 75 33
REMARK SMILES IDX 69 34 68 35 27 37 57 38 38 39 56 40 39 41 42 42 55 43 73 44
REMARK SMILES IDX 40 45 41 46 54 48 74 49 43 50 28 51 29 52 37 53 30 54 36 55
REMARK SMILES IDX 31 56 32 57 33 58 34 59 35 60 58 61 59 62 67 63 60 64 66 65
REMARK SMILES IDX 61 66 62 67 63 68 64 69 65 70 44 71 45 72 53 73 46 74 52 75
REMARK SMILES IDX 47 76 48 77 49 78 50 79 51 80
REMARK H PARENT 72 36 42 47
REMARK Flexibility Score: inf
ROOT
ATOM      1  C   UNL A   1      33.942  30.600  27.269  1.00  0.00     0.274 C 
ENDROOT
BRANCH   1   2
ATOM      2  O   UNL A   1      33.954  29.326  26.590  1.00  0.00    -0.461 OA
BRANCH   2   3
ATOM      3  C   UNL A   1      33.234  29.018  25.484  1.00  0.00     0.316 C 
ATOM      4  O   UNL A   1      32.248  29.696  25.202  1.00  0.00    -0.251 OA
BRANCH   3   5
ATOM      5  C   UNL A   1      33.663  27.848  24.624  1.00  0.00     0.199 C 
BRANCH   5   6
ATOM      6  S   UNL A   1      32.444  27.414  23.372  1.00  0.00    -0.085 SA
BRANCH   6   7
ATOM      7  C   UNL A   1      31.525  26.078  24.063  1.00  0.00     0.136 C 
ATOM      8  S   UNL A   1      30.547  26.139  25.421  1.00  0.00    -0.053 S 
BRANCH   7   9
ATOM      9  N   UNL A   1      31.625  24.948  23.258  1.00  0.00    -0.358 N 
ATOM     10  C   UNL A   1      30.867  23.729  23.532  1.00  0.00     0.118 C 
ATOM     11  C   UNL A   1      32.669  24.813  22.236  1.00  0.00     0.118 C 
ATOM     12  C   UNL A   1      31.789  22.594  23.951  1.00  0.00     0.021 C 
ATOM     13  C   UNL A   1      33.634  23.689  22.621  1.00  0.00     0.021 C 
ATOM     14  C   UNL A   1      32.891  22.384  22.913  1.00  0.00     0.004 C 
ENDBRANCH   7   9
ENDBRANCH   6   7
ENDBRANCH   5   6
ENDBRANCH   3   5
ENDBRANCH   2   3
ENDBRANCH   1   2
BRANCH   1  15
ATOM     15  C   UNL A   1      35.232  30.817  28.062  1.00  0.00     0.275 C 
BRANCH  15  16
ATOM     16  O   UNL A   1      35.987  29.593  28.114  1.00  0.00    -0.458 OA
BRANCH  16  17
ATOM     17  C   UNL A   1      36.702  29.378  29.247  1.00  0.00     0.338 C 
ATOM     18  O   UNL A   1      36.266  29.327  30.382  1.00  0.00    -0.246 OA
BRANCH  17  19
ATOM     19  C   UNL A   1      38.088  29.011  28.870  1.00  0.00     0.060 A 
ATOM     20  C   UNL A   1      38.875  28.329  29.807  1.00  0.00     0.016 A 
ATOM     21  C   UNL A   1      38.601  29.305  27.602  1.00  0.00     0.016 A 
ATOM     22  C   UNL A   1      40.189  27.972  29.490  1.00  0.00     0.010 A 
ATOM     23  C   UNL A   1      39.916  28.953  27.289  1.00  0.00     0.010 A 
ATOM     24  C   UNL A   1      40.727  28.312  28.242  1.00  0.00    -0.014 A 
BRANCH  24  25
ATOM     25  C   UNL A   1      42.182  28.180  27.983  1.00  0.00     0.031 A 
ATOM     26  C   UNL A   1      43.062  29.374  28.235  1.00  0.00     0.074 A 
ATOM     27  C   UNL A   1      42.714  27.041  27.503  1.00  0.00     0.049 A 
ATOM     28  N   UNL A   1      44.343  29.520  28.018  1.00  0.00    -0.248 NA
ATOM     29  C   UNL A   1      42.404  30.563  28.801  1.00  0.00     0.031 C 
ATOM     30  C   UNL A   1      41.982  25.805  27.241  1.00  0.00     0.029 A 
ATOM     31  N   UNL A   1      44.006  26.753  27.137  1.00  0.00    -0.354 N 
ATOM     32  C   UNL A   1      44.644  30.817  28.416  1.00  0.00     0.074 A 
ATOM     33  C   UNL A   1      43.408  31.425  28.857  1.00  0.00     0.031 C 
ATOM     34  C   UNL A   1      42.835  24.892  26.741  1.00  0.00     0.029 A 
ATOM     35  C   UNL A   1      44.166  25.489  26.623  1.00  0.00     0.049 A 
ATOM     36  H   UNL A   1      44.748  27.393  27.233  1.00  0.00     0.167 HD
ATOM     37  C   UNL A   1      45.843  31.447  28.421  1.00  0.00     0.031 A 
ATOM     38  C   UNL A   1      45.255  24.888  26.102  1.00  0.00     0.031 A 
ATOM     39  C   UNL A   1      47.070  30.859  27.961  1.00  0.00     0.049 A 
ATOM     40  C   UNL A   1      46.566  25.632  26.052  1.00  0.00     0.074 A 
ATOM     41  C   UNL A   1      48.335  31.419  27.935  1.00  0.00     0.029 A 
ATOM     42  N   UNL A   1      47.185  29.583  27.434  1.00  0.00    -0.354 N 
ATOM     43  N   UNL A   1      46.843  26.846  26.462  1.00  0.00    -0.248 NA
ATOM     44  C   UNL A   1      47.714  24.917  25.473  1.00  0.00     0.031 C 
ATOM     45  C   UNL A   1      49.208  30.496  27.347  1.00  0.00     0.029 A 
ATOM     46  C   UNL A   1      48.495  29.344  27.058  1.00  0.00     0.049 A 
ATOM     47  H   UNL A   1      46.444  28.940  27.341  1.00  0.00     0.167 HD
ATOM     48  C   UNL A   1      48.202  27.029  26.224  1.00  0.00     0.074 A 
ATOM     49  C   UNL A   1      48.692  25.801  25.634  1.00  0.00     0.031 C 
ATOM     50  C   UNL A   1      48.975  28.114  26.478  1.00  0.00     0.031 A 
BRANCH  37  51
ATOM     51  C   UNL A   1      45.863  32.869  28.910  1.00  0.00    -0.014 A 
ATOM     52  C   UNL A   1      46.072  33.166  30.269  1.00  0.00     0.010 A 
ATOM     53  C   UNL A   1      45.671  33.922  27.998  1.00  0.00     0.010 A 
ATOM     54  C   UNL A   1      46.037  34.490  30.716  1.00  0.00     0.020 A 
ATOM     55  C   UNL A   1      45.662  35.249  28.437  1.00  0.00     0.020 A 
ATOM     56  C   UNL A   1      45.823  35.522  29.798  1.00  0.00     0.054 A 
BRANCH  56  57
ATOM     57  S   UNL A   1      45.775  37.231  30.401  1.00  0.00     0.124 S 
ATOM     58  O   UNL A   1      45.200  37.936  29.257  1.00  0.00    -0.237 OA
ATOM     59  O   UNL A   1      44.912  37.134  31.576  1.00  0.00    -0.237 OA
ATOM     60  O   UNL A   1      47.175  37.539  30.683  1.00  0.00    -0.744 OA
ENDBRANCH  56  57
ENDBRANCH  37  51
BRANCH  38  61
ATOM     61  C   UNL A   1      45.154  23.500  25.573  1.00  0.00    -0.014 A 
ATOM     62  C   UNL A   1      45.395  22.397  26.409  1.00  0.00     0.010 A 
ATOM     63  C   UNL A   1      44.815  23.278  24.227  1.00  0.00     0.010 A 
ATOM     64  C   UNL A   1      45.309  21.094  25.906  1.00  0.00     0.020 A 
ATOM     65  C   UNL A   1      44.706  21.978  23.725  1.00  0.00     0.020 A 
ATOM     66  C   UNL A   1      44.962  20.893  24.567  1.00  0.00     0.054 A 
BRANCH  66  67
ATOM     67  S   UNL A   1      44.795  19.195  23.947  1.00  0.00     0.124 S 
ATOM     68  O   UNL A   1      44.505  19.415  22.534  1.00  0.00    -0.237 OA
ATOM     69  O   UNL A   1      46.105  18.621  24.245  1.00  0.00    -0.237 OA
ATOM     70  O   UNL A   1      43.693  18.652  24.738  1.00  0.00    -0.744 OA
ENDBRANCH  66  67
ENDBRANCH  38  61
BRANCH  50  71
ATOM     71  C   UNL A   1      50.446  28.021  26.165  1.00  0.00    -0.014 A 
ATOM     72  C   UNL A   1      50.948  28.360  24.897  1.00  0.00     0.010 A 
ATOM     73  C   UNL A   1      51.347  27.664  27.186  1.00  0.00     0.010 A 
ATOM     74  C   UNL A   1      52.324  28.327  24.651  1.00  0.00     0.020 A 
ATOM     75  C   UNL A   1      52.724  27.652  26.950  1.00  0.00     0.020 A 
ATOM     76  C   UNL A   1      53.204  27.974  25.680  1.00  0.00     0.054 A 
BRANCH  76  77
ATOM     77  S   UNL A   1      54.989  27.996  25.353  1.00  0.00     0.124 S 
ATOM     78  O   UNL A   1      55.511  27.203  26.461  1.00  0.00    -0.237 OA
ATOM     79  O   UNL A   1      55.083  27.372  24.034  1.00  0.00    -0.237 OA
ATOM     80  O   UNL A   1      55.330  29.417  25.387  1.00  0.00    -0.744 OA
ENDBRANCH  76  77
ENDBRANCH  50  71
ENDBRANCH  24  25
ENDBRANCH  17  19
ENDBRANCH  16  17
ENDBRANCH  15  16
ENDBRANCH   1  15
TORSDOF 17
ENDMDL
MODEL 3
REMARK VINA RESULT:      -8.4      4.807     11.829
REMARK SMILES O=C(CSC(=S)N1CCCCC1)OCCOC(=O)c1ccc(-c2c3nc(c(-c4ccc(S(=O)(=O)[O-])cc4)c4ccc([nH]4)c(-c4ccc(S(=O)(=O)[O-])cc4)c4nc(c(-c5ccc(S(=O)(=O)[O-])cc5)c5ccc2[nH]5)C=C4)C=C3)cc1
REMARK SMILES IDX 14 1 13 2 2 3 1 4 3 5 4 6 5 7 6 8 7 9 8 10 12 11 9 12 11 13
REMARK SMILES IDX 10 14 15 15 16 16 17 17 18 18 19 19 20 20 78 21 21 22 77 23
REMARK SMILES IDX 22 24 23 25 24 26 71 27 25 28 76 29 70 30 72 31 26 32 75 33
REMARK SMILES IDX 69 34 68 35 27 37 57 38 38 39 56 40 39 41 42 42 55 43 73 44
REMARK SMILES IDX 40 45 41 46 54 48 74 49 43 50 28 51 29 52 37 53 30 54 36 55
REMARK SMILES IDX 31 56 32 57 33 58 34 59 35 60 58 61 59 62 67 63 60 64 66 65
REMARK SMILES IDX 61 66 62 67 63 68 64 69 65 70 44 71 45 72 53 73 46 74 52 75
REMARK SMILES IDX 47 76 48 77 49 78 50 79 51 80
REMARK H PARENT 72 36 42 47
REMARK Flexibility Score: inf
ROOT
ATOM      1  C   UNL A   1      38.891  21.430  25.864  1.00  0.00     0.274 C 
ENDROOT
BRANCH   1   2
ATOM      2  O   UNL A   1      37.448  21.362  25.863  1.00  0.00    -0.461 OA
BRANCH   2   3
ATOM      3  C   UNL A   1      36.615  22.362  25.488  1.00  0.00     0.316 C 
ATOM      4  O   UNL A   1      36.945  23.528  25.695  1.00  0.00    -0.251 OA
BRANCH   3   5
ATOM      5  C   UNL A   1      35.298  22.017  24.824  1.00  0.00     0.199 C 
BRANCH   5   6
ATOM      6  S   UNL A   1      34.876  20.273  24.971  1.00  0.00    -0.085 SA
BRANCH   6   7
ATOM      7  C   UNL A   1      33.114  20.220  24.959  1.00  0.00     0.136 C 
ATOM      8  S   UNL A   1      32.078  21.525  25.130  1.00  0.00    -0.053 S 
BRANCH   7   9
ATOM      9  N   UNL A   1      32.665  18.935  24.673  1.00  0.00    -0.358 N 
ATOM     10  C   UNL A   1      32.530  17.911  25.708  1.00  0.00     0.118 C 
ATOM     11  C   UNL A   1      32.535  18.447  23.296  1.00  0.00     0.118 C 
ATOM     12  C   UNL A   1      33.544  16.794  25.508  1.00  0.00     0.021 C 
ATOM     13  C   UNL A   1      33.548  17.328  23.040  1.00  0.00     0.021 C 
ATOM     14  C   UNL A   1      33.444  16.224  24.093  1.00  0.00     0.004 C 
ENDBRANCH   7   9
ENDBRANCH   6   7
ENDBRANCH   5   6
ENDBRANCH   3   5
ENDBRANCH   2   3
ENDBRANCH   1   2
BRANCH   1  15
ATOM     15  C   UNL A   1      39.510  20.047  25.650  1.00  0.00     0.275 C 
BRANCH  15  16
ATOM     16  O   UNL A   1      40.502  19.793  26.660  1.00  0.00    -0.458 OA
BRANCH  16  17
ATOM     17  C   UNL A   1      41.789  19.733  26.235  1.00  0.00     0.338 C 
ATOM     18  O   UNL A   1      42.310  18.818  25.624  1.00  0.00    -0.246 OA
BRANCH  17  19
ATOM     19  C   UNL A   1      42.423  21.054  26.455  1.00  0.00     0.060 A 
ATOM     20  C   UNL A   1      42.549  21.523  27.769  1.00  0.00     0.016 A 
ATOM     21  C   UNL A   1      42.917  21.813  25.388  1.00  0.00     0.016 A 
ATOM     22  C   UNL A   1      43.136  22.768  28.015  1.00  0.00     0.010 A 
ATOM     23  C   UNL A   1      43.498  23.059  25.635  1.00  0.00     0.010 A 
ATOM     24  C   UNL A   1      43.583  23.557  26.947  1.00  0.00    -0.014 A 
BRANCH  24  25
ATOM     25  C   UNL A   1      43.964  24.975  27.160  1.00  0.00     0.031 A 
ATOM     26  C   UNL A   1      45.407  25.360  26.976  1.00  0.00     0.074 A 
ATOM     27  C   UNL A   1      43.064  25.900  27.539  1.00  0.00     0.049 A 
ATOM     28  N   UNL A   1      45.988  26.515  27.171  1.00  0.00    -0.248 NA
ATOM     29  C   UNL A   1      46.314  24.296  26.518  1.00  0.00     0.031 C 
ATOM     30  C   UNL A   1      41.633  25.668  27.725  1.00  0.00     0.029 A 
ATOM     31  N   UNL A   1      43.235  27.227  27.850  1.00  0.00    -0.354 N 
ATOM     32  C   UNL A   1      47.328  26.316  26.865  1.00  0.00     0.074 A 
ATOM     33  C   UNL A   1      47.479  24.924  26.502  1.00  0.00     0.031 C 
ATOM     34  C   UNL A   1      41.057  26.814  28.133  1.00  0.00     0.029 A 
ATOM     35  C   UNL A   1      42.082  27.851  28.262  1.00  0.00     0.049 A 
ATOM     36  H   UNL A   1      44.102  27.688  27.784  1.00  0.00     0.167 HD
ATOM     37  C   UNL A   1      48.344  27.211  26.877  1.00  0.00     0.031 A 
ATOM     38  C   UNL A   1      41.880  29.107  28.710  1.00  0.00     0.031 A 
ATOM     39  C   UNL A   1      48.207  28.589  27.262  1.00  0.00     0.049 A 
ATOM     40  C   UNL A   1      43.039  30.069  28.784  1.00  0.00     0.074 A 
ATOM     41  C   UNL A   1      49.180  29.572  27.298  1.00  0.00     0.029 A 
ATOM     42  N   UNL A   1      47.026  29.175  27.688  1.00  0.00    -0.354 N 
ATOM     43  N   UNL A   1      44.294  29.876  28.459  1.00  0.00    -0.248 NA
ATOM     44  C   UNL A   1      42.748  31.424  29.278  1.00  0.00     0.031 C 
ATOM     45  C   UNL A   1      48.595  30.743  27.793  1.00  0.00     0.029 A 
ATOM     46  C   UNL A   1      47.249  30.502  28.012  1.00  0.00     0.049 A 
ATOM     47  H   UNL A   1      46.157  28.716  27.750  1.00  0.00     0.167 HD
ATOM     48  C   UNL A   1      44.936  31.092  28.677  1.00  0.00     0.074 A 
ATOM     49  C   UNL A   1      43.931  32.015  29.160  1.00  0.00     0.031 C 
ATOM     50  C   UNL A   1      46.239  31.415  28.486  1.00  0.00     0.031 A 
BRANCH  37  51
ATOM     51  C   UNL A   1      49.707  26.701  26.496  1.00  0.00    -0.014 A 
ATOM     52  C   UNL A   1      50.583  26.177  27.465  1.00  0.00     0.010 A 
ATOM     53  C   UNL A   1      50.116  26.746  25.152  1.00  0.00     0.010 A 
ATOM     54  C   UNL A   1      51.865  25.756  27.103  1.00  0.00     0.020 A 
ATOM     55  C   UNL A   1      51.388  26.300  24.781  1.00  0.00     0.020 A 
ATOM     56  C   UNL A   1      52.262  25.829  25.764  1.00  0.00     0.054 A 
BRANCH  56  57
ATOM     57  S   UNL A   1      53.932  25.282  25.319  1.00  0.00     0.124 S 
ATOM     58  O   UNL A   1      53.854  23.845  25.574  1.00  0.00    -0.237 OA
ATOM     59  O   UNL A   1      54.033  25.665  23.912  1.00  0.00    -0.237 OA
ATOM     60  O   UNL A   1      54.797  26.030  26.229  1.00  0.00    -0.744 OA
ENDBRANCH  56  57
ENDBRANCH  37  51
BRANCH  38  61
ATOM     61  C   UNL A   1      40.517  29.531  29.135  1.00  0.00    -0.014 A 
ATOM     62  C   UNL A   1      39.592  30.013  28.193  1.00  0.00     0.010 A 
ATOM     63  C   UNL A   1      40.141  29.455  30.488  1.00  0.00     0.010 A 
ATOM     64  C   UNL A   1      38.317  30.421  28.598  1.00  0.00     0.020 A 
ATOM     65  C   UNL A   1      38.861  29.841  30.894  1.00  0.00     0.020 A 
ATOM     66  C   UNL A   1      37.958  30.329  29.947  1.00  0.00     0.054 A 
BRANCH  66  67
ATOM     67  S   UNL A   1      36.278  30.805  30.444  1.00  0.00     0.124 S 
ATOM     68  O   UNL A   1      35.903  29.709  31.331  1.00  0.00    -0.237 OA
ATOM     69  O   UNL A   1      36.495  32.098  31.089  1.00  0.00    -0.237 OA
ATOM     70  O   UNL A   1      35.553  30.865  29.177  1.00  0.00    -0.744 OA
ENDBRANCH  66  67
ENDBRANCH  38  61
BRANCH  50  71
ATOM     71  C   UNL A   1      46.659  32.837  28.755  1.00  0.00    -0.014 A 
ATOM     72  C   UNL A   1      46.579  33.826  27.760  1.00  0.00     0.010 A 
ATOM     73  C   UNL A   1      47.065  33.203  30.053  1.00  0.00     0.010 A 
ATOM     74  C   UNL A   1      46.915  35.151  28.052  1.00  0.00     0.020 A 
ATOM     75  C   UNL A   1      47.379  34.530  30.355  1.00  0.00     0.020 A 
ATOM     76  C   UNL A   1      47.312  35.495  29.349  1.00  0.00     0.054 A 
BRANCH  76  77
ATOM     77  S   UNL A   1      47.685  37.232  29.719  1.00  0.00     0.124 S 
ATOM     78  O   UNL A   1      46.571  37.926  29.079  1.00  0.00    -0.237 OA
ATOM     79  O   UNL A   1      47.684  37.257  31.181  1.00  0.00    -0.237 OA
ATOM     80  O   UNL A   1      48.991  37.446  29.100  1.00  0.00    -0.744 OA
ENDBRANCH  76  77
ENDBRANCH  50  71
ENDBRANCH  24  25
ENDBRANCH  17  19
ENDBRANCH  16  17
ENDBRANCH  15  16
ENDBRANCH   1  15
TORSDOF 17
ENDMDL
