MODEL 1
REMARK VINA RESULT:     -12.1      0.000      0.000
REMARK SMILES CCOc1cc2c(cc1/C=C1/C(=O)N(c3cccc(C(=O)OCCOC(=O)c4ccc(-c5c6nc(c(-c7ccc(S(=O)(=O)[O-])cc7)c7ccc([nH]7)c(-c7ccc(S(=O)(=O)[O-])cc7)c7nc(c(-c8ccc(S(=O)(=O)[O-])cc8)c8ccc5[nH]8)C=C7)C=C6)cc4)c3)C(=S)N=C1O)OCO2
REMARK SMILES IDX 23 1 22 2 20 3 21 4 19 5 15 6 16 7 88 8 17 9 18 10 14 11
REMARK SMILES IDX 10 12 11 13 12 14 92 15 13 16 91 17 89 18 90 19 9 20 4 21
REMARK SMILES IDX 5 22 6 23 8 24 7 25 96 26 94 27 95 28 3 29 2 30 1 31 93 32
REMARK SMILES IDX 24 34 25 35 26 36 27 37 28 38 29 39 87 40 30 41 86 42 31 43
REMARK SMILES IDX 32 44 33 45 80 46 34 47 85 48 79 49 81 50 35 51 84 52 78 53
REMARK SMILES IDX 77 54 36 56 66 57 47 58 65 59 48 60 51 61 64 62 82 63 49 64
REMARK SMILES IDX 50 65 63 67 83 68 52 69 37 70 38 71 46 72 39 73 45 74 40 75
REMARK SMILES IDX 41 76 42 77 43 78 44 79 67 80 68 81 76 82 69 83 75 84 70 85
REMARK SMILES IDX 71 86 72 87 73 88 74 89 53 90 54 91 62 92 55 93 61 94 56 95
REMARK SMILES IDX 57 96 58 97 59 98 60 99
REMARK H PARENT 93 33 81 55 51 66
REMARK Flexibility Score: inf
ROOT
ATOM      1  C   UNL A   1      37.990  22.615  25.446  1.00  0.00     0.275 C 
ENDROOT
BRANCH   1   2
ATOM      2  O   UNL A   1      36.783  21.986  25.917  1.00  0.00    -0.458 OA
BRANCH   2   3
ATOM      3  C   UNL A   1      36.360  20.896  25.227  1.00  0.00     0.338 C 
ATOM      4  O   UNL A   1      36.983  19.869  25.038  1.00  0.00    -0.246 OA
BRANCH   3   5
ATOM      5  C   UNL A   1      34.945  21.079  24.813  1.00  0.00     0.062 A 
ATOM      6  C   UNL A   1      33.120  22.480  24.054  1.00  0.00     0.052 A 
ATOM      7  C   UNL A   1      32.249  21.381  24.150  1.00  0.00     0.027 A 
ATOM      8  C   UNL A   1      34.464  22.326  24.416  1.00  0.00     0.042 A 
ATOM      9  C   UNL A   1      32.732  20.130  24.520  1.00  0.00     0.003 A 
ATOM     10  C   UNL A   1      34.085  19.973  24.808  1.00  0.00     0.016 A 
BRANCH   6  11
ATOM     11  N   UNL A   1      32.661  23.701  23.461  1.00  0.00    -0.251 N 
ATOM     12  C   UNL A   1      30.739  26.668  24.351  1.00  0.00     0.031 C 
ATOM     13  C   UNL A   1      31.651  25.905  23.709  1.00  0.00     0.103 C 
ATOM     14  C   UNL A   1      31.998  24.593  24.322  1.00  0.00     0.270 C 
ATOM     15  C   UNL A   1      32.377  26.180  22.474  1.00  0.00     0.226 C 
ATOM     16  O   UNL A   1      31.717  24.373  25.500  1.00  0.00    -0.268 OA
ATOM     17  N   UNL A   1      32.974  25.327  21.734  1.00  0.00    -0.184 NA
ATOM     18  C   UNL A   1      32.951  24.006  22.114  1.00  0.00     0.210 C 
ATOM     19  S   UNL A   1      33.238  22.837  20.915  1.00  0.00    -0.038 S 
BRANCH  12  20
ATOM     20  C   UNL A   1      30.203  27.984  23.958  1.00  0.00     0.021 A 
ATOM     21  C   UNL A   1      30.645  29.178  24.587  1.00  0.00     0.130 A 
ATOM     22  C   UNL A   1      30.306  30.435  24.075  1.00  0.00     0.097 A 
ATOM     23  C   UNL A   1      29.449  30.476  23.003  1.00  0.00     0.169 A 
ATOM     24  C   UNL A   1      29.237  28.081  22.945  1.00  0.00     0.062 A 
ATOM     25  C   UNL A   1      28.910  29.332  22.469  1.00  0.00     0.166 A 
ATOM     26  O   UNL A   1      29.036  31.595  22.353  1.00  0.00    -0.453 OA
ATOM     27  O   UNL A   1      28.087  29.586  21.418  1.00  0.00    -0.454 OA
ATOM     28  C   UNL A   1      28.264  31.011  21.284  1.00  0.00     0.468 C 
BRANCH  21  29
ATOM     29  O   UNL A   1      31.486  29.141  25.674  1.00  0.00    -0.493 OA
BRANCH  29  30
ATOM     30  C   UNL A   1      32.773  29.705  25.364  1.00  0.00     0.226 C 
ATOM     31  C   UNL A   1      33.817  28.633  25.079  1.00  0.00     0.049 C 
ENDBRANCH  29  30
ENDBRANCH  21  29
ENDBRANCH  12  20
BRANCH  15  32
ATOM     32  O   UNL A   1      32.488  27.455  22.102  1.00  0.00    -0.493 OA
ATOM     33  H   UNL A   1      32.259  27.711  21.230  1.00  0.00     0.295 HD
ENDBRANCH  15  32
ENDBRANCH   6  11
ENDBRANCH   3   5
ENDBRANCH   2   3
ENDBRANCH   1   2
BRANCH   1  34
ATOM     34  C   UNL A   1      39.205  22.127  26.236  1.00  0.00     0.275 C 
BRANCH  34  35
ATOM     35  O   UNL A   1      39.563  23.076  27.255  1.00  0.00    -0.458 OA
BRANCH  35  36
ATOM     36  C   UNL A   1      40.639  23.846  26.973  1.00  0.00     0.338 C 
ATOM     37  O   UNL A   1      41.521  23.624  26.162  1.00  0.00    -0.246 OA
BRANCH  36  38
ATOM     38  C   UNL A   1      40.565  25.087  27.754  1.00  0.00     0.060 A 
ATOM     39  C   UNL A   1      41.687  25.909  27.790  1.00  0.00     0.016 A 
ATOM     40  C   UNL A   1      39.456  25.375  28.543  1.00  0.00     0.016 A 
ATOM     41  C   UNL A   1      41.753  26.977  28.679  1.00  0.00     0.010 A 
ATOM     42  C   UNL A   1      39.487  26.504  29.368  1.00  0.00     0.010 A 
ATOM     43  C   UNL A   1      40.646  27.300  29.470  1.00  0.00    -0.014 A 
BRANCH  43  44
ATOM     44  C   UNL A   1      40.694  28.434  30.432  1.00  0.00     0.031 A 
ATOM     45  C   UNL A   1      41.710  28.420  31.543  1.00  0.00     0.074 A 
ATOM     46  C   UNL A   1      39.821  29.459  30.338  1.00  0.00     0.049 A 
ATOM     47  N   UNL A   1      41.748  29.131  32.638  1.00  0.00    -0.248 NA
ATOM     48  C   UNL A   1      42.820  27.463  31.408  1.00  0.00     0.031 C 
ATOM     49  C   UNL A   1      38.839  29.651  29.267  1.00  0.00     0.029 A 
ATOM     50  N   UNL A   1      39.609  30.530  31.173  1.00  0.00    -0.354 N 
ATOM     51  C   UNL A   1      42.842  28.659  33.357  1.00  0.00     0.074 A 
ATOM     52  C   UNL A   1      43.445  27.607  32.567  1.00  0.00     0.031 C 
ATOM     53  C   UNL A   1      38.141  30.772  29.504  1.00  0.00     0.029 A 
ATOM     54  C   UNL A   1      38.551  31.322  30.790  1.00  0.00     0.049 A 
ATOM     55  H   UNL A   1      40.161  30.713  31.967  1.00  0.00     0.167 HD
ATOM     56  C   UNL A   1      43.289  29.061  34.571  1.00  0.00     0.031 A 
ATOM     57  C   UNL A   1      37.933  32.335  31.429  1.00  0.00     0.031 A 
ATOM     58  C   UNL A   1      42.699  30.135  35.325  1.00  0.00     0.049 A 
ATOM     59  C   UNL A   1      38.404  32.727  32.801  1.00  0.00     0.074 A 
ATOM     60  C   UNL A   1      43.073  30.625  36.563  1.00  0.00     0.029 A 
ATOM     61  N   UNL A   1      41.619  30.896  34.902  1.00  0.00    -0.354 N 
ATOM     62  N   UNL A   1      39.393  32.227  33.503  1.00  0.00    -0.248 NA
ATOM     63  C   UNL A   1      37.668  33.805  33.476  1.00  0.00     0.031 C 
ATOM     64  C   UNL A   1      42.192  31.655  36.909  1.00  0.00     0.029 A 
ATOM     65  C   UNL A   1      41.306  31.844  35.859  1.00  0.00     0.049 A 
ATOM     66  H   UNL A   1      41.145  30.778  34.047  1.00  0.00     0.167 HD
ATOM     67  C   UNL A   1      39.416  32.950  34.691  1.00  0.00     0.074 A 
ATOM     68  C   UNL A   1      38.345  33.922  34.611  1.00  0.00     0.031 C 
ATOM     69  C   UNL A   1      40.251  32.820  35.750  1.00  0.00     0.031 A 
BRANCH  56  70
ATOM     70  C   UNL A   1      44.437  28.302  35.184  1.00  0.00    -0.014 A 
ATOM     71  C   UNL A   1      44.270  27.016  35.724  1.00  0.00     0.010 A 
ATOM     72  C   UNL A   1      45.721  28.881  35.182  1.00  0.00     0.010 A 
ATOM     73  C   UNL A   1      45.357  26.339  36.288  1.00  0.00     0.020 A 
ATOM     74  C   UNL A   1      46.815  28.197  35.719  1.00  0.00     0.020 A 
ATOM     75  C   UNL A   1      46.622  26.936  36.286  1.00  0.00     0.054 A 
BRANCH  75  76
ATOM     76  S   UNL A   1      48.018  26.031  37.008  1.00  0.00     0.124 S 
ATOM     77  O   UNL A   1      48.423  25.169  35.900  1.00  0.00    -0.237 OA
ATOM     78  O   UNL A   1      48.954  27.099  37.347  1.00  0.00    -0.237 OA
ATOM     79  O   UNL A   1      47.429  25.338  38.151  1.00  0.00    -0.744 OA
ENDBRANCH  75  76
ENDBRANCH  56  70
BRANCH  57  80
ATOM     80  C   UNL A   1      36.758  33.001  30.798  1.00  0.00    -0.014 A 
ATOM     81  C   UNL A   1      35.452  32.694  31.216  1.00  0.00     0.010 A 
ATOM     82  C   UNL A   1      36.944  33.967  29.792  1.00  0.00     0.010 A 
ATOM     83  C   UNL A   1      34.354  33.337  30.637  1.00  0.00     0.020 A 
ATOM     84  C   UNL A   1      35.851  34.634  29.231  1.00  0.00     0.020 A 
ATOM     85  C   UNL A   1      34.561  34.306  29.650  1.00  0.00     0.054 A 
BRANCH  85  86
ATOM     86  S   UNL A   1      33.125  35.171  28.956  1.00  0.00     0.124 S 
ATOM     87  O   UNL A   1      32.319  35.424  30.146  1.00  0.00    -0.237 OA
ATOM     88  O   UNL A   1      33.731  36.348  28.340  1.00  0.00    -0.237 OA
ATOM     89  O   UNL A   1      32.564  34.204  28.015  1.00  0.00    -0.744 OA
ENDBRANCH  85  86
ENDBRANCH  57  80
BRANCH  69  90
ATOM     90  C   UNL A   1      40.093  33.788  36.888  1.00  0.00    -0.014 A 
ATOM     91  C   UNL A   1      40.731  35.040  36.876  1.00  0.00     0.010 A 
ATOM     92  C   UNL A   1      39.205  33.475  37.935  1.00  0.00     0.010 A 
ATOM     93  C   UNL A   1      40.481  35.964  37.894  1.00  0.00     0.020 A 
ATOM     94  C   UNL A   1      38.936  34.404  38.941  1.00  0.00     0.020 A 
ATOM     95  C   UNL A   1      39.579  35.644  38.915  1.00  0.00     0.054 A 
BRANCH  95  96
ATOM     96  S   UNL A   1      39.201  36.896  40.172  1.00  0.00     0.124 S 
ATOM     97  O   UNL A   1      40.525  37.206  40.701  1.00  0.00    -0.237 OA
ATOM     98  O   UNL A   1      38.571  37.957  39.389  1.00  0.00    -0.237 OA
ATOM     99  O   UNL A   1      38.308  36.201  41.096  1.00  0.00    -0.744 OA
ENDBRANCH  95  96
ENDBRANCH  69  90
ENDBRANCH  43  44
ENDBRANCH  36  38
ENDBRANCH  35  36
ENDBRANCH  34  35
ENDBRANCH   1  34
TORSDOF 19
ENDMDL
MODEL 2
REMARK VINA RESULT:     -11.4      2.746      9.976
REMARK SMILES CCOc1cc2c(cc1/C=C1/C(=O)N(c3cccc(C(=O)OCCOC(=O)c4ccc(-c5c6nc(c(-c7ccc(S(=O)(=O)[O-])cc7)c7ccc([nH]7)c(-c7ccc(S(=O)(=O)[O-])cc7)c7nc(c(-c8ccc(S(=O)(=O)[O-])cc8)c8ccc5[nH]8)C=C7)C=C6)cc4)c3)C(=S)N=C1O)OCO2
REMARK SMILES IDX 23 1 22 2 20 3 21 4 19 5 15 6 16 7 88 8 17 9 18 10 14 11
REMARK SMILES IDX 10 12 11 13 12 14 92 15 13 16 91 17 89 18 90 19 9 20 4 21
REMARK SMILES IDX 5 22 6 23 8 24 7 25 96 26 94 27 95 28 3 29 2 30 1 31 93 32
REMARK SMILES IDX 24 34 25 35 26 36 27 37 28 38 29 39 87 40 30 41 86 42 31 43
REMARK SMILES IDX 32 44 33 45 80 46 34 47 85 48 79 49 81 50 35 51 84 52 78 53
REMARK SMILES IDX 77 54 36 56 66 57 47 58 65 59 48 60 51 61 64 62 82 63 49 64
REMARK SMILES IDX 50 65 63 67 83 68 52 69 37 70 38 71 46 72 39 73 45 74 40 75
REMARK SMILES IDX 41 76 42 77 43 78 44 79 67 80 68 81 76 82 69 83 75 84 70 85
REMARK SMILES IDX 71 86 72 87 73 88 74 89 53 90 54 91 62 92 55 93 61 94 56 95
REMARK SMILES IDX 57 96 58 97 59 98 60 99
REMARK H PARENT 93 33 81 55 51 66
REMARK Flexibility Score: inf
ROOT
ATOM      1  C   UNL A   1      31.923  30.030  26.005  1.00  0.00     0.275 C 
ENDROOT
BRANCH   1   2
ATOM      2  O   UNL A   1      31.770  28.742  26.630  1.00  0.00    -0.458 OA
BRANCH   2   3
ATOM      3  C   UNL A   1      32.552  27.740  26.149  1.00  0.00     0.338 C 
ATOM      4  O   UNL A   1      33.737  27.575  26.367  1.00  0.00    -0.246 OA
BRANCH   3   5
ATOM      5  C   UNL A   1      31.721  26.774  25.387  1.00  0.00     0.062 A 
ATOM      6  C   UNL A   1      31.471  24.717  24.131  1.00  0.00     0.052 A 
ATOM      7  C   UNL A   1      30.130  25.049  23.872  1.00  0.00     0.027 A 
ATOM      8  C   UNL A   1      32.269  25.601  24.868  1.00  0.00     0.042 A 
ATOM      9  C   UNL A   1      29.574  26.205  24.411  1.00  0.00     0.003 A 
ATOM     10  C   UNL A   1      30.358  27.040  25.202  1.00  0.00     0.016 A 
BRANCH   6  11
ATOM     11  N   UNL A   1      31.967  23.424  23.762  1.00  0.00    -0.251 N 
ATOM     12  C   UNL A   1      32.641  20.175  25.272  1.00  0.00     0.031 C 
ATOM     13  C   UNL A   1      32.332  21.080  24.316  1.00  0.00     0.103 C 
ATOM     14  C   UNL A   1      31.934  22.441  24.767  1.00  0.00     0.270 C 
ATOM     15  C   UNL A   1      32.319  20.920  22.866  1.00  0.00     0.226 C 
ATOM     16  O   UNL A   1      31.594  22.626  25.935  1.00  0.00    -0.268 OA
ATOM     17  N   UNL A   1      32.338  21.854  21.996  1.00  0.00    -0.184 NA
ATOM     18  C   UNL A   1      32.373  23.155  22.438  1.00  0.00     0.210 C 
ATOM     19  S   UNL A   1      32.942  24.337  21.358  1.00  0.00    -0.038 S 
BRANCH  12  20
ATOM     20  C   UNL A   1      33.084  18.779  25.106  1.00  0.00     0.021 A 
ATOM     21  C   UNL A   1      34.437  18.464  24.814  1.00  0.00     0.130 A 
ATOM     22  C   UNL A   1      34.904  17.146  24.871  1.00  0.00     0.097 A 
ATOM     23  C   UNL A   1      33.985  16.156  25.120  1.00  0.00     0.169 A 
ATOM     24  C   UNL A   1      32.166  17.725  25.234  1.00  0.00     0.062 A 
ATOM     25  C   UNL A   1      32.650  16.436  25.272  1.00  0.00     0.166 A 
ATOM     26  O   UNL A   1      34.254  14.831  25.245  1.00  0.00    -0.453 OA
ATOM     27  O   UNL A   1      31.909  15.321  25.508  1.00  0.00    -0.454 OA
ATOM     28  C   UNL A   1      32.950  14.327  25.600  1.00  0.00     0.468 C 
BRANCH  21  29
ATOM     29  O   UNL A   1      35.355  19.451  24.543  1.00  0.00    -0.493 OA
BRANCH  29  30
ATOM     30  C   UNL A   1      36.682  19.058  24.936  1.00  0.00     0.226 C 
ATOM     31  C   UNL A   1      37.700  20.171  24.717  1.00  0.00     0.049 C 
ENDBRANCH  29  30
ENDBRANCH  21  29
ENDBRANCH  12  20
BRANCH  15  32
ATOM     32  O   UNL A   1      32.213  19.679  22.390  1.00  0.00    -0.493 OA
ATOM     33  H   UNL A   1      31.869  19.534  21.530  1.00  0.00     0.295 HD
ENDBRANCH  15  32
ENDBRANCH   6  11
ENDBRANCH   3   5
ENDBRANCH   2   3
ENDBRANCH   1   2
BRANCH   1  34
ATOM     34  C   UNL A   1      32.562  31.032  26.967  1.00  0.00     0.275 C 
BRANCH  34  35
ATOM     35  O   UNL A   1      33.984  30.834  27.036  1.00  0.00    -0.458 OA
BRANCH  35  36
ATOM     36  C   UNL A   1      34.659  31.750  27.768  1.00  0.00     0.338 C 
ATOM     37  O   UNL A   1      34.310  32.884  28.046  1.00  0.00    -0.246 OA
BRANCH  36  38
ATOM     38  C   UNL A   1      35.895  31.145  28.279  1.00  0.00     0.060 A 
ATOM     39  C   UNL A   1      35.822  29.875  28.842  1.00  0.00     0.016 A 
ATOM     40  C   UNL A   1      37.084  31.867  28.321  1.00  0.00     0.016 A 
ATOM     41  C   UNL A   1      36.907  29.344  29.533  1.00  0.00     0.010 A 
ATOM     42  C   UNL A   1      38.202  31.293  28.936  1.00  0.00     0.010 A 
ATOM     43  C   UNL A   1      38.119  30.040  29.576  1.00  0.00    -0.014 A 
BRANCH  43  44
ATOM     44  C   UNL A   1      39.292  29.496  30.313  1.00  0.00     0.031 A 
ATOM     45  C   UNL A   1      39.726  30.151  31.597  1.00  0.00     0.074 A 
ATOM     46  C   UNL A   1      39.986  28.445  29.830  1.00  0.00     0.049 A 
ATOM     47  N   UNL A   1      40.858  30.039  32.240  1.00  0.00    -0.248 NA
ATOM     48  C   UNL A   1      38.762  31.067  32.229  1.00  0.00     0.031 C 
ATOM     49  C   UNL A   1      39.633  27.658  28.646  1.00  0.00     0.029 A 
ATOM     50  N   UNL A   1      41.151  27.866  30.273  1.00  0.00    -0.354 N 
ATOM     51  C   UNL A   1      40.772  30.923  33.312  1.00  0.00     0.074 A 
ATOM     52  C   UNL A   1      39.473  31.555  33.235  1.00  0.00     0.031 C 
ATOM     53  C   UNL A   1      40.552  26.697  28.464  1.00  0.00     0.029 A 
ATOM     54  C   UNL A   1      41.610  26.862  29.453  1.00  0.00     0.049 A 
ATOM     55  H   UNL A   1      41.611  28.143  31.098  1.00  0.00     0.167 HD
ATOM     56  C   UNL A   1      41.701  31.189  34.261  1.00  0.00     0.031 A 
ATOM     57  C   UNL A   1      42.780  26.192  29.450  1.00  0.00     0.031 A 
ATOM     58  C   UNL A   1      42.974  30.522  34.343  1.00  0.00     0.049 A 
ATOM     59  C   UNL A   1      43.823  26.543  30.473  1.00  0.00     0.074 A 
ATOM     60  C   UNL A   1      43.988  30.713  35.264  1.00  0.00     0.029 A 
ATOM     61  N   UNL A   1      43.399  29.523  33.479  1.00  0.00    -0.354 N 
ATOM     62  N   UNL A   1      43.761  27.430  31.438  1.00  0.00    -0.248 NA
ATOM     63  C   UNL A   1      45.099  25.817  30.400  1.00  0.00     0.031 C 
ATOM     64  C   UNL A   1      45.045  29.860  34.931  1.00  0.00     0.029 A 
ATOM     65  C   UNL A   1      44.665  29.096  33.838  1.00  0.00     0.049 A 
ATOM     66  H   UNL A   1      42.877  29.172  32.722  1.00  0.00     0.167 HD
ATOM     67  C   UNL A   1      44.979  27.349  32.104  1.00  0.00     0.074 A 
ATOM     68  C   UNL A   1      45.756  26.326  31.435  1.00  0.00     0.031 C 
ATOM     69  C   UNL A   1      45.412  28.059  33.174  1.00  0.00     0.031 A 
BRANCH  56  70
ATOM     70  C   UNL A   1      41.400  32.282  35.253  1.00  0.00    -0.014 A 
ATOM     71  C   UNL A   1      40.797  32.012  36.493  1.00  0.00     0.010 A 
ATOM     72  C   UNL A   1      41.768  33.607  34.946  1.00  0.00     0.010 A 
ATOM     73  C   UNL A   1      40.530  33.051  37.390  1.00  0.00     0.020 A 
ATOM     74  C   UNL A   1      41.529  34.644  35.852  1.00  0.00     0.020 A 
ATOM     75  C   UNL A   1      40.893  34.362  37.062  1.00  0.00     0.054 A 
BRANCH  75  76
ATOM     76  S   UNL A   1      40.551  35.688  38.250  1.00  0.00     0.124 S 
ATOM     77  O   UNL A   1      39.743  34.995  39.251  1.00  0.00    -0.237 OA
ATOM     78  O   UNL A   1      41.887  36.082  38.687  1.00  0.00    -0.237 OA
ATOM     79  O   UNL A   1      39.838  36.688  37.459  1.00  0.00    -0.744 OA
ENDBRANCH  75  76
ENDBRANCH  56  70
BRANCH  57  80
ATOM     80  C   UNL A   1      43.045  25.169  28.399  1.00  0.00    -0.014 A 
ATOM     81  C   UNL A   1      43.721  25.516  27.217  1.00  0.00     0.010 A 
ATOM     82  C   UNL A   1      42.644  23.833  28.590  1.00  0.00     0.010 A 
ATOM     83  C   UNL A   1      43.986  24.548  26.243  1.00  0.00     0.020 A 
ATOM     84  C   UNL A   1      42.934  22.857  27.633  1.00  0.00     0.020 A 
ATOM     85  C   UNL A   1      43.594  23.224  26.459  1.00  0.00     0.054 A 
BRANCH  85  86
ATOM     86  S   UNL A   1      44.004  21.973  25.210  1.00  0.00     0.124 S 
ATOM     87  O   UNL A   1      45.408  21.703  25.500  1.00  0.00    -0.237 OA
ATOM     88  O   UNL A   1      43.073  20.893  25.525  1.00  0.00    -0.237 OA
ATOM     89  O   UNL A   1      43.747  22.656  23.944  1.00  0.00    -0.744 OA
ENDBRANCH  85  86
ENDBRANCH  57  80
BRANCH  69  90
ATOM     90  C   UNL A   1      46.761  27.717  33.740  1.00  0.00    -0.014 A 
ATOM     91  C   UNL A   1      46.915  26.704  34.701  1.00  0.00     0.010 A 
ATOM     92  C   UNL A   1      47.904  28.352  33.218  1.00  0.00     0.010 A 
ATOM     93  C   UNL A   1      48.192  26.332  35.131  1.00  0.00     0.020 A 
ATOM     94  C   UNL A   1      49.181  27.969  33.628  1.00  0.00     0.020 A 
ATOM     95  C   UNL A   1      49.317  26.961  34.585  1.00  0.00     0.054 A 
BRANCH  95  96
ATOM     96  S   UNL A   1      50.965  26.396  35.089  1.00  0.00     0.124 S 
ATOM     97  O   UNL A   1      51.675  27.657  35.281  1.00  0.00    -0.237 OA
ATOM     98  O   UNL A   1      50.686  25.639  36.308  1.00  0.00    -0.237 OA
ATOM     99  O   UNL A   1      51.418  25.593  33.956  1.00  0.00    -0.744 OA
ENDBRANCH  95  96
ENDBRANCH  69  90
ENDBRANCH  43  44
ENDBRANCH  36  38
ENDBRANCH  35  36
ENDBRANCH  34  35
ENDBRANCH   1  34
TORSDOF 19
ENDMDL
MODEL 3
REMARK VINA RESULT:     -11.3      6.181     11.711
REMARK SMILES CCOc1cc2c(cc1/C=C1/C(=O)N(c3cccc(C(=O)OCCOC(=O)c4ccc(-c5c6nc(c(-c7ccc(S(=O)(=O)[O-])cc7)c7ccc([nH]7)c(-c7ccc(S(=O)(=O)[O-])cc7)c7nc(c(-c8ccc(S(=O)(=O)[O-])cc8)c8ccc5[nH]8)C=C7)C=C6)cc4)c3)C(=S)N=C1O)OCO2
REMARK SMILES IDX 23 1 22 2 20 3 21 4 19 5 15 6 16 7 88 8 17 9 18 10 14 11
REMARK SMILES IDX 10 12 11 13 12 14 92 15 13 16 91 17 89 18 90 19 9 20 4 21
REMARK SMILES IDX 5 22 6 23 8 24 7 25 96 26 94 27 95 28 3 29 2 30 1 31 93 32
REMARK SMILES IDX 24 34 25 35 26 36 27 37 28 38 29 39 87 40 30 41 86 42 31 43
REMARK SMILES IDX 32 44 33 45 80 46 34 47 85 48 79 49 81 50 35 51 84 52 78 53
REMARK SMILES IDX 77 54 36 56 66 57 47 58 65 59 48 60 51 61 64 62 82 63 49 64
REMARK SMILES IDX 50 65 63 67 83 68 52 69 37 70 38 71 46 72 39 73 45 74 40 75
REMARK SMILES IDX 41 76 42 77 43 78 44 79 67 80 68 81 76 82 69 83 75 84 70 85
REMARK SMILES IDX 71 86 72 87 73 88 74 89 53 90 54 91 62 92 55 93 61 94 56 95
REMARK SMILES IDX 57 96 58 97 59 98 60 99
REMARK H PARENT 93 33 81 55 51 66
REMARK Flexibility Score: inf
ROOT
ATOM      1  C   UNL A   1      36.521  32.952  33.679  1.00  0.00     0.275 C 
ENDROOT
BRANCH   1   2
ATOM      2  O   UNL A   1      35.369  32.742  32.840  1.00  0.00    -0.458 OA
BRANCH   2   3
ATOM      3  C   UNL A   1      35.086  33.724  31.945  1.00  0.00     0.338 C 
ATOM      4  O   UNL A   1      34.678  34.841  32.199  1.00  0.00    -0.246 OA
BRANCH   3   5
ATOM      5  C   UNL A   1      35.460  33.282  30.577  1.00  0.00     0.062 A 
ATOM      6  C   UNL A   1      35.101  31.898  28.622  1.00  0.00     0.052 A 
ATOM      7  C   UNL A   1      36.275  32.417  28.050  1.00  0.00     0.027 A 
ATOM      8  C   UNL A   1      34.715  32.316  29.901  1.00  0.00     0.042 A 
ATOM      9  C   UNL A   1      37.005  33.400  28.711  1.00  0.00     0.003 A 
ATOM     10  C   UNL A   1      36.572  33.861  29.952  1.00  0.00     0.016 A 
BRANCH   6  11
ATOM     11  N   UNL A   1      34.243  31.057  27.841  1.00  0.00    -0.251 N 
ATOM     12  C   UNL A   1      34.245  27.751  26.304  1.00  0.00     0.031 C 
ATOM     13  C   UNL A   1      33.755  28.872  26.878  1.00  0.00     0.103 C 
ATOM     14  C   UNL A   1      34.723  29.762  27.576  1.00  0.00     0.270 C 
ATOM     15  C   UNL A   1      32.379  29.355  26.929  1.00  0.00     0.226 C 
ATOM     16  O   UNL A   1      35.835  29.335  27.888  1.00  0.00    -0.268 OA
ATOM     17  N   UNL A   1      31.999  30.546  27.188  1.00  0.00    -0.184 NA
ATOM     18  C   UNL A   1      32.959  31.494  27.453  1.00  0.00     0.210 C 
ATOM     19  S   UNL A   1      32.529  33.125  27.253  1.00  0.00    -0.038 S 
BRANCH  12  20
ATOM     20  C   UNL A   1      33.521  26.719  25.539  1.00  0.00     0.021 A 
ATOM     21  C   UNL A   1      33.080  26.960  24.212  1.00  0.00     0.130 A 
ATOM     22  C   UNL A   1      32.590  25.922  23.411  1.00  0.00     0.097 A 
ATOM     23  C   UNL A   1      32.459  24.682  23.986  1.00  0.00     0.169 A 
ATOM     24  C   UNL A   1      33.254  25.468  26.115  1.00  0.00     0.062 A 
ATOM     25  C   UNL A   1      32.758  24.467  25.308  1.00  0.00     0.166 A 
ATOM     26  O   UNL A   1      32.036  23.553  23.361  1.00  0.00    -0.453 OA
ATOM     27  O   UNL A   1      32.559  23.177  25.683  1.00  0.00    -0.454 OA
ATOM     28  C   UNL A   1      32.210  22.585  24.415  1.00  0.00     0.468 C 
BRANCH  21  29
ATOM     29  O   UNL A   1      33.190  28.205  23.640  1.00  0.00    -0.493 OA
BRANCH  29  30
ATOM     30  C   UNL A   1      32.079  28.485  22.769  1.00  0.00     0.226 C 
ATOM     31  C   UNL A   1      30.860  28.986  23.535  1.00  0.00     0.049 C 
ENDBRANCH  29  30
ENDBRANCH  21  29
ENDBRANCH  12  20
BRANCH  15  32
ATOM     32  O   UNL A   1      31.410  28.457  26.750  1.00  0.00    -0.493 OA
ATOM     33  H   UNL A   1      30.520  28.687  26.930  1.00  0.00     0.295 HD
ENDBRANCH  15  32
ENDBRANCH   6  11
ENDBRANCH   3   5
ENDBRANCH   2   3
ENDBRANCH   1   2
BRANCH   1  34
ATOM     34  C   UNL A   1      37.788  32.414  33.012  1.00  0.00     0.275 C 
BRANCH  34  35
ATOM     35  O   UNL A   1      37.920  31.000  33.237  1.00  0.00    -0.458 OA
BRANCH  35  36
ATOM     36  C   UNL A   1      37.440  30.212  32.249  1.00  0.00     0.338 C 
ATOM     37  O   UNL A   1      36.279  29.904  32.039  1.00  0.00    -0.246 OA
BRANCH  36  38
ATOM     38  C   UNL A   1      38.544  29.815  31.366  1.00  0.00     0.060 A 
ATOM     39  C   UNL A   1      39.649  29.192  31.937  1.00  0.00     0.016 A 
ATOM     40  C   UNL A   1      38.550  30.165  30.020  1.00  0.00     0.016 A 
ATOM     41  C   UNL A   1      40.809  28.990  31.195  1.00  0.00     0.010 A 
ATOM     42  C   UNL A   1      39.682  29.877  29.251  1.00  0.00     0.010 A 
ATOM     43  C   UNL A   1      40.836  29.317  29.835  1.00  0.00    -0.014 A 
BRANCH  43  44
ATOM     44  C   UNL A   1      42.065  29.115  29.021  1.00  0.00     0.031 A 
ATOM     45  C   UNL A   1      42.334  27.764  28.412  1.00  0.00     0.074 A 
ATOM     46  C   UNL A   1      42.953  30.115  28.847  1.00  0.00     0.049 A 
ATOM     47  N   UNL A   1      43.447  27.284  27.924  1.00  0.00    -0.248 NA
ATOM     48  C   UNL A   1      41.201  26.826  28.363  1.00  0.00     0.031 C 
ATOM     49  C   UNL A   1      42.785  31.497  29.305  1.00  0.00     0.029 A 
ATOM     50  N   UNL A   1      44.189  30.117  28.247  1.00  0.00    -0.354 N 
ATOM     51  C   UNL A   1      43.169  25.966  27.577  1.00  0.00     0.074 A 
ATOM     52  C   UNL A   1      41.780  25.726  27.902  1.00  0.00     0.031 C 
ATOM     53  C   UNL A   1      43.868  32.211  28.961  1.00  0.00     0.029 A 
ATOM     54  C   UNL A   1      44.848  31.320  28.353  1.00  0.00     0.049 A 
ATOM     55  H   UNL A   1      44.567  29.333  27.786  1.00  0.00     0.167 HD
ATOM     56  C   UNL A   1      44.006  25.040  27.049  1.00  0.00     0.031 A 
ATOM     57  C   UNL A   1      46.119  31.658  28.058  1.00  0.00     0.031 A 
ATOM     58  C   UNL A   1      45.375  25.307  26.697  1.00  0.00     0.049 A 
ATOM     59  C   UNL A   1      47.050  30.602  27.530  1.00  0.00     0.074 A 
ATOM     60  C   UNL A   1      46.309  24.443  26.155  1.00  0.00     0.029 A 
ATOM     61  N   UNL A   1      46.000  26.538  26.837  1.00  0.00    -0.354 N 
ATOM     62  N   UNL A   1      46.799  29.340  27.273  1.00  0.00    -0.248 NA
ATOM     63  C   UNL A   1      48.438  31.007  27.268  1.00  0.00     0.031 C 
ATOM     64  C   UNL A   1      47.513  25.140  26.007  1.00  0.00     0.029 A 
ATOM     65  C   UNL A   1      47.311  26.453  26.403  1.00  0.00     0.049 A 
ATOM     66  H   UNL A   1      45.575  27.350  27.195  1.00  0.00     0.167 HD
ATOM     67  C   UNL A   1      47.990  28.808  26.792  1.00  0.00     0.074 A 
ATOM     68  C   UNL A   1      48.960  29.884  26.791  1.00  0.00     0.031 C 
ATOM     69  C   UNL A   1      48.254  27.543  26.387  1.00  0.00     0.031 A 
BRANCH  56  70
ATOM     70  C   UNL A   1      43.481  23.639  26.872  1.00  0.00    -0.014 A 
ATOM     71  C   UNL A   1      43.234  22.796  27.968  1.00  0.00     0.010 A 
ATOM     72  C   UNL A   1      43.194  23.173  25.574  1.00  0.00     0.010 A 
ATOM     73  C   UNL A   1      42.749  21.499  27.768  1.00  0.00     0.020 A 
ATOM     74  C   UNL A   1      42.682  21.888  25.372  1.00  0.00     0.020 A 
ATOM     75  C   UNL A   1      42.480  21.052  26.471  1.00  0.00     0.054 A 
BRANCH  75  76
ATOM     76  S   UNL A   1      41.836  19.372  26.240  1.00  0.00     0.124 S 
ATOM     77  O   UNL A   1      42.505  18.960  25.009  1.00  0.00    -0.237 OA
ATOM     78  O   UNL A   1      42.277  18.689  27.453  1.00  0.00    -0.237 OA
ATOM     79  O   UNL A   1      40.392  19.565  26.129  1.00  0.00    -0.744 OA
ENDBRANCH  75  76
ENDBRANCH  56  70
BRANCH  57  80
ATOM     80  C   UNL A   1      46.597  33.044  28.321  1.00  0.00    -0.014 A 
ATOM     81  C   UNL A   1      46.479  34.041  27.337  1.00  0.00     0.010 A 
ATOM     82  C   UNL A   1      47.150  33.381  29.571  1.00  0.00     0.010 A 
ATOM     83  C   UNL A   1      46.909  35.346  27.596  1.00  0.00     0.020 A 
ATOM     84  C   UNL A   1      47.553  34.691  29.844  1.00  0.00     0.020 A 
ATOM     85  C   UNL A   1      47.440  35.663  28.849  1.00  0.00     0.054 A 
BRANCH  85  86
ATOM     86  S   UNL A   1      47.935  37.377  29.184  1.00  0.00     0.124 S 
ATOM     87  O   UNL A   1      47.718  37.480  30.623  1.00  0.00    -0.237 OA
ATOM     88  O   UNL A   1      49.329  37.395  28.750  1.00  0.00    -0.237 OA
ATOM     89  O   UNL A   1      47.024  38.164  28.355  1.00  0.00    -0.744 OA
ENDBRANCH  85  86
ENDBRANCH  57  80
BRANCH  69  90
ATOM     90  C   UNL A   1      49.625  27.254  25.844  1.00  0.00    -0.014 A 
ATOM     91  C   UNL A   1      49.971  27.580  24.522  1.00  0.00     0.010 A 
ATOM     92  C   UNL A   1      50.611  26.744  26.710  1.00  0.00     0.010 A 
ATOM     93  C   UNL A   1      51.283  27.401  24.075  1.00  0.00     0.020 A 
ATOM     94  C   UNL A   1      51.927  26.585  26.274  1.00  0.00     0.020 A 
ATOM     95  C   UNL A   1      52.254  26.912  24.956  1.00  0.00     0.054 A 
BRANCH  95  96
ATOM     96  S   UNL A   1      53.969  26.778  24.380  1.00  0.00     0.124 S 
ATOM     97  O   UNL A   1      54.268  25.373  24.636  1.00  0.00    -0.237 OA
ATOM     98  O   UNL A   1      53.864  27.153  22.971  1.00  0.00    -0.237 OA
ATOM     99  O   UNL A   1      54.692  27.732  25.218  1.00  0.00    -0.744 OA
ENDBRANCH  95  96
ENDBRANCH  69  90
ENDBRANCH  43  44
ENDBRANCH  36  38
ENDBRANCH  35  36
ENDBRANCH  34  35
ENDBRANCH   1  34
TORSDOF 19
ENDMDL
