MODEL 1
REMARK VINA RESULT:      -9.9      0.000      0.000
REMARK SMILES CCc1cccc(-c2ccc([C@@H](C)C(=O)OCCOC(=O)c3ccc(-c4c5nc(c(-c6ccc(S(=O)(=O)[O-])cc6)c6ccc([nH]6)c(-c6ccc(S(=O)(=O)[O-])cc6)c6nc(c(-c7ccc(S(=O)(=O)[O-])cc7)c7ccc4[nH]7)C=C6)C=C5)cc3)cc2)c1
REMARK SMILES IDX 17 1 16 2 14 3 15 4 12 5 13 6 11 7 8 8 9 9 83 10 10 11 82 12
REMARK SMILES IDX 7 13 3 14 4 15 84 16 5 17 6 18 2 19 1 20 18 21 19 22 20 23
REMARK SMILES IDX 21 24 22 25 23 26 81 27 24 28 80 29 25 30 26 31 27 32 74 33
REMARK SMILES IDX 28 34 79 35 73 36 75 37 29 38 78 39 72 40 71 41 30 43 60 44
REMARK SMILES IDX 41 45 59 46 42 47 45 48 58 49 76 50 43 51 44 52 57 54 77 55
REMARK SMILES IDX 46 56 31 57 32 58 40 59 33 60 39 61 34 62 35 63 36 64 37 65
REMARK SMILES IDX 38 66 61 67 62 68 70 69 63 70 69 71 64 72 65 73 66 74 67 75
REMARK SMILES IDX 68 76 47 77 48 78 56 79 49 80 55 81 50 82 51 83 52 84 53 85
REMARK SMILES IDX 54 86
REMARK H PARENT 75 42 45 53
REMARK Flexibility Score: inf
ROOT
ATOM      1  C   UNL A   1      41.924  19.521  26.359  1.00  0.00     0.274 C 
ENDROOT
BRANCH   1   2
ATOM      2  O   UNL A   1      42.714  20.061  25.282  1.00  0.00    -0.462 OA
BRANCH   2   3
ATOM      3  C   UNL A   1      43.931  19.495  25.073  1.00  0.00     0.313 C 
ATOM      4  O   UNL A   1      44.200  18.327  25.339  1.00  0.00    -0.252 OA
BRANCH   3   5
ATOM      5  C   UNL A   1      44.976  20.463  24.534  1.00  0.00     0.126 C 
ATOM      6  C   UNL A   1      46.369  19.849  24.681  1.00  0.00     0.025 C 
BRANCH   5   7
ATOM      7  C   UNL A   1      44.909  21.885  25.068  1.00  0.00    -0.034 A 
ATOM      8  C   UNL A   1      44.821  24.575  25.991  1.00  0.00    -0.018 A 
ATOM      9  C   UNL A   1      45.391  23.555  26.770  1.00  0.00     0.009 A 
ATOM     10  C   UNL A   1      44.273  24.220  24.752  1.00  0.00     0.009 A 
ATOM     11  C   UNL A   1      45.438  22.234  26.316  1.00  0.00     0.005 A 
ATOM     12  C   UNL A   1      44.319  22.898  24.294  1.00  0.00     0.005 A 
BRANCH   8  13
ATOM     13  C   UNL A   1      44.836  25.973  26.454  1.00  0.00    -0.018 A 
ATOM     14  C   UNL A   1      43.809  28.194  26.607  1.00  0.00    -0.048 A 
ATOM     15  C   UNL A   1      44.897  28.635  27.371  1.00  0.00     0.004 A 
ATOM     16  C   UNL A   1      43.790  26.863  26.153  1.00  0.00     0.012 A 
ATOM     17  C   UNL A   1      45.946  27.771  27.671  1.00  0.00     0.001 A 
ATOM     18  C   UNL A   1      45.914  26.454  27.215  1.00  0.00     0.009 A 
BRANCH  14  19
ATOM     19  C   UNL A   1      42.676  29.136  26.281  1.00  0.00     0.032 C 
ATOM     20  C   UNL A   1      41.431  28.403  25.800  1.00  0.00     0.009 C 
ENDBRANCH  14  19
ENDBRANCH   8  13
ENDBRANCH   5   7
ENDBRANCH   3   5
ENDBRANCH   2   3
ENDBRANCH   1   2
BRANCH   1  21
ATOM     21  C   UNL A   1      40.455  19.920  26.226  1.00  0.00     0.275 C 
BRANCH  21  22
ATOM     22  O   UNL A   1      40.141  21.039  27.075  1.00  0.00    -0.458 OA
BRANCH  22  23
ATOM     23  C   UNL A   1      39.469  22.046  26.470  1.00  0.00     0.338 C 
ATOM     24  O   UNL A   1      38.585  21.951  25.638  1.00  0.00    -0.246 OA
BRANCH  23  25
ATOM     25  C   UNL A   1      39.894  23.330  27.042  1.00  0.00     0.060 A 
ATOM     26  C   UNL A   1      41.246  23.502  27.348  1.00  0.00     0.016 A 
ATOM     27  C   UNL A   1      38.961  24.315  27.365  1.00  0.00     0.016 A 
ATOM     28  C   UNL A   1      41.672  24.654  28.001  1.00  0.00     0.010 A 
ATOM     29  C   UNL A   1      39.391  25.476  28.013  1.00  0.00     0.010 A 
ATOM     30  C   UNL A   1      40.746  25.644  28.353  1.00  0.00    -0.014 A 
BRANCH  30  31
ATOM     31  C   UNL A   1      41.189  26.824  29.130  1.00  0.00     0.031 A 
ATOM     32  C   UNL A   1      42.525  26.803  29.819  1.00  0.00     0.074 A 
ATOM     33  C   UNL A   1      40.408  27.918  29.197  1.00  0.00     0.049 A 
ATOM     34  N   UNL A   1      43.069  27.708  30.591  1.00  0.00    -0.248 NA
ATOM     35  C   UNL A   1      43.357  25.608  29.609  1.00  0.00     0.031 C 
ATOM     36  C   UNL A   1      39.114  28.074  28.532  1.00  0.00     0.029 A 
ATOM     37  N   UNL A   1      40.594  29.106  29.856  1.00  0.00    -0.354 N 
ATOM     38  C   UNL A   1      44.297  27.185  30.979  1.00  0.00     0.074 A 
ATOM     39  C   UNL A   1      44.411  25.877  30.367  1.00  0.00     0.031 C 
ATOM     40  C   UNL A   1      38.624  29.293  28.814  1.00  0.00     0.029 A 
ATOM     41  C   UNL A   1      39.548  29.984  29.709  1.00  0.00     0.049 A 
ATOM     42  H   UNL A   1      41.399  29.310  30.384  1.00  0.00     0.167 HD
ATOM     43  C   UNL A   1      45.242  27.742  31.774  1.00  0.00     0.031 A 
ATOM     44  C   UNL A   1      39.346  31.200  30.252  1.00  0.00     0.031 A 
ATOM     45  C   UNL A   1      45.123  29.040  32.383  1.00  0.00     0.049 A 
ATOM     46  C   UNL A   1      40.387  31.778  31.170  1.00  0.00     0.074 A 
ATOM     47  C   UNL A   1      46.025  29.691  33.208  1.00  0.00     0.029 A 
ATOM     48  N   UNL A   1      44.035  29.887  32.233  1.00  0.00    -0.354 N 
ATOM     49  N   UNL A   1      41.536  31.264  31.538  1.00  0.00    -0.248 NA
ATOM     50  C   UNL A   1      40.103  33.100  31.745  1.00  0.00     0.031 C 
ATOM     51  C   UNL A   1      45.465  30.917  33.585  1.00  0.00     0.029 A 
ATOM     52  C   UNL A   1      44.235  31.048  32.960  1.00  0.00     0.049 A 
ATOM     53  H   UNL A   1      43.239  29.691  31.690  1.00  0.00     0.167 HD
ATOM     54  C   UNL A   1      42.121  32.207  32.375  1.00  0.00     0.074 A 
ATOM     55  C   UNL A   1      41.205  33.328  32.448  1.00  0.00     0.031 C 
ATOM     56  C   UNL A   1      43.310  32.152  33.024  1.00  0.00     0.031 A 
BRANCH  43  57
ATOM     57  C   UNL A   1      46.469  26.922  32.060  1.00  0.00    -0.014 A 
ATOM     58  C   UNL A   1      46.692  26.363  33.332  1.00  0.00     0.010 A 
ATOM     59  C   UNL A   1      47.408  26.695  31.037  1.00  0.00     0.010 A 
ATOM     60  C   UNL A   1      47.855  25.629  33.586  1.00  0.00     0.020 A 
ATOM     61  C   UNL A   1      48.560  25.943  31.282  1.00  0.00     0.020 A 
ATOM     62  C   UNL A   1      48.786  25.432  32.562  1.00  0.00     0.054 A 
BRANCH  62  63
ATOM     63  S   UNL A   1      50.287  24.477  32.914  1.00  0.00     0.124 S 
ATOM     64  O   UNL A   1      50.857  24.312  31.579  1.00  0.00    -0.237 OA
ATOM     65  O   UNL A   1      51.030  25.360  33.809  1.00  0.00    -0.237 OA
ATOM     66  O   UNL A   1      49.782  23.252  33.531  1.00  0.00    -0.744 OA
ENDBRANCH  62  63
ENDBRANCH  43  57
BRANCH  44  67
ATOM     67  C   UNL A   1      38.093  31.943  29.952  1.00  0.00    -0.014 A 
ATOM     68  C   UNL A   1      38.057  32.902  28.926  1.00  0.00     0.010 A 
ATOM     69  C   UNL A   1      36.919  31.674  30.681  1.00  0.00     0.010 A 
ATOM     70  C   UNL A   1      36.872  33.585  28.637  1.00  0.00     0.020 A 
ATOM     71  C   UNL A   1      35.727  32.338  30.380  1.00  0.00     0.020 A 
ATOM     72  C   UNL A   1      35.714  33.297  29.365  1.00  0.00     0.054 A 
BRANCH  72  73
ATOM     73  S   UNL A   1      34.168  34.145  28.933  1.00  0.00     0.124 S 
ATOM     74  O   UNL A   1      34.659  35.359  28.291  1.00  0.00    -0.237 OA
ATOM     75  O   UNL A   1      33.514  33.183  28.049  1.00  0.00    -0.237 OA
ATOM     76  O   UNL A   1      33.512  34.336  30.224  1.00  0.00    -0.744 OA
ENDBRANCH  72  73
ENDBRANCH  44  67
BRANCH  56  77
ATOM     77  C   UNL A   1      43.702  33.348  33.845  1.00  0.00    -0.014 A 
ATOM     78  C   UNL A   1      44.205  34.512  33.238  1.00  0.00     0.010 A 
ATOM     79  C   UNL A   1      43.522  33.322  35.240  1.00  0.00     0.010 A 
ATOM     80  C   UNL A   1      44.548  35.620  34.016  1.00  0.00     0.020 A 
ATOM     81  C   UNL A   1      43.846  34.436  36.019  1.00  0.00     0.020 A 
ATOM     82  C   UNL A   1      44.371  35.574  35.403  1.00  0.00     0.054 A 
BRANCH  82  83
ATOM     83  S   UNL A   1      44.787  37.037  36.391  1.00  0.00     0.124 S 
ATOM     84  O   UNL A   1      43.523  37.315  37.067  1.00  0.00    -0.237 OA
ATOM     85  O   UNL A   1      45.865  36.553  37.251  1.00  0.00    -0.237 OA
ATOM     86  O   UNL A   1      45.192  38.023  35.393  1.00  0.00    -0.744 OA
ENDBRANCH  82  83
ENDBRANCH  56  77
ENDBRANCH  30  31
ENDBRANCH  23  25
ENDBRANCH  22  23
ENDBRANCH  21  22
ENDBRANCH   1  21
TORSDOF 17
ENDMDL
MODEL 2
REMARK VINA RESULT:      -9.8      2.486      9.675
REMARK SMILES CCc1cccc(-c2ccc([C@@H](C)C(=O)OCCOC(=O)c3ccc(-c4c5nc(c(-c6ccc(S(=O)(=O)[O-])cc6)c6ccc([nH]6)c(-c6ccc(S(=O)(=O)[O-])cc6)c6nc(c(-c7ccc(S(=O)(=O)[O-])cc7)c7ccc4[nH]7)C=C6)C=C5)cc3)cc2)c1
REMARK SMILES IDX 17 1 16 2 14 3 15 4 12 5 13 6 11 7 8 8 9 9 83 10 10 11 82 12
REMARK SMILES IDX 7 13 3 14 4 15 84 16 5 17 6 18 2 19 1 20 18 21 19 22 20 23
REMARK SMILES IDX 21 24 22 25 23 26 81 27 24 28 80 29 25 30 26 31 27 32 74 33
REMARK SMILES IDX 28 34 79 35 73 36 75 37 29 38 78 39 72 40 71 41 30 43 60 44
REMARK SMILES IDX 41 45 59 46 42 47 45 48 58 49 76 50 43 51 44 52 57 54 77 55
REMARK SMILES IDX 46 56 31 57 32 58 40 59 33 60 39 61 34 62 35 63 36 64 37 65
REMARK SMILES IDX 38 66 61 67 62 68 70 69 63 70 69 71 64 72 65 73 66 74 67 75
REMARK SMILES IDX 68 76 47 77 48 78 56 79 49 80 55 81 50 82 51 83 52 84 53 85
REMARK SMILES IDX 54 86
REMARK H PARENT 75 42 45 53
REMARK Flexibility Score: inf
ROOT
ATOM      1  C   UNL A   1      34.814  33.743  29.529  1.00  0.00     0.274 C 
ENDROOT
BRANCH   1   2
ATOM      2  O   UNL A   1      35.701  33.187  30.518  1.00  0.00    -0.462 OA
BRANCH   2   3
ATOM      3  C   UNL A   1      35.162  32.903  31.731  1.00  0.00     0.313 C 
ATOM      4  O   UNL A   1      34.040  32.430  31.891  1.00  0.00    -0.252 OA
BRANCH   3   5
ATOM      5  C   UNL A   1      36.051  33.289  32.907  1.00  0.00     0.126 C 
ATOM      6  C   UNL A   1      36.450  34.759  32.788  1.00  0.00     0.025 C 
BRANCH   5   7
ATOM      7  C   UNL A   1      37.244  32.382  33.168  1.00  0.00    -0.034 A 
ATOM      8  C   UNL A   1      39.524  30.737  33.603  1.00  0.00    -0.018 A 
ATOM      9  C   UNL A   1      38.303  30.193  33.173  1.00  0.00     0.009 A 
ATOM     10  C   UNL A   1      39.576  32.117  33.836  1.00  0.00     0.009 A 
ATOM     11  C   UNL A   1      37.183  31.000  32.955  1.00  0.00     0.005 A 
ATOM     12  C   UNL A   1      38.456  32.928  33.618  1.00  0.00     0.005 A 
BRANCH   8  13
ATOM     13  C   UNL A   1      40.713  29.884  33.767  1.00  0.00    -0.018 A 
ATOM     14  C   UNL A   1      42.961  29.484  34.659  1.00  0.00    -0.048 A 
ATOM     15  C   UNL A   1      42.962  28.215  34.067  1.00  0.00     0.004 A 
ATOM     16  C   UNL A   1      41.834  30.309  34.501  1.00  0.00     0.012 A 
ATOM     17  C   UNL A   1      41.865  27.780  33.327  1.00  0.00     0.001 A 
ATOM     18  C   UNL A   1      40.754  28.608  33.179  1.00  0.00     0.009 A 
BRANCH  14  19
ATOM     19  C   UNL A   1      44.154  29.952  35.456  1.00  0.00     0.032 C 
ATOM     20  C   UNL A   1      44.441  29.056  36.654  1.00  0.00     0.009 C 
ENDBRANCH  14  19
ENDBRANCH   8  13
ENDBRANCH   5   7
ENDBRANCH   3   5
ENDBRANCH   2   3
ENDBRANCH   1   2
BRANCH   1  21
ATOM     21  C   UNL A   1      34.725  32.846  28.294  1.00  0.00     0.275 C 
BRANCH  21  22
ATOM     22  O   UNL A   1      34.108  31.585  28.612  1.00  0.00    -0.458 OA
BRANCH  22  23
ATOM     23  C   UNL A   1      34.447  30.561  27.794  1.00  0.00     0.338 C 
ATOM     24  O   UNL A   1      33.790  30.092  26.883  1.00  0.00    -0.246 OA
BRANCH  23  25
ATOM     25  C   UNL A   1      35.817  30.127  28.098  1.00  0.00     0.060 A 
ATOM     26  C   UNL A   1      36.126  29.789  29.417  1.00  0.00     0.016 A 
ATOM     27  C   UNL A   1      36.808  30.148  27.117  1.00  0.00     0.016 A 
ATOM     28  C   UNL A   1      37.439  29.490  29.771  1.00  0.00     0.010 A 
ATOM     29  C   UNL A   1      38.125  29.838  27.471  1.00  0.00     0.010 A 
ATOM     30  C   UNL A   1      38.451  29.526  28.804  1.00  0.00    -0.014 A 
BRANCH  30  31
ATOM     31  C   UNL A   1      39.858  29.299  29.204  1.00  0.00     0.031 A 
ATOM     32  C   UNL A   1      40.517  27.983  28.895  1.00  0.00     0.074 A 
ATOM     33  C   UNL A   1      40.549  30.276  29.819  1.00  0.00     0.049 A 
ATOM     34  N   UNL A   1      41.717  27.568  29.211  1.00  0.00    -0.248 NA
ATOM     35  C   UNL A   1      39.722  27.010  28.131  1.00  0.00     0.031 C 
ATOM     36  C   UNL A   1      40.033  31.610  30.130  1.00  0.00     0.029 A 
ATOM     37  N   UNL A   1      41.837  30.295  30.291  1.00  0.00    -0.354 N 
ATOM     38  C   UNL A   1      41.815  26.277  28.704  1.00  0.00     0.074 A 
ATOM     39  C   UNL A   1      40.547  25.974  28.072  1.00  0.00     0.031 C 
ATOM     40  C   UNL A   1      40.999  32.320  30.736  1.00  0.00     0.029 A 
ATOM     41  C   UNL A   1      42.183  31.481  30.893  1.00  0.00     0.049 A 
ATOM     42  H   UNL A   1      42.454  29.533  30.206  1.00  0.00     0.167 HD
ATOM     43  C   UNL A   1      42.864  25.422  28.761  1.00  0.00     0.031 A 
ATOM     44  C   UNL A   1      43.319  31.842  31.520  1.00  0.00     0.031 A 
ATOM     45  C   UNL A   1      44.120  25.725  29.393  1.00  0.00     0.049 A 
ATOM     46  C   UNL A   1      44.453  30.859  31.614  1.00  0.00     0.074 A 
ATOM     47  C   UNL A   1      45.243  24.924  29.506  1.00  0.00     0.029 A 
ATOM     48  N   UNL A   1      44.422  26.927  30.016  1.00  0.00    -0.354 N 
ATOM     49  N   UNL A   1      44.524  29.637  31.142  1.00  0.00    -0.248 NA
ATOM     50  C   UNL A   1      45.659  31.304  32.324  1.00  0.00     0.031 C 
ATOM     51  C   UNL A   1      46.211  25.629  30.231  1.00  0.00     0.029 A 
ATOM     52  C   UNL A   1      45.706  26.885  30.530  1.00  0.00     0.049 A 
ATOM     53  H   UNL A   1      43.812  27.696  30.084  1.00  0.00     0.167 HD
ATOM     54  C   UNL A   1      45.788  29.173  31.483  1.00  0.00     0.074 A 
ATOM     55  C   UNL A   1      46.453  30.250  32.190  1.00  0.00     0.031 C 
ATOM     56  C   UNL A   1      46.350  27.965  31.234  1.00  0.00     0.031 A 
BRANCH  43  57
ATOM     57  C   UNL A   1      42.672  24.058  28.156  1.00  0.00    -0.014 A 
ATOM     58  C   UNL A   1      42.911  23.828  26.789  1.00  0.00     0.010 A 
ATOM     59  C   UNL A   1      42.261  22.988  28.971  1.00  0.00     0.010 A 
ATOM     60  C   UNL A   1      42.698  22.560  26.239  1.00  0.00     0.020 A 
ATOM     61  C   UNL A   1      42.068  21.714  28.429  1.00  0.00     0.020 A 
ATOM     62  C   UNL A   1      42.268  21.514  27.062  1.00  0.00     0.054 A 
BRANCH  62  63
ATOM     63  S   UNL A   1      41.998  19.877  26.328  1.00  0.00     0.124 S 
ATOM     64  O   UNL A   1      42.903  19.910  25.181  1.00  0.00    -0.237 OA
ATOM     65  O   UNL A   1      42.385  18.971  27.406  1.00  0.00    -0.237 OA
ATOM     66  O   UNL A   1      40.575  19.875  25.999  1.00  0.00    -0.744 OA
ENDBRANCH  62  63
ENDBRANCH  43  57
BRANCH  44  67
ATOM     67  C   UNL A   1      43.428  33.196  32.125  1.00  0.00    -0.014 A 
ATOM     68  C   UNL A   1      43.923  34.277  31.377  1.00  0.00     0.010 A 
ATOM     69  C   UNL A   1      43.013  33.413  33.452  1.00  0.00     0.010 A 
ATOM     70  C   UNL A   1      44.007  35.551  31.946  1.00  0.00     0.020 A 
ATOM     71  C   UNL A   1      43.075  34.690  34.017  1.00  0.00     0.020 A 
ATOM     72  C   UNL A   1      43.581  35.750  33.262  1.00  0.00     0.054 A 
BRANCH  72  73
ATOM     73  S   UNL A   1      43.635  37.424  33.962  1.00  0.00     0.124 S 
ATOM     74  O   UNL A   1      42.280  37.579  34.478  1.00  0.00    -0.237 OA
ATOM     75  O   UNL A   1      44.687  37.314  34.971  1.00  0.00    -0.237 OA
ATOM     76  O   UNL A   1      43.972  38.262  32.814  1.00  0.00    -0.744 OA
ENDBRANCH  72  73
ENDBRANCH  44  67
BRANCH  56  77
ATOM     77  C   UNL A   1      47.764  27.753  31.702  1.00  0.00    -0.014 A 
ATOM     78  C   UNL A   1      48.034  27.137  32.936  1.00  0.00     0.010 A 
ATOM     79  C   UNL A   1      48.834  28.138  30.874  1.00  0.00     0.010 A 
ATOM     80  C   UNL A   1      49.354  26.934  33.347  1.00  0.00     0.020 A 
ATOM     81  C   UNL A   1      50.154  27.918  31.274  1.00  0.00     0.020 A 
ATOM     82  C   UNL A   1      50.407  27.330  32.515  1.00  0.00     0.054 A 
BRANCH  82  83
ATOM     83  S   UNL A   1      52.112  27.022  33.050  1.00  0.00     0.124 S 
ATOM     84  O   UNL A   1      52.030  27.280  34.485  1.00  0.00    -0.237 OA
ATOM     85  O   UNL A   1      52.324  25.627  32.674  1.00  0.00    -0.237 OA
ATOM     86  O   UNL A   1      52.893  27.992  32.285  1.00  0.00    -0.744 OA
ENDBRANCH  82  83
ENDBRANCH  56  77
ENDBRANCH  30  31
ENDBRANCH  23  25
ENDBRANCH  22  23
ENDBRANCH  21  22
ENDBRANCH   1  21
TORSDOF 17
ENDMDL
MODEL 3
REMARK VINA RESULT:      -9.8      2.440      3.940
REMARK SMILES CCc1cccc(-c2ccc([C@@H](C)C(=O)OCCOC(=O)c3ccc(-c4c5nc(c(-c6ccc(S(=O)(=O)[O-])cc6)c6ccc([nH]6)c(-c6ccc(S(=O)(=O)[O-])cc6)c6nc(c(-c7ccc(S(=O)(=O)[O-])cc7)c7ccc4[nH]7)C=C6)C=C5)cc3)cc2)c1
REMARK SMILES IDX 17 1 16 2 14 3 15 4 12 5 13 6 11 7 8 8 9 9 83 10 10 11 82 12
REMARK SMILES IDX 7 13 3 14 4 15 84 16 5 17 6 18 2 19 1 20 18 21 19 22 20 23
REMARK SMILES IDX 21 24 22 25 23 26 81 27 24 28 80 29 25 30 26 31 27 32 74 33
REMARK SMILES IDX 28 34 79 35 73 36 75 37 29 38 78 39 72 40 71 41 30 43 60 44
REMARK SMILES IDX 41 45 59 46 42 47 45 48 58 49 76 50 43 51 44 52 57 54 77 55
REMARK SMILES IDX 46 56 31 57 32 58 40 59 33 60 39 61 34 62 35 63 36 64 37 65
REMARK SMILES IDX 38 66 61 67 62 68 70 69 63 70 69 71 64 72 65 73 66 74 67 75
REMARK SMILES IDX 68 76 47 77 48 78 56 79 49 80 55 81 50 82 51 83 52 84 53 85
REMARK SMILES IDX 54 86
REMARK H PARENT 75 42 45 53
REMARK Flexibility Score: inf
ROOT
ATOM      1  C   UNL A   1      40.795  19.556  26.094  1.00  0.00     0.274 C 
ENDROOT
BRANCH   1   2
ATOM      2  O   UNL A   1      41.888  20.324  26.633  1.00  0.00    -0.462 OA
BRANCH   2   3
ATOM      3  C   UNL A   1      42.756  20.863  25.737  1.00  0.00     0.313 C 
ATOM      4  O   UNL A   1      43.391  20.208  24.916  1.00  0.00    -0.252 OA
BRANCH   3   5
ATOM      5  C   UNL A   1      42.933  22.369  25.880  1.00  0.00     0.126 C 
ATOM      6  C   UNL A   1      43.826  22.890  24.755  1.00  0.00     0.025 C 
BRANCH   5   7
ATOM      7  C   UNL A   1      43.374  22.864  27.249  1.00  0.00    -0.034 A 
ATOM      8  C   UNL A   1      44.139  23.854  29.804  1.00  0.00    -0.018 A 
ATOM      9  C   UNL A   1      45.089  23.625  28.796  1.00  0.00     0.009 A 
ATOM     10  C   UNL A   1      42.801  23.555  29.519  1.00  0.00     0.009 A 
ATOM     11  C   UNL A   1      44.715  23.142  27.539  1.00  0.00     0.005 A 
ATOM     12  C   UNL A   1      42.422  23.071  28.261  1.00  0.00     0.005 A 
BRANCH   8  13
ATOM     13  C   UNL A   1      44.541  24.424  31.101  1.00  0.00    -0.018 A 
ATOM     14  C   UNL A   1      44.742  24.276  33.540  1.00  0.00    -0.048 A 
ATOM     15  C   UNL A   1      45.335  25.544  33.560  1.00  0.00     0.004 A 
ATOM     16  C   UNL A   1      44.347  23.727  32.307  1.00  0.00     0.012 A 
ATOM     17  C   UNL A   1      45.525  26.253  32.378  1.00  0.00     0.001 A 
ATOM     18  C   UNL A   1      45.130  25.697  31.162  1.00  0.00     0.009 A 
BRANCH  14  19
ATOM     19  C   UNL A   1      44.534  23.512  34.825  1.00  0.00     0.032 C 
ATOM     20  C   UNL A   1      43.293  23.971  35.580  1.00  0.00     0.009 C 
ENDBRANCH  14  19
ENDBRANCH   8  13
ENDBRANCH   5   7
ENDBRANCH   3   5
ENDBRANCH   2   3
ENDBRANCH   1   2
BRANCH   1  21
ATOM     21  C   UNL A   1      39.573  20.435  25.833  1.00  0.00     0.275 C 
BRANCH  21  22
ATOM     22  O   UNL A   1      39.646  21.663  26.582  1.00  0.00    -0.458 OA
BRANCH  22  23
ATOM     23  C   UNL A   1      38.755  22.612  26.212  1.00  0.00     0.338 C 
ATOM     24  O   UNL A   1      37.693  22.448  25.640  1.00  0.00    -0.246 OA
BRANCH  23  25
ATOM     25  C   UNL A   1      39.208  23.922  26.698  1.00  0.00     0.060 A 
ATOM     26  C   UNL A   1      39.912  24.745  25.818  1.00  0.00     0.016 A 
ATOM     27  C   UNL A   1      39.028  24.293  28.031  1.00  0.00     0.016 A 
ATOM     28  C   UNL A   1      40.464  25.941  26.270  1.00  0.00     0.010 A 
ATOM     29  C   UNL A   1      39.574  25.498  28.482  1.00  0.00     0.010 A 
ATOM     30  C   UNL A   1      40.312  26.319  27.610  1.00  0.00    -0.014 A 
BRANCH  30  31
ATOM     31  C   UNL A   1      40.979  27.544  28.108  1.00  0.00     0.031 A 
ATOM     32  C   UNL A   1      42.475  27.661  28.031  1.00  0.00     0.074 A 
ATOM     33  C   UNL A   1      40.243  28.556  28.605  1.00  0.00     0.049 A 
ATOM     34  N   UNL A   1      43.250  28.622  28.464  1.00  0.00    -0.248 NA
ATOM     35  C   UNL A   1      43.191  26.552  27.382  1.00  0.00     0.031 C 
ATOM     36  C   UNL A   1      38.782  28.578  28.688  1.00  0.00     0.029 A 
ATOM     37  N   UNL A   1      40.628  29.762  29.132  1.00  0.00    -0.354 N 
ATOM     38  C   UNL A   1      44.548  28.226  28.160  1.00  0.00     0.074 A 
ATOM     39  C   UNL A   1      44.455  26.931  27.519  1.00  0.00     0.031 C 
ATOM     40  C   UNL A   1      38.394  29.745  29.229  1.00  0.00     0.029 A 
ATOM     41  C   UNL A   1      39.577  30.532  29.567  1.00  0.00     0.049 A 
ATOM     42  H   UNL A   1      41.568  30.049  29.192  1.00  0.00     0.167 HD
ATOM     43  C   UNL A   1      45.710  28.881  28.396  1.00  0.00     0.031 A 
ATOM     44  C   UNL A   1      39.568  31.726  30.189  1.00  0.00     0.031 A 
ATOM     45  C   UNL A   1      45.798  30.165  29.037  1.00  0.00     0.049 A 
ATOM     46  C   UNL A   1      40.873  32.412  30.483  1.00  0.00     0.074 A 
ATOM     47  C   UNL A   1      46.931  30.910  29.323  1.00  0.00     0.029 A 
ATOM     48  N   UNL A   1      44.712  30.900  29.488  1.00  0.00    -0.354 N 
ATOM     49  N   UNL A   1      42.092  32.017  30.202  1.00  0.00    -0.248 NA
ATOM     50  C   UNL A   1      40.801  33.704  31.178  1.00  0.00     0.031 C 
ATOM     51  C   UNL A   1      46.530  32.078  29.982  1.00  0.00     0.029 A 
ATOM     52  C   UNL A   1      45.146  32.081  30.065  1.00  0.00     0.049 A 
ATOM     53  H   UNL A   1      43.772  30.622  29.411  1.00  0.00     0.167 HD
ATOM     54  C   UNL A   1      42.932  33.021  30.671  1.00  0.00     0.074 A 
ATOM     55  C   UNL A   1      42.081  34.046  31.241  1.00  0.00     0.031 C 
ATOM     56  C   UNL A   1      44.285  33.089  30.632  1.00  0.00     0.031 A 
BRANCH  43  57
ATOM     57  C   UNL A   1      46.982  28.188  27.992  1.00  0.00    -0.014 A 
ATOM     58  C   UNL A   1      47.602  27.251  28.838  1.00  0.00     0.010 A 
ATOM     59  C   UNL A   1      47.559  28.469  26.739  1.00  0.00     0.010 A 
ATOM     60  C   UNL A   1      48.801  26.641  28.457  1.00  0.00     0.020 A 
ATOM     61  C   UNL A   1      48.746  27.844  26.346  1.00  0.00     0.020 A 
ATOM     62  C   UNL A   1      49.370  26.949  27.217  1.00  0.00     0.054 A 
BRANCH  62  63
ATOM     63  S   UNL A   1      50.926  26.145  26.743  1.00  0.00     0.124 S 
ATOM     64  O   UNL A   1      50.844  26.172  25.284  1.00  0.00    -0.237 OA
ATOM     65  O   UNL A   1      51.935  27.022  27.331  1.00  0.00    -0.237 OA
ATOM     66  O   UNL A   1      50.830  24.819  27.348  1.00  0.00    -0.744 OA
ENDBRANCH  62  63
ENDBRANCH  43  57
BRANCH  44  67
ATOM     67  C   UNL A   1      38.274  32.339  30.590  1.00  0.00    -0.014 A 
ATOM     68  C   UNL A   1      37.724  32.084  31.858  1.00  0.00     0.010 A 
ATOM     69  C   UNL A   1      37.595  33.200  29.709  1.00  0.00     0.010 A 
ATOM     70  C   UNL A   1      36.516  32.676  32.237  1.00  0.00     0.020 A 
ATOM     71  C   UNL A   1      36.398  33.811  30.092  1.00  0.00     0.020 A 
ATOM     72  C   UNL A   1      35.861  33.537  31.352  1.00  0.00     0.054 A 
BRANCH  72  73
ATOM     73  S   UNL A   1      34.327  34.349  31.884  1.00  0.00     0.124 S 
ATOM     74  O   UNL A   1      34.829  35.586  32.473  1.00  0.00    -0.237 OA
ATOM     75  O   UNL A   1      33.593  34.499  30.630  1.00  0.00    -0.237 OA
ATOM     76  O   UNL A   1      33.746  33.395  32.825  1.00  0.00    -0.744 OA
ENDBRANCH  72  73
ENDBRANCH  44  67
BRANCH  56  77
ATOM     77  C   UNL A   1      44.929  34.325  31.195  1.00  0.00    -0.014 A 
ATOM     78  C   UNL A   1      45.333  34.384  32.540  1.00  0.00     0.010 A 
ATOM     79  C   UNL A   1      45.172  35.426  30.354  1.00  0.00     0.010 A 
ATOM     80  C   UNL A   1      45.944  35.536  33.042  1.00  0.00     0.020 A 
ATOM     81  C   UNL A   1      45.801  36.571  30.848  1.00  0.00     0.020 A 
ATOM     82  C   UNL A   1      46.170  36.625  32.194  1.00  0.00     0.054 A 
BRANCH  82  83
ATOM     83  S   UNL A   1      47.000  38.096  32.855  1.00  0.00     0.124 S 
ATOM     84  O   UNL A   1      47.827  37.526  33.915  1.00  0.00    -0.237 OA
ATOM     85  O   UNL A   1      47.729  38.606  31.696  1.00  0.00    -0.237 OA
ATOM     86  O   UNL A   1      45.897  38.939  33.309  1.00  0.00    -0.744 OA
ENDBRANCH  82  83
ENDBRANCH  56  77
ENDBRANCH  30  31
ENDBRANCH  23  25
ENDBRANCH  22  23
ENDBRANCH  21  22
ENDBRANCH   1  21
TORSDOF 17
ENDMDL
