MODEL 1
REMARK VINA RESULT:     -11.0      0.000      0.000
REMARK SMILES CC[NH2+][C@@]1(C(=O)OCCOC(=O)c2ccc(-c3c4nc(c(-c5ccc(S(=O)(=O)[O-])cc5)c5ccc([nH]5)c(-c5ccc(S(=O)(=O)[O-])cc5)c5nc(c(-c6ccc(S(=O)(=O)[O-])cc6)c6ccc3[nH]6)C=C5)C=C4)cc2)CC[C@H](Oc2ccc3c(c2)OCO3)C1
REMARK SMILES IDX 9 1 8 2 7 3 5 4 6 5 4 6 73 7 86 8 74 9 75 10 3 11 2 14 1 15
REMARK SMILES IDX 76 16 77 17 78 18 82 19 79 20 81 21 80 22 83 23 85 24 84 25
REMARK SMILES IDX 10 26 11 27 12 28 13 29 14 30 72 31 15 32 71 33 16 34 17 35
REMARK SMILES IDX 18 36 65 37 19 38 70 39 64 40 66 41 20 42 69 43 63 44 62 45
REMARK SMILES IDX 21 47 51 48 32 49 50 50 33 51 36 52 49 53 67 54 34 55 35 56
REMARK SMILES IDX 48 58 68 59 37 60 22 61 23 62 31 63 24 64 30 65 25 66 26 67
REMARK SMILES IDX 27 68 28 69 29 70 52 71 53 72 61 73 54 74 60 75 55 76 56 77
REMARK SMILES IDX 57 78 58 79 59 80 38 81 39 82 47 83 40 84 46 85 41 86 42 87
REMARK SMILES IDX 43 88 44 89 45 90
REMARK H PARENT 3 12 3 13 66 46 36 57
REMARK Flexibility Score: inf
ROOT
ATOM      1  C   UNL A   1      38.672  22.357  26.018  1.00  0.00     0.275 C 
ENDROOT
BRANCH   1   2
ATOM      2  C   UNL A   1      37.656  22.192  24.897  1.00  0.00     0.274 C 
BRANCH   2   3
ATOM      3  O   UNL A   1      36.371  21.865  25.459  1.00  0.00    -0.457 OA
BRANCH   3   4
ATOM      4  C   UNL A   1      35.307  21.894  24.611  1.00  0.00     0.368 C 
ATOM      5  O   UNL A   1      35.274  22.556  23.579  1.00  0.00    -0.245 OA
BRANCH   4   6
ATOM      6  C   UNL A   1      34.136  20.959  25.085  1.00  0.00     0.198 C 
ATOM      7  C   UNL A   1      32.983  21.175  24.088  1.00  0.00     0.085 C 
ATOM      8  C   UNL A   1      33.472  21.409  26.397  1.00  0.00     0.126 C 
ATOM      9  C   UNL A   1      32.388  22.524  24.507  1.00  0.00     0.052 C 
ATOM     10  C   UNL A   1      32.658  22.656  26.014  1.00  0.00     0.180 C 
BRANCH   6  11
ATOM     11  N   UNL A   1      34.686  19.588  25.142  1.00  0.00    -0.332 N 
ATOM     12  H   UNL A   1      35.590  19.603  24.670  1.00  0.00     0.347 HD
ATOM     13  H   UNL A   1      34.712  19.362  26.136  1.00  0.00     0.347 HD
BRANCH  11  14
ATOM     14  C   UNL A   1      33.902  18.513  24.544  1.00  0.00     0.257 C 
ATOM     15  C   UNL A   1      34.830  17.360  24.176  1.00  0.00     0.071 C 
ENDBRANCH  11  14
ENDBRANCH   6  11
BRANCH  10  16
ATOM     16  O   UNL A   1      33.491  23.783  26.275  1.00  0.00    -0.490 OA
BRANCH  16  17
ATOM     17  C   UNL A   1      33.033  25.036  26.016  1.00  0.00     0.123 A 
ATOM     18  C   UNL A   1      31.828  25.581  26.488  1.00  0.00     0.050 A 
ATOM     19  C   UNL A   1      33.859  25.777  25.164  1.00  0.00     0.097 A 
ATOM     20  C   UNL A   1      31.447  26.877  26.116  1.00  0.00     0.054 A 
ATOM     21  C   UNL A   1      33.463  27.047  24.818  1.00  0.00     0.169 A 
ATOM     22  C   UNL A   1      32.287  27.584  25.282  1.00  0.00     0.166 A 
ATOM     23  O   UNL A   1      34.143  27.900  24.008  1.00  0.00    -0.453 OA
ATOM     24  O   UNL A   1      32.078  28.846  24.820  1.00  0.00    -0.454 OA
ATOM     25  C   UNL A   1      33.279  29.051  24.046  1.00  0.00     0.468 C 
ENDBRANCH  16  17
ENDBRANCH  10  16
ENDBRANCH   4   6
ENDBRANCH   3   4
ENDBRANCH   2   3
ENDBRANCH   1   2
BRANCH   1  26
ATOM     26  O   UNL A   1      38.775  23.752  26.341  1.00  0.00    -0.458 OA
BRANCH  26  27
ATOM     27  C   UNL A   1      39.998  24.148  26.757  1.00  0.00     0.338 C 
ATOM     28  O   UNL A   1      41.080  23.660  26.481  1.00  0.00    -0.246 OA
BRANCH  27  29
ATOM     29  C   UNL A   1      39.858  25.353  27.583  1.00  0.00     0.060 A 
ATOM     30  C   UNL A   1      40.603  26.489  27.264  1.00  0.00     0.016 A 
ATOM     31  C   UNL A   1      39.108  25.300  28.755  1.00  0.00     0.016 A 
ATOM     32  C   UNL A   1      40.686  27.534  28.179  1.00  0.00     0.010 A 
ATOM     33  C   UNL A   1      39.109  26.399  29.617  1.00  0.00     0.010 A 
ATOM     34  C   UNL A   1      39.932  27.512  29.362  1.00  0.00    -0.014 A 
BRANCH  34  35
ATOM     35  C   UNL A   1      40.022  28.620  30.355  1.00  0.00     0.031 A 
ATOM     36  C   UNL A   1      41.073  28.581  31.437  1.00  0.00     0.074 A 
ATOM     37  C   UNL A   1      39.163  29.658  30.307  1.00  0.00     0.049 A 
ATOM     38  N   UNL A   1      41.162  29.297  32.529  1.00  0.00    -0.248 NA
ATOM     39  C   UNL A   1      42.154  27.593  31.280  1.00  0.00     0.031 C 
ATOM     40  C   UNL A   1      38.128  29.865  29.292  1.00  0.00     0.029 A 
ATOM     41  N   UNL A   1      39.028  30.743  31.139  1.00  0.00    -0.354 N 
ATOM     42  C   UNL A   1      42.259  28.798  33.223  1.00  0.00     0.074 A 
ATOM     43  C   UNL A   1      42.813  27.727  32.423  1.00  0.00     0.031 C 
ATOM     44  C   UNL A   1      37.498  31.023  29.533  1.00  0.00     0.029 A 
ATOM     45  C   UNL A   1      38.012  31.594  30.772  1.00  0.00     0.049 A 
ATOM     46  H   UNL A   1      39.603  30.897  31.923  1.00  0.00     0.167 HD
ATOM     47  C   UNL A   1      42.749  29.187  34.424  1.00  0.00     0.031 A 
ATOM     48  C   UNL A   1      37.509  32.682  31.384  1.00  0.00     0.031 A 
ATOM     49  C   UNL A   1      42.228  30.290  35.190  1.00  0.00     0.049 A 
ATOM     50  C   UNL A   1      38.064  33.097  32.716  1.00  0.00     0.074 A 
ATOM     51  C   UNL A   1      42.651  30.761  36.422  1.00  0.00     0.029 A 
ATOM     52  N   UNL A   1      41.189  31.111  34.784  1.00  0.00    -0.354 N 
ATOM     53  N   UNL A   1      39.035  32.551  33.407  1.00  0.00    -0.248 NA
ATOM     54  C   UNL A   1      37.436  34.258  33.362  1.00  0.00     0.031 C 
ATOM     55  C   UNL A   1      41.850  31.855  36.770  1.00  0.00     0.029 A 
ATOM     56  C   UNL A   1      40.954  32.085  35.739  1.00  0.00     0.049 A 
ATOM     57  H   UNL A   1      40.689  31.016  33.940  1.00  0.00     0.167 HD
ATOM     58  C   UNL A   1      39.130  33.297  34.575  1.00  0.00     0.074 A 
ATOM     59  C   UNL A   1      38.138  34.349  34.484  1.00  0.00     0.031 C 
ATOM     60  C   UNL A   1      39.958  33.119  35.633  1.00  0.00     0.031 A 
BRANCH  47  61
ATOM     61  C   UNL A   1      43.880  28.386  35.009  1.00  0.00    -0.014 A 
ATOM     62  C   UNL A   1      43.646  27.246  35.795  1.00  0.00     0.010 A 
ATOM     63  C   UNL A   1      45.207  28.767  34.732  1.00  0.00     0.010 A 
ATOM     64  C   UNL A   1      44.719  26.520  36.325  1.00  0.00     0.020 A 
ATOM     65  C   UNL A   1      46.282  28.033  35.243  1.00  0.00     0.020 A 
ATOM     66  C   UNL A   1      46.030  26.924  36.052  1.00  0.00     0.054 A 
BRANCH  66  67
ATOM     67  S   UNL A   1      47.408  25.959  36.734  1.00  0.00     0.124 S 
ATOM     68  O   UNL A   1      48.006  25.397  35.526  1.00  0.00    -0.237 OA
ATOM     69  O   UNL A   1      48.209  26.974  37.415  1.00  0.00    -0.237 OA
ATOM     70  O   UNL A   1      46.753  24.995  37.613  1.00  0.00    -0.744 OA
ENDBRANCH  66  67
ENDBRANCH  47  61
BRANCH  48  71
ATOM     71  C   UNL A   1      36.375  33.415  30.762  1.00  0.00    -0.014 A 
ATOM     72  C   UNL A   1      35.169  33.590  31.460  1.00  0.00     0.010 A 
ATOM     73  C   UNL A   1      36.517  33.986  29.482  1.00  0.00     0.010 A 
ATOM     74  C   UNL A   1      34.125  34.326  30.893  1.00  0.00     0.020 A 
ATOM     75  C   UNL A   1      35.485  34.745  28.924  1.00  0.00     0.020 A 
ATOM     76  C   UNL A   1      34.292  34.904  29.630  1.00  0.00     0.054 A 
BRANCH  76  77
ATOM     77  S   UNL A   1      32.964  35.933  28.944  1.00  0.00     0.124 S 
ATOM     78  O   UNL A   1      33.715  37.013  28.313  1.00  0.00    -0.237 OA
ATOM     79  O   UNL A   1      32.283  35.017  28.032  1.00  0.00    -0.237 OA
ATOM     80  O   UNL A   1      32.188  36.311  30.123  1.00  0.00    -0.744 OA
ENDBRANCH  76  77
ENDBRANCH  48  71
BRANCH  60  81
ATOM     81  C   UNL A   1      39.832  34.092  36.769  1.00  0.00    -0.014 A 
ATOM     82  C   UNL A   1      40.469  35.344  36.718  1.00  0.00     0.010 A 
ATOM     83  C   UNL A   1      39.034  33.768  37.880  1.00  0.00     0.010 A 
ATOM     84  C   UNL A   1      40.331  36.248  37.773  1.00  0.00     0.020 A 
ATOM     85  C   UNL A   1      38.880  34.676  38.930  1.00  0.00     0.020 A 
ATOM     86  C   UNL A   1      39.540  35.907  38.876  1.00  0.00     0.054 A 
BRANCH  86  87
ATOM     87  S   UNL A   1      39.342  37.108  40.220  1.00  0.00     0.124 S 
ATOM     88  O   UNL A   1      38.676  38.216  39.540  1.00  0.00    -0.237 OA
ATOM     89  O   UNL A   1      38.523  36.381  41.187  1.00  0.00    -0.237 OA
ATOM     90  O   UNL A   1      40.713  37.373  40.650  1.00  0.00    -0.744 OA
ENDBRANCH  86  87
ENDBRANCH  60  81
ENDBRANCH  34  35
ENDBRANCH  27  29
ENDBRANCH  26  27
ENDBRANCH   1  26
TORSDOF 18
ENDMDL
MODEL 2
REMARK VINA RESULT:     -10.9      5.567     10.174
REMARK SMILES CC[NH2+][C@@]1(C(=O)OCCOC(=O)c2ccc(-c3c4nc(c(-c5ccc(S(=O)(=O)[O-])cc5)c5ccc([nH]5)c(-c5ccc(S(=O)(=O)[O-])cc5)c5nc(c(-c6ccc(S(=O)(=O)[O-])cc6)c6ccc3[nH]6)C=C5)C=C4)cc2)CC[C@H](Oc2ccc3c(c2)OCO3)C1
REMARK SMILES IDX 9 1 8 2 7 3 5 4 6 5 4 6 73 7 86 8 74 9 75 10 3 11 2 14 1 15
REMARK SMILES IDX 76 16 77 17 78 18 82 19 79 20 81 21 80 22 83 23 85 24 84 25
REMARK SMILES IDX 10 26 11 27 12 28 13 29 14 30 72 31 15 32 71 33 16 34 17 35
REMARK SMILES IDX 18 36 65 37 19 38 70 39 64 40 66 41 20 42 69 43 63 44 62 45
REMARK SMILES IDX 21 47 51 48 32 49 50 50 33 51 36 52 49 53 67 54 34 55 35 56
REMARK SMILES IDX 48 58 68 59 37 60 22 61 23 62 31 63 24 64 30 65 25 66 26 67
REMARK SMILES IDX 27 68 28 69 29 70 52 71 53 72 61 73 54 74 60 75 55 76 56 77
REMARK SMILES IDX 57 78 58 79 59 80 38 81 39 82 47 83 40 84 46 85 41 86 42 87
REMARK SMILES IDX 43 88 44 89 45 90
REMARK H PARENT 3 12 3 13 66 46 36 57
REMARK Flexibility Score: inf
ROOT
ATOM      1  C   UNL A   1      37.205  21.902  24.597  1.00  0.00     0.275 C 
ENDROOT
BRANCH   1   2
ATOM      2  C   UNL A   1      36.492  22.974  23.784  1.00  0.00     0.274 C 
BRANCH   2   3
ATOM      3  O   UNL A   1      35.164  22.522  23.455  1.00  0.00    -0.457 OA
BRANCH   3   4
ATOM      4  C   UNL A   1      34.130  23.172  24.056  1.00  0.00     0.368 C 
ATOM      5  O   UNL A   1      34.265  23.940  25.003  1.00  0.00    -0.245 OA
BRANCH   4   6
ATOM      6  C   UNL A   1      32.748  22.854  23.380  1.00  0.00     0.198 C 
ATOM      7  C   UNL A   1      31.676  23.101  24.457  1.00  0.00     0.085 C 
ATOM      8  C   UNL A   1      32.526  21.362  23.088  1.00  0.00     0.126 C 
ATOM      9  C   UNL A   1      31.781  21.869  25.363  1.00  0.00     0.052 C 
ATOM     10  C   UNL A   1      32.283  20.726  24.467  1.00  0.00     0.180 C 
BRANCH   6  11
ATOM     11  N   UNL A   1      32.658  23.711  22.178  1.00  0.00    -0.332 N 
ATOM     12  H   UNL A   1      33.602  23.808  21.802  1.00  0.00     0.347 HD
ATOM     13  H   UNL A   1      31.990  23.235  21.572  1.00  0.00     0.347 HD
BRANCH  11  14
ATOM     14  C   UNL A   1      32.115  25.055  22.337  1.00  0.00     0.257 C 
ATOM     15  C   UNL A   1      32.831  26.002  21.381  1.00  0.00     0.071 C 
ENDBRANCH  11  14
ENDBRANCH   6  11
BRANCH  10  16
ATOM     16  O   UNL A   1      33.546  20.250  24.925  1.00  0.00    -0.490 OA
BRANCH  16  17
ATOM     17  C   UNL A   1      33.792  18.914  24.961  1.00  0.00     0.123 A 
ATOM     18  C   UNL A   1      34.981  18.288  24.553  1.00  0.00     0.050 A 
ATOM     19  C   UNL A   1      32.709  18.151  25.412  1.00  0.00     0.097 A 
ATOM     20  C   UNL A   1      35.097  16.893  24.602  1.00  0.00     0.054 A 
ATOM     21  C   UNL A   1      32.851  16.784  25.454  1.00  0.00     0.169 A 
ATOM     22  C   UNL A   1      34.015  16.170  25.060  1.00  0.00     0.166 A 
ATOM     23  O   UNL A   1      31.907  15.898  25.867  1.00  0.00    -0.453 OA
ATOM     24  O   UNL A   1      33.949  14.817  25.174  1.00  0.00    -0.454 OA
ATOM     25  C   UNL A   1      32.624  14.657  25.723  1.00  0.00     0.468 C 
ENDBRANCH  16  17
ENDBRANCH  10  16
ENDBRANCH   4   6
ENDBRANCH   3   4
ENDBRANCH   2   3
ENDBRANCH   1   2
BRANCH   1  26
ATOM     26  O   UNL A   1      37.649  22.484  25.833  1.00  0.00    -0.458 OA
BRANCH  26  27
ATOM     27  C   UNL A   1      38.924  22.190  26.171  1.00  0.00     0.338 C 
ATOM     28  O   UNL A   1      39.550  21.174  25.926  1.00  0.00    -0.246 OA
BRANCH  27  29
ATOM     29  C   UNL A   1      39.518  23.343  26.856  1.00  0.00     0.060 A 
ATOM     30  C   UNL A   1      39.135  24.631  26.481  1.00  0.00     0.016 A 
ATOM     31  C   UNL A   1      40.561  23.145  27.757  1.00  0.00     0.016 A 
ATOM     32  C   UNL A   1      39.875  25.724  26.924  1.00  0.00     0.010 A 
ATOM     33  C   UNL A   1      41.229  24.253  28.283  1.00  0.00     0.010 A 
ATOM     34  C   UNL A   1      40.924  25.554  27.840  1.00  0.00    -0.014 A 
BRANCH  34  35
ATOM     35  C   UNL A   1      41.731  26.714  28.313  1.00  0.00     0.031 A 
ATOM     36  C   UNL A   1      41.065  27.844  29.059  1.00  0.00     0.074 A 
ATOM     37  C   UNL A   1      43.056  26.773  28.073  1.00  0.00     0.049 A 
ATOM     38  N   UNL A   1      41.524  29.040  29.330  1.00  0.00    -0.248 NA
ATOM     39  C   UNL A   1      39.695  27.606  29.544  1.00  0.00     0.031 C 
ATOM     40  C   UNL A   1      43.852  25.737  27.413  1.00  0.00     0.029 A 
ATOM     41  N   UNL A   1      43.972  27.756  28.362  1.00  0.00    -0.354 N 
ATOM     42  C   UNL A   1      40.478  29.718  29.947  1.00  0.00     0.074 A 
ATOM     43  C   UNL A   1      39.364  28.797  30.023  1.00  0.00     0.031 C 
ATOM     44  C   UNL A   1      45.139  26.115  27.389  1.00  0.00     0.029 A 
ATOM     45  C   UNL A   1      45.247  27.461  27.939  1.00  0.00     0.049 A 
ATOM     46  H   UNL A   1      43.739  28.591  28.828  1.00  0.00     0.167 HD
ATOM     47  C   UNL A   1      40.446  30.996  30.395  1.00  0.00     0.031 A 
ATOM     48  C   UNL A   1      46.370  28.203  27.942  1.00  0.00     0.031 A 
ATOM     49  C   UNL A   1      41.575  31.890  30.367  1.00  0.00     0.049 A 
ATOM     50  C   UNL A   1      46.314  29.617  28.440  1.00  0.00     0.074 A 
ATOM     51  C   UNL A   1      41.642  33.207  30.792  1.00  0.00     0.029 A 
ATOM     52  N   UNL A   1      42.839  31.550  29.916  1.00  0.00    -0.354 N 
ATOM     53  N   UNL A   1      45.290  30.277  28.926  1.00  0.00    -0.248 NA
ATOM     54  C   UNL A   1      47.558  30.396  28.364  1.00  0.00     0.031 C 
ATOM     55  C   UNL A   1      42.946  33.669  30.574  1.00  0.00     0.029 A 
ATOM     56  C   UNL A   1      43.696  32.629  30.048  1.00  0.00     0.049 A 
ATOM     57  H   UNL A   1      43.092  30.670  29.552  1.00  0.00     0.167 HD
ATOM     58  C   UNL A   1      45.765  31.552  29.207  1.00  0.00     0.074 A 
ATOM     59  C   UNL A   1      47.173  31.563  28.863  1.00  0.00     0.031 C 
ATOM     60  C   UNL A   1      45.091  32.622  29.695  1.00  0.00     0.031 A 
BRANCH  47  61
ATOM     61  C   UNL A   1      39.134  31.521  30.912  1.00  0.00    -0.014 A 
ATOM     62  C   UNL A   1      38.781  31.414  32.267  1.00  0.00     0.010 A 
ATOM     63  C   UNL A   1      38.255  32.169  30.023  1.00  0.00     0.010 A 
ATOM     64  C   UNL A   1      37.553  31.913  32.719  1.00  0.00     0.020 A 
ATOM     65  C   UNL A   1      37.038  32.687  30.474  1.00  0.00     0.020 A 
ATOM     66  C   UNL A   1      36.687  32.539  31.818  1.00  0.00     0.054 A 
BRANCH  66  67
ATOM     67  S   UNL A   1      35.108  33.195  32.426  1.00  0.00     0.124 S 
ATOM     68  O   UNL A   1      35.182  32.879  33.850  1.00  0.00    -0.237 OA
ATOM     69  O   UNL A   1      35.197  34.615  32.095  1.00  0.00    -0.237 OA
ATOM     70  O   UNL A   1      34.108  32.445  31.671  1.00  0.00    -0.744 OA
ENDBRANCH  66  67
ENDBRANCH  47  61
BRANCH  48  71
ATOM     71  C   UNL A   1      47.628  27.629  27.395  1.00  0.00    -0.014 A 
ATOM     72  C   UNL A   1      47.948  27.777  26.035  1.00  0.00     0.010 A 
ATOM     73  C   UNL A   1      48.538  26.974  28.246  1.00  0.00     0.010 A 
ATOM     74  C   UNL A   1      49.157  27.284  25.536  1.00  0.00     0.020 A 
ATOM     75  C   UNL A   1      49.759  26.504  27.756  1.00  0.00     0.020 A 
ATOM     76  C   UNL A   1      50.057  26.655  26.401  1.00  0.00     0.054 A 
BRANCH  76  77
ATOM     77  S   UNL A   1      51.662  26.101  25.760  1.00  0.00     0.124 S 
ATOM     78  O   UNL A   1      51.503  26.309  24.325  1.00  0.00    -0.237 OA
ATOM     79  O   UNL A   1      52.604  26.995  26.429  1.00  0.00    -0.237 OA
ATOM     80  O   UNL A   1      51.732  24.706  26.190  1.00  0.00    -0.744 OA
ENDBRANCH  76  77
ENDBRANCH  48  71
BRANCH  60  81
ATOM     81  C   UNL A   1      45.874  33.887  29.897  1.00  0.00    -0.014 A 
ATOM     82  C   UNL A   1      45.908  34.879  28.902  1.00  0.00     0.010 A 
ATOM     83  C   UNL A   1      46.548  34.102  31.112  1.00  0.00     0.010 A 
ATOM     84  C   UNL A   1      46.626  36.059  29.109  1.00  0.00     0.020 A 
ATOM     85  C   UNL A   1      47.254  35.289  31.328  1.00  0.00     0.020 A 
ATOM     86  C   UNL A   1      47.299  36.255  30.319  1.00  0.00     0.054 A 
BRANCH  86  87
ATOM     87  S   UNL A   1      48.195  37.809  30.584  1.00  0.00     0.124 S 
ATOM     88  O   UNL A   1      49.579  37.351  30.665  1.00  0.00    -0.237 OA
ATOM     89  O   UNL A   1      47.858  38.585  29.392  1.00  0.00    -0.237 OA
ATOM     90  O   UNL A   1      47.632  38.322  31.831  1.00  0.00    -0.744 OA
ENDBRANCH  86  87
ENDBRANCH  60  81
ENDBRANCH  34  35
ENDBRANCH  27  29
ENDBRANCH  26  27
ENDBRANCH   1  26
TORSDOF 18
ENDMDL
MODEL 3
REMARK VINA RESULT:     -10.7      2.012      2.775
REMARK SMILES CC[NH2+][C@@]1(C(=O)OCCOC(=O)c2ccc(-c3c4nc(c(-c5ccc(S(=O)(=O)[O-])cc5)c5ccc([nH]5)c(-c5ccc(S(=O)(=O)[O-])cc5)c5nc(c(-c6ccc(S(=O)(=O)[O-])cc6)c6ccc3[nH]6)C=C5)C=C4)cc2)CC[C@H](Oc2ccc3c(c2)OCO3)C1
REMARK SMILES IDX 9 1 8 2 7 3 5 4 6 5 4 6 73 7 86 8 74 9 75 10 3 11 2 14 1 15
REMARK SMILES IDX 76 16 77 17 78 18 82 19 79 20 81 21 80 22 83 23 85 24 84 25
REMARK SMILES IDX 10 26 11 27 12 28 13 29 14 30 72 31 15 32 71 33 16 34 17 35
REMARK SMILES IDX 18 36 65 37 19 38 70 39 64 40 66 41 20 42 69 43 63 44 62 45
REMARK SMILES IDX 21 47 51 48 32 49 50 50 33 51 36 52 49 53 67 54 34 55 35 56
REMARK SMILES IDX 48 58 68 59 37 60 22 61 23 62 31 63 24 64 30 65 25 66 26 67
REMARK SMILES IDX 27 68 28 69 29 70 52 71 53 72 61 73 54 74 60 75 55 76 56 77
REMARK SMILES IDX 57 78 58 79 59 80 38 81 39 82 47 83 40 84 46 85 41 86 42 87
REMARK SMILES IDX 43 88 44 89 45 90
REMARK H PARENT 3 12 3 13 66 46 36 57
REMARK Flexibility Score: inf
ROOT
ATOM      1  C   UNL A   1      37.648  21.545  25.009  1.00  0.00     0.275 C 
ENDROOT
BRANCH   1   2
ATOM      2  C   UNL A   1      36.284  21.696  24.349  1.00  0.00     0.274 C 
BRANCH   2   3
ATOM      3  O   UNL A   1      35.402  20.664  24.830  1.00  0.00    -0.457 OA
BRANCH   3   4
ATOM      4  C   UNL A   1      34.499  21.025  25.782  1.00  0.00     0.368 C 
ATOM      5  O   UNL A   1      34.783  21.683  26.778  1.00  0.00    -0.245 OA
BRANCH   4   6
ATOM      6  C   UNL A   1      33.044  20.535  25.446  1.00  0.00     0.198 C 
ATOM      7  C   UNL A   1      32.912  20.596  23.913  1.00  0.00     0.085 C 
ATOM      8  C   UNL A   1      31.942  21.519  25.870  1.00  0.00     0.126 C 
ATOM      9  C   UNL A   1      32.728  22.089  23.624  1.00  0.00     0.052 C 
ATOM     10  C   UNL A   1      32.052  22.682  24.870  1.00  0.00     0.180 C 
BRANCH   6  11
ATOM     11  N   UNL A   1      32.901  19.192  26.050  1.00  0.00    -0.332 N 
ATOM     12  H   UNL A   1      33.805  18.941  26.450  1.00  0.00     0.347 HD
ATOM     13  H   UNL A   1      32.135  19.291  26.716  1.00  0.00     0.347 HD
BRANCH  11  14
ATOM     14  C   UNL A   1      32.491  18.094  25.181  1.00  0.00     0.257 C 
ATOM     15  C   UNL A   1      33.438  16.917  25.381  1.00  0.00     0.071 C 
ENDBRANCH  11  14
ENDBRANCH   6  11
BRANCH  10  16
ATOM     16  O   UNL A   1      32.891  23.662  25.475  1.00  0.00    -0.490 OA
BRANCH  16  17
ATOM     17  C   UNL A   1      32.847  24.950  25.041  1.00  0.00     0.123 A 
ATOM     18  C   UNL A   1      33.960  25.756  24.754  1.00  0.00     0.050 A 
ATOM     19  C   UNL A   1      31.552  25.468  24.935  1.00  0.00     0.097 A 
ATOM     20  C   UNL A   1      33.783  27.086  24.351  1.00  0.00     0.054 A 
ATOM     21  C   UNL A   1      31.406  26.775  24.534  1.00  0.00     0.169 A 
ATOM     22  C   UNL A   1      32.494  27.565  24.248  1.00  0.00     0.166 A 
ATOM     23  O   UNL A   1      30.228  27.432  24.375  1.00  0.00    -0.453 OA
ATOM     24  O   UNL A   1      32.135  28.822  23.875  1.00  0.00    -0.454 OA
ATOM     25  C   UNL A   1      30.696  28.716  23.921  1.00  0.00     0.468 C 
ENDBRANCH  16  17
ENDBRANCH  10  16
ENDBRANCH   4   6
ENDBRANCH   3   4
ENDBRANCH   2   3
ENDBRANCH   1   2
BRANCH   1  26
ATOM     26  O   UNL A   1      37.919  22.728  25.776  1.00  0.00    -0.458 OA
BRANCH  26  27
ATOM     27  C   UNL A   1      39.212  22.887  26.134  1.00  0.00     0.338 C 
ATOM     28  O   UNL A   1      40.149  22.141  25.911  1.00  0.00    -0.246 OA
BRANCH  27  29
ATOM     29  C   UNL A   1      39.368  24.180  26.808  1.00  0.00     0.060 A 
ATOM     30  C   UNL A   1      40.167  25.163  26.223  1.00  0.00     0.016 A 
ATOM     31  C   UNL A   1      38.848  24.356  28.088  1.00  0.00     0.016 A 
ATOM     32  C   UNL A   1      40.540  26.278  26.967  1.00  0.00     0.010 A 
ATOM     33  C   UNL A   1      39.137  25.530  28.787  1.00  0.00     0.010 A 
ATOM     34  C   UNL A   1      40.022  26.486  28.254  1.00  0.00    -0.014 A 
BRANCH  34  35
ATOM     35  C   UNL A   1      40.422  27.670  29.066  1.00  0.00     0.031 A 
ATOM     36  C   UNL A   1      41.753  27.684  29.776  1.00  0.00     0.074 A 
ATOM     37  C   UNL A   1      39.600  28.732  29.185  1.00  0.00     0.049 A 
ATOM     38  N   UNL A   1      42.180  28.486  30.718  1.00  0.00    -0.248 NA
ATOM     39  C   UNL A   1      42.725  26.646  29.391  1.00  0.00     0.031 C 
ATOM     40  C   UNL A   1      38.306  28.890  28.518  1.00  0.00     0.029 A 
ATOM     41  N   UNL A   1      39.737  29.888  29.915  1.00  0.00    -0.354 N 
ATOM     42  C   UNL A   1      43.431  28.007  31.090  1.00  0.00     0.074 A 
ATOM     43  C   UNL A   1      43.703  26.851  30.261  1.00  0.00     0.031 C 
ATOM     44  C   UNL A   1      37.791  30.088  28.831  1.00  0.00     0.029 A 
ATOM     45  C   UNL A   1      38.666  30.742  29.797  1.00  0.00     0.049 A 
ATOM     46  H   UNL A   1      40.526  30.087  30.469  1.00  0.00     0.167 HD
ATOM     47  C   UNL A   1      44.270  28.479  32.043  1.00  0.00     0.031 A 
ATOM     48  C   UNL A   1      38.386  31.898  30.429  1.00  0.00     0.031 A 
ATOM     49  C   UNL A   1      44.019  29.661  32.825  1.00  0.00     0.049 A 
ATOM     50  C   UNL A   1      39.326  32.403  31.484  1.00  0.00     0.074 A 
ATOM     51  C   UNL A   1      44.803  30.219  33.821  1.00  0.00     0.029 A 
ATOM     52  N   UNL A   1      42.914  30.484  32.679  1.00  0.00    -0.354 N 
ATOM     53  N   UNL A   1      40.456  31.881  31.895  1.00  0.00    -0.248 NA
ATOM     54  C   UNL A   1      38.937  33.638  32.180  1.00  0.00     0.031 C 
ATOM     55  C   UNL A   1      44.158  31.368  34.293  1.00  0.00     0.029 A 
ATOM     56  C   UNL A   1      42.992  31.544  33.566  1.00  0.00     0.049 A 
ATOM     57  H   UNL A   1      42.179  30.336  32.041  1.00  0.00     0.167 HD
ATOM     58  C   UNL A   1      40.911  32.720  32.904  1.00  0.00     0.074 A 
ATOM     59  C   UNL A   1      39.950  33.798  33.022  1.00  0.00     0.031 C 
ATOM     60  C   UNL A   1      42.022  32.602  33.673  1.00  0.00     0.031 A 
BRANCH  47  61
ATOM     61  C   UNL A   1      45.518  27.688  32.328  1.00  0.00    -0.014 A 
ATOM     62  C   UNL A   1      46.742  27.997  31.714  1.00  0.00     0.010 A 
ATOM     63  C   UNL A   1      45.466  26.635  33.262  1.00  0.00     0.010 A 
ATOM     64  C   UNL A   1      47.887  27.244  31.999  1.00  0.00     0.020 A 
ATOM     65  C   UNL A   1      46.611  25.893  33.565  1.00  0.00     0.020 A 
ATOM     66  C   UNL A   1      47.811  26.192  32.918  1.00  0.00     0.054 A 
BRANCH  66  67
ATOM     67  S   UNL A   1      49.311  25.238  33.288  1.00  0.00     0.124 S 
ATOM     68  O   UNL A   1      50.101  26.205  34.046  1.00  0.00    -0.237 OA
ATOM     69  O   UNL A   1      48.795  24.109  34.059  1.00  0.00    -0.237 OA
ATOM     70  O   UNL A   1      49.838  24.898  31.970  1.00  0.00    -0.744 OA
ENDBRANCH  66  67
ENDBRANCH  47  61
BRANCH  48  71
ATOM     71  C   UNL A   1      37.123  32.617  30.115  1.00  0.00    -0.014 A 
ATOM     72  C   UNL A   1      36.000  32.484  30.948  1.00  0.00     0.010 A 
ATOM     73  C   UNL A   1      37.056  33.480  29.005  1.00  0.00     0.010 A 
ATOM     74  C   UNL A   1      34.832  33.205  30.680  1.00  0.00     0.020 A 
ATOM     75  C   UNL A   1      35.900  34.222  28.750  1.00  0.00     0.020 A 
ATOM     76  C   UNL A   1      34.792  34.073  29.585  1.00  0.00     0.054 A 
BRANCH  76  77
ATOM     77  S   UNL A   1      33.303  35.071  29.301  1.00  0.00     0.124 S 
ATOM     78  O   UNL A   1      32.701  35.101  30.630  1.00  0.00    -0.237 OA
ATOM     79  O   UNL A   1      33.849  36.339  28.824  1.00  0.00    -0.237 OA
ATOM     80  O   UNL A   1      32.571  34.304  28.295  1.00  0.00    -0.744 OA
ENDBRANCH  76  77
ENDBRANCH  48  71
BRANCH  60  81
ATOM     81  C   UNL A   1      42.259  33.673  34.698  1.00  0.00    -0.014 A 
ATOM     82  C   UNL A   1      41.811  33.514  36.021  1.00  0.00     0.010 A 
ATOM     83  C   UNL A   1      42.974  34.830  34.344  1.00  0.00     0.010 A 
ATOM     84  C   UNL A   1      42.053  34.510  36.970  1.00  0.00     0.020 A 
ATOM     85  C   UNL A   1      43.231  35.821  35.295  1.00  0.00     0.020 A 
ATOM     86  C   UNL A   1      42.758  35.660  36.600  1.00  0.00     0.054 A 
BRANCH  86  87
ATOM     87  S   UNL A   1      43.095  36.925  37.855  1.00  0.00     0.124 S 
ATOM     88  O   UNL A   1      43.883  36.179  38.832  1.00  0.00    -0.237 OA
ATOM     89  O   UNL A   1      43.826  37.942  37.102  1.00  0.00    -0.237 OA
ATOM     90  O   UNL A   1      41.764  37.328  38.303  1.00  0.00    -0.744 OA
ENDBRANCH  86  87
ENDBRANCH  60  81
ENDBRANCH  34  35
ENDBRANCH  27  29
ENDBRANCH  26  27
ENDBRANCH   1  26
TORSDOF 18
ENDMDL
