MODEL 1
REMARK VINA RESULT:      -9.9      0.000      0.000
REMARK SMILES O=C(OCCOC(=O)c1cccnc1C(=O)Nc1ccc(Cl)cn1)c1ccc(-c2c3nc(c(-c4ccc(S(=O)(=O)[O-])cc4)c4ccc([nH]4)c(-c4ccc(S(=O)(=O)[O-])cc4)c4nc(c(-c5ccc(S(=O)(=O)[O-])cc5)c5ccc2[nH]5)C=C4)C=C3)cc1
REMARK SMILES IDX 4 1 3 2 2 3 1 4 25 5 26 6 84 7 27 8 83 9 28 10 29 11 30 12
REMARK SMILES IDX 77 13 31 14 82 15 76 16 78 17 32 18 81 19 75 20 74 21 33 23
REMARK SMILES IDX 63 24 44 25 62 26 45 27 48 28 61 29 79 30 46 31 47 32 60 34
REMARK SMILES IDX 80 35 49 36 34 37 35 38 43 39 36 40 42 41 37 42 38 43 39 44
REMARK SMILES IDX 40 45 41 46 64 47 65 48 73 49 66 50 72 51 67 52 68 53 69 54
REMARK SMILES IDX 70 55 71 56 50 57 51 58 59 59 52 60 58 61 53 62 54 63 55 64
REMARK SMILES IDX 56 65 57 66 5 67 6 68 7 69 8 70 9 71 10 72 14 73 11 74 13 75
REMARK SMILES IDX 12 76 15 77 16 78 17 79 18 81 19 82 24 83 20 84 23 85 21 86
REMARK SMILES IDX 22 87
REMARK H PARENT 78 22 48 33 17 80
REMARK Flexibility Score: inf
ROOT
ATOM      1  C   UNL A   1      39.591  20.643  26.650  1.00  0.00     0.275 C 
ENDROOT
BRANCH   1   2
ATOM      2  O   UNL A   1      39.967  21.994  26.290  1.00  0.00    -0.458 OA
BRANCH   2   3
ATOM      3  C   UNL A   1      39.120  23.060  26.352  1.00  0.00     0.338 C 
ATOM      4  O   UNL A   1      38.032  23.074  25.795  1.00  0.00    -0.246 OA
BRANCH   3   5
ATOM      5  C   UNL A   1      39.701  24.283  26.940  1.00  0.00     0.060 A 
ATOM      6  C   UNL A   1      40.326  25.226  26.129  1.00  0.00     0.016 A 
ATOM      7  C   UNL A   1      39.514  24.533  28.306  1.00  0.00     0.016 A 
ATOM      8  C   UNL A   1      40.578  26.492  26.632  1.00  0.00     0.010 A 
ATOM      9  C   UNL A   1      39.808  25.791  28.828  1.00  0.00     0.010 A 
ATOM     10  C   UNL A   1      40.316  26.780  27.978  1.00  0.00    -0.014 A 
BRANCH  10  11
ATOM     11  C   UNL A   1      40.871  28.036  28.506  1.00  0.00     0.031 A 
ATOM     12  C   UNL A   1      42.347  28.201  28.355  1.00  0.00     0.074 A 
ATOM     13  C   UNL A   1      40.090  29.042  28.928  1.00  0.00     0.049 A 
ATOM     14  N   UNL A   1      43.047  29.295  28.423  1.00  0.00    -0.248 NA
ATOM     15  C   UNL A   1      43.110  27.002  27.961  1.00  0.00     0.031 C 
ATOM     16  C   UNL A   1      38.632  29.024  28.954  1.00  0.00     0.029 A 
ATOM     17  N   UNL A   1      40.411  30.286  29.400  1.00  0.00    -0.354 N 
ATOM     18  C   UNL A   1      44.304  28.941  27.960  1.00  0.00     0.074 A 
ATOM     19  C   UNL A   1      44.290  27.525  27.677  1.00  0.00     0.031 C 
ATOM     20  C   UNL A   1      38.181  30.165  29.506  1.00  0.00     0.029 A 
ATOM     21  C   UNL A   1      39.324  31.013  29.824  1.00  0.00     0.049 A 
ATOM     22  H   UNL A   1      41.334  30.626  29.434  1.00  0.00     0.167 HD
ATOM     23  C   UNL A   1      45.368  29.746  27.763  1.00  0.00     0.031 A 
ATOM     24  C   UNL A   1      39.276  32.231  30.397  1.00  0.00     0.031 A 
ATOM     25  C   UNL A   1      45.402  31.108  28.206  1.00  0.00     0.049 A 
ATOM     26  C   UNL A   1      40.561  33.012  30.471  1.00  0.00     0.074 A 
ATOM     27  C   UNL A   1      46.460  31.992  28.198  1.00  0.00     0.029 A 
ATOM     28  N   UNL A   1      44.327  31.758  28.799  1.00  0.00    -0.354 N 
ATOM     29  N   UNL A   1      41.740  32.690  29.988  1.00  0.00    -0.248 NA
ATOM     30  C   UNL A   1      40.513  34.326  31.125  1.00  0.00     0.031 C 
ATOM     31  C   UNL A   1      46.045  33.156  28.856  1.00  0.00     0.029 A 
ATOM     32  C   UNL A   1      44.710  33.017  29.215  1.00  0.00     0.049 A 
ATOM     33  H   UNL A   1      43.426  31.377  28.908  1.00  0.00     0.167 HD
ATOM     34  C   UNL A   1      42.562  33.781  30.233  1.00  0.00     0.074 A 
ATOM     35  C   UNL A   1      41.748  34.767  30.921  1.00  0.00     0.031 C 
ATOM     36  C   UNL A   1      43.864  33.964  29.899  1.00  0.00     0.031 A 
BRANCH  23  37
ATOM     37  C   UNL A   1      46.560  29.109  27.124  1.00  0.00    -0.014 A 
ATOM     38  C   UNL A   1      46.585  28.873  25.736  1.00  0.00     0.010 A 
ATOM     39  C   UNL A   1      47.613  28.638  27.924  1.00  0.00     0.010 A 
ATOM     40  C   UNL A   1      47.626  28.137  25.166  1.00  0.00     0.020 A 
ATOM     41  C   UNL A   1      48.660  27.912  27.356  1.00  0.00     0.020 A 
ATOM     42  C   UNL A   1      48.649  27.649  25.984  1.00  0.00     0.054 A 
BRANCH  42  43
ATOM     43  S   UNL A   1      49.967  26.657  25.229  1.00  0.00     0.124 S 
ATOM     44  O   UNL A   1      51.031  27.645  25.068  1.00  0.00    -0.237 OA
ATOM     45  O   UNL A   1      50.212  25.629  26.237  1.00  0.00    -0.237 OA
ATOM     46  O   UNL A   1      49.368  26.177  23.985  1.00  0.00    -0.744 OA
ENDBRANCH  42  43
ENDBRANCH  23  37
BRANCH  24  47
ATOM     47  C   UNL A   1      38.003  32.761  30.960  1.00  0.00    -0.014 A 
ATOM     48  C   UNL A   1      37.585  32.458  32.266  1.00  0.00     0.010 A 
ATOM     49  C   UNL A   1      37.171  33.557  30.148  1.00  0.00     0.010 A 
ATOM     50  C   UNL A   1      36.347  32.915  32.739  1.00  0.00     0.020 A 
ATOM     51  C   UNL A   1      35.943  34.030  30.622  1.00  0.00     0.020 A 
ATOM     52  C   UNL A   1      35.532  33.693  31.911  1.00  0.00     0.054 A 
BRANCH  52  53
ATOM     53  S   UNL A   1      33.931  34.274  32.544  1.00  0.00     0.124 S 
ATOM     54  O   UNL A   1      34.337  35.270  33.529  1.00  0.00    -0.237 OA
ATOM     55  O   UNL A   1      33.290  34.796  31.339  1.00  0.00    -0.237 OA
ATOM     56  O   UNL A   1      33.323  33.063  33.091  1.00  0.00    -0.744 OA
ENDBRANCH  52  53
ENDBRANCH  24  47
BRANCH  36  57
ATOM     57  C   UNL A   1      44.478  35.288  30.243  1.00  0.00    -0.014 A 
ATOM     58  C   UNL A   1      44.374  36.383  29.370  1.00  0.00     0.010 A 
ATOM     59  C   UNL A   1      45.076  35.457  31.505  1.00  0.00     0.010 A 
ATOM     60  C   UNL A   1      44.865  37.631  29.754  1.00  0.00     0.020 A 
ATOM     61  C   UNL A   1      45.544  36.709  31.902  1.00  0.00     0.020 A 
ATOM     62  C   UNL A   1      45.440  37.787  31.020  1.00  0.00     0.054 A 
BRANCH  62  63
ATOM     63  S   UNL A   1      45.987  39.437  31.533  1.00  0.00     0.124 S 
ATOM     64  O   UNL A   1      44.717  40.095  31.832  1.00  0.00    -0.237 OA
ATOM     65  O   UNL A   1      46.833  39.151  32.689  1.00  0.00    -0.237 OA
ATOM     66  O   UNL A   1      46.695  39.946  30.361  1.00  0.00    -0.744 OA
ENDBRANCH  62  63
ENDBRANCH  36  57
ENDBRANCH  10  11
ENDBRANCH   3   5
ENDBRANCH   2   3
ENDBRANCH   1   2
BRANCH   1  67
ATOM     67  C   UNL A   1      40.050  19.523  25.691  1.00  0.00     0.275 C 
BRANCH  67  68
ATOM     68  O   UNL A   1      41.412  19.719  25.266  1.00  0.00    -0.458 OA
BRANCH  68  69
ATOM     69  C   UNL A   1      42.389  19.451  26.160  1.00  0.00     0.340 C 
ATOM     70  O   UNL A   1      42.237  19.108  27.320  1.00  0.00    -0.246 OA
BRANCH  69  71
ATOM     71  C   UNL A   1      43.688  19.729  25.547  1.00  0.00     0.091 A 
ATOM     72  C   UNL A   1      44.497  18.598  25.349  1.00  0.00     0.020 A 
ATOM     73  C   UNL A   1      44.232  20.986  25.314  1.00  0.00     0.143 A 
ATOM     74  C   UNL A   1      45.855  18.746  25.097  1.00  0.00     0.021 A 
ATOM     75  N   UNL A   1      45.572  21.132  25.045  1.00  0.00    -0.250 NA
ATOM     76  C   UNL A   1      46.349  20.027  24.989  1.00  0.00     0.112 A 
BRANCH  73  77
ATOM     77  C   UNL A   1      43.542  22.333  25.357  1.00  0.00     0.276 C 
ATOM     78  O   UNL A   1      43.156  22.825  24.294  1.00  0.00    -0.267 OA
ATOM     79  N   UNL A   1      42.946  22.782  26.517  1.00  0.00    -0.305 N 
ATOM     80  H   UNL A   1      41.963  22.727  26.515  1.00  0.00     0.171 HD
BRANCH  79  81
ATOM     81  C   UNL A   1      43.488  23.297  27.691  1.00  0.00     0.132 A 
ATOM     82  C   UNL A   1      42.813  23.266  28.889  1.00  0.00     0.049 A 
ATOM     83  N   UNL A   1      44.765  23.716  27.633  1.00  0.00    -0.238 NA
ATOM     84  C   UNL A   1      43.352  23.819  30.045  1.00  0.00     0.026 A 
ATOM     85  C   UNL A   1      45.313  24.201  28.782  1.00  0.00     0.134 A 
ATOM     86  C   UNL A   1      44.641  24.302  29.990  1.00  0.00     0.059 A 
ATOM     87  Cl  UNL A   1      45.387  24.951  31.390  1.00  0.00    -0.083 Cl
ENDBRANCH  79  81
ENDBRANCH  73  77
ENDBRANCH  69  71
ENDBRANCH  68  69
ENDBRANCH  67  68
ENDBRANCH   1  67
TORSDOF 16
ENDMDL
MODEL 2
REMARK VINA RESULT:      -9.8      6.522     11.910
REMARK SMILES O=C(OCCOC(=O)c1cccnc1C(=O)Nc1ccc(Cl)cn1)c1ccc(-c2c3nc(c(-c4ccc(S(=O)(=O)[O-])cc4)c4ccc([nH]4)c(-c4ccc(S(=O)(=O)[O-])cc4)c4nc(c(-c5ccc(S(=O)(=O)[O-])cc5)c5ccc2[nH]5)C=C4)C=C3)cc1
REMARK SMILES IDX 4 1 3 2 2 3 1 4 25 5 26 6 84 7 27 8 83 9 28 10 29 11 30 12
REMARK SMILES IDX 77 13 31 14 82 15 76 16 78 17 32 18 81 19 75 20 74 21 33 23
REMARK SMILES IDX 63 24 44 25 62 26 45 27 48 28 61 29 79 30 46 31 47 32 60 34
REMARK SMILES IDX 80 35 49 36 34 37 35 38 43 39 36 40 42 41 37 42 38 43 39 44
REMARK SMILES IDX 40 45 41 46 64 47 65 48 73 49 66 50 72 51 67 52 68 53 69 54
REMARK SMILES IDX 70 55 71 56 50 57 51 58 59 59 52 60 58 61 53 62 54 63 55 64
REMARK SMILES IDX 56 65 57 66 5 67 6 68 7 69 8 70 9 71 10 72 14 73 11 74 13 75
REMARK SMILES IDX 12 76 15 77 16 78 17 79 18 81 19 82 24 83 20 84 23 85 21 86
REMARK SMILES IDX 22 87
REMARK H PARENT 78 22 48 33 17 80
REMARK Flexibility Score: inf
ROOT
ATOM      1  C   UNL A   1      32.110  30.477  26.738  1.00  0.00     0.275 C 
ENDROOT
BRANCH   1   2
ATOM      2  O   UNL A   1      33.536  30.437  26.986  1.00  0.00    -0.458 OA
BRANCH   2   3
ATOM      3  C   UNL A   1      34.192  31.323  27.790  1.00  0.00     0.338 C 
ATOM      4  O   UNL A   1      33.817  32.476  27.947  1.00  0.00    -0.246 OA
BRANCH   3   5
ATOM      5  C   UNL A   1      35.510  30.867  28.271  1.00  0.00     0.060 A 
ATOM      6  C   UNL A   1      36.661  31.589  27.965  1.00  0.00     0.016 A 
ATOM      7  C   UNL A   1      35.573  29.764  29.132  1.00  0.00     0.016 A 
ATOM      8  C   UNL A   1      37.826  31.341  28.672  1.00  0.00     0.010 A 
ATOM      9  C   UNL A   1      36.756  29.481  29.813  1.00  0.00     0.010 A 
ATOM     10  C   UNL A   1      37.875  30.292  29.600  1.00  0.00    -0.014 A 
BRANCH  10  11
ATOM     11  C   UNL A   1      39.208  29.908  30.091  1.00  0.00     0.031 A 
ATOM     12  C   UNL A   1      39.731  30.712  31.234  1.00  0.00     0.074 A 
ATOM     13  C   UNL A   1      39.835  28.799  29.667  1.00  0.00     0.049 A 
ATOM     14  N   UNL A   1      40.690  30.413  32.060  1.00  0.00    -0.248 NA
ATOM     15  C   UNL A   1      39.001  31.953  31.557  1.00  0.00     0.031 C 
ATOM     16  C   UNL A   1      39.317  27.868  28.671  1.00  0.00     0.029 A 
ATOM     17  N   UNL A   1      41.035  28.255  30.032  1.00  0.00    -0.354 N 
ATOM     18  C   UNL A   1      40.599  31.358  33.068  1.00  0.00     0.074 A 
ATOM     19  C   UNL A   1      39.538  32.276  32.721  1.00  0.00     0.031 C 
ATOM     20  C   UNL A   1      40.236  26.914  28.432  1.00  0.00     0.029 A 
ATOM     21  C   UNL A   1      41.384  27.145  29.300  1.00  0.00     0.049 A 
ATOM     22  H   UNL A   1      41.597  28.625  30.751  1.00  0.00     0.167 HD
ATOM     23  C   UNL A   1      41.326  31.429  34.202  1.00  0.00     0.031 A 
ATOM     24  C   UNL A   1      42.510  26.406  29.345  1.00  0.00     0.031 A 
ATOM     25  C   UNL A   1      42.474  30.607  34.438  1.00  0.00     0.049 A 
ATOM     26  C   UNL A   1      43.496  26.711  30.442  1.00  0.00     0.074 A 
ATOM     27  C   UNL A   1      43.382  30.669  35.475  1.00  0.00     0.029 A 
ATOM     28  N   UNL A   1      42.902  29.605  33.576  1.00  0.00    -0.354 N 
ATOM     29  N   UNL A   1      43.381  27.578  31.422  1.00  0.00    -0.248 NA
ATOM     30  C   UNL A   1      44.736  25.926  30.469  1.00  0.00     0.031 C 
ATOM     31  C   UNL A   1      44.402  29.751  35.199  1.00  0.00     0.029 A 
ATOM     32  C   UNL A   1      44.095  29.076  34.025  1.00  0.00     0.049 A 
ATOM     33  H   UNL A   1      42.426  29.316  32.764  1.00  0.00     0.167 HD
ATOM     34  C   UNL A   1      44.508  27.407  32.214  1.00  0.00     0.074 A 
ATOM     35  C   UNL A   1      45.300  26.364  31.587  1.00  0.00     0.031 C 
ATOM     36  C   UNL A   1      44.849  28.038  33.365  1.00  0.00     0.031 A 
BRANCH  23  37
ATOM     37  C   UNL A   1      40.915  32.487  35.176  1.00  0.00    -0.014 A 
ATOM     38  C   UNL A   1      41.512  33.762  35.137  1.00  0.00     0.010 A 
ATOM     39  C   UNL A   1      40.016  32.175  36.207  1.00  0.00     0.010 A 
ATOM     40  C   UNL A   1      41.245  34.694  36.142  1.00  0.00     0.020 A 
ATOM     41  C   UNL A   1      39.738  33.108  37.206  1.00  0.00     0.020 A 
ATOM     42  C   UNL A   1      40.371  34.354  37.179  1.00  0.00     0.054 A 
BRANCH  42  43
ATOM     43  S   UNL A   1      40.074  35.563  38.498  1.00  0.00     0.124 S 
ATOM     44  O   UNL A   1      41.373  35.605  39.164  1.00  0.00    -0.237 OA
ATOM     45  O   UNL A   1      39.710  36.766  37.754  1.00  0.00    -0.237 OA
ATOM     46  O   UNL A   1      38.992  34.965  39.277  1.00  0.00    -0.744 OA
ENDBRANCH  42  43
ENDBRANCH  23  37
BRANCH  24  47
ATOM     47  C   UNL A   1      42.773  25.352  28.326  1.00  0.00    -0.014 A 
ATOM     48  C   UNL A   1      42.382  24.017  28.520  1.00  0.00     0.010 A 
ATOM     49  C   UNL A   1      43.469  25.691  27.150  1.00  0.00     0.010 A 
ATOM     50  C   UNL A   1      42.708  23.037  27.573  1.00  0.00     0.020 A 
ATOM     51  C   UNL A   1      43.781  24.720  26.192  1.00  0.00     0.020 A 
ATOM     52  C   UNL A   1      43.411  23.395  26.417  1.00  0.00     0.054 A 
BRANCH  52  53
ATOM     53  S   UNL A   1      43.825  22.109  25.203  1.00  0.00     0.124 S 
ATOM     54  O   UNL A   1      42.936  21.021  25.597  1.00  0.00    -0.237 OA
ATOM     55  O   UNL A   1      43.507  22.762  23.936  1.00  0.00    -0.237 OA
ATOM     56  O   UNL A   1      45.248  21.870  25.433  1.00  0.00    -0.744 OA
ENDBRANCH  52  53
ENDBRANCH  24  47
BRANCH  36  57
ATOM     57  C   UNL A   1      46.113  27.593  34.040  1.00  0.00    -0.014 A 
ATOM     58  C   UNL A   1      47.310  28.308  33.878  1.00  0.00     0.010 A 
ATOM     59  C   UNL A   1      46.066  26.505  34.930  1.00  0.00     0.010 A 
ATOM     60  C   UNL A   1      48.448  27.936  34.594  1.00  0.00     0.020 A 
ATOM     61  C   UNL A   1      47.194  26.147  35.666  1.00  0.00     0.020 A 
ATOM     62  C   UNL A   1      48.380  26.862  35.488  1.00  0.00     0.054 A 
BRANCH  62  63
ATOM     63  S   UNL A   1      49.844  26.455  36.476  1.00  0.00     0.124 S 
ATOM     64  O   UNL A   1      50.450  25.383  35.690  1.00  0.00    -0.237 OA
ATOM     65  O   UNL A   1      50.581  27.716  36.494  1.00  0.00    -0.237 OA
ATOM     66  O   UNL A   1      49.288  26.047  37.765  1.00  0.00    -0.744 OA
ENDBRANCH  62  63
ENDBRANCH  36  57
ENDBRANCH  10  11
ENDBRANCH   3   5
ENDBRANCH   2   3
ENDBRANCH   1   2
BRANCH   1  67
ATOM     67  C   UNL A   1      31.592  29.610  25.570  1.00  0.00     0.275 C 
BRANCH  67  68
ATOM     68  O   UNL A   1      32.270  28.339  25.517  1.00  0.00    -0.458 OA
BRANCH  68  69
ATOM     69  C   UNL A   1      33.190  28.164  24.543  1.00  0.00     0.340 C 
ATOM     70  O   UNL A   1      33.671  29.031  23.834  1.00  0.00    -0.246 OA
BRANCH  69  71
ATOM     71  C   UNL A   1      33.465  26.734  24.396  1.00  0.00     0.091 A 
ATOM     72  C   UNL A   1      34.003  26.119  25.539  1.00  0.00     0.020 A 
ATOM     73  C   UNL A   1      33.399  26.004  23.216  1.00  0.00     0.143 A 
ATOM     74  C   UNL A   1      34.613  24.876  25.441  1.00  0.00     0.021 A 
ATOM     75  N   UNL A   1      33.986  24.764  23.124  1.00  0.00    -0.250 NA
ATOM     76  C   UNL A   1      34.610  24.257  24.210  1.00  0.00     0.112 A 
BRANCH  73  77
ATOM     77  C   UNL A   1      32.776  26.404  21.895  1.00  0.00     0.276 C 
ATOM     78  O   UNL A   1      33.415  26.194  20.861  1.00  0.00    -0.267 OA
ATOM     79  N   UNL A   1      31.409  26.550  21.777  1.00  0.00    -0.305 N 
ATOM     80  H   UNL A   1      30.962  25.810  21.306  1.00  0.00     0.171 HD
BRANCH  79  81
ATOM     81  C   UNL A   1      30.551  27.558  22.206  1.00  0.00     0.132 A 
ATOM     82  C   UNL A   1      29.563  27.335  23.138  1.00  0.00     0.049 A 
ATOM     83  N   UNL A   1      30.812  28.801  21.765  1.00  0.00    -0.238 NA
ATOM     84  C   UNL A   1      28.689  28.344  23.529  1.00  0.00     0.026 A 
ATOM     85  C   UNL A   1      29.991  29.799  22.198  1.00  0.00     0.134 A 
ATOM     86  C   UNL A   1      28.909  29.614  23.043  1.00  0.00     0.059 A 
ATOM     87  Cl  UNL A   1      27.902  30.915  23.524  1.00  0.00    -0.083 Cl
ENDBRANCH  79  81
ENDBRANCH  73  77
ENDBRANCH  69  71
ENDBRANCH  68  69
ENDBRANCH  67  68
ENDBRANCH   1  67
TORSDOF 16
ENDMDL
MODEL 3
REMARK VINA RESULT:      -9.7      5.061     11.276
REMARK SMILES O=C(OCCOC(=O)c1cccnc1C(=O)Nc1ccc(Cl)cn1)c1ccc(-c2c3nc(c(-c4ccc(S(=O)(=O)[O-])cc4)c4ccc([nH]4)c(-c4ccc(S(=O)(=O)[O-])cc4)c4nc(c(-c5ccc(S(=O)(=O)[O-])cc5)c5ccc2[nH]5)C=C4)C=C3)cc1
REMARK SMILES IDX 4 1 3 2 2 3 1 4 25 5 26 6 84 7 27 8 83 9 28 10 29 11 30 12
REMARK SMILES IDX 77 13 31 14 82 15 76 16 78 17 32 18 81 19 75 20 74 21 33 23
REMARK SMILES IDX 63 24 44 25 62 26 45 27 48 28 61 29 79 30 46 31 47 32 60 34
REMARK SMILES IDX 80 35 49 36 34 37 35 38 43 39 36 40 42 41 37 42 38 43 39 44
REMARK SMILES IDX 40 45 41 46 64 47 65 48 73 49 66 50 72 51 67 52 68 53 69 54
REMARK SMILES IDX 70 55 71 56 50 57 51 58 59 59 52 60 58 61 53 62 54 63 55 64
REMARK SMILES IDX 56 65 57 66 5 67 6 68 7 69 8 70 9 71 10 72 14 73 11 74 13 75
REMARK SMILES IDX 12 76 15 77 16 78 17 79 18 81 19 82 24 83 20 84 23 85 21 86
REMARK SMILES IDX 22 87
REMARK H PARENT 78 22 48 33 17 80
REMARK Flexibility Score: inf
ROOT
ATOM      1  C   UNL A   1      32.701  29.669  26.033  1.00  0.00     0.275 C 
ENDROOT
BRANCH   1   2
ATOM      2  O   UNL A   1      33.787  29.491  26.974  1.00  0.00    -0.458 OA
BRANCH   2   3
ATOM      3  C   UNL A   1      34.419  30.520  27.608  1.00  0.00     0.338 C 
ATOM      4  O   UNL A   1      34.012  31.672  27.566  1.00  0.00    -0.246 OA
BRANCH   3   5
ATOM      5  C   UNL A   1      35.751  30.192  28.150  1.00  0.00     0.060 A 
ATOM      6  C   UNL A   1      35.878  29.631  29.419  1.00  0.00     0.016 A 
ATOM      7  C   UNL A   1      36.874  30.347  27.328  1.00  0.00     0.016 A 
ATOM      8  C   UNL A   1      37.077  29.042  29.783  1.00  0.00     0.010 A 
ATOM      9  C   UNL A   1      38.097  29.796  27.709  1.00  0.00     0.010 A 
ATOM     10  C   UNL A   1      38.186  29.117  28.929  1.00  0.00    -0.014 A 
BRANCH  10  11
ATOM     11  C   UNL A   1      39.486  28.730  29.500  1.00  0.00     0.031 A 
ATOM     12  C   UNL A   1      39.865  29.419  30.768  1.00  0.00     0.074 A 
ATOM     13  C   UNL A   1      40.201  27.700  29.018  1.00  0.00     0.049 A 
ATOM     14  N   UNL A   1      40.759  29.063  31.643  1.00  0.00    -0.248 NA
ATOM     15  C   UNL A   1      39.051  30.587  31.154  1.00  0.00     0.031 C 
ATOM     16  C   UNL A   1      39.820  26.869  27.882  1.00  0.00     0.029 A 
ATOM     17  N   UNL A   1      41.388  27.164  29.434  1.00  0.00    -0.354 N 
ATOM     18  C   UNL A   1      40.532  29.885  32.735  1.00  0.00     0.074 A 
ATOM     19  C   UNL A   1      39.465  30.796  32.392  1.00  0.00     0.031 C 
ATOM     20  C   UNL A   1      40.801  25.984  27.628  1.00  0.00     0.029 A 
ATOM     21  C   UNL A   1      41.854  26.158  28.621  1.00  0.00     0.049 A 
ATOM     22  H   UNL A   1      41.864  27.470  30.239  1.00  0.00     0.167 HD
ATOM     23  C   UNL A   1      41.150  29.854  33.934  1.00  0.00     0.031 A 
ATOM     24  C   UNL A   1      43.005  25.461  28.692  1.00  0.00     0.031 A 
ATOM     25  C   UNL A   1      42.310  29.053  34.187  1.00  0.00     0.049 A 
ATOM     26  C   UNL A   1      43.872  25.676  29.904  1.00  0.00     0.074 A 
ATOM     27  C   UNL A   1      43.117  29.032  35.305  1.00  0.00     0.029 A 
ATOM     28  N   UNL A   1      42.861  28.173  33.265  1.00  0.00    -0.354 N 
ATOM     29  N   UNL A   1      43.629  26.421  30.958  1.00  0.00    -0.248 NA
ATOM     30  C   UNL A   1      45.140  24.940  29.963  1.00  0.00     0.031 C 
ATOM     31  C   UNL A   1      44.201  28.189  35.030  1.00  0.00     0.029 A 
ATOM     32  C   UNL A   1      44.033  27.641  33.764  1.00  0.00     0.049 A 
ATOM     33  H   UNL A   1      42.475  27.960  32.385  1.00  0.00     0.167 HD
ATOM     34  C   UNL A   1      44.687  26.204  31.829  1.00  0.00     0.074 A 
ATOM     35  C   UNL A   1      45.580  25.269  31.171  1.00  0.00     0.031 C 
ATOM     36  C   UNL A   1      44.892  26.713  33.070  1.00  0.00     0.031 A 
BRANCH  23  37
ATOM     37  C   UNL A   1      40.603  30.778  34.975  1.00  0.00    -0.014 A 
ATOM     38  C   UNL A   1      39.313  30.575  35.502  1.00  0.00     0.010 A 
ATOM     39  C   UNL A   1      41.331  31.919  35.347  1.00  0.00     0.010 A 
ATOM     40  C   UNL A   1      38.743  31.525  36.352  1.00  0.00     0.020 A 
ATOM     41  C   UNL A   1      40.769  32.864  36.207  1.00  0.00     0.020 A 
ATOM     42  C   UNL A   1      39.471  32.671  36.687  1.00  0.00     0.054 A 
BRANCH  42  43
ATOM     43  S   UNL A   1      38.694  33.912  37.757  1.00  0.00     0.124 S 
ATOM     44  O   UNL A   1      37.278  33.583  37.619  1.00  0.00    -0.237 OA
ATOM     45  O   UNL A   1      39.283  33.624  39.062  1.00  0.00    -0.237 OA
ATOM     46  O   UNL A   1      39.100  35.184  37.160  1.00  0.00    -0.744 OA
ENDBRANCH  42  43
ENDBRANCH  23  37
BRANCH  24  47
ATOM     47  C   UNL A   1      43.408  24.539  27.593  1.00  0.00    -0.014 A 
ATOM     48  C   UNL A   1      43.108  23.168  27.626  1.00  0.00     0.010 A 
ATOM     49  C   UNL A   1      44.148  25.047  26.507  1.00  0.00     0.010 A 
ATOM     50  C   UNL A   1      43.564  22.316  26.610  1.00  0.00     0.020 A 
ATOM     51  C   UNL A   1      44.591  24.205  25.482  1.00  0.00     0.020 A 
ATOM     52  C   UNL A   1      44.308  22.840  25.547  1.00  0.00     0.054 A 
BRANCH  52  53
ATOM     53  S   UNL A   1      44.891  21.720  24.242  1.00  0.00     0.124 S 
ATOM     54  O   UNL A   1      44.279  22.298  23.050  1.00  0.00    -0.237 OA
ATOM     55  O   UNL A   1      46.342  21.854  24.340  1.00  0.00    -0.237 OA
ATOM     56  O   UNL A   1      44.363  20.420  24.650  1.00  0.00    -0.744 OA
ENDBRANCH  52  53
ENDBRANCH  24  47
BRANCH  36  57
ATOM     57  C   UNL A   1      46.109  26.242  33.809  1.00  0.00    -0.014 A 
ATOM     58  C   UNL A   1      46.076  25.077  34.591  1.00  0.00     0.010 A 
ATOM     59  C   UNL A   1      47.325  26.926  33.627  1.00  0.00     0.010 A 
ATOM     60  C   UNL A   1      47.245  24.603  35.187  1.00  0.00     0.020 A 
ATOM     61  C   UNL A   1      48.499  26.440  34.200  1.00  0.00     0.020 A 
ATOM     62  C   UNL A   1      48.450  25.284  34.982  1.00  0.00     0.054 A 
BRANCH  62  63
ATOM     63  S   UNL A   1      49.972  24.599  35.689  1.00  0.00     0.124 S 
ATOM     64  O   UNL A   1      50.446  25.707  36.514  1.00  0.00    -0.237 OA
ATOM     65  O   UNL A   1      49.489  23.431  36.421  1.00  0.00    -0.237 OA
ATOM     66  O   UNL A   1      50.790  24.297  34.517  1.00  0.00    -0.744 OA
ENDBRANCH  62  63
ENDBRANCH  36  57
ENDBRANCH  10  11
ENDBRANCH   3   5
ENDBRANCH   2   3
ENDBRANCH   1   2
BRANCH   1  67
ATOM     67  C   UNL A   1      32.051  28.380  25.484  1.00  0.00     0.275 C 
BRANCH  67  68
ATOM     68  O   UNL A   1      32.696  27.202  26.003  1.00  0.00    -0.458 OA
BRANCH  68  69
ATOM     69  C   UNL A   1      33.289  26.374  25.115  1.00  0.00     0.340 C 
ATOM     70  O   UNL A   1      33.998  26.700  24.178  1.00  0.00    -0.246 OA
BRANCH  69  71
ATOM     71  C   UNL A   1      32.871  24.998  25.390  1.00  0.00     0.091 A 
ATOM     72  C   UNL A   1      31.861  24.876  26.359  1.00  0.00     0.020 A 
ATOM     73  C   UNL A   1      33.484  23.845  24.916  1.00  0.00     0.143 A 
ATOM     74  C   UNL A   1      31.609  23.646  26.952  1.00  0.00     0.021 A 
ATOM     75  N   UNL A   1      33.220  22.624  25.490  1.00  0.00    -0.250 NA
ATOM     76  C   UNL A   1      32.335  22.562  26.511  1.00  0.00     0.112 A 
BRANCH  73  77
ATOM     77  C   UNL A   1      34.512  23.710  23.813  1.00  0.00     0.276 C 
ATOM     78  O   UNL A   1      34.116  23.691  22.645  1.00  0.00    -0.267 OA
ATOM     79  N   UNL A   1      35.828  24.063  24.031  1.00  0.00    -0.305 N 
ATOM     80  H   UNL A   1      36.091  24.919  23.623  1.00  0.00     0.171 HD
BRANCH  79  81
ATOM     81  C   UNL A   1      36.850  23.421  24.725  1.00  0.00     0.132 A 
ATOM     82  C   UNL A   1      37.525  24.024  25.762  1.00  0.00     0.049 A 
ATOM     83  N   UNL A   1      37.065  22.128  24.424  1.00  0.00    -0.238 NA
ATOM     84  C   UNL A   1      38.569  23.384  26.421  1.00  0.00     0.026 A 
ATOM     85  C   UNL A   1      38.047  21.485  25.115  1.00  0.00     0.134 A 
ATOM     86  C   UNL A   1      38.840  22.075  26.087  1.00  0.00     0.059 A 
ATOM     87  Cl  UNL A   1      40.078  21.210  26.895  1.00  0.00    -0.083 Cl
ENDBRANCH  79  81
ENDBRANCH  73  77
ENDBRANCH  69  71
ENDBRANCH  68  69
ENDBRANCH  67  68
ENDBRANCH   1  67
TORSDOF 16
ENDMDL
