MODEL 1
REMARK VINA RESULT:     -10.6      0.000      0.000
REMARK SMILES CO[C@H](C)c1noc(C[C@](C)(C(=O)OCCOC(=O)c2ccc(-c3c4nc(c(-c5ccc(S(=O)(=O)[O-])cc5)c5ccc([nH]5)c(-c5ccc(S(=O)(=O)[O-])cc5)c5nc(c(-c6ccc(S(=O)(=O)[O-])cc6)c6ccc3[nH]6)C=C5)C=C4)cc2)c2ccccc2)n1
REMARK SMILES IDX 15 1 14 2 12 3 13 4 10 5 11 6 9 7 8 8 5 9 6 10 86 11 7 12
REMARK SMILES IDX 3 13 4 14 2 15 1 16 80 17 81 18 85 19 82 20 84 21 83 22
REMARK SMILES IDX 16 23 17 24 18 25 19 26 20 27 21 28 79 29 22 30 78 31 23 32
REMARK SMILES IDX 24 33 25 34 72 35 26 36 77 37 71 38 73 39 27 40 76 41 70 42
REMARK SMILES IDX 69 43 28 45 58 46 39 47 57 48 40 49 43 50 56 51 74 52 41 53
REMARK SMILES IDX 42 54 55 56 75 57 44 58 29 59 30 60 38 61 31 62 37 63 32 64
REMARK SMILES IDX 33 65 34 66 35 67 36 68 59 69 60 70 68 71 61 72 67 73 62 74
REMARK SMILES IDX 63 75 64 76 65 77 66 78 45 79 46 80 54 81 47 82 53 83 48 84
REMARK SMILES IDX 49 85 50 86 51 87 52 88
REMARK H PARENT 73 44 43 55
REMARK Flexibility Score: inf
ROOT
ATOM      1  C   UNL A   1      37.787  22.670  25.664  1.00  0.00     0.274 C 
ENDROOT
BRANCH   1   2
ATOM      2  O   UNL A   1      36.712  23.586  25.346  1.00  0.00    -0.461 OA
BRANCH   2   3
ATOM      3  C   UNL A   1      36.154  23.450  24.105  1.00  0.00     0.316 C 
ATOM      4  O   UNL A   1      36.826  23.339  23.090  1.00  0.00    -0.251 OA
BRANCH   3   5
ATOM      5  C   UNL A   1      34.620  23.646  24.117  1.00  0.00     0.099 C 
ATOM      6  C   UNL A   1      34.025  23.211  22.757  1.00  0.00     0.029 C 
BRANCH   5   7
ATOM      7  C   UNL A   1      34.127  22.663  25.229  1.00  0.00     0.123 C 
BRANCH   7   8
ATOM      8  C   UNL A   1      34.075  21.223  24.824  1.00  0.00     0.228 A 
ATOM      9  C   UNL A   1      33.563  19.248  24.342  1.00  0.00     0.200 A 
ATOM     10  N   UNL A   1      34.846  19.157  24.725  1.00  0.00    -0.060 NA
ATOM     11  N   UNL A   1      33.071  20.539  24.316  1.00  0.00    -0.193 NA
ATOM     12  O   UNL A   1      35.189  20.468  25.025  1.00  0.00    -0.339 OA
BRANCH   9  13
ATOM     13  C   UNL A   1      32.739  18.043  23.964  1.00  0.00     0.186 C 
ATOM     14  C   UNL A   1      33.592  17.006  23.218  1.00  0.00     0.047 C 
BRANCH  13  15
ATOM     15  O   UNL A   1      32.072  17.517  25.127  1.00  0.00    -0.374 OA
ATOM     16  C   UNL A   1      32.805  16.571  25.887  1.00  0.00     0.195 C 
ENDBRANCH  13  15
ENDBRANCH   9  13
ENDBRANCH   7   8
ENDBRANCH   5   7
BRANCH   5  17
ATOM     17  C   UNL A   1      34.185  25.119  24.317  1.00  0.00    -0.030 A 
ATOM     18  C   UNL A   1      33.724  25.892  23.238  1.00  0.00     0.005 A 
ATOM     19  C   UNL A   1      34.189  25.739  25.581  1.00  0.00     0.005 A 
ATOM     20  C   UNL A   1      33.415  27.249  23.392  1.00  0.00     0.000 A 
ATOM     21  C   UNL A   1      33.902  27.099  25.734  1.00  0.00     0.000 A 
ATOM     22  C   UNL A   1      33.537  27.861  24.634  1.00  0.00     0.000 A 
ENDBRANCH   5  17
ENDBRANCH   3   5
ENDBRANCH   2   3
ENDBRANCH   1   2
BRANCH   1  23
ATOM     23  C   UNL A   1      38.851  23.309  26.555  1.00  0.00     0.275 C 
BRANCH  23  24
ATOM     24  O   UNL A   1      38.715  24.737  26.512  1.00  0.00    -0.458 OA
BRANCH  24  25
ATOM     25  C   UNL A   1      39.841  25.458  26.720  1.00  0.00     0.338 C 
ATOM     26  O   UNL A   1      40.876  25.393  26.081  1.00  0.00    -0.246 OA
BRANCH  25  27
ATOM     27  C   UNL A   1      39.629  26.402  27.840  1.00  0.00     0.060 A 
ATOM     28  C   UNL A   1      40.069  27.717  27.729  1.00  0.00     0.016 A 
ATOM     29  C   UNL A   1      39.115  25.959  29.059  1.00  0.00     0.016 A 
ATOM     30  C   UNL A   1      40.118  28.547  28.841  1.00  0.00     0.010 A 
ATOM     31  C   UNL A   1      39.065  26.834  30.157  1.00  0.00     0.010 A 
ATOM     32  C   UNL A   1      39.618  28.126  30.075  1.00  0.00    -0.014 A 
BRANCH  32  33
ATOM     33  C   UNL A   1      39.784  29.005  31.271  1.00  0.00     0.031 A 
ATOM     34  C   UNL A   1      41.050  28.929  32.090  1.00  0.00     0.074 A 
ATOM     35  C   UNL A   1      38.879  29.965  31.560  1.00  0.00     0.049 A 
ATOM     36  N   UNL A   1      41.327  29.498  33.236  1.00  0.00    -0.248 NA
ATOM     37  C   UNL A   1      42.150  28.111  31.551  1.00  0.00     0.031 C 
ATOM     38  C   UNL A   1      37.667  30.255  30.789  1.00  0.00     0.029 A 
ATOM     39  N   UNL A   1      38.864  30.915  32.554  1.00  0.00    -0.354 N 
ATOM     40  C   UNL A   1      42.600  29.060  33.581  1.00  0.00     0.074 A 
ATOM     41  C   UNL A   1      43.050  28.185  32.522  1.00  0.00     0.031 C 
ATOM     42  C   UNL A   1      37.089  31.365  31.273  1.00  0.00     0.029 A 
ATOM     43  C   UNL A   1      37.803  31.787  32.472  1.00  0.00     0.049 A 
ATOM     44  H   UNL A   1      39.550  30.967  33.258  1.00  0.00     0.167 HD
ATOM     45  C   UNL A   1      43.325  29.352  34.689  1.00  0.00     0.031 A 
ATOM     46  C   UNL A   1      37.413  32.784  33.290  1.00  0.00     0.031 A 
ATOM     47  C   UNL A   1      42.893  30.251  35.724  1.00  0.00     0.049 A 
ATOM     48  C   UNL A   1      38.180  33.019  34.561  1.00  0.00     0.074 A 
ATOM     49  C   UNL A   1      43.512  30.546  36.926  1.00  0.00     0.029 A 
ATOM     50  N   UNL A   1      41.748  31.029  35.663  1.00  0.00    -0.354 N 
ATOM     51  N   UNL A   1      39.302  32.469  34.961  1.00  0.00    -0.248 NA
ATOM     52  C   UNL A   1      37.601  33.974  35.516  1.00  0.00     0.031 C 
ATOM     53  C   UNL A   1      42.722  31.478  37.608  1.00  0.00     0.029 A 
ATOM     54  C   UNL A   1      41.637  31.798  36.808  1.00  0.00     0.049 A 
ATOM     55  H   UNL A   1      41.107  31.033  34.915  1.00  0.00     0.167 HD
ATOM     56  C   UNL A   1      39.558  33.008  36.215  1.00  0.00     0.074 A 
ATOM     57  C   UNL A   1      38.496  33.952  36.494  1.00  0.00     0.031 C 
ATOM     58  C   UNL A   1      40.573  32.732  37.070  1.00  0.00     0.031 A 
BRANCH  45  59
ATOM     59  C   UNL A   1      44.633  28.631  34.870  1.00  0.00    -0.014 A 
ATOM     60  C   UNL A   1      45.855  29.214  34.494  1.00  0.00     0.010 A 
ATOM     61  C   UNL A   1      44.635  27.355  35.464  1.00  0.00     0.010 A 
ATOM     62  C   UNL A   1      47.055  28.519  34.682  1.00  0.00     0.020 A 
ATOM     63  C   UNL A   1      45.831  26.667  35.672  1.00  0.00     0.020 A 
ATOM     64  C   UNL A   1      47.034  27.248  35.265  1.00  0.00     0.054 A 
BRANCH  64  65
ATOM     65  S   UNL A   1      48.604  26.373  35.518  1.00  0.00     0.124 S 
ATOM     66  O   UNL A   1      48.746  25.641  34.262  1.00  0.00    -0.237 OA
ATOM     67  O   UNL A   1      49.553  27.466  35.719  1.00  0.00    -0.237 OA
ATOM     68  O   UNL A   1      48.354  25.545  36.696  1.00  0.00    -0.744 OA
ENDBRANCH  64  65
ENDBRANCH  45  59
BRANCH  46  69
ATOM     69  C   UNL A   1      36.179  33.568  32.995  1.00  0.00    -0.014 A 
ATOM     70  C   UNL A   1      36.258  34.866  32.461  1.00  0.00     0.010 A 
ATOM     71  C   UNL A   1      34.911  33.022  33.273  1.00  0.00     0.010 A 
ATOM     72  C   UNL A   1      35.095  35.609  32.230  1.00  0.00     0.020 A 
ATOM     73  C   UNL A   1      33.747  33.746  33.010  1.00  0.00     0.020 A 
ATOM     74  C   UNL A   1      33.847  35.044  32.507  1.00  0.00     0.054 A 
BRANCH  74  75
ATOM     75  S   UNL A   1      32.343  36.003  32.173  1.00  0.00     0.124 S 
ATOM     76  O   UNL A   1      32.530  37.166  33.034  1.00  0.00    -0.237 OA
ATOM     77  O   UNL A   1      32.437  36.258  30.737  1.00  0.00    -0.237 OA
ATOM     78  O   UNL A   1      31.268  35.097  32.567  1.00  0.00    -0.744 OA
ENDBRANCH  74  75
ENDBRANCH  46  69
BRANCH  58  79
ATOM     79  C   UNL A   1      40.592  33.475  38.376  1.00  0.00    -0.014 A 
ATOM     80  C   UNL A   1      39.957  32.950  39.515  1.00  0.00     0.010 A 
ATOM     81  C   UNL A   1      41.284  34.695  38.474  1.00  0.00     0.010 A 
ATOM     82  C   UNL A   1      39.989  33.649  40.724  1.00  0.00     0.020 A 
ATOM     83  C   UNL A   1      41.336  35.385  39.687  1.00  0.00     0.020 A 
ATOM     84  C   UNL A   1      40.675  34.865  40.801  1.00  0.00     0.054 A 
BRANCH  84  85
ATOM     85  S   UNL A   1      40.735  35.736  42.390  1.00  0.00     0.124 S 
ATOM     86  O   UNL A   1      41.664  34.910  43.155  1.00  0.00    -0.237 OA
ATOM     87  O   UNL A   1      41.231  37.059  42.016  1.00  0.00    -0.237 OA
ATOM     88  O   UNL A   1      39.348  35.707  42.852  1.00  0.00    -0.744 OA
ENDBRANCH  84  85
ENDBRANCH  58  79
ENDBRANCH  32  33
ENDBRANCH  25  27
ENDBRANCH  24  25
ENDBRANCH  23  24
ENDBRANCH   1  23
TORSDOF 19
ENDMDL
MODEL 2
REMARK VINA RESULT:     -10.5      7.091     12.517
REMARK SMILES CO[C@H](C)c1noc(C[C@](C)(C(=O)OCCOC(=O)c2ccc(-c3c4nc(c(-c5ccc(S(=O)(=O)[O-])cc5)c5ccc([nH]5)c(-c5ccc(S(=O)(=O)[O-])cc5)c5nc(c(-c6ccc(S(=O)(=O)[O-])cc6)c6ccc3[nH]6)C=C5)C=C4)cc2)c2ccccc2)n1
REMARK SMILES IDX 15 1 14 2 12 3 13 4 10 5 11 6 9 7 8 8 5 9 6 10 86 11 7 12
REMARK SMILES IDX 3 13 4 14 2 15 1 16 80 17 81 18 85 19 82 20 84 21 83 22
REMARK SMILES IDX 16 23 17 24 18 25 19 26 20 27 21 28 79 29 22 30 78 31 23 32
REMARK SMILES IDX 24 33 25 34 72 35 26 36 77 37 71 38 73 39 27 40 76 41 70 42
REMARK SMILES IDX 69 43 28 45 58 46 39 47 57 48 40 49 43 50 56 51 74 52 41 53
REMARK SMILES IDX 42 54 55 56 75 57 44 58 29 59 30 60 38 61 31 62 37 63 32 64
REMARK SMILES IDX 33 65 34 66 35 67 36 68 59 69 60 70 68 71 61 72 67 73 62 74
REMARK SMILES IDX 63 75 64 76 65 77 66 78 45 79 46 80 54 81 47 82 53 83 48 84
REMARK SMILES IDX 49 85 50 86 51 87 52 88
REMARK H PARENT 73 44 43 55
REMARK Flexibility Score: inf
ROOT
ATOM      1  C   UNL A   1      33.227  30.083  27.352  1.00  0.00     0.274 C 
ENDROOT
BRANCH   1   2
ATOM      2  O   UNL A   1      33.309  28.647  27.193  1.00  0.00    -0.461 OA
BRANCH   2   3
ATOM      3  C   UNL A   1      32.117  27.985  27.082  1.00  0.00     0.316 C 
ATOM      4  O   UNL A   1      31.277  27.990  27.970  1.00  0.00    -0.251 OA
BRANCH   3   5
ATOM      5  C   UNL A   1      32.044  27.096  25.819  1.00  0.00     0.099 C 
ATOM      6  C   UNL A   1      30.575  26.698  25.541  1.00  0.00     0.029 C 
BRANCH   5   7
ATOM      7  C   UNL A   1      32.545  28.035  24.673  1.00  0.00     0.123 C 
BRANCH   7   8
ATOM      8  C   UNL A   1      31.506  28.408  23.661  1.00  0.00     0.228 A 
ATOM      9  C   UNL A   1      29.862  29.146  22.591  1.00  0.00     0.200 A 
ATOM     10  N   UNL A   1      30.201  28.034  21.921  1.00  0.00    -0.060 NA
ATOM     11  N   UNL A   1      30.707  29.454  23.639  1.00  0.00    -0.193 NA
ATOM     12  O   UNL A   1      31.301  27.557  22.620  1.00  0.00    -0.339 OA
BRANCH   9  13
ATOM     13  C   UNL A   1      28.668  29.989  22.218  1.00  0.00     0.186 C 
ATOM     14  C   UNL A   1      27.654  30.047  23.370  1.00  0.00     0.047 C 
BRANCH  13  15
ATOM     15  O   UNL A   1      29.101  31.284  21.761  1.00  0.00    -0.374 OA
ATOM     16  C   UNL A   1      28.709  32.387  22.562  1.00  0.00     0.195 C 
ENDBRANCH  13  15
ENDBRANCH   9  13
ENDBRANCH   7   8
ENDBRANCH   5   7
BRANCH   5  17
ATOM     17  C   UNL A   1      32.824  25.766  25.952  1.00  0.00    -0.030 A 
ATOM     18  C   UNL A   1      34.200  25.701  25.671  1.00  0.00     0.005 A 
ATOM     19  C   UNL A   1      32.215  24.577  26.396  1.00  0.00     0.005 A 
ATOM     20  C   UNL A   1      34.895  24.485  25.701  1.00  0.00     0.000 A 
ATOM     21  C   UNL A   1      32.901  23.358  26.406  1.00  0.00     0.000 A 
ATOM     22  C   UNL A   1      34.236  23.308  26.036  1.00  0.00     0.000 A 
ENDBRANCH   5  17
ENDBRANCH   3   5
ENDBRANCH   2   3
ENDBRANCH   1   2
BRANCH   1  23
ATOM     23  C   UNL A   1      34.556  30.696  27.793  1.00  0.00     0.275 C 
BRANCH  23  24
ATOM     24  O   UNL A   1      35.483  29.647  28.110  1.00  0.00    -0.458 OA
BRANCH  24  25
ATOM     25  C   UNL A   1      36.108  29.735  29.307  1.00  0.00     0.338 C 
ATOM     26  O   UNL A   1      35.577  29.811  30.401  1.00  0.00    -0.246 OA
BRANCH  25  27
ATOM     27  C   UNL A   1      37.574  29.681  29.110  1.00  0.00     0.060 A 
ATOM     28  C   UNL A   1      38.100  29.718  27.823  1.00  0.00     0.016 A 
ATOM     29  C   UNL A   1      38.431  29.456  30.187  1.00  0.00     0.016 A 
ATOM     30  C   UNL A   1      39.435  29.414  27.591  1.00  0.00     0.010 A 
ATOM     31  C   UNL A   1      39.803  29.254  29.960  1.00  0.00     0.010 A 
ATOM     32  C   UNL A   1      40.313  29.176  28.651  1.00  0.00    -0.014 A 
BRANCH  32  33
ATOM     33  C   UNL A   1      41.713  28.748  28.358  1.00  0.00     0.031 A 
ATOM     34  C   UNL A   1      42.858  29.702  28.601  1.00  0.00     0.074 A 
ATOM     35  C   UNL A   1      41.991  27.475  28.004  1.00  0.00     0.049 A 
ATOM     36  N   UNL A   1      44.120  29.574  28.279  1.00  0.00    -0.248 NA
ATOM     37  C   UNL A   1      42.546  30.960  29.300  1.00  0.00     0.031 C 
ATOM     38  C   UNL A   1      41.010  26.396  27.855  1.00  0.00     0.029 A 
ATOM     39  N   UNL A   1      43.193  26.853  27.757  1.00  0.00    -0.354 N 
ATOM     40  C   UNL A   1      44.736  30.755  28.679  1.00  0.00     0.074 A 
ATOM     41  C   UNL A   1      43.715  31.585  29.277  1.00  0.00     0.031 C 
ATOM     42  C   UNL A   1      41.653  25.238  27.647  1.00  0.00     0.029 A 
ATOM     43  C   UNL A   1      43.079  25.505  27.506  1.00  0.00     0.049 A 
ATOM     44  H   UNL A   1      44.055  27.329  27.760  1.00  0.00     0.167 HD
ATOM     45  C   UNL A   1      46.035  31.119  28.549  1.00  0.00     0.031 A 
ATOM     46  C   UNL A   1      44.004  24.591  27.153  1.00  0.00     0.031 A 
ATOM     47  C   UNL A   1      47.058  30.278  27.989  1.00  0.00     0.049 A 
ATOM     48  C   UNL A   1      45.418  25.045  26.921  1.00  0.00     0.074 A 
ATOM     49  C   UNL A   1      48.383  30.584  27.732  1.00  0.00     0.029 A 
ATOM     50  N   UNL A   1      46.878  28.952  27.631  1.00  0.00    -0.354 N 
ATOM     51  N   UNL A   1      45.954  26.222  27.142  1.00  0.00    -0.248 NA
ATOM     52  C   UNL A   1      46.341  24.059  26.342  1.00  0.00     0.031 C 
ATOM     53  C   UNL A   1      48.996  29.451  27.185  1.00  0.00     0.029 A 
ATOM     54  C   UNL A   1      48.063  28.427  27.148  1.00  0.00     0.049 A 
ATOM     55  H   UNL A   1      46.030  28.456  27.708  1.00  0.00     0.167 HD
ATOM     56  C   UNL A   1      47.275  26.117  26.724  1.00  0.00     0.074 A 
ATOM     57  C   UNL A   1      47.468  24.756  26.270  1.00  0.00     0.031 C 
ATOM     58  C   UNL A   1      48.238  27.070  26.700  1.00  0.00     0.031 A 
BRANCH  45  59
ATOM     59  C   UNL A   1      46.407  32.519  28.957  1.00  0.00    -0.014 A 
ATOM     60  C   UNL A   1      46.296  33.600  28.067  1.00  0.00     0.010 A 
ATOM     61  C   UNL A   1      46.844  32.754  30.274  1.00  0.00     0.010 A 
ATOM     62  C   UNL A   1      46.645  34.891  28.480  1.00  0.00     0.020 A 
ATOM     63  C   UNL A   1      47.173  34.043  30.696  1.00  0.00     0.020 A 
ATOM     64  C   UNL A   1      47.086  35.103  29.791  1.00  0.00     0.054 A 
BRANCH  64  65
ATOM     65  S   UNL A   1      47.514  36.788  30.311  1.00  0.00     0.124 S 
ATOM     66  O   UNL A   1      46.309  37.530  29.949  1.00  0.00    -0.237 OA
ATOM     67  O   UNL A   1      47.748  36.633  31.745  1.00  0.00    -0.237 OA
ATOM     68  O   UNL A   1      48.701  37.104  29.520  1.00  0.00    -0.744 OA
ENDBRANCH  64  65
ENDBRANCH  45  59
BRANCH  46  69
ATOM     69  C   UNL A   1      43.610  23.177  26.893  1.00  0.00    -0.014 A 
ATOM     70  C   UNL A   1      42.944  22.419  27.873  1.00  0.00     0.010 A 
ATOM     71  C   UNL A   1      43.925  22.570  25.662  1.00  0.00     0.010 A 
ATOM     72  C   UNL A   1      42.619  21.079  27.633  1.00  0.00     0.020 A 
ATOM     73  C   UNL A   1      43.571  21.244  25.405  1.00  0.00     0.020 A 
ATOM     74  C   UNL A   1      42.936  20.500  26.401  1.00  0.00     0.054 A 
BRANCH  74  75
ATOM     75  S   UNL A   1      42.481  18.772  26.089  1.00  0.00     0.124 S 
ATOM     76  O   UNL A   1      41.082  18.895  25.695  1.00  0.00    -0.237 OA
ATOM     77  O   UNL A   1      43.406  18.383  25.027  1.00  0.00    -0.237 OA
ATOM     78  O   UNL A   1      42.715  18.122  27.376  1.00  0.00    -0.744 OA
ENDBRANCH  74  75
ENDBRANCH  46  69
BRANCH  58  79
ATOM     79  C   UNL A   1      49.591  26.665  26.185  1.00  0.00    -0.014 A 
ATOM     80  C   UNL A   1      50.491  25.958  27.000  1.00  0.00     0.010 A 
ATOM     81  C   UNL A   1      49.950  26.965  24.859  1.00  0.00     0.010 A 
ATOM     82  C   UNL A   1      51.743  25.582  26.506  1.00  0.00     0.020 A 
ATOM     83  C   UNL A   1      51.191  26.571  24.355  1.00  0.00     0.020 A 
ATOM     84  C   UNL A   1      52.087  25.895  25.187  1.00  0.00     0.054 A 
BRANCH  84  85
ATOM     85  S   UNL A   1      53.702  25.365  24.555  1.00  0.00     0.124 S 
ATOM     86  O   UNL A   1      53.627  25.769  23.154  1.00  0.00    -0.237 OA
ATOM     87  O   UNL A   1      54.638  26.126  25.380  1.00  0.00    -0.237 OA
ATOM     88  O   UNL A   1      53.707  23.922  24.789  1.00  0.00    -0.744 OA
ENDBRANCH  84  85
ENDBRANCH  58  79
ENDBRANCH  32  33
ENDBRANCH  25  27
ENDBRANCH  24  25
ENDBRANCH  23  24
ENDBRANCH   1  23
TORSDOF 19
ENDMDL
MODEL 3
REMARK VINA RESULT:     -10.4      5.564     10.767
REMARK SMILES CO[C@H](C)c1noc(C[C@](C)(C(=O)OCCOC(=O)c2ccc(-c3c4nc(c(-c5ccc(S(=O)(=O)[O-])cc5)c5ccc([nH]5)c(-c5ccc(S(=O)(=O)[O-])cc5)c5nc(c(-c6ccc(S(=O)(=O)[O-])cc6)c6ccc3[nH]6)C=C5)C=C4)cc2)c2ccccc2)n1
REMARK SMILES IDX 15 1 14 2 12 3 13 4 10 5 11 6 9 7 8 8 5 9 6 10 86 11 7 12
REMARK SMILES IDX 3 13 4 14 2 15 1 16 80 17 81 18 85 19 82 20 84 21 83 22
REMARK SMILES IDX 16 23 17 24 18 25 19 26 20 27 21 28 79 29 22 30 78 31 23 32
REMARK SMILES IDX 24 33 25 34 72 35 26 36 77 37 71 38 73 39 27 40 76 41 70 42
REMARK SMILES IDX 69 43 28 45 58 46 39 47 57 48 40 49 43 50 56 51 74 52 41 53
REMARK SMILES IDX 42 54 55 56 75 57 44 58 29 59 30 60 38 61 31 62 37 63 32 64
REMARK SMILES IDX 33 65 34 66 35 67 36 68 59 69 60 70 68 71 61 72 67 73 62 74
REMARK SMILES IDX 63 75 64 76 65 77 66 78 45 79 46 80 54 81 47 82 53 83 48 84
REMARK SMILES IDX 49 85 50 86 51 87 52 88
REMARK H PARENT 73 44 43 55
REMARK Flexibility Score: inf
ROOT
ATOM      1  C   UNL A   1      36.526  22.183  24.159  1.00  0.00     0.274 C 
ENDROOT
BRANCH   1   2
ATOM      2  O   UNL A   1      35.252  22.368  24.819  1.00  0.00    -0.461 OA
BRANCH   2   3
ATOM      3  C   UNL A   1      34.148  21.962  24.122  1.00  0.00     0.316 C 
ATOM      4  O   UNL A   1      33.796  22.493  23.079  1.00  0.00    -0.251 OA
BRANCH   3   5
ATOM      5  C   UNL A   1      33.312  20.912  24.890  1.00  0.00     0.099 C 
ATOM      6  C   UNL A   1      33.746  20.878  26.374  1.00  0.00     0.029 C 
BRANCH   5   7
ATOM      7  C   UNL A   1      31.850  21.460  24.798  1.00  0.00     0.123 C 
BRANCH   7   8
ATOM      8  C   UNL A   1      31.606  22.741  25.534  1.00  0.00     0.228 A 
ATOM      9  C   UNL A   1      31.477  24.720  26.213  1.00  0.00     0.200 A 
ATOM     10  N   UNL A   1      31.455  23.996  27.342  1.00  0.00    -0.060 NA
ATOM     11  N   UNL A   1      31.492  23.963  25.057  1.00  0.00    -0.193 NA
ATOM     12  O   UNL A   1      31.521  22.686  26.890  1.00  0.00    -0.339 OA
BRANCH   9  13
ATOM     13  C   UNL A   1      31.475  26.228  26.212  1.00  0.00     0.186 C 
ATOM     14  C   UNL A   1      32.844  26.780  25.786  1.00  0.00     0.047 C 
BRANCH  13  15
ATOM     15  O   UNL A   1      30.379  26.719  25.417  1.00  0.00    -0.374 OA
ATOM     16  C   UNL A   1      30.728  27.578  24.344  1.00  0.00     0.195 C 
ENDBRANCH  13  15
ENDBRANCH   9  13
ENDBRANCH   7   8
ENDBRANCH   5   7
BRANCH   5  17
ATOM     17  C   UNL A   1      33.495  19.468  24.362  1.00  0.00    -0.030 A 
ATOM     18  C   UNL A   1      34.640  18.719  24.681  1.00  0.00     0.005 A 
ATOM     19  C   UNL A   1      32.517  18.822  23.581  1.00  0.00     0.005 A 
ATOM     20  C   UNL A   1      34.857  17.448  24.135  1.00  0.00     0.000 A 
ATOM     21  C   UNL A   1      32.740  17.562  23.017  1.00  0.00     0.000 A 
ATOM     22  C   UNL A   1      33.921  16.884  23.275  1.00  0.00     0.000 A 
ENDBRANCH   5  17
ENDBRANCH   3   5
ENDBRANCH   2   3
ENDBRANCH   1   2
BRANCH   1  23
ATOM     23  C   UNL A   1      37.491  21.333  24.984  1.00  0.00     0.275 C 
BRANCH  23  24
ATOM     24  O   UNL A   1      37.964  22.098  26.102  1.00  0.00    -0.458 OA
BRANCH  24  25
ATOM     25  C   UNL A   1      39.273  21.960  26.419  1.00  0.00     0.338 C 
ATOM     26  O   UNL A   1      39.968  20.978  26.228  1.00  0.00    -0.246 OA
BRANCH  25  27
ATOM     27  C   UNL A   1      39.778  23.218  27.012  1.00  0.00     0.060 A 
ATOM     28  C   UNL A   1      39.384  24.441  26.479  1.00  0.00     0.016 A 
ATOM     29  C   UNL A   1      40.751  23.195  28.012  1.00  0.00     0.016 A 
ATOM     30  C   UNL A   1      40.031  25.615  26.840  1.00  0.00     0.010 A 
ATOM     31  C   UNL A   1      41.329  24.398  28.453  1.00  0.00     0.010 A 
ATOM     32  C   UNL A   1      41.014  25.620  27.832  1.00  0.00    -0.014 A 
BRANCH  32  33
ATOM     33  C   UNL A   1      41.760  26.882  28.116  1.00  0.00     0.031 A 
ATOM     34  C   UNL A   1      41.080  28.008  28.856  1.00  0.00     0.074 A 
ATOM     35  C   UNL A   1      43.078  26.987  27.839  1.00  0.00     0.049 A 
ATOM     36  N   UNL A   1      41.503  29.227  29.073  1.00  0.00    -0.248 NA
ATOM     37  C   UNL A   1      39.754  27.727  29.432  1.00  0.00     0.031 C 
ATOM     38  C   UNL A   1      43.912  25.939  27.245  1.00  0.00     0.029 A 
ATOM     39  N   UNL A   1      43.965  28.012  28.074  1.00  0.00    -0.354 N 
ATOM     40  C   UNL A   1      40.476  29.873  29.752  1.00  0.00     0.074 A 
ATOM     41  C   UNL A   1      39.410  28.911  29.922  1.00  0.00     0.031 C 
ATOM     42  C   UNL A   1      45.195  26.333  27.257  1.00  0.00     0.029 A 
ATOM     43  C   UNL A   1      45.263  27.712  27.728  1.00  0.00     0.049 A 
ATOM     44  H   UNL A   1      43.697  28.879  28.454  1.00  0.00     0.167 HD
ATOM     45  C   UNL A   1      40.421  31.156  30.184  1.00  0.00     0.031 A 
ATOM     46  C   UNL A   1      46.378  28.469  27.736  1.00  0.00     0.031 A 
ATOM     47  C   UNL A   1      41.495  32.101  30.048  1.00  0.00     0.049 A 
ATOM     48  C   UNL A   1      46.266  29.916  28.127  1.00  0.00     0.074 A 
ATOM     49  C   UNL A   1      41.508  33.447  30.372  1.00  0.00     0.029 A 
ATOM     50  N   UNL A   1      42.761  31.791  29.578  1.00  0.00    -0.354 N 
ATOM     51  N   UNL A   1      45.232  30.563  28.610  1.00  0.00    -0.248 NA
ATOM     52  C   UNL A   1      47.460  30.748  27.926  1.00  0.00     0.031 C 
ATOM     53  C   UNL A   1      42.775  33.958  30.065  1.00  0.00     0.029 A 
ATOM     54  C   UNL A   1      43.562  32.920  29.595  1.00  0.00     0.049 A 
ATOM     55  H   UNL A   1      43.049  30.899  29.275  1.00  0.00     0.167 HD
ATOM     56  C   UNL A   1      45.651  31.878  28.764  1.00  0.00     0.074 A 
ATOM     57  C   UNL A   1      47.040  31.930  28.358  1.00  0.00     0.031 C 
ATOM     58  C   UNL A   1      44.942  32.953  29.187  1.00  0.00     0.031 A 
BRANCH  45  59
ATOM     59  C   UNL A   1      39.125  31.631  30.782  1.00  0.00    -0.014 A 
ATOM     60  C   UNL A   1      38.880  31.561  32.163  1.00  0.00     0.010 A 
ATOM     61  C   UNL A   1      38.147  32.191  29.938  1.00  0.00     0.010 A 
ATOM     62  C   UNL A   1      37.665  32.017  32.688  1.00  0.00     0.020 A 
ATOM     63  C   UNL A   1      36.942  32.666  30.460  1.00  0.00     0.020 A 
ATOM     64  C   UNL A   1      36.703  32.562  31.831  1.00  0.00     0.054 A 
BRANCH  64  65
ATOM     65  S   UNL A   1      35.143  33.166  32.535  1.00  0.00     0.124 S 
ATOM     66  O   UNL A   1      35.227  34.600  32.269  1.00  0.00    -0.237 OA
ATOM     67  O   UNL A   1      34.138  32.441  31.761  1.00  0.00    -0.237 OA
ATOM     68  O   UNL A   1      35.230  32.788  33.944  1.00  0.00    -0.744 OA
ENDBRANCH  64  65
ENDBRANCH  45  59
BRANCH  46  69
ATOM     69  C   UNL A   1      47.676  27.910  27.263  1.00  0.00    -0.014 A 
ATOM     70  C   UNL A   1      47.992  27.874  25.893  1.00  0.00     0.010 A 
ATOM     71  C   UNL A   1      48.599  27.386  28.188  1.00  0.00     0.010 A 
ATOM     72  C   UNL A   1      49.195  27.306  25.458  1.00  0.00     0.020 A 
ATOM     73  C   UNL A   1      49.817  26.852  27.761  1.00  0.00     0.020 A 
ATOM     74  C   UNL A   1      50.099  26.798  26.395  1.00  0.00     0.054 A 
BRANCH  74  75
ATOM     75  S   UNL A   1      51.670  26.094  25.822  1.00  0.00     0.124 S 
ATOM     76  O   UNL A   1      51.604  24.737  26.353  1.00  0.00    -0.237 OA
ATOM     77  O   UNL A   1      51.564  26.212  24.370  1.00  0.00    -0.237 OA
ATOM     78  O   UNL A   1      52.673  26.960  26.437  1.00  0.00    -0.744 OA
ENDBRANCH  74  75
ENDBRANCH  46  69
BRANCH  58  79
ATOM     79  C   UNL A   1      45.665  34.270  29.251  1.00  0.00    -0.014 A 
ATOM     80  C   UNL A   1      46.281  34.699  30.439  1.00  0.00     0.010 A 
ATOM     81  C   UNL A   1      45.760  35.069  28.098  1.00  0.00     0.010 A 
ATOM     82  C   UNL A   1      46.955  35.921  30.482  1.00  0.00     0.020 A 
ATOM     83  C   UNL A   1      46.452  36.281  28.131  1.00  0.00     0.020 A 
ATOM     84  C   UNL A   1      47.033  36.707  29.328  1.00  0.00     0.054 A 
BRANCH  84  85
ATOM     85  S   UNL A   1      47.945  38.273  29.395  1.00  0.00     0.124 S 
ATOM     86  O   UNL A   1      49.160  37.887  30.106  1.00  0.00    -0.237 OA
ATOM     87  O   UNL A   1      48.121  38.607  27.983  1.00  0.00    -0.237 OA
ATOM     88  O   UNL A   1      47.048  39.163  30.131  1.00  0.00    -0.744 OA
ENDBRANCH  84  85
ENDBRANCH  58  79
ENDBRANCH  32  33
ENDBRANCH  25  27
ENDBRANCH  24  25
ENDBRANCH  23  24
ENDBRANCH   1  23
TORSDOF 19
ENDMDL
