MODEL 1
REMARK VINA RESULT:      -9.8      0.000      0.000
REMARK SMILES Cc1nc(CSCC(=O)N2CCCC[C@@H]2C(=O)OCCOC(=O)c2ccc(-c3c4nc(c(-c5ccc(S(=O)(=O)[O-])cc5)c5ccc([nH]5)c(-c5ccc(S(=O)(=O)[O-])cc5)c5nc(c(-c6ccc(S(=O)(=O)[O-])cc6)c6ccc3[nH]6)C=C5)C=C4)cc2)cs1
REMARK SMILES IDX 19 1 18 2 16 3 17 4 15 5 10 6 11 7 12 8 14 9 13 10 8 11 9 12
REMARK SMILES IDX 7 13 6 14 5 15 4 16 1 17 2 18 3 19 85 20 84 21 20 22 21 23
REMARK SMILES IDX 22 24 23 25 24 26 25 27 83 28 26 29 82 30 27 31 28 32 29 33
REMARK SMILES IDX 76 34 30 35 81 36 75 37 77 38 31 39 80 40 74 41 73 42 32 44
REMARK SMILES IDX 62 45 43 46 61 47 44 48 47 49 60 50 78 51 45 52 46 53 59 55
REMARK SMILES IDX 79 56 48 57 33 58 34 59 42 60 35 61 41 62 36 63 37 64 38 65
REMARK SMILES IDX 39 66 40 67 63 68 64 69 72 70 65 71 71 72 66 73 67 74 68 75
REMARK SMILES IDX 69 76 70 77 49 78 50 79 58 80 51 81 57 82 52 83 53 84 54 85
REMARK SMILES IDX 55 86 56 87
REMARK H PARENT 77 43 47 54
REMARK Flexibility Score: inf
ROOT
ATOM      1  C   UNL A   1      33.313  29.449  25.343  1.00  0.00     0.274 C 
ENDROOT
BRANCH   1   2
ATOM      2  O   UNL A   1      32.977  28.048  25.416  1.00  0.00    -0.461 OA
BRANCH   2   3
ATOM      3  C   UNL A   1      33.128  27.345  24.265  1.00  0.00     0.328 C 
ATOM      4  O   UNL A   1      33.052  27.833  23.139  1.00  0.00    -0.250 OA
BRANCH   3   5
ATOM      5  C   UNL A   1      33.378  25.845  24.477  1.00  0.00     0.195 C 
ATOM      6  N   UNL A   1      32.153  25.035  24.494  1.00  0.00    -0.328 N 
ATOM      7  C   UNL A   1      32.299  23.591  24.577  1.00  0.00     0.120 C 
ATOM      8  C   UNL A   1      33.334  23.174  25.629  1.00  0.00     0.022 C 
ATOM      9  C   UNL A   1      34.375  25.458  25.561  1.00  0.00     0.037 C 
ATOM     10  C   UNL A   1      34.642  23.952  25.482  1.00  0.00     0.005 C 
BRANCH   6  11
ATOM     11  C   UNL A   1      30.932  25.618  24.804  1.00  0.00     0.233 C 
ATOM     12  O   UNL A   1      30.668  25.990  25.942  1.00  0.00    -0.274 OA
BRANCH  11  13
ATOM     13  C   UNL A   1      30.061  25.811  23.559  1.00  0.00     0.170 C 
BRANCH  13  14
ATOM     14  S   UNL A   1      28.974  27.271  23.621  1.00  0.00    -0.146 SA
BRANCH  14  15
ATOM     15  C   UNL A   1      29.874  28.369  22.477  1.00  0.00     0.127 C 
BRANCH  15  16
ATOM     16  C   UNL A   1      29.303  29.749  22.456  1.00  0.00     0.061 A 
ATOM     17  C   UNL A   1      27.893  32.294  20.264  1.00  0.00     0.079 C 
ATOM     18  C   UNL A   1      28.379  31.464  21.395  1.00  0.00     0.090 A 
ATOM     19  N   UNL A   1      28.853  30.251  21.243  1.00  0.00    -0.246 NA
ATOM     20  S   UNL A   1      28.366  32.051  23.008  1.00  0.00    -0.127 S 
ATOM     21  C   UNL A   1      29.084  30.585  23.535  1.00  0.00     0.091 A 
ENDBRANCH  15  16
ENDBRANCH  14  15
ENDBRANCH  13  14
ENDBRANCH  11  13
ENDBRANCH   6  11
ENDBRANCH   3   5
ENDBRANCH   2   3
ENDBRANCH   1   2
BRANCH   1  22
ATOM     22  C   UNL A   1      32.885  30.238  26.587  1.00  0.00     0.275 C 
BRANCH  22  23
ATOM     23  O   UNL A   1      33.574  29.819  27.780  1.00  0.00    -0.458 OA
BRANCH  23  24
ATOM     24  C   UNL A   1      34.483  30.705  28.245  1.00  0.00     0.338 C 
ATOM     25  O   UNL A   1      34.251  31.832  28.674  1.00  0.00    -0.246 OA
BRANCH  24  26
ATOM     26  C   UNL A   1      35.818  30.094  28.350  1.00  0.00     0.060 A 
ATOM     27  C   UNL A   1      36.228  29.673  29.620  1.00  0.00     0.016 A 
ATOM     28  C   UNL A   1      36.698  30.035  27.270  1.00  0.00     0.016 A 
ATOM     29  C   UNL A   1      37.521  29.222  29.835  1.00  0.00     0.010 A 
ATOM     30  C   UNL A   1      38.010  29.601  27.488  1.00  0.00     0.010 A 
ATOM     31  C   UNL A   1      38.431  29.224  28.776  1.00  0.00    -0.014 A 
BRANCH  31  32
ATOM     32  C   UNL A   1      39.862  29.003  29.079  1.00  0.00     0.031 A 
ATOM     33  C   UNL A   1      40.477  27.682  28.717  1.00  0.00     0.074 A 
ATOM     34  C   UNL A   1      40.617  29.996  29.579  1.00  0.00     0.049 A 
ATOM     35  N   UNL A   1      41.693  27.249  28.925  1.00  0.00    -0.248 NA
ATOM     36  C   UNL A   1      39.606  26.724  28.016  1.00  0.00     0.031 C 
ATOM     37  C   UNL A   1      40.151  31.355  29.854  1.00  0.00     0.029 A 
ATOM     38  N   UNL A   1      41.941  30.015  29.928  1.00  0.00    -0.354 N 
ATOM     39  C   UNL A   1      41.727  25.961  28.403  1.00  0.00     0.074 A 
ATOM     40  C   UNL A   1      40.409  25.679  27.879  1.00  0.00     0.031 C 
ATOM     41  C   UNL A   1      41.181  32.080  30.323  1.00  0.00     0.029 A 
ATOM     42  C   UNL A   1      42.359  31.223  30.429  1.00  0.00     0.049 A 
ATOM     43  H   UNL A   1      42.535  29.236  29.829  1.00  0.00     0.167 HD
ATOM     44  C   UNL A   1      42.764  25.090  28.370  1.00  0.00     0.031 A 
ATOM     45  C   UNL A   1      43.553  31.583  30.939  1.00  0.00     0.031 A 
ATOM     46  C   UNL A   1      44.064  25.375  28.912  1.00  0.00     0.049 A 
ATOM     47  C   UNL A   1      44.655  30.562  31.003  1.00  0.00     0.074 A 
ATOM     48  C   UNL A   1      45.177  24.555  28.967  1.00  0.00     0.029 A 
ATOM     49  N   UNL A   1      44.423  26.579  29.501  1.00  0.00    -0.354 N 
ATOM     50  N   UNL A   1      44.662  29.327  30.558  1.00  0.00    -0.248 NA
ATOM     51  C   UNL A   1      45.906  30.979  31.649  1.00  0.00     0.031 C 
ATOM     52  C   UNL A   1      46.196  25.250  29.631  1.00  0.00     0.029 A 
ATOM     53  C   UNL A   1      45.734  26.520  29.944  1.00  0.00     0.049 A 
ATOM     54  H   UNL A   1      43.832  27.361  29.592  1.00  0.00     0.167 HD
ATOM     55  C   UNL A   1      45.925  28.825  30.852  1.00  0.00     0.074 A 
ATOM     56  C   UNL A   1      46.655  29.894  31.506  1.00  0.00     0.031 C 
ATOM     57  C   UNL A   1      46.435  27.593  30.601  1.00  0.00     0.031 A 
BRANCH  44  58
ATOM     58  C   UNL A   1      42.488  23.729  27.792  1.00  0.00    -0.014 A 
ATOM     59  C   UNL A   1      42.048  22.663  28.599  1.00  0.00     0.010 A 
ATOM     60  C   UNL A   1      42.718  23.500  26.423  1.00  0.00     0.010 A 
ATOM     61  C   UNL A   1      41.907  21.381  28.060  1.00  0.00     0.020 A 
ATOM     62  C   UNL A   1      42.553  22.227  25.875  1.00  0.00     0.020 A 
ATOM     63  C   UNL A   1      42.176  21.168  26.704  1.00  0.00     0.054 A 
BRANCH  63  64
ATOM     64  S   UNL A   1      42.031  19.489  26.034  1.00  0.00     0.124 S 
ATOM     65  O   UNL A   1      40.597  19.397  25.765  1.00  0.00    -0.237 OA
ATOM     66  O   UNL A   1      42.888  19.535  24.853  1.00  0.00    -0.237 OA
ATOM     67  O   UNL A   1      42.516  18.640  27.119  1.00  0.00    -0.744 OA
ENDBRANCH  63  64
ENDBRANCH  44  58
BRANCH  45  68
ATOM     68  C   UNL A   1      43.751  32.967  31.445  1.00  0.00    -0.014 A 
ATOM     69  C   UNL A   1      44.231  33.975  30.594  1.00  0.00     0.010 A 
ATOM     70  C   UNL A   1      43.425  33.292  32.775  1.00  0.00     0.010 A 
ATOM     71  C   UNL A   1      44.377  35.286  31.060  1.00  0.00     0.020 A 
ATOM     72  C   UNL A   1      43.547  34.605  33.239  1.00  0.00     0.020 A 
ATOM     73  C   UNL A   1      44.027  35.593  32.378  1.00  0.00     0.054 A 
BRANCH  73  74
ATOM     74  S   UNL A   1      44.146  37.316  32.936  1.00  0.00     0.124 S 
ATOM     75  O   UNL A   1      44.053  38.050  31.678  1.00  0.00    -0.237 OA
ATOM     76  O   UNL A   1      42.995  37.438  33.827  1.00  0.00    -0.237 OA
ATOM     77  O   UNL A   1      45.447  37.370  33.599  1.00  0.00    -0.744 OA
ENDBRANCH  73  74
ENDBRANCH  45  68
BRANCH  57  78
ATOM     78  C   UNL A   1      47.862  27.346  31.009  1.00  0.00    -0.014 A 
ATOM     79  C   UNL A   1      48.186  26.963  32.321  1.00  0.00     0.010 A 
ATOM     80  C   UNL A   1      48.884  27.451  30.048  1.00  0.00     0.010 A 
ATOM     81  C   UNL A   1      49.515  26.713  32.674  1.00  0.00     0.020 A 
ATOM     82  C   UNL A   1      50.211  27.179  30.392  1.00  0.00     0.020 A 
ATOM     83  C   UNL A   1      50.519  26.825  31.707  1.00  0.00     0.054 A 
BRANCH  83  84
ATOM     84  S   UNL A   1      52.232  26.452  32.174  1.00  0.00     0.124 S 
ATOM     85  O   UNL A   1      52.983  27.050  31.075  1.00  0.00    -0.237 OA
ATOM     86  O   UNL A   1      52.366  27.123  33.466  1.00  0.00    -0.237 OA
ATOM     87  O   UNL A   1      52.264  24.993  32.232  1.00  0.00    -0.744 OA
ENDBRANCH  83  84
ENDBRANCH  57  78
ENDBRANCH  31  32
ENDBRANCH  24  26
ENDBRANCH  23  24
ENDBRANCH  22  23
ENDBRANCH   1  22
TORSDOF 19
ENDMDL
MODEL 2
REMARK VINA RESULT:      -9.7      2.516      3.017
REMARK SMILES Cc1nc(CSCC(=O)N2CCCC[C@@H]2C(=O)OCCOC(=O)c2ccc(-c3c4nc(c(-c5ccc(S(=O)(=O)[O-])cc5)c5ccc([nH]5)c(-c5ccc(S(=O)(=O)[O-])cc5)c5nc(c(-c6ccc(S(=O)(=O)[O-])cc6)c6ccc3[nH]6)C=C5)C=C4)cc2)cs1
REMARK SMILES IDX 19 1 18 2 16 3 17 4 15 5 10 6 11 7 12 8 14 9 13 10 8 11 9 12
REMARK SMILES IDX 7 13 6 14 5 15 4 16 1 17 2 18 3 19 85 20 84 21 20 22 21 23
REMARK SMILES IDX 22 24 23 25 24 26 25 27 83 28 26 29 82 30 27 31 28 32 29 33
REMARK SMILES IDX 76 34 30 35 81 36 75 37 77 38 31 39 80 40 74 41 73 42 32 44
REMARK SMILES IDX 62 45 43 46 61 47 44 48 47 49 60 50 78 51 45 52 46 53 59 55
REMARK SMILES IDX 79 56 48 57 33 58 34 59 42 60 35 61 41 62 36 63 37 64 38 65
REMARK SMILES IDX 39 66 40 67 63 68 64 69 72 70 65 71 71 72 66 73 67 74 68 75
REMARK SMILES IDX 69 76 70 77 49 78 50 79 58 80 51 81 57 82 52 83 53 84 54 85
REMARK SMILES IDX 55 86 56 87
REMARK H PARENT 77 43 47 54
REMARK Flexibility Score: inf
ROOT
ATOM      1  C   UNL A   1      33.967  28.639  25.115  1.00  0.00     0.274 C 
ENDROOT
BRANCH   1   2
ATOM      2  O   UNL A   1      33.695  27.283  25.523  1.00  0.00    -0.461 OA
BRANCH   2   3
ATOM      3  C   UNL A   1      33.469  26.399  24.517  1.00  0.00     0.328 C 
ATOM      4  O   UNL A   1      33.604  26.659  23.323  1.00  0.00    -0.250 OA
BRANCH   3   5
ATOM      5  C   UNL A   1      32.991  25.020  24.993  1.00  0.00     0.195 C 
ATOM      6  N   UNL A   1      31.531  24.866  24.998  1.00  0.00    -0.328 N 
ATOM      7  C   UNL A   1      30.990  23.558  25.327  1.00  0.00     0.120 C 
ATOM      8  C   UNL A   1      31.685  22.934  26.544  1.00  0.00     0.022 C 
ATOM      9  C   UNL A   1      33.664  24.446  26.233  1.00  0.00     0.037 C 
ATOM     10  C   UNL A   1      33.207  22.998  26.426  1.00  0.00     0.005 C 
BRANCH   6  11
ATOM     11  C   UNL A   1      30.710  25.984  25.068  1.00  0.00     0.233 C 
ATOM     12  O   UNL A   1      30.652  26.676  26.079  1.00  0.00    -0.274 OA
BRANCH  11  13
ATOM     13  C   UNL A   1      30.011  26.262  23.734  1.00  0.00     0.170 C 
BRANCH  13  14
ATOM     14  S   UNL A   1      30.335  27.917  23.046  1.00  0.00    -0.146 SA
BRANCH  14  15
ATOM     15  C   UNL A   1      28.634  28.572  23.017  1.00  0.00     0.127 C 
BRANCH  15  16
ATOM     16  C   UNL A   1      28.598  30.031  22.697  1.00  0.00     0.061 A 
ATOM     17  C   UNL A   1      27.831  32.427  20.063  1.00  0.00     0.079 C 
ATOM     18  C   UNL A   1      28.177  31.718  21.321  1.00  0.00     0.090 A 
ATOM     19  N   UNL A   1      28.154  30.413  21.439  1.00  0.00    -0.246 NA
ATOM     20  S   UNL A   1      28.652  32.575  22.730  1.00  0.00    -0.127 S 
ATOM     21  C   UNL A   1      28.880  31.084  23.546  1.00  0.00     0.091 A 
ENDBRANCH  15  16
ENDBRANCH  14  15
ENDBRANCH  13  14
ENDBRANCH  11  13
ENDBRANCH   6  11
ENDBRANCH   3   5
ENDBRANCH   2   3
ENDBRANCH   1   2
BRANCH   1  22
ATOM     22  C   UNL A   1      33.154  29.679  25.896  1.00  0.00     0.275 C 
BRANCH  22  23
ATOM     23  O   UNL A   1      33.525  29.752  27.286  1.00  0.00    -0.458 OA
BRANCH  23  24
ATOM     24  C   UNL A   1      34.435  30.709  27.576  1.00  0.00     0.338 C 
ATOM     25  O   UNL A   1      34.241  31.922  27.583  1.00  0.00    -0.246 OA
BRANCH  24  26
ATOM     26  C   UNL A   1      35.689  30.120  28.069  1.00  0.00     0.060 A 
ATOM     27  C   UNL A   1      35.690  29.628  29.380  1.00  0.00     0.016 A 
ATOM     28  C   UNL A   1      36.869  30.147  27.327  1.00  0.00     0.016 A 
ATOM     29  C   UNL A   1      36.863  29.190  29.973  1.00  0.00     0.010 A 
ATOM     30  C   UNL A   1      38.060  29.726  27.930  1.00  0.00     0.010 A 
ATOM     31  C   UNL A   1      38.063  29.278  29.263  1.00  0.00    -0.014 A 
BRANCH  31  32
ATOM     32  C   UNL A   1      39.330  29.067  29.996  1.00  0.00     0.031 A 
ATOM     33  C   UNL A   1      40.289  28.029  29.488  1.00  0.00     0.074 A 
ATOM     34  C   UNL A   1      39.658  29.852  31.036  1.00  0.00     0.049 A 
ATOM     35  N   UNL A   1      41.433  27.641  29.989  1.00  0.00    -0.248 NA
ATOM     36  C   UNL A   1      39.912  27.342  28.241  1.00  0.00     0.031 C 
ATOM     37  C   UNL A   1      38.858  30.969  31.537  1.00  0.00     0.029 A 
ATOM     38  N   UNL A   1      40.762  29.837  31.846  1.00  0.00    -0.354 N 
ATOM     39  C   UNL A   1      41.901  26.650  29.134  1.00  0.00     0.074 A 
ATOM     40  C   UNL A   1      40.914  26.489  28.089  1.00  0.00     0.031 C 
ATOM     41  C   UNL A   1      39.505  31.539  32.567  1.00  0.00     0.029 A 
ATOM     42  C   UNL A   1      40.735  30.795  32.828  1.00  0.00     0.049 A 
ATOM     43  H   UNL A   1      41.504  29.199  31.734  1.00  0.00     0.167 HD
ATOM     44  C   UNL A   1      43.049  25.936  29.217  1.00  0.00     0.031 A 
ATOM     45  C   UNL A   1      41.595  31.026  33.838  1.00  0.00     0.031 A 
ATOM     46  C   UNL A   1      44.013  26.092  30.271  1.00  0.00     0.049 A 
ATOM     47  C   UNL A   1      42.803  30.142  33.982  1.00  0.00     0.074 A 
ATOM     48  C   UNL A   1      45.193  25.398  30.475  1.00  0.00     0.029 A 
ATOM     49  N   UNL A   1      43.903  27.010  31.306  1.00  0.00    -0.354 N 
ATOM     50  N   UNL A   1      43.210  29.168  33.200  1.00  0.00    -0.248 NA
ATOM     51  C   UNL A   1      43.661  30.377  35.150  1.00  0.00     0.031 C 
ATOM     52  C   UNL A   1      45.772  25.867  31.661  1.00  0.00     0.029 A 
ATOM     53  C   UNL A   1      44.981  26.887  32.167  1.00  0.00     0.049 A 
ATOM     54  H   UNL A   1      43.166  27.654  31.414  1.00  0.00     0.167 HD
ATOM     55  C   UNL A   1      44.384  28.689  33.771  1.00  0.00     0.074 A 
ATOM     56  C   UNL A   1      44.624  29.485  34.959  1.00  0.00     0.031 C 
ATOM     57  C   UNL A   1      45.192  27.684  33.349  1.00  0.00     0.031 A 
BRANCH  44  58
ATOM     58  C   UNL A   1      43.265  24.876  28.171  1.00  0.00    -0.014 A 
ATOM     59  C   UNL A   1      42.854  23.545  28.378  1.00  0.00     0.010 A 
ATOM     60  C   UNL A   1      43.933  25.207  26.979  1.00  0.00     0.010 A 
ATOM     61  C   UNL A   1      43.166  22.556  27.441  1.00  0.00     0.020 A 
ATOM     62  C   UNL A   1      44.223  24.227  26.027  1.00  0.00     0.020 A 
ATOM     63  C   UNL A   1      43.863  22.901  26.279  1.00  0.00     0.054 A 
BRANCH  63  64
ATOM     64  S   UNL A   1      44.297  21.596  25.096  1.00  0.00     0.124 S 
ATOM     65  O   UNL A   1      44.212  22.306  23.821  1.00  0.00    -0.237 OA
ATOM     66  O   UNL A   1      45.645  21.217  25.513  1.00  0.00    -0.237 OA
ATOM     67  O   UNL A   1      43.273  20.578  25.313  1.00  0.00    -0.744 OA
ENDBRANCH  63  64
ENDBRANCH  44  58
BRANCH  45  68
ATOM     68  C   UNL A   1      41.326  32.129  34.800  1.00  0.00    -0.014 A 
ATOM     69  C   UNL A   1      41.821  33.420  34.557  1.00  0.00     0.010 A 
ATOM     70  C   UNL A   1      40.542  31.899  35.945  1.00  0.00     0.010 A 
ATOM     71  C   UNL A   1      41.532  34.466  35.440  1.00  0.00     0.020 A 
ATOM     72  C   UNL A   1      40.231  32.946  36.818  1.00  0.00     0.020 A 
ATOM     73  C   UNL A   1      40.733  34.223  36.561  1.00  0.00     0.054 A 
BRANCH  73  74
ATOM     74  S   UNL A   1      40.303  35.612  37.647  1.00  0.00     0.124 S 
ATOM     75  O   UNL A   1      39.189  35.063  38.414  1.00  0.00    -0.237 OA
ATOM     76  O   UNL A   1      41.541  35.824  38.393  1.00  0.00    -0.237 OA
ATOM     77  O   UNL A   1      39.955  36.680  36.713  1.00  0.00    -0.744 OA
ENDBRANCH  73  74
ENDBRANCH  45  68
BRANCH  57  78
ATOM     78  C   UNL A   1      46.426  27.409  34.163  1.00  0.00    -0.014 A 
ATOM     79  C   UNL A   1      46.415  26.465  35.204  1.00  0.00     0.010 A 
ATOM     80  C   UNL A   1      47.627  28.070  33.844  1.00  0.00     0.010 A 
ATOM     81  C   UNL A   1      47.579  26.206  35.932  1.00  0.00     0.020 A 
ATOM     82  C   UNL A   1      48.798  27.795  34.555  1.00  0.00     0.020 A 
ATOM     83  C   UNL A   1      48.763  26.874  35.603  1.00  0.00     0.054 A 
BRANCH  83  84
ATOM     84  S   UNL A   1      50.273  26.489  36.531  1.00  0.00     0.124 S 
ATOM     85  O   UNL A   1      51.036  25.712  35.559  1.00  0.00    -0.237 OA
ATOM     86  O   UNL A   1      50.809  27.814  36.837  1.00  0.00    -0.237 OA
ATOM     87  O   UNL A   1      49.787  25.739  37.686  1.00  0.00    -0.744 OA
ENDBRANCH  83  84
ENDBRANCH  57  78
ENDBRANCH  31  32
ENDBRANCH  24  26
ENDBRANCH  23  24
ENDBRANCH  22  23
ENDBRANCH   1  22
TORSDOF 19
ENDMDL
MODEL 3
REMARK VINA RESULT:      -9.4      2.050      9.036
REMARK SMILES Cc1nc(CSCC(=O)N2CCCC[C@@H]2C(=O)OCCOC(=O)c2ccc(-c3c4nc(c(-c5ccc(S(=O)(=O)[O-])cc5)c5ccc([nH]5)c(-c5ccc(S(=O)(=O)[O-])cc5)c5nc(c(-c6ccc(S(=O)(=O)[O-])cc6)c6ccc3[nH]6)C=C5)C=C4)cc2)cs1
REMARK SMILES IDX 19 1 18 2 16 3 17 4 15 5 10 6 11 7 12 8 14 9 13 10 8 11 9 12
REMARK SMILES IDX 7 13 6 14 5 15 4 16 1 17 2 18 3 19 85 20 84 21 20 22 21 23
REMARK SMILES IDX 22 24 23 25 24 26 25 27 83 28 26 29 82 30 27 31 28 32 29 33
REMARK SMILES IDX 76 34 30 35 81 36 75 37 77 38 31 39 80 40 74 41 73 42 32 44
REMARK SMILES IDX 62 45 43 46 61 47 44 48 47 49 60 50 78 51 45 52 46 53 59 55
REMARK SMILES IDX 79 56 48 57 33 58 34 59 42 60 35 61 41 62 36 63 37 64 38 65
REMARK SMILES IDX 39 66 40 67 63 68 64 69 72 70 65 71 71 72 66 73 67 74 68 75
REMARK SMILES IDX 69 76 70 77 49 78 50 79 58 80 51 81 57 82 52 83 53 84 54 85
REMARK SMILES IDX 55 86 56 87
REMARK H PARENT 77 43 47 54
REMARK Flexibility Score: inf
ROOT
ATOM      1  C   UNL A   1      31.540  29.997  26.412  1.00  0.00     0.274 C 
ENDROOT
BRANCH   1   2
ATOM      2  O   UNL A   1      31.366  28.568  26.487  1.00  0.00    -0.461 OA
BRANCH   2   3
ATOM      3  C   UNL A   1      32.401  27.822  26.022  1.00  0.00     0.328 C 
ATOM      4  O   UNL A   1      33.343  27.437  26.712  1.00  0.00    -0.250 OA
BRANCH   3   5
ATOM      5  C   UNL A   1      32.321  27.511  24.521  1.00  0.00     0.195 C 
ATOM      6  N   UNL A   1      31.348  26.466  24.181  1.00  0.00    -0.328 N 
ATOM      7  C   UNL A   1      31.123  26.183  22.773  1.00  0.00     0.120 C 
ATOM      8  C   UNL A   1      32.436  26.089  21.986  1.00  0.00     0.022 C 
ATOM      9  C   UNL A   1      33.641  27.374  23.773  1.00  0.00     0.037 C 
ATOM     10  C   UNL A   1      33.359  27.273  22.272  1.00  0.00     0.005 C 
BRANCH   6  11
ATOM     11  C   UNL A   1      30.954  25.539  25.136  1.00  0.00     0.233 C 
ATOM     12  O   UNL A   1      29.961  25.716  25.833  1.00  0.00    -0.274 OA
BRANCH  11  13
ATOM     13  C   UNL A   1      31.837  24.287  25.115  1.00  0.00     0.170 C 
BRANCH  13  14
ATOM     14  S   UNL A   1      31.504  23.109  26.463  1.00  0.00    -0.146 SA
BRANCH  14  15
ATOM     15  C   UNL A   1      33.191  22.923  27.127  1.00  0.00     0.127 C 
BRANCH  15  16
ATOM     16  C   UNL A   1      34.001  21.944  26.341  1.00  0.00     0.061 A 
ATOM     17  C   UNL A   1      33.785  18.897  24.357  1.00  0.00     0.079 C 
ATOM     18  C   UNL A   1      34.184  20.139  25.065  1.00  0.00     0.090 A 
ATOM     19  N   UNL A   1      33.337  20.900  25.714  1.00  0.00    -0.246 NA
ATOM     20  S   UNL A   1      35.817  20.668  25.094  1.00  0.00    -0.127 S 
ATOM     21  C   UNL A   1      35.358  21.994  26.082  1.00  0.00     0.091 A 
ENDBRANCH  15  16
ENDBRANCH  14  15
ENDBRANCH  13  14
ENDBRANCH  11  13
ENDBRANCH   6  11
ENDBRANCH   3   5
ENDBRANCH   2   3
ENDBRANCH   1   2
BRANCH   1  22
ATOM     22  C   UNL A   1      32.992  30.440  26.630  1.00  0.00     0.275 C 
BRANCH  22  23
ATOM     23  O   UNL A   1      33.413  30.326  28.003  1.00  0.00    -0.458 OA
BRANCH  23  24
ATOM     24  C   UNL A   1      34.421  31.155  28.353  1.00  0.00     0.338 C 
ATOM     25  O   UNL A   1      34.313  32.322  28.722  1.00  0.00    -0.246 OA
BRANCH  24  26
ATOM     26  C   UNL A   1      35.704  30.437  28.415  1.00  0.00     0.060 A 
ATOM     27  C   UNL A   1      36.108  29.961  29.668  1.00  0.00     0.016 A 
ATOM     28  C   UNL A   1      36.552  30.329  27.314  1.00  0.00     0.016 A 
ATOM     29  C   UNL A   1      37.364  29.404  29.844  1.00  0.00     0.010 A 
ATOM     30  C   UNL A   1      37.830  29.786  27.493  1.00  0.00     0.010 A 
ATOM     31  C   UNL A   1      38.248  29.353  28.764  1.00  0.00    -0.014 A 
BRANCH  31  32
ATOM     32  C   UNL A   1      39.663  29.012  29.028  1.00  0.00     0.031 A 
ATOM     33  C   UNL A   1      40.523  30.015  29.742  1.00  0.00     0.074 A 
ATOM     34  C   UNL A   1      40.142  27.795  28.722  1.00  0.00     0.049 A 
ATOM     35  N   UNL A   1      41.794  29.955  30.041  1.00  0.00    -0.248 NA
ATOM     36  C   UNL A   1      39.856  31.251  30.187  1.00  0.00     0.031 C 
ATOM     37  C   UNL A   1      39.363  26.702  28.139  1.00  0.00     0.029 A 
ATOM     38  N   UNL A   1      41.397  27.270  28.876  1.00  0.00    -0.354 N 
ATOM     39  C   UNL A   1      42.086  31.150  30.687  1.00  0.00     0.074 A 
ATOM     40  C   UNL A   1      40.863  31.921  30.728  1.00  0.00     0.031 C 
ATOM     41  C   UNL A   1      40.160  25.631  27.992  1.00  0.00     0.029 A 
ATOM     42  C   UNL A   1      41.512  25.980  28.422  1.00  0.00     0.049 A 
ATOM     43  H   UNL A   1      42.145  27.772  29.274  1.00  0.00     0.167 HD
ATOM     44  C   UNL A   1      43.270  31.568  31.195  1.00  0.00     0.031 A 
ATOM     45  C   UNL A   1      42.595  25.183  28.340  1.00  0.00     0.031 A 
ATOM     46  C   UNL A   1      44.483  30.801  31.131  1.00  0.00     0.049 A 
ATOM     47  C   UNL A   1      43.925  25.713  28.800  1.00  0.00     0.074 A 
ATOM     48  C   UNL A   1      45.746  31.140  31.580  1.00  0.00     0.029 A 
ATOM     49  N   UNL A   1      44.582  29.533  30.574  1.00  0.00    -0.354 N 
ATOM     50  N   UNL A   1      44.204  26.867  29.360  1.00  0.00    -0.248 NA
ATOM     51  C   UNL A   1      45.088  24.838  28.607  1.00  0.00     0.031 C 
ATOM     52  C   UNL A   1      46.620  30.094  31.253  1.00  0.00     0.029 A 
ATOM     53  C   UNL A   1      45.889  29.083  30.647  1.00  0.00     0.049 A 
ATOM     54  H   UNL A   1      43.832  29.028  30.184  1.00  0.00     0.167 HD
ATOM     55  C   UNL A   1      45.573  26.849  29.604  1.00  0.00     0.074 A 
ATOM     56  C   UNL A   1      46.062  25.566  29.138  1.00  0.00     0.031 C 
ATOM     57  C   UNL A   1      46.353  27.806  30.167  1.00  0.00     0.031 A 
BRANCH  44  58
ATOM     58  C   UNL A   1      43.302  32.950  31.791  1.00  0.00    -0.014 A 
ATOM     59  C   UNL A   1      43.690  34.069  31.031  1.00  0.00     0.010 A 
ATOM     60  C   UNL A   1      42.982  33.123  33.149  1.00  0.00     0.010 A 
ATOM     61  C   UNL A   1      43.819  35.322  31.635  1.00  0.00     0.020 A 
ATOM     62  C   UNL A   1      43.085  34.379  33.751  1.00  0.00     0.020 A 
ATOM     63  C   UNL A   1      43.532  35.466  32.996  1.00  0.00     0.054 A 
BRANCH  63  64
ATOM     64  S   UNL A   1      43.750  37.091  33.772  1.00  0.00     0.124 S 
ATOM     65  O   UNL A   1      43.726  37.982  32.613  1.00  0.00    -0.237 OA
ATOM     66  O   UNL A   1      42.593  37.185  34.658  1.00  0.00    -0.237 OA
ATOM     67  O   UNL A   1      45.040  36.982  34.447  1.00  0.00    -0.744 OA
ENDBRANCH  63  64
ENDBRANCH  44  58
BRANCH  45  68
ATOM     68  C   UNL A   1      42.461  23.812  27.780  1.00  0.00    -0.014 A 
ATOM     69  C   UNL A   1      42.640  23.583  26.406  1.00  0.00     0.010 A 
ATOM     70  C   UNL A   1      42.188  22.721  28.626  1.00  0.00     0.010 A 
ATOM     71  C   UNL A   1      42.555  22.287  25.888  1.00  0.00     0.020 A 
ATOM     72  C   UNL A   1      42.126  21.421  28.116  1.00  0.00     0.020 A 
ATOM     73  C   UNL A   1      42.306  21.213  26.747  1.00  0.00     0.054 A 
BRANCH  73  74
ATOM     74  S   UNL A   1      42.283  19.532  26.065  1.00  0.00     0.124 S 
ATOM     75  O   UNL A   1      42.672  18.730  27.220  1.00  0.00    -0.237 OA
ATOM     76  O   UNL A   1      40.895  19.387  25.632  1.00  0.00    -0.237 OA
ATOM     77  O   UNL A   1      43.263  19.590  24.983  1.00  0.00    -0.744 OA
ENDBRANCH  73  74
ENDBRANCH  45  68
BRANCH  57  78
ATOM     78  C   UNL A   1      47.813  27.487  30.334  1.00  0.00    -0.014 A 
ATOM     79  C   UNL A   1      48.285  26.816  31.475  1.00  0.00     0.010 A 
ATOM     80  C   UNL A   1      48.717  27.821  29.308  1.00  0.00     0.010 A 
ATOM     81  C   UNL A   1      49.641  26.506  31.600  1.00  0.00     0.020 A 
ATOM     82  C   UNL A   1      50.070  27.492  29.420  1.00  0.00     0.020 A 
ATOM     83  C   UNL A   1      50.525  26.848  30.572  1.00  0.00     0.054 A 
BRANCH  83  84
ATOM     84  S   UNL A   1      52.275  26.396  30.733  1.00  0.00     0.124 S 
ATOM     85  O   UNL A   1      52.198  25.159  31.504  1.00  0.00    -0.237 OA
ATOM     86  O   UNL A   1      52.698  26.245  29.343  1.00  0.00    -0.237 OA
ATOM     87  O   UNL A   1      52.862  27.534  31.436  1.00  0.00    -0.744 OA
ENDBRANCH  83  84
ENDBRANCH  57  78
ENDBRANCH  31  32
ENDBRANCH  24  26
ENDBRANCH  23  24
ENDBRANCH  22  23
ENDBRANCH   1  22
TORSDOF 19
ENDMDL
