MODEL 1
REMARK VINA RESULT:     -10.4      0.000      0.000
REMARK SMILES O=C(OCCOC(=O)[C@@H]1CCCN(C(=O)Nc2ccccc2)C1)c1ccc(-c2c3nc(c(-c4ccc(S(=O)(=O)[O-])cc4)c4ccc([nH]4)c(-c4ccc(S(=O)(=O)[O-])cc4)c4nc(c(-c5ccc(S(=O)(=O)[O-])cc5)c5ccc2[nH]5)C=C4)C=C3)cc1
REMARK SMILES IDX 4 1 3 2 2 3 1 4 24 5 25 6 83 7 26 8 82 9 27 10 28 11 29 12
REMARK SMILES IDX 76 13 30 14 81 15 75 16 77 17 31 18 80 19 74 20 73 21 32 23
REMARK SMILES IDX 62 24 43 25 61 26 44 27 47 28 60 29 78 30 45 31 46 32 59 34
REMARK SMILES IDX 79 35 48 36 33 37 34 38 42 39 35 40 41 41 36 42 37 43 38 44
REMARK SMILES IDX 39 45 40 46 63 47 64 48 72 49 65 50 71 51 66 52 67 53 68 54
REMARK SMILES IDX 69 55 70 56 49 57 50 58 58 59 51 60 57 61 52 62 53 63 54 64
REMARK SMILES IDX 55 65 56 66 5 67 6 68 7 69 8 70 9 71 10 72 23 73 11 74 13 75
REMARK SMILES IDX 12 76 14 77 15 78 16 79 17 81 18 82 22 83 19 84 21 85 20 86
REMARK H PARENT 77 22 47 33 16 80
REMARK Flexibility Score: inf
ROOT
ATOM      1  C   UNL A   1      33.699  28.324  26.735  1.00  0.00     0.275 C 
ENDROOT
BRANCH   1   2
ATOM      2  O   UNL A   1      33.574  29.737  26.937  1.00  0.00    -0.458 OA
BRANCH   2   3
ATOM      3  C   UNL A   1      34.279  30.490  27.815  1.00  0.00     0.338 C 
ATOM      4  O   UNL A   1      33.870  31.611  28.112  1.00  0.00    -0.246 OA
BRANCH   3   5
ATOM      5  C   UNL A   1      35.664  30.103  28.233  1.00  0.00     0.060 A 
ATOM      6  C   UNL A   1      36.044  29.618  29.489  1.00  0.00     0.016 A 
ATOM      7  C   UNL A   1      36.657  30.211  27.242  1.00  0.00     0.016 A 
ATOM      8  C   UNL A   1      37.338  29.147  29.724  1.00  0.00     0.010 A 
ATOM      9  C   UNL A   1      37.947  29.722  27.462  1.00  0.00     0.010 A 
ATOM     10  C   UNL A   1      38.290  29.170  28.706  1.00  0.00    -0.014 A 
BRANCH  10  11
ATOM     11  C   UNL A   1      39.686  28.782  28.997  1.00  0.00     0.031 A 
ATOM     12  C   UNL A   1      40.548  29.817  29.651  1.00  0.00     0.074 A 
ATOM     13  C   UNL A   1      40.164  27.557  28.703  1.00  0.00     0.049 A 
ATOM     14  N   UNL A   1      41.809  29.757  29.978  1.00  0.00    -0.248 NA
ATOM     15  C   UNL A   1      39.899  31.103  29.957  1.00  0.00     0.031 C 
ATOM     16  C   UNL A   1      39.404  26.465  28.091  1.00  0.00     0.029 A 
ATOM     17  N   UNL A   1      41.417  27.022  28.879  1.00  0.00    -0.354 N 
ATOM     18  C   UNL A   1      42.105  31.008  30.503  1.00  0.00     0.074 A 
ATOM     19  C   UNL A   1      40.921  31.823  30.382  1.00  0.00     0.031 C 
ATOM     20  C   UNL A   1      40.210  25.401  27.925  1.00  0.00     0.029 A 
ATOM     21  C   UNL A   1      41.543  25.730  28.419  1.00  0.00     0.049 A 
ATOM     22  H   UNL A   1      42.158  27.517  29.298  1.00  0.00     0.167 HD
ATOM     23  C   UNL A   1      43.256  31.431  31.072  1.00  0.00     0.031 A 
ATOM     24  C   UNL A   1      42.615  24.911  28.406  1.00  0.00     0.031 A 
ATOM     25  C   UNL A   1      44.420  30.608  31.194  1.00  0.00     0.049 A 
ATOM     26  C   UNL A   1      43.900  25.407  29.021  1.00  0.00     0.074 A 
ATOM     27  C   UNL A   1      45.640  30.916  31.760  1.00  0.00     0.029 A 
ATOM     28  N   UNL A   1      44.500  29.300  30.733  1.00  0.00    -0.354 N 
ATOM     29  N   UNL A   1      44.151  26.575  29.569  1.00  0.00    -0.248 NA
ATOM     30  C   UNL A   1      45.036  24.477  29.043  1.00  0.00     0.031 C 
ATOM     31  C   UNL A   1      46.476  29.805  31.603  1.00  0.00     0.029 A 
ATOM     32  C   UNL A   1      45.757  28.788  30.989  1.00  0.00     0.049 A 
ATOM     33  H   UNL A   1      43.770  28.811  30.289  1.00  0.00     0.167 HD
ATOM     34  C   UNL A   1      45.461  26.508  30.027  1.00  0.00     0.074 A 
ATOM     35  C   UNL A   1      45.949  25.183  29.699  1.00  0.00     0.031 C 
ATOM     36  C   UNL A   1      46.196  27.453  30.666  1.00  0.00     0.031 A 
BRANCH  23  37
ATOM     37  C   UNL A   1      43.272  32.855  31.550  1.00  0.00    -0.014 A 
ATOM     38  C   UNL A   1      43.619  33.909  30.680  1.00  0.00     0.010 A 
ATOM     39  C   UNL A   1      43.058  33.131  32.910  1.00  0.00     0.010 A 
ATOM     40  C   UNL A   1      43.848  35.191  31.182  1.00  0.00     0.020 A 
ATOM     41  C   UNL A   1      43.250  34.422  33.410  1.00  0.00     0.020 A 
ATOM     42  C   UNL A   1      43.681  35.433  32.548  1.00  0.00     0.054 A 
BRANCH  42  43
ATOM     43  S   UNL A   1      44.055  37.087  33.189  1.00  0.00     0.124 S 
ATOM     44  O   UNL A   1      42.850  37.390  33.956  1.00  0.00    -0.237 OA
ATOM     45  O   UNL A   1      45.263  36.861  33.978  1.00  0.00    -0.237 OA
ATOM     46  O   UNL A   1      44.244  37.890  31.982  1.00  0.00    -0.744 OA
ENDBRANCH  42  43
ENDBRANCH  23  37
BRANCH  24  47
ATOM     47  C   UNL A   1      42.517  23.545  27.815  1.00  0.00    -0.014 A 
ATOM     48  C   UNL A   1      42.040  22.460  28.572  1.00  0.00     0.010 A 
ATOM     49  C   UNL A   1      42.896  23.320  26.477  1.00  0.00     0.010 A 
ATOM     50  C   UNL A   1      41.960  21.178  28.013  1.00  0.00     0.020 A 
ATOM     51  C   UNL A   1      42.797  22.045  25.907  1.00  0.00     0.020 A 
ATOM     52  C   UNL A   1      42.337  20.979  26.681  1.00  0.00     0.054 A 
BRANCH  52  53
ATOM     53  S   UNL A   1      42.174  19.320  25.963  1.00  0.00     0.124 S 
ATOM     54  O   UNL A   1      42.693  18.472  27.032  1.00  0.00    -0.237 OA
ATOM     55  O   UNL A   1      40.736  19.223  25.721  1.00  0.00    -0.237 OA
ATOM     56  O   UNL A   1      42.997  19.385  24.758  1.00  0.00    -0.744 OA
ENDBRANCH  52  53
ENDBRANCH  24  47
BRANCH  36  57
ATOM     57  C   UNL A   1      47.590  27.089  31.095  1.00  0.00    -0.014 A 
ATOM     58  C   UNL A   1      47.824  26.432  32.314  1.00  0.00     0.010 A 
ATOM     59  C   UNL A   1      48.652  27.271  30.190  1.00  0.00     0.010 A 
ATOM     60  C   UNL A   1      49.100  25.952  32.616  1.00  0.00     0.020 A 
ATOM     61  C   UNL A   1      49.922  26.770  30.478  1.00  0.00     0.020 A 
ATOM     62  C   UNL A   1      50.137  26.113  31.691  1.00  0.00     0.054 A 
BRANCH  62  63
ATOM     63  S   UNL A   1      51.753  25.374  32.056  1.00  0.00     0.124 S 
ATOM     64  O   UNL A   1      51.440  23.948  32.059  1.00  0.00    -0.237 OA
ATOM     65  O   UNL A   1      52.574  25.836  30.939  1.00  0.00    -0.237 OA
ATOM     66  O   UNL A   1      52.107  25.939  33.356  1.00  0.00    -0.744 OA
ENDBRANCH  62  63
ENDBRANCH  36  57
ENDBRANCH  10  11
ENDBRANCH   3   5
ENDBRANCH   2   3
ENDBRANCH   1   2
BRANCH   1  67
ATOM     67  C   UNL A   1      32.355  27.590  26.659  1.00  0.00     0.274 C 
BRANCH  67  68
ATOM     68  O   UNL A   1      32.358  26.363  25.903  1.00  0.00    -0.462 OA
BRANCH  68  69
ATOM     69  C   UNL A   1      32.123  26.524  24.559  1.00  0.00     0.310 C 
ATOM     70  O   UNL A   1      31.008  26.666  24.094  1.00  0.00    -0.252 OA
BRANCH  69  71
ATOM     71  C   UNL A   1      33.431  26.484  23.756  1.00  0.00     0.119 C 
ATOM     72  C   UNL A   1      33.185  26.364  22.262  1.00  0.00     0.019 C 
ATOM     73  C   UNL A   1      34.338  25.318  24.161  1.00  0.00     0.136 C 
ATOM     74  C   UNL A   1      32.540  25.037  21.907  1.00  0.00     0.023 C 
ATOM     75  N   UNL A   1      33.714  24.020  23.876  1.00  0.00    -0.324 N 
ATOM     76  C   UNL A   1      33.291  23.846  22.481  1.00  0.00     0.121 C 
BRANCH  75  77
ATOM     77  C   UNL A   1      33.463  23.216  24.968  1.00  0.00     0.321 C 
ATOM     78  O   UNL A   1      32.344  23.165  25.494  1.00  0.00    -0.248 OA
ATOM     79  N   UNL A   1      34.358  22.308  25.423  1.00  0.00    -0.308 N 
ATOM     80  H   UNL A   1      33.930  21.523  25.834  1.00  0.00     0.171 HD
BRANCH  79  81
ATOM     81  C   UNL A   1      35.749  22.234  25.436  1.00  0.00     0.042 A 
ATOM     82  C   UNL A   1      36.440  23.316  25.989  1.00  0.00     0.026 A 
ATOM     83  C   UNL A   1      36.455  21.136  24.940  1.00  0.00     0.026 A 
ATOM     84  C   UNL A   1      37.819  23.241  26.170  1.00  0.00     0.002 A 
ATOM     85  C   UNL A   1      37.837  21.062  25.122  1.00  0.00     0.002 A 
ATOM     86  C   UNL A   1      38.514  22.105  25.755  1.00  0.00     0.000 A 
ENDBRANCH  79  81
ENDBRANCH  75  77
ENDBRANCH  69  71
ENDBRANCH  68  69
ENDBRANCH  67  68
ENDBRANCH   1  67
TORSDOF 16
ENDMDL
MODEL 2
REMARK VINA RESULT:     -10.3      1.321      2.972
REMARK SMILES O=C(OCCOC(=O)[C@@H]1CCCN(C(=O)Nc2ccccc2)C1)c1ccc(-c2c3nc(c(-c4ccc(S(=O)(=O)[O-])cc4)c4ccc([nH]4)c(-c4ccc(S(=O)(=O)[O-])cc4)c4nc(c(-c5ccc(S(=O)(=O)[O-])cc5)c5ccc2[nH]5)C=C4)C=C3)cc1
REMARK SMILES IDX 4 1 3 2 2 3 1 4 24 5 25 6 83 7 26 8 82 9 27 10 28 11 29 12
REMARK SMILES IDX 76 13 30 14 81 15 75 16 77 17 31 18 80 19 74 20 73 21 32 23
REMARK SMILES IDX 62 24 43 25 61 26 44 27 47 28 60 29 78 30 45 31 46 32 59 34
REMARK SMILES IDX 79 35 48 36 33 37 34 38 42 39 35 40 41 41 36 42 37 43 38 44
REMARK SMILES IDX 39 45 40 46 63 47 64 48 72 49 65 50 71 51 66 52 67 53 68 54
REMARK SMILES IDX 69 55 70 56 49 57 50 58 58 59 51 60 57 61 52 62 53 63 54 64
REMARK SMILES IDX 55 65 56 66 5 67 6 68 7 69 8 70 9 71 10 72 23 73 11 74 13 75
REMARK SMILES IDX 12 76 14 77 15 78 16 79 17 81 18 82 22 83 19 84 21 85 20 86
REMARK H PARENT 77 22 47 33 16 80
REMARK Flexibility Score: inf
ROOT
ATOM      1  C   UNL A   1      33.514  28.303  27.246  1.00  0.00     0.275 C 
ENDROOT
BRANCH   1   2
ATOM      2  O   UNL A   1      33.446  29.731  27.354  1.00  0.00    -0.458 OA
BRANCH   2   3
ATOM      3  C   UNL A   1      34.404  30.546  27.857  1.00  0.00     0.338 C 
ATOM      4  O   UNL A   1      34.185  31.753  27.940  1.00  0.00    -0.246 OA
BRANCH   3   5
ATOM      5  C   UNL A   1      35.803  30.059  28.075  1.00  0.00     0.060 A 
ATOM      6  C   UNL A   1      36.831  30.041  27.127  1.00  0.00     0.016 A 
ATOM      7  C   UNL A   1      36.101  29.612  29.376  1.00  0.00     0.016 A 
ATOM      8  C   UNL A   1      38.140  29.703  27.480  1.00  0.00     0.010 A 
ATOM      9  C   UNL A   1      37.412  29.293  29.742  1.00  0.00     0.010 A 
ATOM     10  C   UNL A   1      38.444  29.354  28.794  1.00  0.00    -0.014 A 
BRANCH  10  11
ATOM     11  C   UNL A   1      39.804  28.883  29.132  1.00  0.00     0.031 A 
ATOM     12  C   UNL A   1      40.690  29.850  29.854  1.00  0.00     0.074 A 
ATOM     13  C   UNL A   1      40.230  27.643  28.820  1.00  0.00     0.049 A 
ATOM     14  N   UNL A   1      41.930  29.714  30.233  1.00  0.00    -0.248 NA
ATOM     15  C   UNL A   1      40.096  31.160  30.173  1.00  0.00     0.031 C 
ATOM     16  C   UNL A   1      39.442  26.612  28.143  1.00  0.00     0.029 A 
ATOM     17  N   UNL A   1      41.444  27.037  29.033  1.00  0.00    -0.354 N 
ATOM     18  C   UNL A   1      42.268  30.931  30.809  1.00  0.00     0.074 A 
ATOM     19  C   UNL A   1      41.134  31.812  30.663  1.00  0.00     0.031 C 
ATOM     20  C   UNL A   1      40.198  25.511  27.977  1.00  0.00     0.029 A 
ATOM     21  C   UNL A   1      41.523  25.754  28.538  1.00  0.00     0.049 A 
ATOM     22  H   UNL A   1      42.190  27.479  29.498  1.00  0.00     0.167 HD
ATOM     23  C   UNL A   1      43.412  31.275  31.440  1.00  0.00     0.031 A 
ATOM     24  C   UNL A   1      42.550  24.879  28.545  1.00  0.00     0.031 A 
ATOM     25  C   UNL A   1      44.525  30.387  31.585  1.00  0.00     0.049 A 
ATOM     26  C   UNL A   1      43.830  25.287  29.230  1.00  0.00     0.074 A 
ATOM     27  C   UNL A   1      45.733  30.613  32.212  1.00  0.00     0.029 A 
ATOM     28  N   UNL A   1      44.557  29.091  31.087  1.00  0.00    -0.354 N 
ATOM     29  N   UNL A   1      44.118  26.424  29.824  1.00  0.00    -0.248 NA
ATOM     30  C   UNL A   1      44.914  24.297  29.271  1.00  0.00     0.031 C 
ATOM     31  C   UNL A   1      46.516  29.464  32.056  1.00  0.00     0.029 A 
ATOM     32  C   UNL A   1      45.772  28.505  31.381  1.00  0.00     0.049 A 
ATOM     33  H   UNL A   1      43.823  28.655  30.598  1.00  0.00     0.167 HD
ATOM     34  C   UNL A   1      45.401  26.274  30.336  1.00  0.00     0.074 A 
ATOM     35  C   UNL A   1      45.833  24.933  29.988  1.00  0.00     0.031 C 
ATOM     36  C   UNL A   1      46.155  27.158  31.035  1.00  0.00     0.031 A 
BRANCH  23  37
ATOM     37  C   UNL A   1      43.482  32.682  31.962  1.00  0.00    -0.014 A 
ATOM     38  C   UNL A   1      43.991  33.727  31.165  1.00  0.00     0.010 A 
ATOM     39  C   UNL A   1      43.150  32.939  33.302  1.00  0.00     0.010 A 
ATOM     40  C   UNL A   1      44.259  34.976  31.729  1.00  0.00     0.020 A 
ATOM     41  C   UNL A   1      43.382  34.199  33.860  1.00  0.00     0.020 A 
ATOM     42  C   UNL A   1      43.971  35.197  33.079  1.00  0.00     0.054 A 
BRANCH  42  43
ATOM     43  S   UNL A   1      44.395  36.801  33.806  1.00  0.00     0.124 S 
ATOM     44  O   UNL A   1      45.838  36.857  33.587  1.00  0.00    -0.237 OA
ATOM     45  O   UNL A   1      43.603  37.736  33.011  1.00  0.00    -0.237 OA
ATOM     46  O   UNL A   1      43.980  36.668  35.202  1.00  0.00    -0.744 OA
ENDBRANCH  42  43
ENDBRANCH  23  37
BRANCH  24  47
ATOM     47  C   UNL A   1      42.407  23.538  27.908  1.00  0.00    -0.014 A 
ATOM     48  C   UNL A   1      42.832  23.314  26.586  1.00  0.00     0.010 A 
ATOM     49  C   UNL A   1      41.849  22.464  28.629  1.00  0.00     0.010 A 
ATOM     50  C   UNL A   1      42.685  22.055  25.992  1.00  0.00     0.020 A 
ATOM     51  C   UNL A   1      41.722  21.197  28.047  1.00  0.00     0.020 A 
ATOM     52  C   UNL A   1      42.134  21.002  26.728  1.00  0.00     0.054 A 
BRANCH  52  53
ATOM     53  S   UNL A   1      42.004  19.364  25.954  1.00  0.00     0.124 S 
ATOM     54  O   UNL A   1      42.515  18.488  27.004  1.00  0.00    -0.237 OA
ATOM     55  O   UNL A   1      40.573  19.258  25.681  1.00  0.00    -0.237 OA
ATOM     56  O   UNL A   1      42.850  19.479  24.767  1.00  0.00    -0.744 OA
ENDBRANCH  52  53
ENDBRANCH  24  47
BRANCH  36  57
ATOM     57  C   UNL A   1      47.508  26.708  31.511  1.00  0.00    -0.014 A 
ATOM     58  C   UNL A   1      47.663  26.069  32.753  1.00  0.00     0.010 A 
ATOM     59  C   UNL A   1      48.603  26.788  30.631  1.00  0.00     0.010 A 
ATOM     60  C   UNL A   1      48.893  25.508  33.102  1.00  0.00     0.020 A 
ATOM     61  C   UNL A   1      49.826  26.206  30.968  1.00  0.00     0.020 A 
ATOM     62  C   UNL A   1      49.962  25.569  32.203  1.00  0.00     0.054 A 
BRANCH  62  63
ATOM     63  S   UNL A   1      51.511  24.727  32.631  1.00  0.00     0.124 S 
ATOM     64  O   UNL A   1      52.499  25.529  31.915  1.00  0.00    -0.237 OA
ATOM     65  O   UNL A   1      51.543  24.839  34.087  1.00  0.00    -0.237 OA
ATOM     66  O   UNL A   1      51.320  23.371  32.121  1.00  0.00    -0.744 OA
ENDBRANCH  62  63
ENDBRANCH  36  57
ENDBRANCH  10  11
ENDBRANCH   3   5
ENDBRANCH   2   3
ENDBRANCH   1   2
BRANCH   1  67
ATOM     67  C   UNL A   1      33.972  27.810  25.869  1.00  0.00     0.274 C 
BRANCH  67  68
ATOM     68  O   UNL A   1      34.049  26.379  25.716  1.00  0.00    -0.462 OA
BRANCH  68  69
ATOM     69  C   UNL A   1      34.027  25.946  24.412  1.00  0.00     0.310 C 
ATOM     70  O   UNL A   1      33.869  26.695  23.467  1.00  0.00    -0.252 OA
BRANCH  69  71
ATOM     71  C   UNL A   1      34.209  24.423  24.329  1.00  0.00     0.119 C 
ATOM     72  C   UNL A   1      33.765  23.864  22.988  1.00  0.00     0.019 C 
ATOM     73  C   UNL A   1      33.430  23.673  25.413  1.00  0.00     0.136 C 
ATOM     74  C   UNL A   1      32.271  24.028  22.781  1.00  0.00     0.023 C 
ATOM     75  N   UNL A   1      31.981  23.860  25.267  1.00  0.00    -0.324 N 
ATOM     76  C   UNL A   1      31.454  23.493  23.947  1.00  0.00     0.121 C 
BRANCH  75  77
ATOM     77  C   UNL A   1      31.344  24.497  26.311  1.00  0.00     0.321 C 
ATOM     78  O   UNL A   1      31.344  24.028  27.456  1.00  0.00    -0.248 OA
ATOM     79  N   UNL A   1      30.836  25.747  26.198  1.00  0.00    -0.308 N 
ATOM     80  H   UNL A   1      30.860  26.247  27.046  1.00  0.00     0.171 HD
BRANCH  79  81
ATOM     81  C   UNL A   1      30.289  26.485  25.151  1.00  0.00     0.042 A 
ATOM     82  C   UNL A   1      29.083  26.030  24.612  1.00  0.00     0.026 A 
ATOM     83  C   UNL A   1      30.885  27.643  24.647  1.00  0.00     0.026 A 
ATOM     84  C   UNL A   1      28.409  26.801  23.667  1.00  0.00     0.002 A 
ATOM     85  C   UNL A   1      30.208  28.415  23.701  1.00  0.00     0.002 A 
ATOM     86  C   UNL A   1      28.961  28.003  23.229  1.00  0.00     0.000 A 
ENDBRANCH  79  81
ENDBRANCH  75  77
ENDBRANCH  69  71
ENDBRANCH  68  69
ENDBRANCH  67  68
ENDBRANCH   1  67
TORSDOF 16
ENDMDL
MODEL 3
REMARK VINA RESULT:     -10.2      2.594      9.401
REMARK SMILES O=C(OCCOC(=O)[C@@H]1CCCN(C(=O)Nc2ccccc2)C1)c1ccc(-c2c3nc(c(-c4ccc(S(=O)(=O)[O-])cc4)c4ccc([nH]4)c(-c4ccc(S(=O)(=O)[O-])cc4)c4nc(c(-c5ccc(S(=O)(=O)[O-])cc5)c5ccc2[nH]5)C=C4)C=C3)cc1
REMARK SMILES IDX 4 1 3 2 2 3 1 4 24 5 25 6 83 7 26 8 82 9 27 10 28 11 29 12
REMARK SMILES IDX 76 13 30 14 81 15 75 16 77 17 31 18 80 19 74 20 73 21 32 23
REMARK SMILES IDX 62 24 43 25 61 26 44 27 47 28 60 29 78 30 45 31 46 32 59 34
REMARK SMILES IDX 79 35 48 36 33 37 34 38 42 39 35 40 41 41 36 42 37 43 38 44
REMARK SMILES IDX 39 45 40 46 63 47 64 48 72 49 65 50 71 51 66 52 67 53 68 54
REMARK SMILES IDX 69 55 70 56 49 57 50 58 58 59 51 60 57 61 52 62 53 63 54 64
REMARK SMILES IDX 55 65 56 66 5 67 6 68 7 69 8 70 9 71 10 72 23 73 11 74 13 75
REMARK SMILES IDX 12 76 14 77 15 78 16 79 17 81 18 82 22 83 19 84 21 85 20 86
REMARK H PARENT 77 22 47 33 16 80
REMARK Flexibility Score: inf
ROOT
ATOM      1  C   UNL A   1      37.133  23.145  24.383  1.00  0.00     0.275 C 
ENDROOT
BRANCH   1   2
ATOM      2  O   UNL A   1      37.657  22.690  25.638  1.00  0.00    -0.458 OA
BRANCH   2   3
ATOM      3  C   UNL A   1      38.932  22.827  26.075  1.00  0.00     0.338 C 
ATOM      4  O   UNL A   1      39.647  21.832  26.168  1.00  0.00    -0.246 OA
BRANCH   3   5
ATOM      5  C   UNL A   1      39.410  24.108  26.687  1.00  0.00     0.060 A 
ATOM      6  C   UNL A   1      40.112  25.126  26.034  1.00  0.00     0.016 A 
ATOM      7  C   UNL A   1      39.080  24.302  28.041  1.00  0.00     0.016 A 
ATOM      8  C   UNL A   1      40.379  26.344  26.663  1.00  0.00     0.010 A 
ATOM      9  C   UNL A   1      39.323  25.525  28.671  1.00  0.00     0.010 A 
ATOM     10  C   UNL A   1      39.963  26.562  27.975  1.00  0.00    -0.014 A 
BRANCH  10  11
ATOM     11  C   UNL A   1      40.353  27.806  28.673  1.00  0.00     0.031 A 
ATOM     12  C   UNL A   1      41.731  27.843  29.259  1.00  0.00     0.074 A 
ATOM     13  C   UNL A   1      39.522  28.862  28.771  1.00  0.00     0.049 A 
ATOM     14  N   UNL A   1      42.311  28.784  29.951  1.00  0.00    -0.248 NA
ATOM     15  C   UNL A   1      42.557  26.641  29.051  1.00  0.00     0.031 C 
ATOM     16  C   UNL A   1      38.171  28.944  28.213  1.00  0.00     0.029 A 
ATOM     17  N   UNL A   1      39.695  30.079  29.383  1.00  0.00    -0.354 N 
ATOM     18  C   UNL A   1      43.558  28.272  30.281  1.00  0.00     0.074 A 
ATOM     19  C   UNL A   1      43.620  26.920  29.782  1.00  0.00     0.031 C 
ATOM     20  C   UNL A   1      37.631  30.136  28.526  1.00  0.00     0.029 A 
ATOM     21  C   UNL A   1      38.596  30.906  29.304  1.00  0.00     0.049 A 
ATOM     22  H   UNL A   1      40.529  30.339  29.836  1.00  0.00     0.167 HD
ATOM     23  C   UNL A   1      44.581  28.889  30.914  1.00  0.00     0.031 A 
ATOM     24  C   UNL A   1      38.401  32.145  29.801  1.00  0.00     0.031 A 
ATOM     25  C   UNL A   1      44.507  30.234  31.395  1.00  0.00     0.049 A 
ATOM     26  C   UNL A   1      39.542  32.811  30.528  1.00  0.00     0.074 A 
ATOM     27  C   UNL A   1      45.477  30.975  32.041  1.00  0.00     0.029 A 
ATOM     28  N   UNL A   1      43.384  31.043  31.278  1.00  0.00    -0.354 N 
ATOM     29  N   UNL A   1      40.741  32.337  30.784  1.00  0.00    -0.248 NA
ATOM     30  C   UNL A   1      39.322  34.179  31.013  1.00  0.00     0.031 C 
ATOM     31  C   UNL A   1      44.924  32.221  32.353  1.00  0.00     0.029 A 
ATOM     32  C   UNL A   1      43.630  32.275  31.852  1.00  0.00     0.049 A 
ATOM     33  H   UNL A   1      42.539  30.778  30.850  1.00  0.00     0.167 HD
ATOM     34  C   UNL A   1      41.426  33.358  31.430  1.00  0.00     0.074 A 
ATOM     35  C   UNL A   1      40.511  34.480  31.520  1.00  0.00     0.031 C 
ATOM     36  C   UNL A   1      42.698  33.374  31.902  1.00  0.00     0.031 A 
BRANCH  23  37
ATOM     37  C   UNL A   1      45.818  28.065  31.131  1.00  0.00    -0.014 A 
ATOM     38  C   UNL A   1      46.007  27.341  32.326  1.00  0.00     0.010 A 
ATOM     39  C   UNL A   1      46.854  28.110  30.185  1.00  0.00     0.010 A 
ATOM     40  C   UNL A   1      47.246  26.765  32.611  1.00  0.00     0.020 A 
ATOM     41  C   UNL A   1      48.083  27.502  30.451  1.00  0.00     0.020 A 
ATOM     42  C   UNL A   1      48.282  26.867  31.679  1.00  0.00     0.054 A 
BRANCH  42  43
ATOM     43  S   UNL A   1      49.903  26.174  32.102  1.00  0.00     0.124 S 
ATOM     44  O   UNL A   1      50.094  25.191  31.040  1.00  0.00    -0.237 OA
ATOM     45  O   UNL A   1      50.778  27.342  32.042  1.00  0.00    -0.237 OA
ATOM     46  O   UNL A   1      49.702  25.618  33.439  1.00  0.00    -0.744 OA
ENDBRANCH  42  43
ENDBRANCH  23  37
BRANCH  24  47
ATOM     47  C   UNL A   1      37.094  32.839  29.613  1.00  0.00    -0.014 A 
ATOM     48  C   UNL A   1      36.763  33.443  28.387  1.00  0.00     0.010 A 
ATOM     49  C   UNL A   1      36.160  32.894  30.666  1.00  0.00     0.010 A 
ATOM     50  C   UNL A   1      35.537  34.101  28.222  1.00  0.00     0.020 A 
ATOM     51  C   UNL A   1      34.924  33.530  30.499  1.00  0.00     0.020 A 
ATOM     52  C   UNL A   1      34.623  34.138  29.279  1.00  0.00     0.054 A 
BRANCH  52  53
ATOM     53  S   UNL A   1      33.020  34.950  29.023  1.00  0.00     0.124 S 
ATOM     54  O   UNL A   1      32.437  34.903  30.361  1.00  0.00    -0.237 OA
ATOM     55  O   UNL A   1      33.412  36.276  28.550  1.00  0.00    -0.237 OA
ATOM     56  O   UNL A   1      32.365  34.108  28.024  1.00  0.00    -0.744 OA
ENDBRANCH  52  53
ENDBRANCH  24  47
BRANCH  36  57
ATOM     57  C   UNL A   1      43.202  34.647  32.523  1.00  0.00    -0.014 A 
ATOM     58  C   UNL A   1      43.819  35.639  31.742  1.00  0.00     0.010 A 
ATOM     59  C   UNL A   1      42.910  34.910  33.874  1.00  0.00     0.010 A 
ATOM     60  C   UNL A   1      44.126  36.880  32.304  1.00  0.00     0.020 A 
ATOM     61  C   UNL A   1      43.193  36.158  34.430  1.00  0.00     0.020 A 
ATOM     62  C   UNL A   1      43.800  37.135  33.640  1.00  0.00     0.054 A 
BRANCH  62  63
ATOM     63  S   UNL A   1      44.099  38.795  34.308  1.00  0.00     0.124 S 
ATOM     64  O   UNL A   1      45.378  39.142  33.696  1.00  0.00    -0.237 OA
ATOM     65  O   UNL A   1      42.944  39.547  33.824  1.00  0.00    -0.237 OA
ATOM     66  O   UNL A   1      44.136  38.584  35.754  1.00  0.00    -0.744 OA
ENDBRANCH  62  63
ENDBRANCH  36  57
ENDBRANCH  10  11
ENDBRANCH   3   5
ENDBRANCH   2   3
ENDBRANCH   1   2
BRANCH   1  67
ATOM     67  C   UNL A   1      35.603  23.111  24.306  1.00  0.00     0.274 C 
BRANCH  67  68
ATOM     68  O   UNL A   1      35.002  24.103  23.450  1.00  0.00    -0.462 OA
BRANCH  68  69
ATOM     69  C   UNL A   1      33.663  23.911  23.213  1.00  0.00     0.310 C 
ATOM     70  O   UNL A   1      33.221  23.588  22.126  1.00  0.00    -0.252 OA
BRANCH  69  71
ATOM     71  C   UNL A   1      32.830  24.172  24.477  1.00  0.00     0.119 C 
ATOM     72  C   UNL A   1      31.383  23.744  24.310  1.00  0.00     0.019 C 
ATOM     73  C   UNL A   1      32.823  25.648  24.886  1.00  0.00     0.136 C 
ATOM     74  C   UNL A   1      30.668  24.584  23.267  1.00  0.00     0.023 C 
ATOM     75  N   UNL A   1      32.183  26.490  23.867  1.00  0.00    -0.324 N 
ATOM     76  C   UNL A   1      30.821  26.077  23.510  1.00  0.00     0.121 C 
BRANCH  75  77
ATOM     77  C   UNL A   1      32.989  27.439  23.273  1.00  0.00     0.321 C 
ATOM     78  O   UNL A   1      33.512  27.248  22.168  1.00  0.00    -0.248 OA
ATOM     79  N   UNL A   1      33.117  28.694  23.764  1.00  0.00    -0.308 N 
ATOM     80  H   UNL A   1      33.285  29.363  23.063  1.00  0.00     0.171 HD
BRANCH  79  81
ATOM     81  C   UNL A   1      33.060  29.251  25.040  1.00  0.00     0.042 A 
ATOM     82  C   UNL A   1      34.129  28.985  25.899  1.00  0.00     0.026 A 
ATOM     83  C   UNL A   1      32.003  30.056  25.469  1.00  0.00     0.026 A 
ATOM     84  C   UNL A   1      34.207  29.631  27.132  1.00  0.00     0.002 A 
ATOM     85  C   UNL A   1      32.083  30.703  26.704  1.00  0.00     0.002 A 
ATOM     86  C   UNL A   1      33.195  30.506  27.524  1.00  0.00     0.000 A 
ENDBRANCH  79  81
ENDBRANCH  75  77
ENDBRANCH  69  71
ENDBRANCH  68  69
ENDBRANCH  67  68
ENDBRANCH   1  67
TORSDOF 16
ENDMDL
