MODEL 1
REMARK VINA RESULT:     -13.7      0.000      0.000
REMARK SMILES Cc1cc(C(=O)OCCOC(=O)c2ccc(-c3c4nc(c(-c5ccc(S(=O)(=O)[O-])cc5)c5ccc([nH]5)c(-c5ccc(S(=O)(=O)[O-])cc5)c5nc(c(-c6ccc(S(=O)(=O)[O-])cc6)c6ccc3[nH]6)C=C5)C=C4)cc2)ccc1NC(=O)N1C[C@@H](C)[C@H](C)C1
REMARK SMILES IDX 9 1 8 2 7 3 5 4 6 5 4 6 1 7 2 8 3 9 75 10 74 11 73 12 76 13
REMARK SMILES IDX 77 14 78 16 79 17 80 18 85 19 81 20 83 21 82 22 84 23 10 24
REMARK SMILES IDX 11 25 12 26 13 27 14 28 72 29 15 30 71 31 16 32 17 33 18 34
REMARK SMILES IDX 65 35 19 36 70 37 64 38 66 39 20 40 69 41 63 42 62 43 21 45
REMARK SMILES IDX 51 46 32 47 50 48 33 49 36 50 49 51 67 52 34 53 35 54 48 56
REMARK SMILES IDX 68 57 37 58 22 59 23 60 31 61 24 62 30 63 25 64 26 65 27 66
REMARK SMILES IDX 28 67 29 68 52 69 53 70 61 71 54 72 60 73 55 74 56 75 57 76
REMARK SMILES IDX 58 77 59 78 38 79 39 80 47 81 40 82 46 83 41 84 42 85 43 86
REMARK SMILES IDX 44 87 45 88
REMARK H PARENT 76 15 66 44 36 55
REMARK Flexibility Score: inf
ROOT
ATOM      1  C   UNL A   1      34.357  31.584  27.667  1.00  0.00     0.275 C 
ENDROOT
BRANCH   1   2
ATOM      2  C   UNL A   1      33.119  30.752  27.292  1.00  0.00     0.275 C 
BRANCH   2   3
ATOM      3  O   UNL A   1      33.410  29.345  27.360  1.00  0.00    -0.458 OA
BRANCH   3   4
ATOM      4  C   UNL A   1      32.419  28.539  26.932  1.00  0.00     0.338 C 
ATOM      5  O   UNL A   1      31.745  27.768  27.617  1.00  0.00    -0.246 OA
BRANCH   4   6
ATOM      6  C   UNL A   1      32.345  28.519  25.470  1.00  0.00     0.060 A 
ATOM      7  C   UNL A   1      29.680  28.306  22.774  1.00  0.00     0.046 C 
ATOM      8  C   UNL A   1      31.026  28.195  23.435  1.00  0.00    -0.027 A 
ATOM      9  C   UNL A   1      31.127  28.595  24.781  1.00  0.00     0.021 A 
ATOM     10  C   UNL A   1      32.159  27.622  22.845  1.00  0.00     0.045 A 
ATOM     11  C   UNL A   1      33.406  27.722  23.493  1.00  0.00     0.027 A 
ATOM     12  C   UNL A   1      33.505  28.155  24.805  1.00  0.00     0.018 A 
BRANCH  10  13
ATOM     13  N   UNL A   1      32.071  26.885  21.644  1.00  0.00    -0.308 N 
ATOM     14  C   UNL A   1      32.636  25.652  21.422  1.00  0.00     0.321 C 
ATOM     15  H   UNL A   1      31.562  27.288  20.904  1.00  0.00     0.171 HD
ATOM     16  O   UNL A   1      33.095  25.365  20.318  1.00  0.00    -0.248 OA
ATOM     17  N   UNL A   1      32.666  24.780  22.487  1.00  0.00    -0.324 N 
ATOM     18  C   UNL A   1      33.754  23.852  22.695  1.00  0.00     0.125 C 
ATOM     19  C   UNL A   1      31.534  24.492  23.362  1.00  0.00     0.125 C 
ATOM     20  C   UNL A   1      33.285  22.895  23.793  1.00  0.00     0.010 C 
ATOM     21  C   UNL A   1      32.120  23.636  24.481  1.00  0.00     0.010 C 
ATOM     22  C   UNL A   1      34.398  22.538  24.771  1.00  0.00     0.010 C 
ATOM     23  C   UNL A   1      31.100  22.682  25.092  1.00  0.00     0.010 C 
ENDBRANCH  10  13
ENDBRANCH   4   6
ENDBRANCH   3   4
ENDBRANCH   2   3
ENDBRANCH   1   2
BRANCH   1  24
ATOM     24  O   UNL A   1      35.617  30.878  27.680  1.00  0.00    -0.458 OA
BRANCH  24  25
ATOM     25  C   UNL A   1      36.180  30.687  28.896  1.00  0.00     0.338 C 
ATOM     26  O   UNL A   1      35.651  31.032  29.959  1.00  0.00    -0.246 OA
BRANCH  25  27
ATOM     27  C   UNL A   1      37.291  29.713  28.739  1.00  0.00     0.060 A 
ATOM     28  C   UNL A   1      38.196  29.858  27.681  1.00  0.00     0.016 A 
ATOM     29  C   UNL A   1      37.606  28.872  29.814  1.00  0.00     0.016 A 
ATOM     30  C   UNL A   1      39.474  29.297  27.773  1.00  0.00     0.010 A 
ATOM     31  C   UNL A   1      38.881  28.362  29.932  1.00  0.00     0.010 A 
ATOM     32  C   UNL A   1      39.829  28.590  28.926  1.00  0.00    -0.014 A 
BRANCH  32  33
ATOM     33  C   UNL A   1      41.039  27.781  29.044  1.00  0.00     0.031 A 
ATOM     34  C   UNL A   1      41.180  26.381  28.583  1.00  0.00     0.074 A 
ATOM     35  C   UNL A   1      42.078  28.461  29.576  1.00  0.00     0.049 A 
ATOM     36  N   UNL A   1      42.096  25.575  29.013  1.00  0.00    -0.248 NA
ATOM     37  C   UNL A   1      40.289  25.752  27.613  1.00  0.00     0.031 C 
ATOM     38  C   UNL A   1      43.479  28.092  29.656  1.00  0.00     0.029 A 
ATOM     39  N   UNL A   1      41.970  29.591  30.398  1.00  0.00    -0.354 N 
ATOM     40  C   UNL A   1      42.086  24.446  28.216  1.00  0.00     0.074 A 
ATOM     41  C   UNL A   1      40.891  24.571  27.414  1.00  0.00     0.031 C 
ATOM     42  C   UNL A   1      44.018  28.747  30.702  1.00  0.00     0.029 A 
ATOM     43  C   UNL A   1      42.922  29.419  31.396  1.00  0.00     0.049 A 
ATOM     44  H   UNL A   1      41.350  30.349  30.290  1.00  0.00     0.167 HD
ATOM     45  C   UNL A   1      43.164  23.605  28.223  1.00  0.00     0.031 A 
ATOM     46  C   UNL A   1      42.574  29.238  32.703  1.00  0.00     0.031 A 
ATOM     47  C   UNL A   1      44.144  24.018  29.223  1.00  0.00     0.049 A 
ATOM     48  C   UNL A   1      43.154  27.955  33.234  1.00  0.00     0.074 A 
ATOM     49  C   UNL A   1      45.292  24.785  29.134  1.00  0.00     0.029 A 
ATOM     50  N   UNL A   1      43.834  23.914  30.575  1.00  0.00    -0.354 N 
ATOM     51  N   UNL A   1      43.360  26.889  32.510  1.00  0.00    -0.248 NA
ATOM     52  C   UNL A   1      43.571  27.796  34.622  1.00  0.00     0.031 C 
ATOM     53  C   UNL A   1      45.601  25.251  30.437  1.00  0.00     0.029 A 
ATOM     54  C   UNL A   1      44.671  24.723  31.317  1.00  0.00     0.049 A 
ATOM     55  H   UNL A   1      43.123  23.344  30.947  1.00  0.00     0.167 HD
ATOM     56  C   UNL A   1      44.029  25.967  33.268  1.00  0.00     0.074 A 
ATOM     57  C   UNL A   1      44.100  26.561  34.594  1.00  0.00     0.031 C 
ATOM     58  C   UNL A   1      44.538  24.809  32.760  1.00  0.00     0.031 A 
BRANCH  45  59
ATOM     59  C   UNL A   1      43.484  22.600  27.129  1.00  0.00    -0.014 A 
ATOM     60  C   UNL A   1      42.663  21.457  26.979  1.00  0.00     0.010 A 
ATOM     61  C   UNL A   1      44.593  22.675  26.267  1.00  0.00     0.010 A 
ATOM     62  C   UNL A   1      42.989  20.402  26.112  1.00  0.00     0.020 A 
ATOM     63  C   UNL A   1      44.946  21.615  25.408  1.00  0.00     0.020 A 
ATOM     64  C   UNL A   1      44.153  20.472  25.355  1.00  0.00     0.054 A 
BRANCH  64  65
ATOM     65  S   UNL A   1      44.622  19.050  24.328  1.00  0.00     0.124 S 
ATOM     66  O   UNL A   1      43.643  18.040  24.724  1.00  0.00    -0.237 OA
ATOM     67  O   UNL A   1      44.473  19.572  22.973  1.00  0.00    -0.237 OA
ATOM     68  O   UNL A   1      45.996  18.766  24.736  1.00  0.00    -0.744 OA
ENDBRANCH  64  65
ENDBRANCH  45  59
BRANCH  46  69
ATOM     69  C   UNL A   1      41.260  29.807  33.140  1.00  0.00    -0.014 A 
ATOM     70  C   UNL A   1      41.119  31.212  33.208  1.00  0.00     0.010 A 
ATOM     71  C   UNL A   1      40.100  29.019  33.229  1.00  0.00     0.010 A 
ATOM     72  C   UNL A   1      39.857  31.814  33.260  1.00  0.00     0.020 A 
ATOM     73  C   UNL A   1      38.831  29.619  33.302  1.00  0.00     0.020 A 
ATOM     74  C   UNL A   1      38.717  31.012  33.286  1.00  0.00     0.054 A 
BRANCH  74  75
ATOM     75  S   UNL A   1      37.091  31.808  33.108  1.00  0.00     0.124 S 
ATOM     76  O   UNL A   1      36.846  32.310  34.457  1.00  0.00    -0.237 OA
ATOM     77  O   UNL A   1      37.354  32.823  32.092  1.00  0.00    -0.237 OA
ATOM     78  O   UNL A   1      36.231  30.708  32.676  1.00  0.00    -0.744 OA
ENDBRANCH  74  75
ENDBRANCH  46  69
BRANCH  58  79
ATOM     79  C   UNL A   1      45.104  23.699  33.599  1.00  0.00    -0.014 A 
ATOM     80  C   UNL A   1      46.390  23.748  34.161  1.00  0.00     0.010 A 
ATOM     81  C   UNL A   1      44.272  22.618  33.966  1.00  0.00     0.010 A 
ATOM     82  C   UNL A   1      46.855  22.722  34.990  1.00  0.00     0.020 A 
ATOM     83  C   UNL A   1      44.712  21.611  34.827  1.00  0.00     0.020 A 
ATOM     84  C   UNL A   1      46.014  21.658  35.313  1.00  0.00     0.054 A 
BRANCH  84  85
ATOM     85  S   UNL A   1      46.593  20.366  36.440  1.00  0.00     0.124 S 
ATOM     86  O   UNL A   1      45.756  19.233  36.052  1.00  0.00    -0.237 OA
ATOM     87  O   UNL A   1      48.009  20.242  36.104  1.00  0.00    -0.237 OA
ATOM     88  O   UNL A   1      46.321  20.926  37.762  1.00  0.00    -0.744 OA
ENDBRANCH  84  85
ENDBRANCH  58  79
ENDBRANCH  32  33
ENDBRANCH  25  27
ENDBRANCH  24  25
ENDBRANCH   1  24
TORSDOF 15
ENDMDL
MODEL 2
REMARK VINA RESULT:     -13.4      4.864     11.539
REMARK SMILES Cc1cc(C(=O)OCCOC(=O)c2ccc(-c3c4nc(c(-c5ccc(S(=O)(=O)[O-])cc5)c5ccc([nH]5)c(-c5ccc(S(=O)(=O)[O-])cc5)c5nc(c(-c6ccc(S(=O)(=O)[O-])cc6)c6ccc3[nH]6)C=C5)C=C4)cc2)ccc1NC(=O)N1C[C@@H](C)[C@H](C)C1
REMARK SMILES IDX 9 1 8 2 7 3 5 4 6 5 4 6 1 7 2 8 3 9 75 10 74 11 73 12 76 13
REMARK SMILES IDX 77 14 78 16 79 17 80 18 85 19 81 20 83 21 82 22 84 23 10 24
REMARK SMILES IDX 11 25 12 26 13 27 14 28 72 29 15 30 71 31 16 32 17 33 18 34
REMARK SMILES IDX 65 35 19 36 70 37 64 38 66 39 20 40 69 41 63 42 62 43 21 45
REMARK SMILES IDX 51 46 32 47 50 48 33 49 36 50 49 51 67 52 34 53 35 54 48 56
REMARK SMILES IDX 68 57 37 58 22 59 23 60 31 61 24 62 30 63 25 64 26 65 27 66
REMARK SMILES IDX 28 67 29 68 52 69 53 70 61 71 54 72 60 73 55 74 56 75 57 76
REMARK SMILES IDX 58 77 59 78 38 79 39 80 47 81 40 82 46 83 41 84 42 85 43 86
REMARK SMILES IDX 44 87 45 88
REMARK H PARENT 76 15 66 44 36 55
REMARK Flexibility Score: inf
ROOT
ATOM      1  C   UNL A   1      39.332  22.187  26.318  1.00  0.00     0.275 C 
ENDROOT
BRANCH   1   2
ATOM      2  C   UNL A   1      38.177  21.871  25.352  1.00  0.00     0.275 C 
BRANCH   2   3
ATOM      3  O   UNL A   1      37.492  23.075  24.965  1.00  0.00    -0.458 OA
BRANCH   3   4
ATOM      4  C   UNL A   1      36.413  22.886  24.180  1.00  0.00     0.338 C 
ATOM      5  O   UNL A   1      36.284  23.235  23.005  1.00  0.00    -0.246 OA
BRANCH   4   6
ATOM      6  C   UNL A   1      35.277  22.377  24.950  1.00  0.00     0.060 A 
ATOM      7  C   UNL A   1      32.337  20.031  24.440  1.00  0.00     0.046 C 
ATOM      8  C   UNL A   1      33.166  21.144  25.018  1.00  0.00    -0.027 A 
ATOM      9  C   UNL A   1      34.445  21.357  24.470  1.00  0.00     0.021 A 
ATOM     10  C   UNL A   1      32.717  22.053  25.984  1.00  0.00     0.045 A 
ATOM     11  C   UNL A   1      33.631  22.948  26.572  1.00  0.00     0.027 A 
ATOM     12  C   UNL A   1      34.903  23.126  26.055  1.00  0.00     0.018 A 
BRANCH  10  13
ATOM     13  N   UNL A   1      31.352  22.139  26.337  1.00  0.00    -0.308 N 
ATOM     14  C   UNL A   1      30.650  23.306  26.524  1.00  0.00     0.321 C 
ATOM     15  H   UNL A   1      30.864  21.293  26.459  1.00  0.00     0.171 HD
ATOM     16  O   UNL A   1      29.781  23.379  27.391  1.00  0.00    -0.248 OA
ATOM     17  N   UNL A   1      30.974  24.365  25.706  1.00  0.00    -0.324 N 
ATOM     18  C   UNL A   1      30.932  25.735  26.165  1.00  0.00     0.125 C 
ATOM     19  C   UNL A   1      31.137  24.284  24.258  1.00  0.00     0.125 C 
ATOM     20  C   UNL A   1      31.082  26.602  24.913  1.00  0.00     0.010 C 
ATOM     21  C   UNL A   1      31.680  25.652  23.854  1.00  0.00     0.010 C 
ATOM     22  C   UNL A   1      31.961  27.824  25.151  1.00  0.00     0.010 C 
ATOM     23  C   UNL A   1      31.293  26.045  22.434  1.00  0.00     0.010 C 
ENDBRANCH  10  13
ENDBRANCH   4   6
ENDBRANCH   3   4
ENDBRANCH   2   3
ENDBRANCH   1   2
BRANCH   1  24
ATOM     24  O   UNL A   1      39.250  23.449  27.016  1.00  0.00    -0.458 OA
BRANCH  24  25
ATOM     25  C   UNL A   1      40.325  24.262  26.905  1.00  0.00     0.338 C 
ATOM     26  O   UNL A   1      41.289  24.029  26.164  1.00  0.00    -0.246 OA
BRANCH  25  27
ATOM     27  C   UNL A   1      39.973  25.574  27.507  1.00  0.00     0.060 A 
ATOM     28  C   UNL A   1      39.553  25.634  28.840  1.00  0.00     0.016 A 
ATOM     29  C   UNL A   1      40.369  26.745  26.847  1.00  0.00     0.016 A 
ATOM     30  C   UNL A   1      39.683  26.826  29.561  1.00  0.00     0.010 A 
ATOM     31  C   UNL A   1      40.547  27.907  27.567  1.00  0.00     0.010 A 
ATOM     32  C   UNL A   1      40.228  27.950  28.931  1.00  0.00    -0.014 A 
BRANCH  32  33
ATOM     33  C   UNL A   1      40.209  29.293  29.503  1.00  0.00     0.031 A 
ATOM     34  C   UNL A   1      39.076  30.242  29.420  1.00  0.00     0.074 A 
ATOM     35  C   UNL A   1      41.332  29.588  30.193  1.00  0.00     0.049 A 
ATOM     36  N   UNL A   1      39.196  31.518  29.593  1.00  0.00    -0.248 NA
ATOM     37  C   UNL A   1      37.705  29.844  29.110  1.00  0.00     0.031 C 
ATOM     38  C   UNL A   1      41.608  30.708  31.074  1.00  0.00     0.029 A 
ATOM     39  N   UNL A   1      42.581  28.981  30.005  1.00  0.00    -0.354 N 
ATOM     40  C   UNL A   1      37.930  32.064  29.680  1.00  0.00     0.074 A 
ATOM     41  C   UNL A   1      37.040  30.994  29.291  1.00  0.00     0.031 C 
ATOM     42  C   UNL A   1      42.939  30.906  31.084  1.00  0.00     0.029 A 
ATOM     43  C   UNL A   1      43.512  30.011  30.082  1.00  0.00     0.049 A 
ATOM     44  H   UNL A   1      42.762  28.025  29.850  1.00  0.00     0.167 HD
ATOM     45  C   UNL A   1      37.768  33.315  30.207  1.00  0.00     0.031 A 
ATOM     46  C   UNL A   1      44.261  30.390  29.006  1.00  0.00     0.031 A 
ATOM     47  C   UNL A   1      39.059  33.933  30.494  1.00  0.00     0.049 A 
ATOM     48  C   UNL A   1      44.067  31.854  28.714  1.00  0.00     0.074 A 
ATOM     49  C   UNL A   1      39.809  34.014  31.654  1.00  0.00     0.029 A 
ATOM     50  N   UNL A   1      39.898  34.294  29.446  1.00  0.00    -0.354 N 
ATOM     51  N   UNL A   1      42.958  32.504  28.940  1.00  0.00    -0.248 NA
ATOM     52  C   UNL A   1      45.126  32.694  28.170  1.00  0.00     0.031 C 
ATOM     53  C   UNL A   1      41.147  34.304  31.282  1.00  0.00     0.029 A 
ATOM     54  C   UNL A   1      41.191  34.448  29.905  1.00  0.00     0.049 A 
ATOM     55  H   UNL A   1      39.611  34.423  28.513  1.00  0.00     0.167 HD
ATOM     56  C   UNL A   1      43.176  33.835  28.701  1.00  0.00     0.074 A 
ATOM     57  C   UNL A   1      44.531  33.899  28.179  1.00  0.00     0.031 C 
ATOM     58  C   UNL A   1      42.267  34.806  28.998  1.00  0.00     0.031 A 
BRANCH  45  59
ATOM     59  C   UNL A   1      36.459  33.860  30.752  1.00  0.00    -0.014 A 
ATOM     60  C   UNL A   1      35.388  34.106  29.861  1.00  0.00     0.010 A 
ATOM     61  C   UNL A   1      36.231  34.213  32.095  1.00  0.00     0.010 A 
ATOM     62  C   UNL A   1      34.214  34.767  30.255  1.00  0.00     0.020 A 
ATOM     63  C   UNL A   1      35.068  34.897  32.502  1.00  0.00     0.020 A 
ATOM     64  C   UNL A   1      34.076  35.192  31.572  1.00  0.00     0.054 A 
BRANCH  64  65
ATOM     65  S   UNL A   1      32.605  36.148  32.038  1.00  0.00     0.124 S 
ATOM     66  O   UNL A   1      32.220  36.770  30.774  1.00  0.00    -0.237 OA
ATOM     67  O   UNL A   1      31.697  35.116  32.533  1.00  0.00    -0.237 OA
ATOM     68  O   UNL A   1      33.101  37.075  33.054  1.00  0.00    -0.744 OA
ENDBRANCH  64  65
ENDBRANCH  45  59
BRANCH  46  69
ATOM     69  C   UNL A   1      44.514  29.353  27.956  1.00  0.00    -0.014 A 
ATOM     70  C   UNL A   1      45.471  28.346  28.216  1.00  0.00     0.010 A 
ATOM     71  C   UNL A   1      43.663  29.189  26.850  1.00  0.00     0.010 A 
ATOM     72  C   UNL A   1      45.511  27.169  27.460  1.00  0.00     0.020 A 
ATOM     73  C   UNL A   1      43.712  28.018  26.076  1.00  0.00     0.020 A 
ATOM     74  C   UNL A   1      44.615  27.003  26.405  1.00  0.00     0.054 A 
BRANCH  74  75
ATOM     75  S   UNL A   1      44.519  25.377  25.595  1.00  0.00     0.124 S 
ATOM     76  O   UNL A   1      45.777  25.327  24.857  1.00  0.00    -0.237 OA
ATOM     77  O   UNL A   1      44.417  24.470  26.735  1.00  0.00    -0.237 OA
ATOM     78  O   UNL A   1      43.310  25.486  24.780  1.00  0.00    -0.744 OA
ENDBRANCH  74  75
ENDBRANCH  46  69
BRANCH  58  79
ATOM     79  C   UNL A   1      42.399  36.240  28.574  1.00  0.00    -0.014 A 
ATOM     80  C   UNL A   1      43.051  37.210  29.353  1.00  0.00     0.010 A 
ATOM     81  C   UNL A   1      41.981  36.619  27.278  1.00  0.00     0.010 A 
ATOM     82  C   UNL A   1      43.209  38.520  28.893  1.00  0.00     0.020 A 
ATOM     83  C   UNL A   1      42.173  37.913  26.792  1.00  0.00     0.020 A 
ATOM     84  C   UNL A   1      42.765  38.865  27.617  1.00  0.00     0.054 A 
BRANCH  84  85
ATOM     85  S   UNL A   1      43.031  40.543  26.995  1.00  0.00     0.124 S 
ATOM     86  O   UNL A   1      43.735  41.168  28.112  1.00  0.00    -0.237 OA
ATOM     87  O   UNL A   1      43.834  40.328  25.793  1.00  0.00    -0.237 OA
ATOM     88  O   UNL A   1      41.676  41.031  26.752  1.00  0.00    -0.744 OA
ENDBRANCH  84  85
ENDBRANCH  58  79
ENDBRANCH  32  33
ENDBRANCH  25  27
ENDBRANCH  24  25
ENDBRANCH   1  24
TORSDOF 15
ENDMDL
MODEL 3
REMARK VINA RESULT:     -12.2      2.034      2.495
REMARK SMILES Cc1cc(C(=O)OCCOC(=O)c2ccc(-c3c4nc(c(-c5ccc(S(=O)(=O)[O-])cc5)c5ccc([nH]5)c(-c5ccc(S(=O)(=O)[O-])cc5)c5nc(c(-c6ccc(S(=O)(=O)[O-])cc6)c6ccc3[nH]6)C=C5)C=C4)cc2)ccc1NC(=O)N1C[C@@H](C)[C@H](C)C1
REMARK SMILES IDX 9 1 8 2 7 3 5 4 6 5 4 6 1 7 2 8 3 9 75 10 74 11 73 12 76 13
REMARK SMILES IDX 77 14 78 16 79 17 80 18 85 19 81 20 83 21 82 22 84 23 10 24
REMARK SMILES IDX 11 25 12 26 13 27 14 28 72 29 15 30 71 31 16 32 17 33 18 34
REMARK SMILES IDX 65 35 19 36 70 37 64 38 66 39 20 40 69 41 63 42 62 43 21 45
REMARK SMILES IDX 51 46 32 47 50 48 33 49 36 50 49 51 67 52 34 53 35 54 48 56
REMARK SMILES IDX 68 57 37 58 22 59 23 60 31 61 24 62 30 63 25 64 26 65 27 66
REMARK SMILES IDX 28 67 29 68 52 69 53 70 61 71 54 72 60 73 55 74 56 75 57 76
REMARK SMILES IDX 58 77 59 78 38 79 39 80 47 81 40 82 46 83 41 84 42 85 43 86
REMARK SMILES IDX 44 87 45 88
REMARK H PARENT 76 15 66 44 36 55
REMARK Flexibility Score: inf
ROOT
ATOM      1  C   UNL A   1      35.023  31.426  28.415  1.00  0.00     0.275 C 
ENDROOT
BRANCH   1   2
ATOM      2  C   UNL A   1      33.687  31.455  27.653  1.00  0.00     0.275 C 
BRANCH   2   3
ATOM      3  O   UNL A   1      33.663  30.450  26.625  1.00  0.00    -0.458 OA
BRANCH   3   4
ATOM      4  C   UNL A   1      32.483  29.817  26.477  1.00  0.00     0.338 C 
ATOM      5  O   UNL A   1      31.735  29.427  27.376  1.00  0.00    -0.246 OA
BRANCH   4   6
ATOM      6  C   UNL A   1      32.253  29.441  25.081  1.00  0.00     0.060 A 
ATOM      7  C   UNL A   1      29.450  28.002  22.963  1.00  0.00     0.046 C 
ATOM      8  C   UNL A   1      30.844  28.360  23.399  1.00  0.00    -0.027 A 
ATOM      9  C   UNL A   1      30.988  29.074  24.604  1.00  0.00     0.021 A 
ATOM     10  C   UNL A   1      32.013  27.941  22.753  1.00  0.00     0.045 A 
ATOM     11  C   UNL A   1      33.255  28.472  23.151  1.00  0.00     0.027 A 
ATOM     12  C   UNL A   1      33.386  29.208  24.317  1.00  0.00     0.018 A 
BRANCH  10  13
ATOM     13  N   UNL A   1      31.985  26.944  21.752  1.00  0.00    -0.308 N 
ATOM     14  C   UNL A   1      32.754  25.805  21.740  1.00  0.00     0.321 C 
ATOM     15  H   UNL A   1      31.363  27.078  21.001  1.00  0.00     0.171 HD
ATOM     16  O   UNL A   1      33.185  25.354  20.681  1.00  0.00    -0.248 OA
ATOM     17  N   UNL A   1      33.013  25.217  22.958  1.00  0.00    -0.324 N 
ATOM     18  C   UNL A   1      34.266  24.556  23.244  1.00  0.00     0.125 C 
ATOM     19  C   UNL A   1      32.014  24.952  23.988  1.00  0.00     0.125 C 
ATOM     20  C   UNL A   1      34.055  23.810  24.564  1.00  0.00     0.010 C 
ATOM     21  C   UNL A   1      32.821  24.485  25.196  1.00  0.00     0.010 C 
ATOM     22  C   UNL A   1      35.276  23.876  25.474  1.00  0.00     0.010 C 
ATOM     23  C   UNL A   1      32.037  23.539  26.099  1.00  0.00     0.010 C 
ENDBRANCH  10  13
ENDBRANCH   4   6
ENDBRANCH   3   4
ENDBRANCH   2   3
ENDBRANCH   1   2
BRANCH   1  24
ATOM     24  O   UNL A   1      35.640  30.129  28.565  1.00  0.00    -0.458 OA
BRANCH  24  25
ATOM     25  C   UNL A   1      36.439  29.970  29.645  1.00  0.00     0.338 C 
ATOM     26  O   UNL A   1      36.067  30.168  30.809  1.00  0.00    -0.246 OA
BRANCH  25  27
ATOM     27  C   UNL A   1      37.638  29.202  29.221  1.00  0.00     0.060 A 
ATOM     28  C   UNL A   1      38.165  29.392  27.939  1.00  0.00     0.016 A 
ATOM     29  C   UNL A   1      38.402  28.553  30.200  1.00  0.00     0.016 A 
ATOM     30  C   UNL A   1      39.506  29.085  27.682  1.00  0.00     0.010 A 
ATOM     31  C   UNL A   1      39.737  28.298  29.966  1.00  0.00     0.010 A 
ATOM     32  C   UNL A   1      40.303  28.583  28.716  1.00  0.00    -0.014 A 
BRANCH  32  33
ATOM     33  C   UNL A   1      41.637  28.024  28.517  1.00  0.00     0.031 A 
ATOM     34  C   UNL A   1      41.936  26.598  28.255  1.00  0.00     0.074 A 
ATOM     35  C   UNL A   1      42.609  28.962  28.534  1.00  0.00     0.049 A 
ATOM     36  N   UNL A   1      43.098  26.063  28.448  1.00  0.00    -0.248 NA
ATOM     37  C   UNL A   1      40.948  25.636  27.775  1.00  0.00     0.031 C 
ATOM     38  C   UNL A   1      44.008  28.848  28.165  1.00  0.00     0.029 A 
ATOM     39  N   UNL A   1      42.516  30.213  29.158  1.00  0.00    -0.354 N 
ATOM     40  C   UNL A   1      43.090  24.800  27.889  1.00  0.00     0.074 A 
ATOM     41  C   UNL A   1      41.706  24.552  27.557  1.00  0.00     0.031 C 
ATOM     42  C   UNL A   1      44.689  29.794  28.837  1.00  0.00     0.029 A 
ATOM     43  C   UNL A   1      43.750  30.420  29.765  1.00  0.00     0.049 A 
ATOM     44  H   UNL A   1      41.740  30.820  29.164  1.00  0.00     0.167 HD
ATOM     45  C   UNL A   1      44.274  24.164  27.640  1.00  0.00     0.031 A 
ATOM     46  C   UNL A   1      43.886  30.479  31.122  1.00  0.00     0.031 A 
ATOM     47  C   UNL A   1      45.402  24.938  28.150  1.00  0.00     0.049 A 
ATOM     48  C   UNL A   1      44.879  29.454  31.600  1.00  0.00     0.074 A 
ATOM     49  C   UNL A   1      46.257  25.840  27.541  1.00  0.00     0.029 A 
ATOM     50  N   UNL A   1      45.570  25.087  29.522  1.00  0.00    -0.354 N 
ATOM     51  N   UNL A   1      45.078  28.302  31.021  1.00  0.00    -0.248 NA
ATOM     52  C   UNL A   1      45.741  29.674  32.756  1.00  0.00     0.031 C 
ATOM     53  C   UNL A   1      46.852  26.625  28.562  1.00  0.00     0.029 A 
ATOM     54  C   UNL A   1      46.394  26.163  29.785  1.00  0.00     0.049 A 
ATOM     55  H   UNL A   1      45.163  24.507  30.206  1.00  0.00     0.167 HD
ATOM     56  C   UNL A   1      46.144  27.688  31.623  1.00  0.00     0.074 A 
ATOM     57  C   UNL A   1      46.497  28.563  32.729  1.00  0.00     0.031 C 
ATOM     58  C   UNL A   1      46.713  26.543  31.149  1.00  0.00     0.031 A 
BRANCH  45  59
ATOM     59  C   UNL A   1      44.447  23.007  26.670  1.00  0.00    -0.014 A 
ATOM     60  C   UNL A   1      43.350  22.152  26.412  1.00  0.00     0.010 A 
ATOM     61  C   UNL A   1      45.654  22.662  26.035  1.00  0.00     0.010 A 
ATOM     62  C   UNL A   1      43.474  20.967  25.669  1.00  0.00     0.020 A 
ATOM     63  C   UNL A   1      45.801  21.466  25.305  1.00  0.00     0.020 A 
ATOM     64  C   UNL A   1      44.713  20.612  25.147  1.00  0.00     0.054 A 
BRANCH  64  65
ATOM     65  S   UNL A   1      44.884  19.021  24.290  1.00  0.00     0.124 S 
ATOM     66  O   UNL A   1      43.951  18.167  25.022  1.00  0.00    -0.237 OA
ATOM     67  O   UNL A   1      44.492  19.352  22.922  1.00  0.00    -0.237 OA
ATOM     68  O   UNL A   1      46.295  18.682  24.465  1.00  0.00    -0.744 OA
ENDBRANCH  64  65
ENDBRANCH  45  59
BRANCH  46  69
ATOM     69  C   UNL A   1      42.687  30.913  31.906  1.00  0.00    -0.014 A 
ATOM     70  C   UNL A   1      41.887  29.924  32.522  1.00  0.00     0.010 A 
ATOM     71  C   UNL A   1      42.478  32.254  32.267  1.00  0.00     0.010 A 
ATOM     72  C   UNL A   1      40.981  30.251  33.538  1.00  0.00     0.020 A 
ATOM     73  C   UNL A   1      41.555  32.590  33.272  1.00  0.00     0.020 A 
ATOM     74  C   UNL A   1      40.835  31.583  33.921  1.00  0.00     0.054 A 
BRANCH  74  75
ATOM     75  S   UNL A   1      39.841  31.957  35.398  1.00  0.00     0.124 S 
ATOM     76  O   UNL A   1      40.340  33.276  35.777  1.00  0.00    -0.237 OA
ATOM     77  O   UNL A   1      38.480  31.922  34.870  1.00  0.00    -0.237 OA
ATOM     78  O   UNL A   1      40.180  30.866  36.309  1.00  0.00    -0.744 OA
ENDBRANCH  74  75
ENDBRANCH  46  69
BRANCH  58  79
ATOM     79  C   UNL A   1      47.751  25.751  31.890  1.00  0.00    -0.014 A 
ATOM     80  C   UNL A   1      49.078  25.632  31.448  1.00  0.00     0.010 A 
ATOM     81  C   UNL A   1      47.435  25.214  33.158  1.00  0.00     0.010 A 
ATOM     82  C   UNL A   1      50.031  24.938  32.201  1.00  0.00     0.020 A 
ATOM     83  C   UNL A   1      48.390  24.557  33.937  1.00  0.00     0.020 A 
ATOM     84  C   UNL A   1      49.679  24.401  33.438  1.00  0.00     0.054 A 
BRANCH  84  85
ATOM     85  S   UNL A   1      50.929  23.563  34.442  1.00  0.00     0.124 S 
ATOM     86  O   UNL A   1      50.350  22.231  34.591  1.00  0.00    -0.237 OA
ATOM     87  O   UNL A   1      52.128  23.635  33.609  1.00  0.00    -0.237 OA
ATOM     88  O   UNL A   1      50.977  24.369  35.660  1.00  0.00    -0.744 OA
ENDBRANCH  84  85
ENDBRANCH  58  79
ENDBRANCH  32  33
ENDBRANCH  25  27
ENDBRANCH  24  25
ENDBRANCH   1  24
TORSDOF 15
ENDMDL
