MODEL 1
REMARK VINA RESULT:     -10.5      0.000      0.000
REMARK SMILES CCc1cc(C)c2c(c1)C=C(C(=O)OCCOC(=O)c1ccc(-c3c4nc(c(-c5ccc(S(=O)(=O)[O-])cc5)c5ccc([nH]5)c(-c5ccc(S(=O)(=O)[O-])cc5)c5nc(c(-c6ccc(S(=O)(=O)[O-])cc6)c6ccc3[nH]6)C=C5)C=C4)cc1)[C@@H](C(F)(F)F)O2
REMARK SMILES IDX 16 1 15 2 14 3 12 4 13 5 11 6 3 7 4 8 9 9 5 10 8 11 6 12
REMARK SMILES IDX 7 13 10 14 85 15 80 16 2 17 1 18 81 19 82 20 83 21 84 22
REMARK SMILES IDX 17 23 18 24 19 25 20 26 21 27 79 28 22 29 78 30 23 31 24 32
REMARK SMILES IDX 25 33 72 34 26 35 77 36 71 37 73 38 27 39 76 40 70 41 69 42
REMARK SMILES IDX 28 44 58 45 39 46 57 47 40 48 43 49 56 50 74 51 41 52 42 53
REMARK SMILES IDX 55 55 75 56 44 57 29 58 30 59 38 60 31 61 37 62 32 63 33 64
REMARK SMILES IDX 34 65 35 66 36 67 59 68 60 69 68 70 61 71 67 72 62 73 63 74
REMARK SMILES IDX 64 75 65 76 66 77 45 78 46 79 54 80 47 81 53 82 48 83 49 84
REMARK SMILES IDX 50 85 51 86 52 87
REMARK H PARENT 73 43 43 54
REMARK Flexibility Score: inf
ROOT
ATOM      1  C   UNL A   1      33.832  28.076  26.493  1.00  0.00     0.275 C 
ENDROOT
BRANCH   1   2
ATOM      2  C   UNL A   1      32.445  28.205  25.865  1.00  0.00     0.275 C 
BRANCH   2   3
ATOM      3  O   UNL A   1      32.029  26.961  25.263  1.00  0.00    -0.459 OA
BRANCH   3   4
ATOM      4  C   UNL A   1      32.740  26.560  24.180  1.00  0.00     0.338 C 
ATOM      5  O   UNL A   1      33.062  27.250  23.230  1.00  0.00    -0.246 OA
BRANCH   4   6
ATOM      6  C   UNL A   1      33.153  25.149  24.343  1.00  0.00     0.087 C 
ATOM      7  C   UNL A   1      36.714  21.990  25.119  1.00  0.00    -0.047 A 
ATOM      8  C   UNL A   1      35.784  20.942  25.095  1.00  0.00     0.011 A 
ATOM      9  C   UNL A   1      36.261  23.294  24.897  1.00  0.00     0.015 A 
ATOM     10  C   UNL A   1      34.417  21.190  24.878  1.00  0.00    -0.008 A 
ATOM     11  C   UNL A   1      34.905  23.551  24.670  1.00  0.00     0.018 A 
ATOM     12  C   UNL A   1      33.445  20.046  24.846  1.00  0.00     0.048 C 
ATOM     13  C   UNL A   1      33.978  22.510  24.697  1.00  0.00     0.130 A 
ATOM     14  C   UNL A   1      34.466  24.907  24.414  1.00  0.00     0.027 C 
ATOM     15  O   UNL A   1      32.632  22.710  24.557  1.00  0.00    -0.475 OA
ATOM     16  C   UNL A   1      32.117  24.063  24.395  1.00  0.00     0.316 C 
BRANCH   7  17
ATOM     17  C   UNL A   1      38.176  21.729  25.385  1.00  0.00     0.032 C 
ATOM     18  C   UNL A   1      38.793  22.766  26.313  1.00  0.00     0.009 C 
ENDBRANCH   7  17
BRANCH  16  19
ATOM     19  C   UNL A   1      31.245  24.071  23.127  1.00  0.00     0.430 C 
ATOM     20  F   UNL A   1      31.965  24.424  22.034  1.00  0.00    -0.167 F 
ATOM     21  F   UNL A   1      30.723  22.849  22.859  1.00  0.00    -0.167 F 
ATOM     22  F   UNL A   1      30.208  24.935  23.223  1.00  0.00    -0.167 F 
ENDBRANCH  16  19
ENDBRANCH   4   6
ENDBRANCH   3   4
ENDBRANCH   2   3
ENDBRANCH   1   2
BRANCH   1  23
ATOM     23  O   UNL A   1      33.849  28.690  27.794  1.00  0.00    -0.458 OA
BRANCH  23  24
ATOM     24  C   UNL A   1      34.353  29.944  27.833  1.00  0.00     0.338 C 
ATOM     25  O   UNL A   1      33.756  30.992  27.650  1.00  0.00    -0.246 OA
BRANCH  24  26
ATOM     26  C   UNL A   1      35.770  29.890  28.217  1.00  0.00     0.060 A 
ATOM     27  C   UNL A   1      36.726  30.196  27.252  1.00  0.00     0.016 A 
ATOM     28  C   UNL A   1      36.156  29.394  29.460  1.00  0.00     0.016 A 
ATOM     29  C   UNL A   1      38.066  29.904  27.477  1.00  0.00     0.010 A 
ATOM     30  C   UNL A   1      37.516  29.185  29.719  1.00  0.00     0.010 A 
ATOM     31  C   UNL A   1      38.478  29.393  28.714  1.00  0.00    -0.014 A 
BRANCH  31  32
ATOM     32  C   UNL A   1      39.901  29.024  28.933  1.00  0.00     0.031 A 
ATOM     33  C   UNL A   1      40.847  30.020  29.551  1.00  0.00     0.074 A 
ATOM     34  C   UNL A   1      40.341  27.789  28.620  1.00  0.00     0.049 A 
ATOM     35  N   UNL A   1      42.144  29.936  29.710  1.00  0.00    -0.248 NA
ATOM     36  C   UNL A   1      40.262  31.273  30.058  1.00  0.00     0.031 C 
ATOM     37  C   UNL A   1      39.512  26.704  28.090  1.00  0.00     0.029 A 
ATOM     38  N   UNL A   1      41.592  27.234  28.714  1.00  0.00    -0.354 N 
ATOM     39  C   UNL A   1      42.532  31.133  30.301  1.00  0.00     0.074 A 
ATOM     40  C   UNL A   1      41.338  31.931  30.469  1.00  0.00     0.031 C 
ATOM     41  C   UNL A   1      40.271  25.607  27.936  1.00  0.00     0.029 A 
ATOM     42  C   UNL A   1      41.651  25.929  28.283  1.00  0.00     0.049 A 
ATOM     43  H   UNL A   1      42.375  27.723  29.058  1.00  0.00     0.167 HD
ATOM     44  C   UNL A   1      43.773  31.530  30.668  1.00  0.00     0.031 A 
ATOM     45  C   UNL A   1      42.698  25.092  28.148  1.00  0.00     0.031 A 
ATOM     46  C   UNL A   1      44.955  30.725  30.520  1.00  0.00     0.049 A 
ATOM     47  C   UNL A   1      44.076  25.579  28.494  1.00  0.00     0.074 A 
ATOM     48  C   UNL A   1      46.262  31.050  30.844  1.00  0.00     0.029 A 
ATOM     49  N   UNL A   1      44.976  29.432  30.020  1.00  0.00    -0.354 N 
ATOM     50  N   UNL A   1      44.436  26.744  28.977  1.00  0.00    -0.248 NA
ATOM     51  C   UNL A   1      45.190  24.649  28.263  1.00  0.00     0.031 C 
ATOM     52  C   UNL A   1      47.077  29.966  30.506  1.00  0.00     0.029 A 
ATOM     53  C   UNL A   1      46.272  28.949  30.017  1.00  0.00     0.049 A 
ATOM     54  H   UNL A   1      44.185  28.934  29.713  1.00  0.00     0.167 HD
ATOM     55  C   UNL A   1      45.816  26.683  29.120  1.00  0.00     0.074 A 
ATOM     56  C   UNL A   1      46.227  25.366  28.680  1.00  0.00     0.031 C 
ATOM     57  C   UNL A   1      46.665  27.635  29.576  1.00  0.00     0.031 A 
BRANCH  44  58
ATOM     58  C   UNL A   1      43.929  32.913  31.239  1.00  0.00    -0.014 A 
ATOM     59  C   UNL A   1      43.835  33.144  32.621  1.00  0.00     0.010 A 
ATOM     60  C   UNL A   1      44.250  33.981  30.382  1.00  0.00     0.010 A 
ATOM     61  C   UNL A   1      44.045  34.427  33.136  1.00  0.00     0.020 A 
ATOM     62  C   UNL A   1      44.479  35.261  30.894  1.00  0.00     0.020 A 
ATOM     63  C   UNL A   1      44.372  35.477  32.269  1.00  0.00     0.054 A 
BRANCH  63  64
ATOM     64  S   UNL A   1      44.669  37.121  32.974  1.00  0.00     0.124 S 
ATOM     65  O   UNL A   1      44.279  36.931  34.370  1.00  0.00    -0.237 OA
ATOM     66  O   UNL A   1      46.098  37.310  32.740  1.00  0.00    -0.237 OA
ATOM     67  O   UNL A   1      43.790  37.996  32.201  1.00  0.00    -0.744 OA
ENDBRANCH  63  64
ENDBRANCH  44  58
BRANCH  45  68
ATOM     68  C   UNL A   1      42.473  23.719  27.627  1.00  0.00    -0.014 A 
ATOM     69  C   UNL A   1      42.666  23.431  26.266  1.00  0.00     0.010 A 
ATOM     70  C   UNL A   1      42.123  22.676  28.506  1.00  0.00     0.010 A 
ATOM     71  C   UNL A   1      42.526  22.121  25.794  1.00  0.00     0.020 A 
ATOM     72  C   UNL A   1      42.004  21.363  28.043  1.00  0.00     0.020 A 
ATOM     73  C   UNL A   1      42.209  21.094  26.688  1.00  0.00     0.054 A 
BRANCH  73  74
ATOM     74  S   UNL A   1      42.110  19.394  26.062  1.00  0.00     0.124 S 
ATOM     75  O   UNL A   1      40.689  19.264  25.750  1.00  0.00    -0.237 OA
ATOM     76  O   UNL A   1      43.009  19.438  24.912  1.00  0.00    -0.237 OA
ATOM     77  O   UNL A   1      42.579  18.584  27.184  1.00  0.00    -0.744 OA
ENDBRANCH  73  74
ENDBRANCH  45  68
BRANCH  57  78
ATOM     78  C   UNL A   1      48.124  27.293  29.658  1.00  0.00    -0.014 A 
ATOM     79  C   UNL A   1      49.008  27.647  28.624  1.00  0.00     0.010 A 
ATOM     80  C   UNL A   1      48.634  26.710  30.833  1.00  0.00     0.010 A 
ATOM     81  C   UNL A   1      50.379  27.421  28.763  1.00  0.00     0.020 A 
ATOM     82  C   UNL A   1      50.006  26.500  30.983  1.00  0.00     0.020 A 
ATOM     83  C   UNL A   1      50.870  26.858  29.946  1.00  0.00     0.054 A 
BRANCH  83  84
ATOM     84  S   UNL A   1      52.663  26.637  30.121  1.00  0.00     0.124 S 
ATOM     85  O   UNL A   1      53.101  27.977  30.504  1.00  0.00    -0.237 OA
ATOM     86  O   UNL A   1      52.753  25.622  31.166  1.00  0.00    -0.237 OA
ATOM     87  O   UNL A   1      53.091  26.201  28.794  1.00  0.00    -0.744 OA
ENDBRANCH  83  84
ENDBRANCH  57  78
ENDBRANCH  31  32
ENDBRANCH  24  26
ENDBRANCH  23  24
ENDBRANCH   1  23
TORSDOF 16
ENDMDL
MODEL 2
REMARK VINA RESULT:     -10.5      2.680      9.160
REMARK SMILES CCc1cc(C)c2c(c1)C=C(C(=O)OCCOC(=O)c1ccc(-c3c4nc(c(-c5ccc(S(=O)(=O)[O-])cc5)c5ccc([nH]5)c(-c5ccc(S(=O)(=O)[O-])cc5)c5nc(c(-c6ccc(S(=O)(=O)[O-])cc6)c6ccc3[nH]6)C=C5)C=C4)cc1)[C@@H](C(F)(F)F)O2
REMARK SMILES IDX 16 1 15 2 14 3 12 4 13 5 11 6 3 7 4 8 9 9 5 10 8 11 6 12
REMARK SMILES IDX 7 13 10 14 85 15 80 16 2 17 1 18 81 19 82 20 83 21 84 22
REMARK SMILES IDX 17 23 18 24 19 25 20 26 21 27 79 28 22 29 78 30 23 31 24 32
REMARK SMILES IDX 25 33 72 34 26 35 77 36 71 37 73 38 27 39 76 40 70 41 69 42
REMARK SMILES IDX 28 44 58 45 39 46 57 47 40 48 43 49 56 50 74 51 41 52 42 53
REMARK SMILES IDX 55 55 75 56 44 57 29 58 30 59 38 60 31 61 37 62 32 63 33 64
REMARK SMILES IDX 34 65 35 66 36 67 59 68 60 69 68 70 61 71 67 72 62 73 63 74
REMARK SMILES IDX 64 75 65 76 66 77 45 78 46 79 54 80 47 81 53 82 48 83 49 84
REMARK SMILES IDX 50 85 51 86 52 87
REMARK H PARENT 73 43 43 54
REMARK Flexibility Score: inf
ROOT
ATOM      1  C   UNL A   1      37.709  21.472  25.193  1.00  0.00     0.275 C 
ENDROOT
BRANCH   1   2
ATOM      2  C   UNL A   1      36.250  21.424  24.743  1.00  0.00     0.275 C 
BRANCH   2   3
ATOM      3  O   UNL A   1      35.634  22.725  24.839  1.00  0.00    -0.459 OA
BRANCH   3   4
ATOM      4  C   UNL A   1      35.322  23.322  23.661  1.00  0.00     0.338 C 
ATOM      5  O   UNL A   1      35.785  23.052  22.569  1.00  0.00    -0.246 OA
BRANCH   4   6
ATOM      6  C   UNL A   1      34.253  24.323  23.872  1.00  0.00     0.087 C 
ATOM      7  C   UNL A   1      32.793  28.344  26.100  1.00  0.00    -0.047 A 
ATOM      8  C   UNL A   1      31.579  28.283  25.403  1.00  0.00     0.011 A 
ATOM      9  C   UNL A   1      33.734  27.330  25.896  1.00  0.00     0.015 A 
ATOM     10  C   UNL A   1      31.313  27.243  24.496  1.00  0.00    -0.008 A 
ATOM     11  C   UNL A   1      33.476  26.284  25.003  1.00  0.00     0.018 A 
ATOM     12  C   UNL A   1      29.998  27.197  23.773  1.00  0.00     0.048 C 
ATOM     13  C   UNL A   1      32.287  26.257  24.277  1.00  0.00     0.130 A 
ATOM     14  C   UNL A   1      34.456  25.231  24.832  1.00  0.00     0.027 C 
ATOM     15  O   UNL A   1      32.013  25.302  23.336  1.00  0.00    -0.475 OA
ATOM     16  C   UNL A   1      33.000  24.271  23.046  1.00  0.00     0.316 C 
BRANCH   7  17
ATOM     17  C   UNL A   1      33.092  29.479  27.047  1.00  0.00     0.032 C 
ATOM     18  C   UNL A   1      34.444  29.324  27.732  1.00  0.00     0.009 C 
ENDBRANCH   7  17
BRANCH  16  19
ATOM     19  C   UNL A   1      32.296  22.911  23.194  1.00  0.00     0.430 C 
ATOM     20  F   UNL A   1      30.956  23.027  23.025  1.00  0.00    -0.167 F 
ATOM     21  F   UNL A   1      32.719  22.014  22.271  1.00  0.00    -0.167 F 
ATOM     22  F   UNL A   1      32.502  22.357  24.412  1.00  0.00    -0.167 F 
ENDBRANCH  16  19
ENDBRANCH   4   6
ENDBRANCH   3   4
ENDBRANCH   2   3
ENDBRANCH   1   2
BRANCH   1  23
ATOM     23  O   UNL A   1      38.048  22.794  25.649  1.00  0.00    -0.458 OA
BRANCH  23  24
ATOM     24  C   UNL A   1      39.254  22.906  26.250  1.00  0.00     0.338 C 
ATOM     25  O   UNL A   1      40.158  22.088  26.260  1.00  0.00    -0.246 OA
BRANCH  24  26
ATOM     26  C   UNL A   1      39.374  24.237  26.860  1.00  0.00     0.060 A 
ATOM     27  C   UNL A   1      40.055  25.226  26.156  1.00  0.00     0.016 A 
ATOM     28  C   UNL A   1      38.958  24.463  28.170  1.00  0.00     0.016 A 
ATOM     29  C   UNL A   1      40.429  26.406  26.789  1.00  0.00     0.010 A 
ATOM     30  C   UNL A   1      39.255  25.688  28.779  1.00  0.00     0.010 A 
ATOM     31  C   UNL A   1      40.034  26.651  28.111  1.00  0.00    -0.014 A 
BRANCH  31  32
ATOM     32  C   UNL A   1      40.484  27.884  28.807  1.00  0.00     0.031 A 
ATOM     33  C   UNL A   1      41.899  27.986  29.314  1.00  0.00     0.074 A 
ATOM     34  C   UNL A   1      39.646  28.930  28.950  1.00  0.00     0.049 A 
ATOM     35  N   UNL A   1      42.445  28.920  30.050  1.00  0.00    -0.248 NA
ATOM     36  C   UNL A   1      42.820  26.898  28.946  1.00  0.00     0.031 C 
ATOM     37  C   UNL A   1      38.275  28.994  28.435  1.00  0.00     0.029 A 
ATOM     38  N   UNL A   1      39.827  30.146  29.561  1.00  0.00    -0.354 N 
ATOM     39  C   UNL A   1      43.759  28.517  30.261  1.00  0.00     0.074 A 
ATOM     40  C   UNL A   1      43.930  27.252  29.581  1.00  0.00     0.031 C 
ATOM     41  C   UNL A   1      37.753  30.197  28.725  1.00  0.00     0.029 A 
ATOM     42  C   UNL A   1      38.720  30.960  29.509  1.00  0.00     0.049 A 
ATOM     43  H   UNL A   1      40.670  30.410  29.996  1.00  0.00     0.167 HD
ATOM     44  C   UNL A   1      44.733  29.146  30.959  1.00  0.00     0.031 A 
ATOM     45  C   UNL A   1      38.489  32.169  30.056  1.00  0.00     0.031 A 
ATOM     46  C   UNL A   1      44.567  30.414  31.615  1.00  0.00     0.049 A 
ATOM     47  C   UNL A   1      39.560  32.815  30.888  1.00  0.00     0.074 A 
ATOM     48  C   UNL A   1      45.491  31.121  32.366  1.00  0.00     0.029 A 
ATOM     49  N   UNL A   1      43.407  31.174  31.588  1.00  0.00    -0.354 N 
ATOM     50  N   UNL A   1      40.771  32.382  31.144  1.00  0.00    -0.248 NA
ATOM     51  C   UNL A   1      39.232  34.101  31.516  1.00  0.00     0.031 C 
ATOM     52  C   UNL A   1      44.878  32.291  32.822  1.00  0.00     0.029 A 
ATOM     53  C   UNL A   1      43.588  32.335  32.317  1.00  0.00     0.049 A 
ATOM     54  H   UNL A   1      42.579  30.922  31.120  1.00  0.00     0.167 HD
ATOM     55  C   UNL A   1      41.354  33.348  31.953  1.00  0.00     0.074 A 
ATOM     56  C   UNL A   1      40.367  34.392  32.140  1.00  0.00     0.031 C 
ATOM     57  C   UNL A   1      42.597  33.366  32.492  1.00  0.00     0.031 A 
BRANCH  44  58
ATOM     58  C   UNL A   1      46.065  28.458  31.084  1.00  0.00    -0.014 A 
ATOM     59  C   UNL A   1      46.353  27.623  32.176  1.00  0.00     0.010 A 
ATOM     60  C   UNL A   1      47.011  28.593  30.051  1.00  0.00     0.010 A 
ATOM     61  C   UNL A   1      47.574  26.944  32.240  1.00  0.00     0.020 A 
ATOM     62  C   UNL A   1      48.225  27.902  30.102  1.00  0.00     0.020 A 
ATOM     63  C   UNL A   1      48.500  27.083  31.199  1.00  0.00     0.054 A 
BRANCH  63  64
ATOM     64  S   UNL A   1      50.060  26.164  31.299  1.00  0.00     0.124 S 
ATOM     65  O   UNL A   1      49.746  25.135  32.289  1.00  0.00    -0.237 OA
ATOM     66  O   UNL A   1      50.231  25.686  29.929  1.00  0.00    -0.237 OA
ATOM     67  O   UNL A   1      51.029  27.167  31.735  1.00  0.00    -0.744 OA
ENDBRANCH  63  64
ENDBRANCH  44  58
BRANCH  45  68
ATOM     68  C   UNL A   1      37.169  32.823  29.854  1.00  0.00    -0.014 A 
ATOM     69  C   UNL A   1      36.207  32.819  30.877  1.00  0.00     0.010 A 
ATOM     70  C   UNL A   1      36.893  33.507  28.655  1.00  0.00     0.010 A 
ATOM     71  C   UNL A   1      34.996  33.499  30.711  1.00  0.00     0.020 A 
ATOM     72  C   UNL A   1      35.694  34.207  28.493  1.00  0.00     0.020 A 
ATOM     73  C   UNL A   1      34.753  34.200  29.525  1.00  0.00     0.054 A 
BRANCH  73  74
ATOM     74  S   UNL A   1      33.208  35.136  29.368  1.00  0.00     0.124 S 
ATOM     75  O   UNL A   1      32.493  34.380  28.343  1.00  0.00    -0.237 OA
ATOM     76  O   UNL A   1      32.657  35.049  30.718  1.00  0.00    -0.237 OA
ATOM     77  O   UNL A   1      33.651  36.469  28.965  1.00  0.00    -0.744 OA
ENDBRANCH  73  74
ENDBRANCH  45  68
BRANCH  57  78
ATOM     78  C   UNL A   1      42.988  34.560  33.314  1.00  0.00    -0.014 A 
ATOM     79  C   UNL A   1      42.856  34.547  34.713  1.00  0.00     0.010 A 
ATOM     80  C   UNL A   1      43.597  35.662  32.686  1.00  0.00     0.010 A 
ATOM     81  C   UNL A   1      43.326  35.622  35.473  1.00  0.00     0.020 A 
ATOM     82  C   UNL A   1      44.084  36.729  33.444  1.00  0.00     0.020 A 
ATOM     83  C   UNL A   1      43.946  36.701  34.834  1.00  0.00     0.054 A 
BRANCH  83  84
ATOM     84  S   UNL A   1      44.603  38.050  35.854  1.00  0.00     0.124 S 
ATOM     85  O   UNL A   1      43.935  37.822  37.132  1.00  0.00    -0.237 OA
ATOM     86  O   UNL A   1      46.038  37.785  35.837  1.00  0.00    -0.237 OA
ATOM     87  O   UNL A   1      44.187  39.258  35.144  1.00  0.00    -0.744 OA
ENDBRANCH  83  84
ENDBRANCH  57  78
ENDBRANCH  31  32
ENDBRANCH  24  26
ENDBRANCH  23  24
ENDBRANCH   1  23
TORSDOF 16
ENDMDL
MODEL 3
REMARK VINA RESULT:     -10.4      2.476      8.878
REMARK SMILES CCc1cc(C)c2c(c1)C=C(C(=O)OCCOC(=O)c1ccc(-c3c4nc(c(-c5ccc(S(=O)(=O)[O-])cc5)c5ccc([nH]5)c(-c5ccc(S(=O)(=O)[O-])cc5)c5nc(c(-c6ccc(S(=O)(=O)[O-])cc6)c6ccc3[nH]6)C=C5)C=C4)cc1)[C@@H](C(F)(F)F)O2
REMARK SMILES IDX 16 1 15 2 14 3 12 4 13 5 11 6 3 7 4 8 9 9 5 10 8 11 6 12
REMARK SMILES IDX 7 13 10 14 85 15 80 16 2 17 1 18 81 19 82 20 83 21 84 22
REMARK SMILES IDX 17 23 18 24 19 25 20 26 21 27 79 28 22 29 78 30 23 31 24 32
REMARK SMILES IDX 25 33 72 34 26 35 77 36 71 37 73 38 27 39 76 40 70 41 69 42
REMARK SMILES IDX 28 44 58 45 39 46 57 47 40 48 43 49 56 50 74 51 41 52 42 53
REMARK SMILES IDX 55 55 75 56 44 57 29 58 30 59 38 60 31 61 37 62 32 63 33 64
REMARK SMILES IDX 34 65 35 66 36 67 59 68 60 69 68 70 61 71 67 72 62 73 63 74
REMARK SMILES IDX 64 75 65 76 66 77 45 78 46 79 54 80 47 81 53 82 48 83 49 84
REMARK SMILES IDX 50 85 51 86 52 87
REMARK H PARENT 73 43 43 54
REMARK Flexibility Score: inf
ROOT
ATOM      1  C   UNL A   1      37.404  20.931  25.031  1.00  0.00     0.275 C 
ENDROOT
BRANCH   1   2
ATOM      2  C   UNL A   1      35.917  21.133  24.742  1.00  0.00     0.275 C 
BRANCH   2   3
ATOM      3  O   UNL A   1      35.537  22.513  24.918  1.00  0.00    -0.459 OA
BRANCH   3   4
ATOM      4  C   UNL A   1      35.327  23.220  23.779  1.00  0.00     0.338 C 
ATOM      5  O   UNL A   1      35.880  23.048  22.709  1.00  0.00    -0.246 OA
BRANCH   4   6
ATOM      6  C   UNL A   1      34.248  24.209  23.992  1.00  0.00     0.087 C 
ATOM      7  C   UNL A   1      32.710  28.157  26.296  1.00  0.00    -0.047 A 
ATOM      8  C   UNL A   1      31.513  28.110  25.569  1.00  0.00     0.011 A 
ATOM      9  C   UNL A   1      33.662  27.155  26.086  1.00  0.00     0.015 A 
ATOM     10  C   UNL A   1      31.275  27.094  24.627  1.00  0.00    -0.008 A 
ATOM     11  C   UNL A   1      33.432  26.134  25.159  1.00  0.00     0.018 A 
ATOM     12  C   UNL A   1      29.978  27.061  23.872  1.00  0.00     0.048 C 
ATOM     13  C   UNL A   1      32.261  26.120  24.403  1.00  0.00     0.130 A 
ATOM     14  C   UNL A   1      34.422  25.091  24.982  1.00  0.00     0.027 C 
ATOM     15  O   UNL A   1      32.015  25.190  23.430  1.00  0.00    -0.475 OA
ATOM     16  C   UNL A   1      33.015  24.173  23.135  1.00  0.00     0.316 C 
BRANCH   7  17
ATOM     17  C   UNL A   1      32.979  29.267  27.282  1.00  0.00     0.032 C 
ATOM     18  C   UNL A   1      32.290  30.569  26.896  1.00  0.00     0.009 C 
ENDBRANCH   7  17
BRANCH  16  19
ATOM     19  C   UNL A   1      32.317  22.806  23.228  1.00  0.00     0.430 C 
ATOM     20  F   UNL A   1      32.771  21.953  22.277  1.00  0.00    -0.167 F 
ATOM     21  F   UNL A   1      32.538  22.199  24.419  1.00  0.00    -0.167 F 
ATOM     22  F   UNL A   1      30.976  22.903  23.073  1.00  0.00    -0.167 F 
ENDBRANCH  16  19
ENDBRANCH   4   6
ENDBRANCH   3   4
ENDBRANCH   2   3
ENDBRANCH   1   2
BRANCH   1  23
ATOM     23  O   UNL A   1      37.936  22.071  25.729  1.00  0.00    -0.458 OA
BRANCH  23  24
ATOM     24  C   UNL A   1      39.174  21.905  26.247  1.00  0.00     0.338 C 
ATOM     25  O   UNL A   1      39.890  20.921  26.162  1.00  0.00    -0.246 OA
BRANCH  24  26
ATOM     26  C   UNL A   1      39.602  23.150  26.898  1.00  0.00     0.060 A 
ATOM     27  C   UNL A   1      39.009  24.343  26.495  1.00  0.00     0.016 A 
ATOM     28  C   UNL A   1      40.682  23.162  27.779  1.00  0.00     0.016 A 
ATOM     29  C   UNL A   1      39.556  25.562  26.876  1.00  0.00     0.010 A 
ATOM     30  C   UNL A   1      41.177  24.389  28.236  1.00  0.00     0.010 A 
ATOM     31  C   UNL A   1      40.650  25.601  27.752  1.00  0.00    -0.014 A 
BRANCH  31  32
ATOM     32  C   UNL A   1      41.272  26.901  28.111  1.00  0.00     0.031 A 
ATOM     33  C   UNL A   1      42.752  27.103  27.916  1.00  0.00     0.074 A 
ATOM     34  C   UNL A   1      40.514  27.915  28.572  1.00  0.00     0.049 A 
ATOM     35  N   UNL A   1      43.500  28.113  28.282  1.00  0.00    -0.248 NA
ATOM     36  C   UNL A   1      43.487  26.034  27.220  1.00  0.00     0.031 C 
ATOM     37  C   UNL A   1      39.058  27.879  28.732  1.00  0.00     0.029 A 
ATOM     38  N   UNL A   1      40.860  29.180  28.978  1.00  0.00    -0.354 N 
ATOM     39  C   UNL A   1      44.795  27.786  27.892  1.00  0.00     0.074 A 
ATOM     40  C   UNL A   1      44.734  26.483  27.266  1.00  0.00     0.031 C 
ATOM     41  C   UNL A   1      38.635  29.076  29.172  1.00  0.00     0.029 A 
ATOM     42  C   UNL A   1      39.792  29.937  29.397  1.00  0.00     0.049 A 
ATOM     43  H   UNL A   1      41.787  29.513  28.972  1.00  0.00     0.167 HD
ATOM     44  C   UNL A   1      45.930  28.508  28.043  1.00  0.00     0.031 A 
ATOM     45  C   UNL A   1      39.743  31.172  29.934  1.00  0.00     0.031 A 
ATOM     46  C   UNL A   1      45.983  29.812  28.645  1.00  0.00     0.049 A 
ATOM     47  C   UNL A   1      41.023  31.924  30.160  1.00  0.00     0.074 A 
ATOM     48  C   UNL A   1      47.092  30.613  28.862  1.00  0.00     0.029 A 
ATOM     49  N   UNL A   1      44.883  30.514  29.113  1.00  0.00    -0.354 N 
ATOM     50  N   UNL A   1      42.248  31.566  29.858  1.00  0.00    -0.248 NA
ATOM     51  C   UNL A   1      40.919  33.237  30.810  1.00  0.00     0.031 C 
ATOM     52  C   UNL A   1      46.665  31.785  29.494  1.00  0.00     0.029 A 
ATOM     53  C   UNL A   1      45.287  31.733  29.626  1.00  0.00     0.049 A 
ATOM     54  H   UNL A   1      43.954  30.192  29.083  1.00  0.00     0.167 HD
ATOM     55  C   UNL A   1      43.060  32.615  30.270  1.00  0.00     0.074 A 
ATOM     56  C   UNL A   1      42.189  33.624  30.836  1.00  0.00     0.031 C 
ATOM     57  C   UNL A   1      44.407  32.728  30.185  1.00  0.00     0.031 A 
BRANCH  44  58
ATOM     58  C   UNL A   1      47.222  27.892  27.581  1.00  0.00    -0.014 A 
ATOM     59  C   UNL A   1      47.703  28.103  26.278  1.00  0.00     0.010 A 
ATOM     60  C   UNL A   1      48.000  27.153  28.492  1.00  0.00     0.010 A 
ATOM     61  C   UNL A   1      48.937  27.572  25.889  1.00  0.00     0.020 A 
ATOM     62  C   UNL A   1      49.242  26.636  28.112  1.00  0.00     0.020 A 
ATOM     63  C   UNL A   1      49.702  26.847  26.811  1.00  0.00     0.054 A 
BRANCH  63  64
ATOM     64  S   UNL A   1      51.311  26.200  26.282  1.00  0.00     0.124 S 
ATOM     65  O   UNL A   1      52.241  27.102  26.958  1.00  0.00    -0.237 OA
ATOM     66  O   UNL A   1      51.281  24.831  26.792  1.00  0.00    -0.237 OA
ATOM     67  O   UNL A   1      51.277  26.324  24.827  1.00  0.00    -0.744 OA
ENDBRANCH  63  64
ENDBRANCH  44  58
BRANCH  45  68
ATOM     68  C   UNL A   1      38.430  31.748  30.324  1.00  0.00    -0.014 A 
ATOM     69  C   UNL A   1      37.894  31.507  31.600  1.00  0.00     0.010 A 
ATOM     70  C   UNL A   1      37.736  32.594  29.437  1.00  0.00     0.010 A 
ATOM     71  C   UNL A   1      36.695  32.112  31.988  1.00  0.00     0.020 A 
ATOM     72  C   UNL A   1      36.549  33.219  29.830  1.00  0.00     0.020 A 
ATOM     73  C   UNL A   1      36.037  32.975  31.105  1.00  0.00     0.054 A 
BRANCH  73  74
ATOM     74  S   UNL A   1      34.525  33.806  31.665  1.00  0.00     0.124 S 
ATOM     75  O   UNL A   1      33.911  32.788  32.513  1.00  0.00    -0.237 OA
ATOM     76  O   UNL A   1      35.056  34.975  32.361  1.00  0.00    -0.237 OA
ATOM     77  O   UNL A   1      33.811  34.097  30.423  1.00  0.00    -0.744 OA
ENDBRANCH  73  74
ENDBRANCH  45  68
BRANCH  57  78
ATOM     78  C   UNL A   1      45.037  33.996  30.686  1.00  0.00    -0.014 A 
ATOM     79  C   UNL A   1      45.155  35.121  29.852  1.00  0.00     0.010 A 
ATOM     80  C   UNL A   1      45.413  34.095  32.038  1.00  0.00     0.010 A 
ATOM     81  C   UNL A   1      45.643  36.327  30.363  1.00  0.00     0.020 A 
ATOM     82  C   UNL A   1      45.883  35.303  32.556  1.00  0.00     0.020 A 
ATOM     83  C   UNL A   1      45.994  36.412  31.715  1.00  0.00     0.054 A 
BRANCH  83  84
ATOM     84  S   UNL A   1      46.561  38.009  32.362  1.00  0.00     0.124 S 
ATOM     85  O   UNL A   1      47.088  37.640  33.673  1.00  0.00    -0.237 OA
ATOM     86  O   UNL A   1      47.558  38.412  31.374  1.00  0.00    -0.237 OA
ATOM     87  O   UNL A   1      45.350  38.825  32.388  1.00  0.00    -0.744 OA
ENDBRANCH  83  84
ENDBRANCH  57  78
ENDBRANCH  31  32
ENDBRANCH  24  26
ENDBRANCH  23  24
ENDBRANCH   1  23
TORSDOF 16
ENDMDL
