MODEL 1
REMARK VINA RESULT:      -9.6      0.000      0.000
REMARK SMILES CC[C@](C)(NC(=O)CCOc1ccc(Cl)c(Cl)c1)C(=O)OCCOC(=O)c1ccc(-c2c3nc(c(-c4ccc(S(=O)(=O)[O-])cc4)c4ccc([nH]4)c(-c4ccc(S(=O)(=O)[O-])cc4)c4nc(c(-c5ccc(S(=O)(=O)[O-])cc5)c5ccc2[nH]5)C=C4)C=C3)cc1
REMARK SMILES IDX 22 1 21 2 19 3 20 4 3 5 4 6 2 7 1 8 5 9 6 10 7 12 8 13 9 14
REMARK SMILES IDX 10 15 11 16 12 17 18 18 13 19 16 20 14 21 17 22 15 23 23 24
REMARK SMILES IDX 24 25 25 26 26 27 27 28 28 29 86 30 29 31 85 32 30 33 31 34
REMARK SMILES IDX 32 35 79 36 33 37 84 38 78 39 80 40 34 41 83 42 77 43 76 44
REMARK SMILES IDX 35 46 65 47 46 48 64 49 47 50 50 51 63 52 81 53 48 54 49 55
REMARK SMILES IDX 62 57 82 58 51 59 36 60 37 61 45 62 38 63 44 64 39 65 40 66
REMARK SMILES IDX 41 67 42 68 43 69 66 70 67 71 75 72 68 73 74 74 69 75 70 76
REMARK SMILES IDX 71 77 72 78 73 79 52 80 53 81 61 82 54 83 60 84 55 85 56 86
REMARK SMILES IDX 57 87 58 88 59 89
REMARK H PARENT 5 11 80 45 50 56
REMARK Flexibility Score: inf
ROOT
ATOM      1  C   UNL A   1      43.405  22.624  25.225  1.00  0.00     0.274 C 
ENDROOT
BRANCH   1   2
ATOM      2  O   UNL A   1      44.251  21.767  24.427  1.00  0.00    -0.460 OA
BRANCH   2   3
ATOM      3  C   UNL A   1      45.189  21.068  25.124  1.00  0.00     0.331 C 
ATOM      4  O   UNL A   1      45.921  21.569  25.972  1.00  0.00    -0.249 OA
BRANCH   3   5
ATOM      5  C   UNL A   1      45.246  19.557  24.759  1.00  0.00     0.135 C 
ATOM      6  C   UNL A   1      46.305  18.924  25.665  1.00  0.00     0.047 C 
BRANCH   5   7
ATOM      7  C   UNL A   1      45.687  19.487  23.255  1.00  0.00     0.037 C 
ATOM      8  C   UNL A   1      44.857  18.589  22.340  1.00  0.00     0.007 C 
ENDBRANCH   5   7
BRANCH   5   9
ATOM      9  N   UNL A   1      43.975  18.773  24.857  1.00  0.00    -0.340 N 
ATOM     10  C   UNL A   1      43.028  18.634  25.821  1.00  0.00     0.224 C 
ATOM     11  H   UNL A   1      43.784  18.244  24.048  1.00  0.00     0.164 HD
ATOM     12  O   UNL A   1      42.291  17.646  25.741  1.00  0.00    -0.275 OA
BRANCH  10  13
ATOM     13  C   UNL A   1      42.811  19.674  26.888  1.00  0.00     0.141 C 
BRANCH  13  14
ATOM     14  C   UNL A   1      41.354  20.123  26.990  1.00  0.00     0.239 C 
BRANCH  14  15
ATOM     15  O   UNL A   1      41.245  21.526  27.258  1.00  0.00    -0.493 OA
BRANCH  15  16
ATOM     16  C   UNL A   1      40.102  22.195  26.933  1.00  0.00     0.120 A 
ATOM     17  C   UNL A   1      39.797  23.516  27.247  1.00  0.00     0.048 A 
ATOM     18  C   UNL A   1      39.199  21.450  26.166  1.00  0.00     0.068 A 
ATOM     19  C   UNL A   1      38.625  24.101  26.754  1.00  0.00     0.026 A 
ATOM     20  C   UNL A   1      38.040  22.034  25.651  1.00  0.00     0.063 A 
ATOM     21  C   UNL A   1      37.753  23.369  25.942  1.00  0.00     0.059 A 
ATOM     22  Cl  UNL A   1      37.044  21.072  24.620  1.00  0.00    -0.083 Cl
ATOM     23  Cl  UNL A   1      36.367  24.185  25.314  1.00  0.00    -0.083 Cl
ENDBRANCH  15  16
ENDBRANCH  14  15
ENDBRANCH  13  14
ENDBRANCH  10  13
ENDBRANCH   5   9
ENDBRANCH   3   5
ENDBRANCH   2   3
ENDBRANCH   1   2
BRANCH   1  24
ATOM     24  C   UNL A   1      43.440  24.061  24.712  1.00  0.00     0.275 C 
BRANCH  24  25
ATOM     25  O   UNL A   1      42.912  24.965  25.702  1.00  0.00    -0.458 OA
BRANCH  25  26
ATOM     26  C   UNL A   1      43.811  25.822  26.235  1.00  0.00     0.338 C 
ATOM     27  O   UNL A   1      45.003  25.890  25.958  1.00  0.00    -0.246 OA
BRANCH  26  28
ATOM     28  C   UNL A   1      43.193  26.707  27.236  1.00  0.00     0.060 A 
ATOM     29  C   UNL A   1      43.534  28.056  27.306  1.00  0.00     0.016 A 
ATOM     30  C   UNL A   1      42.383  26.139  28.225  1.00  0.00     0.016 A 
ATOM     31  C   UNL A   1      43.162  28.801  28.429  1.00  0.00     0.010 A 
ATOM     32  C   UNL A   1      41.937  26.913  29.302  1.00  0.00     0.010 A 
ATOM     33  C   UNL A   1      42.361  28.241  29.445  1.00  0.00    -0.014 A 
BRANCH  33  34
ATOM     34  C   UNL A   1      41.971  29.057  30.634  1.00  0.00     0.031 A 
ATOM     35  C   UNL A   1      40.704  29.884  30.653  1.00  0.00     0.074 A 
ATOM     36  C   UNL A   1      42.749  29.029  31.735  1.00  0.00     0.049 A 
ATOM     37  N   UNL A   1      40.269  30.699  31.585  1.00  0.00    -0.248 NA
ATOM     38  C   UNL A   1      39.822  29.801  29.479  1.00  0.00     0.031 C 
ATOM     39  C   UNL A   1      44.003  28.285  31.862  1.00  0.00     0.029 A 
ATOM     40  N   UNL A   1      42.582  29.610  32.968  1.00  0.00    -0.354 N 
ATOM     41  C   UNL A   1      39.096  31.261  31.092  1.00  0.00     0.074 A 
ATOM     42  C   UNL A   1      38.879  30.688  29.780  1.00  0.00     0.031 C 
ATOM     43  C   UNL A   1      44.439  28.372  33.127  1.00  0.00     0.029 A 
ATOM     44  C   UNL A   1      43.548  29.248  33.877  1.00  0.00     0.049 A 
ATOM     45  H   UNL A   1      41.844  30.224  33.181  1.00  0.00     0.167 HD
ATOM     46  C   UNL A   1      38.280  32.178  31.674  1.00  0.00     0.031 A 
ATOM     47  C   UNL A   1      43.718  29.589  35.168  1.00  0.00     0.031 A 
ATOM     48  C   UNL A   1      38.473  32.727  32.994  1.00  0.00     0.049 A 
ATOM     49  C   UNL A   1      42.772  30.558  35.807  1.00  0.00     0.074 A 
ATOM     50  C   UNL A   1      37.717  33.686  33.648  1.00  0.00     0.029 A 
ATOM     51  N   UNL A   1      39.475  32.347  33.873  1.00  0.00    -0.354 N 
ATOM     52  N   UNL A   1      41.726  31.149  35.283  1.00  0.00    -0.248 NA
ATOM     53  C   UNL A   1      43.047  30.929  37.201  1.00  0.00     0.031 C 
ATOM     54  C   UNL A   1      38.276  33.903  34.915  1.00  0.00     0.029 A 
ATOM     55  C   UNL A   1      39.357  33.051  35.062  1.00  0.00     0.049 A 
ATOM     56  H   UNL A   1      40.169  31.676  33.682  1.00  0.00     0.167 HD
ATOM     57  C   UNL A   1      41.239  31.994  36.271  1.00  0.00     0.074 A 
ATOM     58  C   UNL A   1      42.070  31.794  37.442  1.00  0.00     0.031 C 
ATOM     59  C   UNL A   1      40.214  32.876  36.204  1.00  0.00     0.031 A 
BRANCH  46  60
ATOM     60  C   UNL A   1      37.111  32.689  30.872  1.00  0.00    -0.014 A 
ATOM     61  C   UNL A   1      37.269  33.708  29.916  1.00  0.00     0.010 A 
ATOM     62  C   UNL A   1      35.852  32.079  31.019  1.00  0.00     0.010 A 
ATOM     63  C   UNL A   1      36.182  34.119  29.135  1.00  0.00     0.020 A 
ATOM     64  C   UNL A   1      34.768  32.474  30.229  1.00  0.00     0.020 A 
ATOM     65  C   UNL A   1      34.937  33.502  29.299  1.00  0.00     0.054 A 
BRANCH  65  66
ATOM     66  S   UNL A   1      33.552  34.016  28.245  1.00  0.00     0.124 S 
ATOM     67  O   UNL A   1      32.668  34.669  29.208  1.00  0.00    -0.237 OA
ATOM     68  O   UNL A   1      34.191  34.905  27.278  1.00  0.00    -0.237 OA
ATOM     69  O   UNL A   1      33.052  32.759  27.693  1.00  0.00    -0.744 OA
ENDBRANCH  65  66
ENDBRANCH  46  60
BRANCH  47  70
ATOM     70  C   UNL A   1      44.870  29.031  35.920  1.00  0.00    -0.014 A 
ATOM     71  C   UNL A   1      46.067  29.757  36.036  1.00  0.00     0.010 A 
ATOM     72  C   UNL A   1      44.746  27.795  36.582  1.00  0.00     0.010 A 
ATOM     73  C   UNL A   1      47.119  29.263  36.814  1.00  0.00     0.020 A 
ATOM     74  C   UNL A   1      45.783  27.313  37.381  1.00  0.00     0.020 A 
ATOM     75  C   UNL A   1      46.966  28.047  37.487  1.00  0.00     0.054 A 
BRANCH  75  76
ATOM     76  S   UNL A   1      48.285  27.461  38.586  1.00  0.00     0.124 S 
ATOM     77  O   UNL A   1      48.452  28.594  39.490  1.00  0.00    -0.237 OA
ATOM     78  O   UNL A   1      47.709  26.258  39.180  1.00  0.00    -0.237 OA
ATOM     79  O   UNL A   1      49.396  27.218  37.669  1.00  0.00    -0.744 OA
ENDBRANCH  75  76
ENDBRANCH  47  70
BRANCH  59  80
ATOM     80  C   UNL A   1      39.974  33.715  37.428  1.00  0.00    -0.014 A 
ATOM     81  C   UNL A   1      39.099  33.269  38.436  1.00  0.00     0.010 A 
ATOM     82  C   UNL A   1      40.597  34.967  37.561  1.00  0.00     0.010 A 
ATOM     83  C   UNL A   1      38.808  34.085  39.531  1.00  0.00     0.020 A 
ATOM     84  C   UNL A   1      40.322  35.780  38.665  1.00  0.00     0.020 A 
ATOM     85  C   UNL A   1      39.409  35.344  39.630  1.00  0.00     0.054 A 
BRANCH  85  86
ATOM     86  S   UNL A   1      39.004  36.401  41.046  1.00  0.00     0.124 S 
ATOM     87  O   UNL A   1      37.907  35.665  41.668  1.00  0.00    -0.237 OA
ATOM     88  O   UNL A   1      40.253  36.427  41.804  1.00  0.00    -0.237 OA
ATOM     89  O   UNL A   1      38.631  37.673  40.429  1.00  0.00    -0.744 OA
ENDBRANCH  85  86
ENDBRANCH  59  80
ENDBRANCH  33  34
ENDBRANCH  26  28
ENDBRANCH  25  26
ENDBRANCH  24  25
ENDBRANCH   1  24
TORSDOF 20
ENDMDL
MODEL 2
REMARK VINA RESULT:      -9.2      5.333      9.880
REMARK SMILES CC[C@](C)(NC(=O)CCOc1ccc(Cl)c(Cl)c1)C(=O)OCCOC(=O)c1ccc(-c2c3nc(c(-c4ccc(S(=O)(=O)[O-])cc4)c4ccc([nH]4)c(-c4ccc(S(=O)(=O)[O-])cc4)c4nc(c(-c5ccc(S(=O)(=O)[O-])cc5)c5ccc2[nH]5)C=C4)C=C3)cc1
REMARK SMILES IDX 22 1 21 2 19 3 20 4 3 5 4 6 2 7 1 8 5 9 6 10 7 12 8 13 9 14
REMARK SMILES IDX 10 15 11 16 12 17 18 18 13 19 16 20 14 21 17 22 15 23 23 24
REMARK SMILES IDX 24 25 25 26 26 27 27 28 28 29 86 30 29 31 85 32 30 33 31 34
REMARK SMILES IDX 32 35 79 36 33 37 84 38 78 39 80 40 34 41 83 42 77 43 76 44
REMARK SMILES IDX 35 46 65 47 46 48 64 49 47 50 50 51 63 52 81 53 48 54 49 55
REMARK SMILES IDX 62 57 82 58 51 59 36 60 37 61 45 62 38 63 44 64 39 65 40 66
REMARK SMILES IDX 41 67 42 68 43 69 66 70 67 71 75 72 68 73 74 74 69 75 70 76
REMARK SMILES IDX 71 77 72 78 73 79 52 80 53 81 61 82 54 83 60 84 55 85 56 86
REMARK SMILES IDX 57 87 58 88 59 89
REMARK H PARENT 5 11 80 45 50 56
REMARK Flexibility Score: inf
ROOT
ATOM      1  C   UNL A   1      42.321  19.835  27.156  1.00  0.00     0.274 C 
ENDROOT
BRANCH   1   2
ATOM      2  O   UNL A   1      42.560  19.635  25.745  1.00  0.00    -0.460 OA
BRANCH   2   3
ATOM      3  C   UNL A   1      43.753  19.058  25.435  1.00  0.00     0.331 C 
ATOM      4  O   UNL A   1      44.084  17.937  25.809  1.00  0.00    -0.249 OA
BRANCH   3   5
ATOM      5  C   UNL A   1      44.668  19.945  24.545  1.00  0.00     0.135 C 
ATOM      6  C   UNL A   1      44.881  19.185  23.234  1.00  0.00     0.047 C 
BRANCH   5   7
ATOM      7  C   UNL A   1      46.021  20.098  25.325  1.00  0.00     0.037 C 
ATOM      8  C   UNL A   1      46.836  18.825  25.537  1.00  0.00     0.007 C 
ENDBRANCH   5   7
BRANCH   5   9
ATOM      9  N   UNL A   1      44.203  21.335  24.244  1.00  0.00    -0.340 N 
ATOM     10  C   UNL A   1      43.945  22.427  25.010  1.00  0.00     0.224 C 
ATOM     11  H   UNL A   1      44.049  21.492  23.284  1.00  0.00     0.164 HD
ATOM     12  O   UNL A   1      43.239  23.308  24.509  1.00  0.00    -0.275 OA
BRANCH  10  13
ATOM     13  C   UNL A   1      44.562  22.615  26.371  1.00  0.00     0.141 C 
BRANCH  13  14
ATOM     14  C   UNL A   1      45.176  24.003  26.557  1.00  0.00     0.239 C 
BRANCH  14  15
ATOM     15  O   UNL A   1      46.392  23.953  27.311  1.00  0.00    -0.493 OA
BRANCH  15  16
ATOM     16  C   UNL A   1      47.483  24.654  26.892  1.00  0.00     0.120 A 
ATOM     17  C   UNL A   1      48.661  24.861  27.605  1.00  0.00     0.048 A 
ATOM     18  C   UNL A   1      47.378  25.155  25.590  1.00  0.00     0.068 A 
ATOM     19  C   UNL A   1      49.740  25.516  27.001  1.00  0.00     0.026 A 
ATOM     20  C   UNL A   1      48.459  25.789  24.973  1.00  0.00     0.063 A 
ATOM     21  C   UNL A   1      49.649  25.966  25.681  1.00  0.00     0.059 A 
ATOM     22  Cl  UNL A   1      48.276  26.271  23.325  1.00  0.00    -0.083 Cl
ATOM     23  Cl  UNL A   1      51.050  26.699  24.985  1.00  0.00    -0.083 Cl
ENDBRANCH  15  16
ENDBRANCH  14  15
ENDBRANCH  13  14
ENDBRANCH  10  13
ENDBRANCH   5   9
ENDBRANCH   3   5
ENDBRANCH   2   3
ENDBRANCH   1   2
BRANCH   1  24
ATOM     24  C   UNL A   1      40.870  20.236  27.415  1.00  0.00     0.275 C 
BRANCH  24  25
ATOM     25  O   UNL A   1      40.804  21.566  27.965  1.00  0.00    -0.458 OA
BRANCH  25  26
ATOM     26  C   UNL A   1      40.479  22.537  27.082  1.00  0.00     0.338 C 
ATOM     27  O   UNL A   1      39.711  22.429  26.132  1.00  0.00    -0.246 OA
BRANCH  26  28
ATOM     28  C   UNL A   1      41.175  23.800  27.379  1.00  0.00     0.060 A 
ATOM     29  C   UNL A   1      41.944  23.940  28.532  1.00  0.00     0.016 A 
ATOM     30  C   UNL A   1      40.918  24.913  26.571  1.00  0.00     0.016 A 
ATOM     31  C   UNL A   1      42.351  25.214  28.936  1.00  0.00     0.010 A 
ATOM     32  C   UNL A   1      41.405  26.174  26.934  1.00  0.00     0.010 A 
ATOM     33  C   UNL A   1      42.086  26.351  28.145  1.00  0.00    -0.014 A 
BRANCH  33  34
ATOM     34  C   UNL A   1      42.534  27.704  28.594  1.00  0.00     0.031 A 
ATOM     35  C   UNL A   1      43.980  28.138  28.495  1.00  0.00     0.074 A 
ATOM     36  C   UNL A   1      41.622  28.576  29.067  1.00  0.00     0.049 A 
ATOM     37  N   UNL A   1      44.533  29.254  28.909  1.00  0.00    -0.248 NA
ATOM     38  C   UNL A   1      44.928  27.203  27.868  1.00  0.00     0.031 C 
ATOM     39  C   UNL A   1      40.194  28.297  29.228  1.00  0.00     0.029 A 
ATOM     40  N   UNL A   1      41.750  29.884  29.462  1.00  0.00    -0.354 N 
ATOM     41  C   UNL A   1      45.893  29.135  28.641  1.00  0.00     0.074 A 
ATOM     42  C   UNL A   1      46.083  27.841  28.019  1.00  0.00     0.031 C 
ATOM     43  C   UNL A   1      39.564  29.424  29.592  1.00  0.00     0.029 A 
ATOM     44  C   UNL A   1      40.552  30.481  29.777  1.00  0.00     0.049 A 
ATOM     45  H   UNL A   1      42.615  30.350  29.516  1.00  0.00     0.167 HD
ATOM     46  C   UNL A   1      46.892  30.018  28.899  1.00  0.00     0.031 A 
ATOM     47  C   UNL A   1      40.268  31.731  30.185  1.00  0.00     0.031 A 
ATOM     48  C   UNL A   1      46.704  31.321  29.488  1.00  0.00     0.049 A 
ATOM     49  C   UNL A   1      41.381  32.707  30.407  1.00  0.00     0.074 A 
ATOM     50  C   UNL A   1      47.662  32.266  29.818  1.00  0.00     0.029 A 
ATOM     51  N   UNL A   1      45.476  31.877  29.808  1.00  0.00    -0.354 N 
ATOM     52  N   UNL A   1      42.669  32.533  30.238  1.00  0.00    -0.248 NA
ATOM     53  C   UNL A   1      41.006  34.037  30.905  1.00  0.00     0.031 C 
ATOM     54  C   UNL A   1      47.015  33.384  30.359  1.00  0.00     0.029 A 
ATOM     55  C   UNL A   1      45.651  33.150  30.330  1.00  0.00     0.049 A 
ATOM     56  H   UNL A   1      44.606  31.434  29.683  1.00  0.00     0.167 HD
ATOM     57  C   UNL A   1      43.263  33.719  30.647  1.00  0.00     0.074 A 
ATOM     58  C   UNL A   1      42.191  34.622  31.016  1.00  0.00     0.031 C 
ATOM     59  C   UNL A   1      44.581  34.022  30.735  1.00  0.00     0.031 A 
BRANCH  46  60
ATOM     60  C   UNL A   1      48.304  29.594  28.585  1.00  0.00    -0.014 A 
ATOM     61  C   UNL A   1      48.942  29.996  27.399  1.00  0.00     0.010 A 
ATOM     62  C   UNL A   1      49.031  28.854  29.536  1.00  0.00     0.010 A 
ATOM     63  C   UNL A   1      50.277  29.648  27.161  1.00  0.00     0.020 A 
ATOM     64  C   UNL A   1      50.370  28.519  29.310  1.00  0.00     0.020 A 
ATOM     65  C   UNL A   1      50.982  28.908  28.116  1.00  0.00     0.054 A 
BRANCH  65  66
ATOM     66  S   UNL A   1      52.725  28.506  27.810  1.00  0.00     0.124 S 
ATOM     67  O   UNL A   1      52.925  29.042  26.466  1.00  0.00    -0.237 OA
ATOM     68  O   UNL A   1      53.417  29.220  28.880  1.00  0.00    -0.237 OA
ATOM     69  O   UNL A   1      52.767  27.049  27.913  1.00  0.00    -0.744 OA
ENDBRANCH  65  66
ENDBRANCH  46  60
BRANCH  47  70
ATOM     70  C   UNL A   1      38.855  32.104  30.449  1.00  0.00    -0.014 A 
ATOM     71  C   UNL A   1      38.334  32.050  31.753  1.00  0.00     0.010 A 
ATOM     72  C   UNL A   1      38.045  32.581  29.402  1.00  0.00     0.010 A 
ATOM     73  C   UNL A   1      37.029  32.480  32.009  1.00  0.00     0.020 A 
ATOM     74  C   UNL A   1      36.752  33.037  29.659  1.00  0.00     0.020 A 
ATOM     75  C   UNL A   1      36.249  32.978  30.960  1.00  0.00     0.054 A 
BRANCH  75  76
ATOM     76  S   UNL A   1      34.597  33.642  31.311  1.00  0.00     0.124 S 
ATOM     77  O   UNL A   1      34.911  34.919  31.942  1.00  0.00    -0.237 OA
ATOM     78  O   UNL A   1      33.988  33.724  29.986  1.00  0.00    -0.237 OA
ATOM     79  O   UNL A   1      34.014  32.631  32.190  1.00  0.00    -0.744 OA
ENDBRANCH  75  76
ENDBRANCH  47  70
BRANCH  59  80
ATOM     80  C   UNL A   1      44.918  35.376  31.293  1.00  0.00    -0.014 A 
ATOM     81  C   UNL A   1      44.902  36.512  30.462  1.00  0.00     0.010 A 
ATOM     82  C   UNL A   1      45.285  35.515  32.642  1.00  0.00     0.010 A 
ATOM     83  C   UNL A   1      45.299  37.756  30.958  1.00  0.00     0.020 A 
ATOM     84  C   UNL A   1      45.667  36.761  33.146  1.00  0.00     0.020 A 
ATOM     85  C   UNL A   1      45.696  37.869  32.294  1.00  0.00     0.054 A 
BRANCH  85  86
ATOM     86  S   UNL A   1      46.231  39.486  32.917  1.00  0.00     0.124 S 
ATOM     87  O   UNL A   1      45.220  39.769  33.931  1.00  0.00    -0.237 OA
ATOM     88  O   UNL A   1      47.573  39.213  33.426  1.00  0.00    -0.237 OA
ATOM     89  O   UNL A   1      46.185  40.342  31.733  1.00  0.00    -0.744 OA
ENDBRANCH  85  86
ENDBRANCH  59  80
ENDBRANCH  33  34
ENDBRANCH  26  28
ENDBRANCH  25  26
ENDBRANCH  24  25
ENDBRANCH   1  24
TORSDOF 20
ENDMDL
MODEL 3
REMARK VINA RESULT:      -8.9      5.596     10.539
REMARK SMILES CC[C@](C)(NC(=O)CCOc1ccc(Cl)c(Cl)c1)C(=O)OCCOC(=O)c1ccc(-c2c3nc(c(-c4ccc(S(=O)(=O)[O-])cc4)c4ccc([nH]4)c(-c4ccc(S(=O)(=O)[O-])cc4)c4nc(c(-c5ccc(S(=O)(=O)[O-])cc5)c5ccc2[nH]5)C=C4)C=C3)cc1
REMARK SMILES IDX 22 1 21 2 19 3 20 4 3 5 4 6 2 7 1 8 5 9 6 10 7 12 8 13 9 14
REMARK SMILES IDX 10 15 11 16 12 17 18 18 13 19 16 20 14 21 17 22 15 23 23 24
REMARK SMILES IDX 24 25 25 26 26 27 27 28 28 29 86 30 29 31 85 32 30 33 31 34
REMARK SMILES IDX 32 35 79 36 33 37 84 38 78 39 80 40 34 41 83 42 77 43 76 44
REMARK SMILES IDX 35 46 65 47 46 48 64 49 47 50 50 51 63 52 81 53 48 54 49 55
REMARK SMILES IDX 62 57 82 58 51 59 36 60 37 61 45 62 38 63 44 64 39 65 40 66
REMARK SMILES IDX 41 67 42 68 43 69 66 70 67 71 75 72 68 73 74 74 69 75 70 76
REMARK SMILES IDX 71 77 72 78 73 79 52 80 53 81 61 82 54 83 60 84 55 85 56 86
REMARK SMILES IDX 57 87 58 88 59 89
REMARK H PARENT 5 11 80 45 50 56
REMARK Flexibility Score: inf
ROOT
ATOM      1  C   UNL A   1      36.886  22.718  24.990  1.00  0.00     0.274 C 
ENDROOT
BRANCH   1   2
ATOM      2  O   UNL A   1      35.713  22.103  24.414  1.00  0.00    -0.460 OA
BRANCH   2   3
ATOM      3  C   UNL A   1      34.711  21.829  25.294  1.00  0.00     0.331 C 
ATOM      4  O   UNL A   1      34.901  21.433  26.440  1.00  0.00    -0.249 OA
BRANCH   3   5
ATOM      5  C   UNL A   1      33.287  22.076  24.721  1.00  0.00     0.135 C 
ATOM      6  C   UNL A   1      32.352  22.247  25.921  1.00  0.00     0.047 C 
BRANCH   5   7
ATOM      7  C   UNL A   1      32.915  20.788  23.905  1.00  0.00     0.037 C 
ATOM      8  C   UNL A   1      33.295  19.448  24.531  1.00  0.00     0.007 C 
ENDBRANCH   5   7
BRANCH   5   9
ATOM      9  N   UNL A   1      33.109  23.228  23.783  1.00  0.00    -0.340 N 
ATOM     10  C   UNL A   1      33.099  24.577  23.943  1.00  0.00     0.224 C 
ATOM     11  H   UNL A   1      32.967  22.948  22.850  1.00  0.00     0.164 HD
ATOM     12  O   UNL A   1      32.575  25.243  23.043  1.00  0.00    -0.275 OA
BRANCH  10  13
ATOM     13  C   UNL A   1      33.774  25.252  25.107  1.00  0.00     0.141 C 
BRANCH  13  14
ATOM     14  C   UNL A   1      32.799  26.045  25.978  1.00  0.00     0.239 C 
BRANCH  14  15
ATOM     15  O   UNL A   1      32.586  27.368  25.474  1.00  0.00    -0.493 OA
BRANCH  15  16
ATOM     16  C   UNL A   1      33.013  28.447  26.189  1.00  0.00     0.120 A 
ATOM     17  C   UNL A   1      34.241  28.584  26.832  1.00  0.00     0.048 A 
ATOM     18  C   UNL A   1      32.110  29.516  26.208  1.00  0.00     0.068 A 
ATOM     19  C   UNL A   1      34.581  29.797  27.441  1.00  0.00     0.026 A 
ATOM     20  C   UNL A   1      32.454  30.737  26.794  1.00  0.00     0.063 A 
ATOM     21  C   UNL A   1      33.698  30.880  27.410  1.00  0.00     0.059 A 
ATOM     22  Cl  UNL A   1      31.322  32.035  26.669  1.00  0.00    -0.083 Cl
ATOM     23  Cl  UNL A   1      34.223  32.364  28.121  1.00  0.00    -0.083 Cl
ENDBRANCH  15  16
ENDBRANCH  14  15
ENDBRANCH  13  14
ENDBRANCH  10  13
ENDBRANCH   5   9
ENDBRANCH   3   5
ENDBRANCH   2   3
ENDBRANCH   1   2
BRANCH   1  24
ATOM     24  C   UNL A   1      38.009  21.699  25.168  1.00  0.00     0.275 C 
BRANCH  24  25
ATOM     25  O   UNL A   1      38.649  21.869  26.447  1.00  0.00    -0.458 OA
BRANCH  25  26
ATOM     26  C   UNL A   1      39.980  22.100  26.397  1.00  0.00     0.338 C 
ATOM     27  O   UNL A   1      40.828  21.366  25.902  1.00  0.00    -0.246 OA
BRANCH  26  28
ATOM     28  C   UNL A   1      40.336  23.380  27.033  1.00  0.00     0.060 A 
ATOM     29  C   UNL A   1      39.937  24.592  26.473  1.00  0.00     0.016 A 
ATOM     30  C   UNL A   1      41.221  23.368  28.116  1.00  0.00     0.016 A 
ATOM     31  C   UNL A   1      40.519  25.780  26.922  1.00  0.00     0.010 A 
ATOM     32  C   UNL A   1      41.733  24.569  28.621  1.00  0.00     0.010 A 
ATOM     33  C   UNL A   1      41.428  25.787  28.000  1.00  0.00    -0.014 A 
BRANCH  33  34
ATOM     34  C   UNL A   1      42.036  27.070  28.467  1.00  0.00     0.031 A 
ATOM     35  C   UNL A   1      43.486  27.408  28.204  1.00  0.00     0.074 A 
ATOM     36  C   UNL A   1      41.263  27.967  29.111  1.00  0.00     0.049 A 
ATOM     37  N   UNL A   1      44.174  28.449  28.608  1.00  0.00    -0.248 NA
ATOM     38  C   UNL A   1      44.269  26.456  27.399  1.00  0.00     0.031 C 
ATOM     39  C   UNL A   1      39.850  27.779  29.445  1.00  0.00     0.029 A 
ATOM     40  N   UNL A   1      41.544  29.232  29.566  1.00  0.00    -0.354 N 
ATOM     41  C   UNL A   1      45.475  28.256  28.154  1.00  0.00     0.074 A 
ATOM     42  C   UNL A   1      45.481  27.000  27.433  1.00  0.00     0.031 C 
ATOM     43  C   UNL A   1      39.363  28.918  29.958  1.00  0.00     0.029 A 
ATOM     44  C   UNL A   1      40.447  29.887  30.074  1.00  0.00     0.049 A 
ATOM     45  H   UNL A   1      42.443  29.632  29.532  1.00  0.00     0.167 HD
ATOM     46  C   UNL A   1      46.565  29.045  28.330  1.00  0.00     0.031 A 
ATOM     47  C   UNL A   1      40.317  31.122  30.593  1.00  0.00     0.031 A 
ATOM     48  C   UNL A   1      46.557  30.313  29.018  1.00  0.00     0.049 A 
ATOM     49  C   UNL A   1      41.523  31.999  30.725  1.00  0.00     0.074 A 
ATOM     50  C   UNL A   1      47.622  31.163  29.274  1.00  0.00     0.029 A 
ATOM     51  N   UNL A   1      45.428  30.929  29.533  1.00  0.00    -0.354 N 
ATOM     52  N   UNL A   1      42.761  31.748  30.374  1.00  0.00    -0.248 NA
ATOM     53  C   UNL A   1      41.321  33.312  31.349  1.00  0.00     0.031 C 
ATOM     54  C   UNL A   1      47.139  32.282  29.966  1.00  0.00     0.029 A 
ATOM     55  C   UNL A   1      45.769  32.146  30.105  1.00  0.00     0.049 A 
ATOM     56  H   UNL A   1      44.517  30.558  29.499  1.00  0.00     0.167 HD
ATOM     57  C   UNL A   1      43.494  32.857  30.772  1.00  0.00     0.074 A 
ATOM     58  C   UNL A   1      42.553  33.804  31.337  1.00  0.00     0.031 C 
ATOM     59  C   UNL A   1      44.832  33.060  30.702  1.00  0.00     0.031 A 
BRANCH  46  60
ATOM     60  C   UNL A   1      47.887  28.548  27.805  1.00  0.00    -0.014 A 
ATOM     61  C   UNL A   1      48.805  27.887  28.640  1.00  0.00     0.010 A 
ATOM     62  C   UNL A   1      48.176  28.669  26.433  1.00  0.00     0.010 A 
ATOM     63  C   UNL A   1      49.996  27.374  28.115  1.00  0.00     0.020 A 
ATOM     64  C   UNL A   1      49.357  28.142  25.901  1.00  0.00     0.020 A 
ATOM     65  C   UNL A   1      50.266  27.507  26.749  1.00  0.00     0.054 A 
BRANCH  65  66
ATOM     66  S   UNL A   1      51.795  26.793  26.078  1.00  0.00     0.124 S 
ATOM     67  O   UNL A   1      52.667  26.796  27.250  1.00  0.00    -0.237 OA
ATOM     68  O   UNL A   1      51.365  25.475  25.619  1.00  0.00    -0.237 OA
ATOM     69  O   UNL A   1      52.175  27.724  25.017  1.00  0.00    -0.744 OA
ENDBRANCH  65  66
ENDBRANCH  46  60
BRANCH  47  70
ATOM     70  C   UNL A   1      38.983  31.573  31.066  1.00  0.00    -0.014 A 
ATOM     71  C   UNL A   1      38.601  31.389  32.405  1.00  0.00     0.010 A 
ATOM     72  C   UNL A   1      38.118  32.252  30.190  1.00  0.00     0.010 A 
ATOM     73  C   UNL A   1      37.379  31.888  32.865  1.00  0.00     0.020 A 
ATOM     74  C   UNL A   1      36.910  32.775  30.652  1.00  0.00     0.020 A 
ATOM     75  C   UNL A   1      36.545  32.586  31.985  1.00  0.00     0.054 A 
BRANCH  75  76
ATOM     76  S   UNL A   1      35.013  33.332  32.608  1.00  0.00     0.124 S 
ATOM     77  O   UNL A   1      35.127  33.105  34.044  1.00  0.00    -0.237 OA
ATOM     78  O   UNL A   1      35.126  34.723  32.176  1.00  0.00    -0.237 OA
ATOM     79  O   UNL A   1      33.971  32.565  31.929  1.00  0.00    -0.744 OA
ENDBRANCH  75  76
ENDBRANCH  47  70
BRANCH  59  80
ATOM     80  C   UNL A   1      45.344  34.344  31.292  1.00  0.00    -0.014 A 
ATOM     81  C   UNL A   1      45.461  35.497  30.494  1.00  0.00     0.010 A 
ATOM     82  C   UNL A   1      45.740  34.395  32.639  1.00  0.00     0.010 A 
ATOM     83  C   UNL A   1      46.018  36.665  31.018  1.00  0.00     0.020 A 
ATOM     84  C   UNL A   1      46.282  35.568  33.172  1.00  0.00     0.020 A 
ATOM     85  C   UNL A   1      46.441  36.688  32.351  1.00  0.00     0.054 A 
BRANCH  85  86
ATOM     86  S   UNL A   1      47.183  38.206  33.010  1.00  0.00     0.124 S 
ATOM     87  O   UNL A   1      46.664  38.228  34.374  1.00  0.00    -0.237 OA
ATOM     88  O   UNL A   1      48.617  37.949  32.887  1.00  0.00    -0.237 OA
ATOM     89  O   UNL A   1      46.667  39.251  32.129  1.00  0.00    -0.744 OA
ENDBRANCH  85  86
ENDBRANCH  59  80
ENDBRANCH  33  34
ENDBRANCH  26  28
ENDBRANCH  25  26
ENDBRANCH  24  25
ENDBRANCH   1  24
TORSDOF 20
ENDMDL
