MODEL 1
REMARK VINA RESULT:     -10.1      0.000      0.000
REMARK SMILES C[C@@H](C(=O)OCCOC(=O)c1ccc(-c2c3nc(c(-c4ccc(S(=O)(=O)[O-])cc4)c4ccc([nH]4)c(-c4ccc(S(=O)(=O)[O-])cc4)c4nc(c(-c5ccc(S(=O)(=O)[O-])cc5)c5ccc2[nH]5)C=C4)C=C3)cc1)c1ccc(C[C@@H]2CCC[C@@H]2O)cc1
REMARK SMILES IDX 6 1 5 2 3 3 4 4 2 5 1 6 71 7 72 8 83 9 73 10 82 11 74 12
REMARK SMILES IDX 75 13 76 14 77 15 80 16 78 17 79 18 81 19 7 21 8 22 9 23
REMARK SMILES IDX 10 24 11 25 12 26 70 27 13 28 69 29 14 30 15 31 16 32 63 33
REMARK SMILES IDX 17 34 68 35 62 36 64 37 18 38 67 39 61 40 60 41 19 43 49 44
REMARK SMILES IDX 30 45 48 46 31 47 34 48 47 49 65 50 32 51 33 52 46 54 66 55
REMARK SMILES IDX 35 56 20 57 21 58 29 59 22 60 28 61 23 62 24 63 25 64 26 65
REMARK SMILES IDX 27 66 50 67 51 68 59 69 52 70 58 71 53 72 54 73 55 74 56 75
REMARK SMILES IDX 57 76 36 77 37 78 45 79 38 80 44 81 39 82 40 83 41 84 42 85
REMARK SMILES IDX 43 86
REMARK H PARENT 81 20 64 42 34 53
REMARK Flexibility Score: inf
ROOT
ATOM      1  C   UNL A   1      37.974  23.927  26.358  1.00  0.00     0.274 C 
ENDROOT
BRANCH   1   2
ATOM      2  O   UNL A   1      37.694  23.861  24.944  1.00  0.00    -0.462 OA
BRANCH   2   3
ATOM      3  C   UNL A   1      36.780  22.939  24.525  1.00  0.00     0.313 C 
ATOM      4  O   UNL A   1      36.956  22.220  23.548  1.00  0.00    -0.252 OA
BRANCH   3   5
ATOM      5  C   UNL A   1      35.474  22.966  25.359  1.00  0.00     0.126 C 
ATOM      6  C   UNL A   1      34.808  21.575  25.363  1.00  0.00     0.025 C 
BRANCH   5   7
ATOM      7  C   UNL A   1      34.512  24.086  24.949  1.00  0.00    -0.034 A 
ATOM      8  C   UNL A   1      33.843  24.081  23.718  1.00  0.00     0.005 A 
ATOM      9  C   UNL A   1      34.251  25.174  25.790  1.00  0.00     0.005 A 
ATOM     10  C   UNL A   1      33.175  25.215  23.248  1.00  0.00     0.004 A 
ATOM     11  C   UNL A   1      33.620  26.323  25.298  1.00  0.00     0.004 A 
ATOM     12  C   UNL A   1      33.218  26.403  23.960  1.00  0.00    -0.048 A 
BRANCH  12  13
ATOM     13  C   UNL A   1      32.858  27.740  23.354  1.00  0.00     0.041 C 
BRANCH  13  14
ATOM     14  C   UNL A   1      31.565  28.495  23.787  1.00  0.00     0.022 C 
ATOM     15  C   UNL A   1      30.520  27.624  24.496  1.00  0.00     0.007 C 
ATOM     16  C   UNL A   1      30.726  29.288  22.777  1.00  0.00     0.117 C 
ATOM     17  C   UNL A   1      29.257  27.616  23.627  1.00  0.00     0.003 C 
ATOM     18  C   UNL A   1      29.583  28.389  22.364  1.00  0.00     0.032 C 
BRANCH  16  19
ATOM     19  O   UNL A   1      31.427  29.734  21.652  1.00  0.00    -0.393 OA
ATOM     20  H   UNL A   1      32.028  30.451  21.908  1.00  0.00     0.210 HD
ENDBRANCH  16  19
ENDBRANCH  13  14
ENDBRANCH  12  13
ENDBRANCH   5   7
ENDBRANCH   3   5
ENDBRANCH   2   3
ENDBRANCH   1   2
BRANCH   1  21
ATOM     21  C   UNL A   1      39.410  23.492  26.634  1.00  0.00     0.275 C 
BRANCH  21  22
ATOM     22  O   UNL A   1      40.023  24.418  27.549  1.00  0.00    -0.458 OA
BRANCH  22  23
ATOM     23  C   UNL A   1      40.317  25.633  27.049  1.00  0.00     0.338 C 
ATOM     24  O   UNL A   1      40.802  25.892  25.949  1.00  0.00    -0.246 OA
BRANCH  23  25
ATOM     25  C   UNL A   1      39.933  26.676  28.006  1.00  0.00     0.060 A 
ATOM     26  C   UNL A   1      40.630  27.873  27.970  1.00  0.00     0.016 A 
ATOM     27  C   UNL A   1      39.063  26.402  29.065  1.00  0.00     0.016 A 
ATOM     28  C   UNL A   1      40.564  28.724  29.072  1.00  0.00     0.010 A 
ATOM     29  C   UNL A   1      38.950  27.306  30.139  1.00  0.00     0.010 A 
ATOM     30  C   UNL A   1      39.772  28.441  30.203  1.00  0.00    -0.014 A 
BRANCH  30  31
ATOM     31  C   UNL A   1      39.945  29.280  31.443  1.00  0.00     0.031 A 
ATOM     32  C   UNL A   1      39.019  30.444  31.773  1.00  0.00     0.074 A 
ATOM     33  C   UNL A   1      40.828  28.897  32.392  1.00  0.00     0.049 A 
ATOM     34  N   UNL A   1      38.937  31.142  32.886  1.00  0.00    -0.248 NA
ATOM     35  C   UNL A   1      38.035  30.860  30.761  1.00  0.00     0.031 C 
ATOM     36  C   UNL A   1      41.727  27.744  32.297  1.00  0.00     0.029 A 
ATOM     37  N   UNL A   1      41.095  29.416  33.639  1.00  0.00    -0.354 N 
ATOM     38  C   UNL A   1      37.857  32.009  32.731  1.00  0.00     0.074 A 
ATOM     39  C   UNL A   1      37.344  31.796  31.398  1.00  0.00     0.031 C 
ATOM     40  C   UNL A   1      42.398  27.610  33.448  1.00  0.00     0.029 A 
ATOM     41  C   UNL A   1      42.082  28.739  34.315  1.00  0.00     0.049 A 
ATOM     42  H   UNL A   1      40.623  30.196  34.010  1.00  0.00     0.167 HD
ATOM     43  C   UNL A   1      37.331  32.902  33.606  1.00  0.00     0.031 A 
ATOM     44  C   UNL A   1      42.732  29.019  35.463  1.00  0.00     0.031 A 
ATOM     45  C   UNL A   1      37.919  33.253  34.872  1.00  0.00     0.049 A 
ATOM     46  C   UNL A   1      42.364  30.245  36.240  1.00  0.00     0.074 A 
ATOM     47  C   UNL A   1      37.519  34.231  35.767  1.00  0.00     0.029 A 
ATOM     48  N   UNL A   1      39.073  32.691  35.390  1.00  0.00    -0.354 N 
ATOM     49  N   UNL A   1      41.338  31.043  36.074  1.00  0.00    -0.248 NA
ATOM     50  C   UNL A   1      43.261  30.632  37.338  1.00  0.00     0.031 C 
ATOM     51  C   UNL A   1      38.493  34.335  36.768  1.00  0.00     0.029 A 
ATOM     52  C   UNL A   1      39.456  33.368  36.537  1.00  0.00     0.049 A 
ATOM     53  H   UNL A   1      39.552  31.924  35.001  1.00  0.00     0.167 HD
ATOM     54  C   UNL A   1      41.465  32.027  37.047  1.00  0.00     0.074 A 
ATOM     55  C   UNL A   1      42.656  31.716  37.809  1.00  0.00     0.031 C 
ATOM     56  C   UNL A   1      40.658  33.091  37.280  1.00  0.00     0.031 A 
BRANCH  43  57
ATOM     57  C   UNL A   1      36.086  33.646  33.194  1.00  0.00    -0.014 A 
ATOM     58  C   UNL A   1      34.809  33.162  33.527  1.00  0.00     0.010 A 
ATOM     59  C   UNL A   1      36.200  34.888  32.542  1.00  0.00     0.010 A 
ATOM     60  C   UNL A   1      33.664  33.900  33.199  1.00  0.00     0.020 A 
ATOM     61  C   UNL A   1      35.060  35.631  32.220  1.00  0.00     0.020 A 
ATOM     62  C   UNL A   1      33.799  35.128  32.541  1.00  0.00     0.054 A 
BRANCH  62  63
ATOM     63  S   UNL A   1      32.301  36.069  32.130  1.00  0.00     0.124 S 
ATOM     64  O   UNL A   1      32.427  37.233  33.005  1.00  0.00    -0.237 OA
ATOM     65  O   UNL A   1      32.469  36.335  30.705  1.00  0.00    -0.237 OA
ATOM     66  O   UNL A   1      31.211  35.156  32.467  1.00  0.00    -0.744 OA
ENDBRANCH  62  63
ENDBRANCH  43  57
BRANCH  44  67
ATOM     67  C   UNL A   1      43.911  28.191  35.841  1.00  0.00    -0.014 A 
ATOM     68  C   UNL A   1      43.800  27.096  36.712  1.00  0.00     0.010 A 
ATOM     69  C   UNL A   1      45.166  28.492  35.274  1.00  0.00     0.010 A 
ATOM     70  C   UNL A   1      44.921  26.304  36.989  1.00  0.00     0.020 A 
ATOM     71  C   UNL A   1      46.275  27.683  35.518  1.00  0.00     0.020 A 
ATOM     72  C   UNL A   1      46.147  26.597  36.381  1.00  0.00     0.054 A 
BRANCH  72  73
ATOM     73  S   UNL A   1      47.566  25.505  36.666  1.00  0.00     0.124 S 
ATOM     74  O   UNL A   1      47.062  24.223  36.186  1.00  0.00    -0.237 OA
ATOM     75  O   UNL A   1      48.613  26.120  35.853  1.00  0.00    -0.237 OA
ATOM     76  O   UNL A   1      47.780  25.594  38.110  1.00  0.00    -0.744 OA
ENDBRANCH  72  73
ENDBRANCH  44  67
BRANCH  56  77
ATOM     77  C   UNL A   1      41.034  34.012  38.407  1.00  0.00    -0.014 A 
ATOM     78  C   UNL A   1      40.633  33.740  39.727  1.00  0.00     0.010 A 
ATOM     79  C   UNL A   1      41.823  35.148  38.151  1.00  0.00     0.010 A 
ATOM     80  C   UNL A   1      40.986  34.605  40.767  1.00  0.00     0.020 A 
ATOM     81  C   UNL A   1      42.200  36.002  39.192  1.00  0.00     0.020 A 
ATOM     82  C   UNL A   1      41.765  35.734  40.491  1.00  0.00     0.054 A 
BRANCH  82  83
ATOM     83  S   UNL A   1      42.237  36.828  41.858  1.00  0.00     0.124 S 
ATOM     84  O   UNL A   1      40.958  37.044  42.530  1.00  0.00    -0.237 OA
ATOM     85  O   UNL A   1      43.207  36.022  42.597  1.00  0.00    -0.237 OA
ATOM     86  O   UNL A   1      42.794  38.001  41.187  1.00  0.00    -0.744 OA
ENDBRANCH  82  83
ENDBRANCH  56  77
ENDBRANCH  30  31
ENDBRANCH  23  25
ENDBRANCH  22  23
ENDBRANCH  21  22
ENDBRANCH   1  21
TORSDOF 18
ENDMDL
MODEL 2
REMARK VINA RESULT:     -10.1      4.896     10.507
REMARK SMILES C[C@@H](C(=O)OCCOC(=O)c1ccc(-c2c3nc(c(-c4ccc(S(=O)(=O)[O-])cc4)c4ccc([nH]4)c(-c4ccc(S(=O)(=O)[O-])cc4)c4nc(c(-c5ccc(S(=O)(=O)[O-])cc5)c5ccc2[nH]5)C=C4)C=C3)cc1)c1ccc(C[C@@H]2CCC[C@@H]2O)cc1
REMARK SMILES IDX 6 1 5 2 3 3 4 4 2 5 1 6 71 7 72 8 83 9 73 10 82 11 74 12
REMARK SMILES IDX 75 13 76 14 77 15 80 16 78 17 79 18 81 19 7 21 8 22 9 23
REMARK SMILES IDX 10 24 11 25 12 26 70 27 13 28 69 29 14 30 15 31 16 32 63 33
REMARK SMILES IDX 17 34 68 35 62 36 64 37 18 38 67 39 61 40 60 41 19 43 49 44
REMARK SMILES IDX 30 45 48 46 31 47 34 48 47 49 65 50 32 51 33 52 46 54 66 55
REMARK SMILES IDX 35 56 20 57 21 58 29 59 22 60 28 61 23 62 24 63 25 64 26 65
REMARK SMILES IDX 27 66 50 67 51 68 59 69 52 70 58 71 53 72 54 73 55 74 56 75
REMARK SMILES IDX 57 76 36 77 37 78 45 79 38 80 44 81 39 82 40 83 41 84 42 85
REMARK SMILES IDX 43 86
REMARK H PARENT 81 20 64 42 34 53
REMARK Flexibility Score: inf
ROOT
ATOM      1  C   UNL A   1      31.724  30.424  25.784  1.00  0.00     0.274 C 
ENDROOT
BRANCH   1   2
ATOM      2  O   UNL A   1      31.791  29.085  25.249  1.00  0.00    -0.462 OA
BRANCH   2   3
ATOM      3  C   UNL A   1      30.951  28.776  24.220  1.00  0.00     0.313 C 
ATOM      4  O   UNL A   1      30.225  29.602  23.677  1.00  0.00    -0.252 OA
BRANCH   3   5
ATOM      5  C   UNL A   1      30.952  27.265  23.877  1.00  0.00     0.126 C 
ATOM      6  C   UNL A   1      29.527  26.686  23.990  1.00  0.00     0.025 C 
BRANCH   5   7
ATOM      7  C   UNL A   1      31.986  26.460  24.671  1.00  0.00    -0.034 A 
ATOM      8  C   UNL A   1      33.330  26.384  24.282  1.00  0.00     0.005 A 
ATOM      9  C   UNL A   1      31.638  25.759  25.832  1.00  0.00     0.005 A 
ATOM     10  C   UNL A   1      34.202  25.454  24.855  1.00  0.00     0.004 A 
ATOM     11  C   UNL A   1      32.501  24.798  26.372  1.00  0.00     0.004 A 
ATOM     12  C   UNL A   1      33.739  24.530  25.778  1.00  0.00    -0.048 A 
BRANCH  12  13
ATOM     13  C   UNL A   1      34.505  23.281  26.148  1.00  0.00     0.041 C 
BRANCH  13  14
ATOM     14  C   UNL A   1      34.395  21.988  25.287  1.00  0.00     0.022 C 
ATOM     15  C   UNL A   1      33.847  22.205  23.870  1.00  0.00     0.007 C 
ATOM     16  C   UNL A   1      33.608  20.765  25.777  1.00  0.00     0.117 C 
ATOM     17  C   UNL A   1      32.531  21.426  23.757  1.00  0.00     0.003 C 
ATOM     18  C   UNL A   1      32.246  20.837  25.125  1.00  0.00     0.032 C 
BRANCH  16  19
ATOM     19  O   UNL A   1      33.479  20.668  27.166  1.00  0.00    -0.393 OA
ATOM     20  H   UNL A   1      33.384  19.735  27.418  1.00  0.00     0.210 HD
ENDBRANCH  16  19
ENDBRANCH  13  14
ENDBRANCH  12  13
ENDBRANCH   5   7
ENDBRANCH   3   5
ENDBRANCH   2   3
ENDBRANCH   1   2
BRANCH   1  21
ATOM     21  C   UNL A   1      32.297  30.458  27.197  1.00  0.00     0.275 C 
BRANCH  21  22
ATOM     22  O   UNL A   1      33.734  30.485  27.129  1.00  0.00    -0.458 OA
BRANCH  22  23
ATOM     23  C   UNL A   1      34.360  29.335  27.439  1.00  0.00     0.338 C 
ATOM     24  O   UNL A   1      33.952  28.189  27.257  1.00  0.00    -0.246 OA
BRANCH  23  25
ATOM     25  C   UNL A   1      35.678  29.620  28.016  1.00  0.00     0.060 A 
ATOM     26  C   UNL A   1      36.730  29.848  27.142  1.00  0.00     0.016 A 
ATOM     27  C   UNL A   1      35.925  29.441  29.380  1.00  0.00     0.016 A 
ATOM     28  C   UNL A   1      38.035  29.747  27.620  1.00  0.00     0.010 A 
ATOM     29  C   UNL A   1      37.249  29.415  29.861  1.00  0.00     0.010 A 
ATOM     30  C   UNL A   1      38.331  29.475  28.971  1.00  0.00    -0.014 A 
BRANCH  30  31
ATOM     31  C   UNL A   1      39.749  29.140  29.355  1.00  0.00     0.031 A 
ATOM     32  C   UNL A   1      40.361  27.770  29.088  1.00  0.00     0.074 A 
ATOM     33  C   UNL A   1      40.575  30.119  29.786  1.00  0.00     0.049 A 
ATOM     34  N   UNL A   1      41.617  27.393  29.202  1.00  0.00    -0.248 NA
ATOM     35  C   UNL A   1      39.482  26.698  28.596  1.00  0.00     0.031 C 
ATOM     36  C   UNL A   1      40.192  31.517  30.002  1.00  0.00     0.029 A 
ATOM     37  N   UNL A   1      41.917  30.099  30.091  1.00  0.00    -0.354 N 
ATOM     38  C   UNL A   1      41.682  26.085  28.726  1.00  0.00     0.074 A 
ATOM     39  C   UNL A   1      40.334  25.705  28.374  1.00  0.00     0.031 C 
ATOM     40  C   UNL A   1      41.275  32.225  30.344  1.00  0.00     0.029 A 
ATOM     41  C   UNL A   1      42.404  31.316  30.505  1.00  0.00     0.049 A 
ATOM     42  H   UNL A   1      42.474  29.291  30.018  1.00  0.00     0.167 HD
ATOM     43  C   UNL A   1      42.754  25.265  28.589  1.00  0.00     0.031 A 
ATOM     44  C   UNL A   1      43.593  31.669  31.035  1.00  0.00     0.031 A 
ATOM     45  C   UNL A   1      44.075  25.554  29.084  1.00  0.00     0.049 A 
ATOM     46  C   UNL A   1      44.660  30.633  31.212  1.00  0.00     0.074 A 
ATOM     47  C   UNL A   1      45.190  24.732  29.095  1.00  0.00     0.029 A 
ATOM     48  N   UNL A   1      44.441  26.726  29.722  1.00  0.00    -0.354 N 
ATOM     49  N   UNL A   1      44.697  29.407  30.751  1.00  0.00    -0.248 NA
ATOM     50  C   UNL A   1      45.831  31.014  32.014  1.00  0.00     0.031 C 
ATOM     51  C   UNL A   1      46.195  25.366  29.836  1.00  0.00     0.029 A 
ATOM     52  C   UNL A   1      45.729  26.613  30.218  1.00  0.00     0.049 A 
ATOM     53  H   UNL A   1      43.870  27.524  29.810  1.00  0.00     0.167 HD
ATOM     54  C   UNL A   1      45.894  28.869  31.205  1.00  0.00     0.074 A 
ATOM     55  C   UNL A   1      46.562  29.907  31.962  1.00  0.00     0.031 C 
ATOM     56  C   UNL A   1      46.389  27.623  31.004  1.00  0.00     0.031 A 
BRANCH  43  57
ATOM     57  C   UNL A   1      42.537  23.917  27.949  1.00  0.00    -0.014 A 
ATOM     58  C   UNL A   1      42.673  23.744  26.560  1.00  0.00     0.010 A 
ATOM     59  C   UNL A   1      42.278  22.795  28.757  1.00  0.00     0.010 A 
ATOM     60  C   UNL A   1      42.537  22.473  25.989  1.00  0.00     0.020 A 
ATOM     61  C   UNL A   1      42.150  21.523  28.191  1.00  0.00     0.020 A 
ATOM     62  C   UNL A   1      42.270  21.371  26.809  1.00  0.00     0.054 A 
BRANCH  62  63
ATOM     63  S   UNL A   1      42.102  19.732  26.046  1.00  0.00     0.124 S 
ATOM     64  O   UNL A   1      43.049  19.818  24.935  1.00  0.00    -0.237 OA
ATOM     65  O   UNL A   1      42.487  18.832  27.129  1.00  0.00    -0.237 OA
ATOM     66  O   UNL A   1      40.696  19.670  25.656  1.00  0.00    -0.744 OA
ENDBRANCH  62  63
ENDBRANCH  43  57
BRANCH  44  67
ATOM     67  C   UNL A   1      43.755  33.045  31.582  1.00  0.00    -0.014 A 
ATOM     68  C   UNL A   1      44.251  34.100  30.802  1.00  0.00     0.010 A 
ATOM     69  C   UNL A   1      43.358  33.302  32.911  1.00  0.00     0.010 A 
ATOM     70  C   UNL A   1      44.325  35.393  31.335  1.00  0.00     0.020 A 
ATOM     71  C   UNL A   1      43.395  34.594  33.432  1.00  0.00     0.020 A 
ATOM     72  C   UNL A   1      43.886  35.632  32.642  1.00  0.00     0.054 A 
BRANCH  72  73
ATOM     73  S   UNL A   1      43.890  37.326  33.288  1.00  0.00     0.124 S 
ATOM     74  O   UNL A   1      42.679  37.342  34.102  1.00  0.00    -0.237 OA
ATOM     75  O   UNL A   1      45.151  37.386  34.024  1.00  0.00    -0.237 OA
ATOM     76  O   UNL A   1      43.846  38.150  32.081  1.00  0.00    -0.744 OA
ENDBRANCH  72  73
ENDBRANCH  44  67
BRANCH  56  77
ATOM     77  C   UNL A   1      47.722  27.300  31.619  1.00  0.00    -0.014 A 
ATOM     78  C   UNL A   1      47.806  26.707  32.891  1.00  0.00     0.010 A 
ATOM     79  C   UNL A   1      48.905  27.565  30.906  1.00  0.00     0.010 A 
ATOM     80  C   UNL A   1      49.053  26.414  33.454  1.00  0.00     0.020 A 
ATOM     81  C   UNL A   1      50.152  27.250  31.454  1.00  0.00     0.020 A 
ATOM     82  C   UNL A   1      50.218  26.692  32.732  1.00  0.00     0.054 A 
BRANCH  82  83
ATOM     83  S   UNL A   1      51.824  26.278  33.468  1.00  0.00     0.124 S 
ATOM     84  O   UNL A   1      52.589  25.845  32.302  1.00  0.00    -0.237 OA
ATOM     85  O   UNL A   1      52.244  27.546  34.060  1.00  0.00    -0.237 OA
ATOM     86  O   UNL A   1      51.503  25.225  34.429  1.00  0.00    -0.744 OA
ENDBRANCH  82  83
ENDBRANCH  56  77
ENDBRANCH  30  31
ENDBRANCH  23  25
ENDBRANCH  22  23
ENDBRANCH  21  22
ENDBRANCH   1  21
TORSDOF 18
ENDMDL
MODEL 3
REMARK VINA RESULT:     -10.0      6.828      9.033
REMARK SMILES C[C@@H](C(=O)OCCOC(=O)c1ccc(-c2c3nc(c(-c4ccc(S(=O)(=O)[O-])cc4)c4ccc([nH]4)c(-c4ccc(S(=O)(=O)[O-])cc4)c4nc(c(-c5ccc(S(=O)(=O)[O-])cc5)c5ccc2[nH]5)C=C4)C=C3)cc1)c1ccc(C[C@@H]2CCC[C@@H]2O)cc1
REMARK SMILES IDX 6 1 5 2 3 3 4 4 2 5 1 6 71 7 72 8 83 9 73 10 82 11 74 12
REMARK SMILES IDX 75 13 76 14 77 15 80 16 78 17 79 18 81 19 7 21 8 22 9 23
REMARK SMILES IDX 10 24 11 25 12 26 70 27 13 28 69 29 14 30 15 31 16 32 63 33
REMARK SMILES IDX 17 34 68 35 62 36 64 37 18 38 67 39 61 40 60 41 19 43 49 44
REMARK SMILES IDX 30 45 48 46 31 47 34 48 47 49 65 50 32 51 33 52 46 54 66 55
REMARK SMILES IDX 35 56 20 57 21 58 29 59 22 60 28 61 23 62 24 63 25 64 26 65
REMARK SMILES IDX 27 66 50 67 51 68 59 69 52 70 58 71 53 72 54 73 55 74 56 75
REMARK SMILES IDX 57 76 36 77 37 78 45 79 38 80 44 81 39 82 40 83 41 84 42 85
REMARK SMILES IDX 43 86
REMARK H PARENT 81 20 64 42 34 53
REMARK Flexibility Score: inf
ROOT
ATOM      1  C   UNL A   1      37.938  21.150  25.552  1.00  0.00     0.274 C 
ENDROOT
BRANCH   1   2
ATOM      2  O   UNL A   1      37.034  22.274  25.533  1.00  0.00    -0.462 OA
BRANCH   2   3
ATOM      3  C   UNL A   1      35.697  22.007  25.585  1.00  0.00     0.313 C 
ATOM      4  O   UNL A   1      35.200  21.234  26.396  1.00  0.00    -0.252 OA
BRANCH   3   5
ATOM      5  C   UNL A   1      34.900  22.712  24.459  1.00  0.00     0.126 C 
ATOM      6  C   UNL A   1      35.809  22.985  23.243  1.00  0.00     0.025 C 
BRANCH   5   7
ATOM      7  C   UNL A   1      34.149  23.961  24.932  1.00  0.00    -0.034 A 
ATOM      8  C   UNL A   1      33.121  23.897  25.882  1.00  0.00     0.005 A 
ATOM      9  C   UNL A   1      34.456  25.234  24.438  1.00  0.00     0.005 A 
ATOM     10  C   UNL A   1      32.278  24.987  26.117  1.00  0.00     0.004 A 
ATOM     11  C   UNL A   1      33.583  26.310  24.642  1.00  0.00     0.004 A 
ATOM     12  C   UNL A   1      32.395  26.143  25.361  1.00  0.00    -0.048 A 
BRANCH  12  13
ATOM     13  C   UNL A   1      31.309  27.192  25.290  1.00  0.00     0.041 C 
BRANCH  13  14
ATOM     14  C   UNL A   1      31.534  28.619  25.873  1.00  0.00     0.022 C 
ATOM     15  C   UNL A   1      32.702  29.392  25.246  1.00  0.00     0.007 C 
ATOM     16  C   UNL A   1      31.738  28.846  27.377  1.00  0.00     0.117 C 
ATOM     17  C   UNL A   1      33.732  29.653  26.353  1.00  0.00     0.003 C 
ATOM     18  C   UNL A   1      33.229  28.953  27.600  1.00  0.00     0.032 C 
BRANCH  16  19
ATOM     19  O   UNL A   1      31.191  27.855  28.199  1.00  0.00    -0.393 OA
ATOM     20  H   UNL A   1      31.638  27.011  28.030  1.00  0.00     0.210 HD
ENDBRANCH  16  19
ENDBRANCH  13  14
ENDBRANCH  12  13
ENDBRANCH   5   7
ENDBRANCH   3   5
ENDBRANCH   2   3
ENDBRANCH   1   2
BRANCH   1  21
ATOM     21  C   UNL A   1      39.323  21.592  26.013  1.00  0.00     0.275 C 
BRANCH  21  22
ATOM     22  O   UNL A   1      39.927  20.543  26.790  1.00  0.00    -0.458 OA
BRANCH  22  23
ATOM     23  C   UNL A   1      41.100  20.070  26.329  1.00  0.00     0.338 C 
ATOM     24  O   UNL A   1      41.315  18.970  25.820  1.00  0.00    -0.246 OA
BRANCH  23  25
ATOM     25  C   UNL A   1      42.145  21.088  26.475  1.00  0.00     0.060 A 
ATOM     26  C   UNL A   1      42.396  21.579  27.746  1.00  0.00     0.016 A 
ATOM     27  C   UNL A   1      42.708  21.712  25.358  1.00  0.00     0.016 A 
ATOM     28  C   UNL A   1      43.088  22.782  27.879  1.00  0.00     0.010 A 
ATOM     29  C   UNL A   1      43.468  22.887  25.514  1.00  0.00     0.010 A 
ATOM     30  C   UNL A   1      43.592  23.494  26.772  1.00  0.00    -0.014 A 
BRANCH  30  31
ATOM     31  C   UNL A   1      44.107  24.895  26.979  1.00  0.00     0.031 A 
ATOM     32  C   UNL A   1      43.206  26.031  27.446  1.00  0.00     0.074 A 
ATOM     33  C   UNL A   1      45.437  25.134  26.926  1.00  0.00     0.049 A 
ATOM     34  N   UNL A   1      43.543  27.243  27.835  1.00  0.00    -0.248 NA
ATOM     35  C   UNL A   1      41.759  25.782  27.531  1.00  0.00     0.031 C 
ATOM     36  C   UNL A   1      46.464  24.142  26.598  1.00  0.00     0.029 A 
ATOM     37  N   UNL A   1      46.159  26.278  27.180  1.00  0.00    -0.354 N 
ATOM     38  C   UNL A   1      42.372  27.856  28.276  1.00  0.00     0.074 A 
ATOM     39  C   UNL A   1      41.302  26.911  28.058  1.00  0.00     0.031 C 
ATOM     40  C   UNL A   1      47.674  24.699  26.725  1.00  0.00     0.029 A 
ATOM     41  C   UNL A   1      47.514  26.120  27.012  1.00  0.00     0.049 A 
ATOM     42  H   UNL A   1      45.744  27.127  27.456  1.00  0.00     0.167 HD
ATOM     43  C   UNL A   1      42.190  29.088  28.816  1.00  0.00     0.031 A 
ATOM     44  C   UNL A   1      48.524  27.014  27.004  1.00  0.00     0.031 A 
ATOM     45  C   UNL A   1      43.203  30.107  28.891  1.00  0.00     0.049 A 
ATOM     46  C   UNL A   1      48.230  28.462  27.249  1.00  0.00     0.074 A 
ATOM     47  C   UNL A   1      43.074  31.421  29.312  1.00  0.00     0.029 A 
ATOM     48  N   UNL A   1      44.512  29.953  28.470  1.00  0.00    -0.354 N 
ATOM     49  N   UNL A   1      47.117  29.013  27.669  1.00  0.00    -0.248 NA
ATOM     50  C   UNL A   1      49.316  29.416  26.985  1.00  0.00     0.031 C 
ATOM     51  C   UNL A   1      44.276  32.088  29.041  1.00  0.00     0.029 A 
ATOM     52  C   UNL A   1      45.174  31.169  28.525  1.00  0.00     0.049 A 
ATOM     53  H   UNL A   1      44.915  29.104  28.174  1.00  0.00     0.167 HD
ATOM     54  C   UNL A   1      47.369  30.379  27.719  1.00  0.00     0.074 A 
ATOM     55  C   UNL A   1      48.744  30.570  27.306  1.00  0.00     0.031 C 
ATOM     56  C   UNL A   1      46.527  31.378  28.081  1.00  0.00     0.031 A 
BRANCH  43  57
ATOM     57  C   UNL A   1      40.807  29.452  29.296  1.00  0.00    -0.014 A 
ATOM     58  C   UNL A   1      40.494  29.452  30.666  1.00  0.00     0.010 A 
ATOM     59  C   UNL A   1      39.839  29.882  28.371  1.00  0.00     0.010 A 
ATOM     60  C   UNL A   1      39.227  29.860  31.102  1.00  0.00     0.020 A 
ATOM     61  C   UNL A   1      38.576  30.298  28.802  1.00  0.00     0.020 A 
ATOM     62  C   UNL A   1      38.273  30.274  30.165  1.00  0.00     0.054 A 
BRANCH  62  63
ATOM     63  S   UNL A   1      36.639  30.804  30.753  1.00  0.00     0.124 S 
ATOM     64  O   UNL A   1      36.291  29.730  31.682  1.00  0.00    -0.237 OA
ATOM     65  O   UNL A   1      36.922  32.097  31.369  1.00  0.00    -0.237 OA
ATOM     66  O   UNL A   1      35.830  30.858  29.538  1.00  0.00    -0.744 OA
ENDBRANCH  62  63
ENDBRANCH  43  57
BRANCH  44  67
ATOM     67  C   UNL A   1      49.880  26.562  26.588  1.00  0.00    -0.014 A 
ATOM     68  C   UNL A   1      50.259  26.497  25.238  1.00  0.00     0.010 A 
ATOM     69  C   UNL A   1      50.823  26.228  27.581  1.00  0.00     0.010 A 
ATOM     70  C   UNL A   1      51.565  26.130  24.893  1.00  0.00     0.020 A 
ATOM     71  C   UNL A   1      52.134  25.898  27.243  1.00  0.00     0.020 A 
ATOM     72  C   UNL A   1      52.496  25.844  25.898  1.00  0.00     0.054 A 
BRANCH  72  73
ATOM     73  S   UNL A   1      54.211  25.469  25.445  1.00  0.00     0.124 S 
ATOM     74  O   UNL A   1      54.225  24.011  25.496  1.00  0.00    -0.237 OA
ATOM     75  O   UNL A   1      54.327  26.058  24.113  1.00  0.00    -0.237 OA
ATOM     76  O   UNL A   1      54.992  26.140  26.482  1.00  0.00    -0.744 OA
ENDBRANCH  72  73
ENDBRANCH  44  67
BRANCH  56  77
ATOM     77  C   UNL A   1      47.063  32.782  28.042  1.00  0.00    -0.014 A 
ATOM     78  C   UNL A   1      46.923  33.578  26.891  1.00  0.00     0.010 A 
ATOM     79  C   UNL A   1      47.690  33.325  29.178  1.00  0.00     0.010 A 
ATOM     80  C   UNL A   1      47.428  34.881  26.866  1.00  0.00     0.020 A 
ATOM     81  C   UNL A   1      48.174  34.637  29.166  1.00  0.00     0.020 A 
ATOM     82  C   UNL A   1      48.054  35.401  28.003  1.00  0.00     0.054 A 
BRANCH  82  83
ATOM     83  S   UNL A   1      48.677  37.104  27.960  1.00  0.00     0.124 S 
ATOM     84  O   UNL A   1      49.751  37.009  26.974  1.00  0.00    -0.237 OA
ATOM     85  O   UNL A   1      47.504  37.866  27.538  1.00  0.00    -0.237 OA
ATOM     86  O   UNL A   1      49.110  37.349  29.333  1.00  0.00    -0.744 OA
ENDBRANCH  82  83
ENDBRANCH  56  77
ENDBRANCH  30  31
ENDBRANCH  23  25
ENDBRANCH  22  23
ENDBRANCH  21  22
ENDBRANCH   1  21
TORSDOF 18
ENDMDL
