MODEL 1
REMARK VINA RESULT:     -10.4      0.000      0.000
REMARK SMILES CCCCCCOC(=O)Nc1cccc(-c2ccc([C@@H](C)C(=O)OCCOC(=O)c3ccc(-c4c5nc(c(-c6ccc(S(=O)(=O)[O-])cc6)c6ccc([nH]6)c(-c6ccc(S(=O)(=O)[O-])cc6)c6nc(c(-c7ccc(S(=O)(=O)[O-])cc7)c7ccc4[nH]7)C=C6)C=C5)cc3)cc2F)c1
REMARK SMILES IDX 20 1 21 2 19 3 16 4 17 5 91 6 18 7 90 8 92 9 15 10 11 11
REMARK SMILES IDX 12 12 93 13 13 14 14 15 10 16 8 17 9 18 7 20 6 21 5 22 4 23
REMARK SMILES IDX 3 24 2 25 1 26 22 27 23 28 24 29 25 30 26 31 27 32 28 33
REMARK SMILES IDX 29 34 30 35 31 36 89 37 32 38 88 39 33 40 34 41 35 42 82 43
REMARK SMILES IDX 36 44 87 45 81 46 83 47 37 48 86 49 80 50 79 51 38 53 68 54
REMARK SMILES IDX 49 55 67 56 50 57 53 58 66 59 84 60 51 61 52 62 65 64 85 65
REMARK SMILES IDX 54 66 39 67 40 68 48 69 41 70 47 71 42 72 43 73 44 74 45 75
REMARK SMILES IDX 46 76 69 77 70 78 78 79 71 80 77 81 72 82 73 83 74 84 75 85
REMARK SMILES IDX 76 86 55 87 56 88 64 89 57 90 63 91 58 92 59 93 60 94 61 95
REMARK SMILES IDX 62 96
REMARK H PARENT 10 19 83 52 53 63
REMARK Flexibility Score: inf
ROOT
ATOM      1  C   UNL A   1      41.638  22.311  27.124  1.00  0.00     0.126 C 
ATOM      2  C   UNL A   1      41.752  21.004  27.904  1.00  0.00     0.025 C 
ENDROOT
BRANCH   1   3
ATOM      3  C   UNL A   1      40.236  22.530  26.580  1.00  0.00    -0.031 A 
ATOM      4  C   UNL A   1      37.622  22.894  25.522  1.00  0.00     0.018 A 
ATOM      5  C   UNL A   1      38.311  23.956  26.122  1.00  0.00     0.012 A 
ATOM      6  C   UNL A   1      38.265  21.648  25.471  1.00  0.00     0.131 A 
ATOM      7  C   UNL A   1      39.601  23.780  26.636  1.00  0.00     0.005 A 
ATOM      8  C   UNL A   1      39.546  21.463  25.988  1.00  0.00     0.044 A 
ATOM      9  F   UNL A   1      37.662  20.599  24.892  1.00  0.00    -0.206 F 
BRANCH   4  10
ATOM     10  C   UNL A   1      36.279  23.084  24.958  1.00  0.00    -0.013 A 
ATOM     11  C   UNL A   1      33.857  23.149  25.256  1.00  0.00     0.045 A 
ATOM     12  C   UNL A   1      33.684  23.246  23.876  1.00  0.00     0.026 A 
ATOM     13  C   UNL A   1      35.148  23.069  25.788  1.00  0.00     0.035 A 
ATOM     14  C   UNL A   1      34.797  23.318  23.039  1.00  0.00     0.003 A 
ATOM     15  C   UNL A   1      36.083  23.236  23.577  1.00  0.00     0.009 A 
BRANCH  11  16
ATOM     16  N   UNL A   1      32.719  23.030  26.065  1.00  0.00    -0.291 N 
ATOM     17  C   UNL A   1      31.945  24.040  26.566  1.00  0.00     0.411 C 
ATOM     18  O   UNL A   1      31.232  23.861  27.545  1.00  0.00    -0.224 OA
ATOM     19  H   UNL A   1      32.446  22.114  26.300  1.00  0.00     0.173 HD
BRANCH  17  20
ATOM     20  O   UNL A   1      31.957  25.157  25.795  1.00  0.00    -0.449 OA
BRANCH  20  21
ATOM     21  C   UNL A   1      32.857  26.219  26.149  1.00  0.00     0.235 C 
BRANCH  21  22
ATOM     22  C   UNL A   1      33.436  26.920  24.915  1.00  0.00     0.042 C 
BRANCH  22  23
ATOM     23  C   UNL A   1      34.099  28.280  25.171  1.00  0.00     0.003 C 
BRANCH  23  24
ATOM     24  C   UNL A   1      34.218  28.676  26.649  1.00  0.00    -0.000 C 
BRANCH  24  25
ATOM     25  C   UNL A   1      34.089  30.173  26.928  1.00  0.00    -0.003 C 
ATOM     26  C   UNL A   1      34.845  30.605  28.173  1.00  0.00     0.004 C 
ENDBRANCH  24  25
ENDBRANCH  23  24
ENDBRANCH  22  23
ENDBRANCH  21  22
ENDBRANCH  20  21
ENDBRANCH  17  20
ENDBRANCH  11  16
ENDBRANCH   4  10
ENDBRANCH   1   3
BRANCH   1  27
ATOM     27  C   UNL A   1      42.781  22.422  26.122  1.00  0.00     0.313 C 
ATOM     28  O   UNL A   1      42.682  21.999  24.974  1.00  0.00    -0.252 OA
BRANCH  27  29
ATOM     29  O   UNL A   1      43.882  23.051  26.609  1.00  0.00    -0.462 OA
BRANCH  29  30
ATOM     30  C   UNL A   1      43.872  24.491  26.581  1.00  0.00     0.274 C 
BRANCH  30  31
ATOM     31  C   UNL A   1      43.472  25.009  25.199  1.00  0.00     0.275 C 
BRANCH  31  32
ATOM     32  O   UNL A   1      42.227  25.726  25.250  1.00  0.00    -0.458 OA
BRANCH  32  33
ATOM     33  C   UNL A   1      42.338  27.074  25.281  1.00  0.00     0.338 C 
ATOM     34  O   UNL A   1      42.538  27.824  24.343  1.00  0.00    -0.246 OA
BRANCH  33  35
ATOM     35  C   UNL A   1      42.094  27.543  26.649  1.00  0.00     0.060 A 
ATOM     36  C   UNL A   1      41.204  26.836  27.462  1.00  0.00     0.016 A 
ATOM     37  C   UNL A   1      42.685  28.724  27.094  1.00  0.00     0.016 A 
ATOM     38  C   UNL A   1      40.886  27.316  28.729  1.00  0.00     0.010 A 
ATOM     39  C   UNL A   1      42.380  29.194  28.371  1.00  0.00     0.010 A 
ATOM     40  C   UNL A   1      41.470  28.500  29.192  1.00  0.00    -0.014 A 
BRANCH  40  41
ATOM     41  C   UNL A   1      41.117  29.063  30.515  1.00  0.00     0.031 A 
ATOM     42  C   UNL A   1      39.963  30.016  30.622  1.00  0.00     0.074 A 
ATOM     43  C   UNL A   1      41.866  28.768  31.593  1.00  0.00     0.049 A 
ATOM     44  N   UNL A   1      39.624  30.793  31.615  1.00  0.00    -0.248 NA
ATOM     45  C   UNL A   1      39.082  30.116  29.446  1.00  0.00     0.031 C 
ATOM     46  C   UNL A   1      42.971  27.808  31.622  1.00  0.00     0.029 A 
ATOM     47  N   UNL A   1      41.824  29.269  32.869  1.00  0.00    -0.354 N 
ATOM     48  C   UNL A   1      38.513  31.503  31.174  1.00  0.00     0.074 A 
ATOM     49  C   UNL A   1      38.240  31.069  29.822  1.00  0.00     0.031 C 
ATOM     50  C   UNL A   1      43.515  27.805  32.850  1.00  0.00     0.029 A 
ATOM     51  C   UNL A   1      42.842  28.806  33.671  1.00  0.00     0.049 A 
ATOM     52  H   UNL A   1      41.134  29.899  33.181  1.00  0.00     0.167 HD
ATOM     53  C   UNL A   1      37.796  32.440  31.840  1.00  0.00     0.031 A 
ATOM     54  C   UNL A   1      43.220  29.184  34.908  1.00  0.00     0.031 A 
ATOM     55  C   UNL A   1      38.085  32.860  33.186  1.00  0.00     0.049 A 
ATOM     56  C   UNL A   1      42.454  30.278  35.602  1.00  0.00     0.074 A 
ATOM     57  C   UNL A   1      37.420  33.797  33.956  1.00  0.00     0.029 A 
ATOM     58  N   UNL A   1      39.126  32.368  33.961  1.00  0.00    -0.354 N 
ATOM     59  N   UNL A   1      41.417  30.956  35.171  1.00  0.00    -0.248 NA
ATOM     60  C   UNL A   1      42.909  30.663  36.946  1.00  0.00     0.031 C 
ATOM     61  C   UNL A   1      38.090  33.908  35.179  1.00  0.00     0.029 A 
ATOM     62  C   UNL A   1      39.131  32.993  35.194  1.00  0.00     0.049 A 
ATOM     63  H   UNL A   1      39.765  31.676  33.675  1.00  0.00     0.167 HD
ATOM     64  C   UNL A   1      41.072  31.820  36.205  1.00  0.00     0.074 A 
ATOM     65  C   UNL A   1      42.012  31.581  37.280  1.00  0.00     0.031 C 
ATOM     66  C   UNL A   1      40.063  32.723  36.261  1.00  0.00     0.031 A 
BRANCH  53  67
ATOM     67  C   UNL A   1      36.663  33.107  31.107  1.00  0.00    -0.014 A 
ATOM     68  C   UNL A   1      35.322  32.765  31.361  1.00  0.00     0.010 A 
ATOM     69  C   UNL A   1      36.944  34.122  30.174  1.00  0.00     0.010 A 
ATOM     70  C   UNL A   1      34.287  33.402  30.670  1.00  0.00     0.020 A 
ATOM     71  C   UNL A   1      35.911  34.780  29.501  1.00  0.00     0.020 A 
ATOM     72  C   UNL A   1      34.589  34.403  29.742  1.00  0.00     0.054 A 
BRANCH  72  73
ATOM     73  S   UNL A   1      33.225  35.230  28.876  1.00  0.00     0.124 S 
ATOM     74  O   UNL A   1      33.937  36.206  28.055  1.00  0.00    -0.237 OA
ATOM     75  O   UNL A   1      32.599  34.132  28.143  1.00  0.00    -0.237 OA
ATOM     76  O   UNL A   1      32.420  35.794  29.955  1.00  0.00    -0.744 OA
ENDBRANCH  72  73
ENDBRANCH  53  67
BRANCH  54  77
ATOM     77  C   UNL A   1      44.400  28.544  35.551  1.00  0.00    -0.014 A 
ATOM     78  C   UNL A   1      44.253  27.365  36.302  1.00  0.00     0.010 A 
ATOM     79  C   UNL A   1      45.684  29.100  35.397  1.00  0.00     0.010 A 
ATOM     80  C   UNL A   1      45.364  26.761  36.898  1.00  0.00     0.020 A 
ATOM     81  C   UNL A   1      46.802  28.485  35.968  1.00  0.00     0.020 A 
ATOM     82  C   UNL A   1      46.633  27.323  36.724  1.00  0.00     0.054 A 
BRANCH  82  83
ATOM     83  S   UNL A   1      48.066  26.494  37.465  1.00  0.00     0.124 S 
ATOM     84  O   UNL A   1      49.117  26.780  36.494  1.00  0.00    -0.237 OA
ATOM     85  O   UNL A   1      48.192  27.172  38.752  1.00  0.00    -0.237 OA
ATOM     86  O   UNL A   1      47.650  25.096  37.544  1.00  0.00    -0.744 OA
ENDBRANCH  82  83
ENDBRANCH  54  77
BRANCH  66  87
ATOM     87  C   UNL A   1      39.865  33.478  37.547  1.00  0.00    -0.014 A 
ATOM     88  C   UNL A   1      40.504  34.706  37.782  1.00  0.00     0.010 A 
ATOM     89  C   UNL A   1      38.930  32.997  38.483  1.00  0.00     0.010 A 
ATOM     90  C   UNL A   1      40.212  35.441  38.934  1.00  0.00     0.020 A 
ATOM     91  C   UNL A   1      38.618  33.740  39.623  1.00  0.00     0.020 A 
ATOM     92  C   UNL A   1      39.264  34.958  39.842  1.00  0.00     0.054 A 
BRANCH  92  93
ATOM     93  S   UNL A   1      38.830  35.978  41.278  1.00  0.00     0.124 S 
ATOM     94  O   UNL A   1      37.596  35.348  41.739  1.00  0.00    -0.237 OA
ATOM     95  O   UNL A   1      39.988  35.808  42.153  1.00  0.00    -0.237 OA
ATOM     96  O   UNL A   1      38.674  37.318  40.717  1.00  0.00    -0.744 OA
ENDBRANCH  92  93
ENDBRANCH  66  87
ENDBRANCH  40  41
ENDBRANCH  33  35
ENDBRANCH  32  33
ENDBRANCH  31  32
ENDBRANCH  30  31
ENDBRANCH  29  30
ENDBRANCH  27  29
ENDBRANCH   1  27
TORSDOF 23
ENDMDL
MODEL 2
REMARK VINA RESULT:     -10.1      5.819     12.305
REMARK SMILES CCCCCCOC(=O)Nc1cccc(-c2ccc([C@@H](C)C(=O)OCCOC(=O)c3ccc(-c4c5nc(c(-c6ccc(S(=O)(=O)[O-])cc6)c6ccc([nH]6)c(-c6ccc(S(=O)(=O)[O-])cc6)c6nc(c(-c7ccc(S(=O)(=O)[O-])cc7)c7ccc4[nH]7)C=C6)C=C5)cc3)cc2F)c1
REMARK SMILES IDX 20 1 21 2 19 3 16 4 17 5 91 6 18 7 90 8 92 9 15 10 11 11
REMARK SMILES IDX 12 12 93 13 13 14 14 15 10 16 8 17 9 18 7 20 6 21 5 22 4 23
REMARK SMILES IDX 3 24 2 25 1 26 22 27 23 28 24 29 25 30 26 31 27 32 28 33
REMARK SMILES IDX 29 34 30 35 31 36 89 37 32 38 88 39 33 40 34 41 35 42 82 43
REMARK SMILES IDX 36 44 87 45 81 46 83 47 37 48 86 49 80 50 79 51 38 53 68 54
REMARK SMILES IDX 49 55 67 56 50 57 53 58 66 59 84 60 51 61 52 62 65 64 85 65
REMARK SMILES IDX 54 66 39 67 40 68 48 69 41 70 47 71 42 72 43 73 44 74 45 75
REMARK SMILES IDX 46 76 69 77 70 78 78 79 71 80 77 81 72 82 73 83 74 84 75 85
REMARK SMILES IDX 76 86 55 87 56 88 64 89 57 90 63 91 58 92 59 93 60 94 61 95
REMARK SMILES IDX 62 96
REMARK H PARENT 10 19 83 52 53 63
REMARK Flexibility Score: inf
ROOT
ATOM      1  C   UNL A   1      35.219  32.278  28.885  1.00  0.00     0.126 C 
ATOM      2  C   UNL A   1      36.123  33.133  28.003  1.00  0.00     0.025 C 
ENDROOT
BRANCH   1   3
ATOM      3  C   UNL A   1      34.354  31.332  28.068  1.00  0.00    -0.031 A 
ATOM      4  C   UNL A   1      32.684  29.593  26.561  1.00  0.00     0.018 A 
ATOM      5  C   UNL A   1      33.945  29.174  27.006  1.00  0.00     0.012 A 
ATOM      6  C   UNL A   1      32.283  30.899  26.879  1.00  0.00     0.131 A 
ATOM      7  C   UNL A   1      34.764  30.027  27.755  1.00  0.00     0.005 A 
ATOM      8  C   UNL A   1      33.096  31.756  27.617  1.00  0.00     0.044 A 
ATOM      9  F   UNL A   1      31.078  31.349  26.495  1.00  0.00    -0.206 F 
BRANCH   4  10
ATOM     10  C   UNL A   1      31.811  28.690  25.797  1.00  0.00    -0.013 A 
ATOM     11  C   UNL A   1      30.759  26.505  25.526  1.00  0.00     0.045 A 
ATOM     12  C   UNL A   1      30.307  26.873  24.260  1.00  0.00     0.026 A 
ATOM     13  C   UNL A   1      31.506  27.411  26.287  1.00  0.00     0.035 A 
ATOM     14  C   UNL A   1      30.553  28.159  23.781  1.00  0.00     0.003 A 
ATOM     15  C   UNL A   1      31.301  29.059  24.544  1.00  0.00     0.009 A 
BRANCH  11  16
ATOM     16  N   UNL A   1      30.537  25.191  25.959  1.00  0.00    -0.291 N 
ATOM     17  C   UNL A   1      31.172  24.056  25.535  1.00  0.00     0.411 C 
ATOM     18  O   UNL A   1      30.658  22.955  25.681  1.00  0.00    -0.224 OA
ATOM     19  H   UNL A   1      29.844  25.070  26.648  1.00  0.00     0.173 HD
BRANCH  17  20
ATOM     20  O   UNL A   1      32.435  24.283  25.092  1.00  0.00    -0.449 OA
BRANCH  20  21
ATOM     21  C   UNL A   1      33.531  23.940  25.954  1.00  0.00     0.235 C 
BRANCH  21  22
ATOM     22  C   UNL A   1      34.594  23.103  25.232  1.00  0.00     0.042 C 
BRANCH  22  23
ATOM     23  C   UNL A   1      35.771  22.634  26.096  1.00  0.00     0.003 C 
BRANCH  23  24
ATOM     24  C   UNL A   1      37.161  22.977  25.541  1.00  0.00    -0.000 C 
BRANCH  24  25
ATOM     25  C   UNL A   1      38.106  21.786  25.386  1.00  0.00    -0.003 C 
ATOM     26  C   UNL A   1      37.380  20.508  25.001  1.00  0.00     0.004 C 
ENDBRANCH  24  25
ENDBRANCH  23  24
ENDBRANCH  22  23
ENDBRANCH  21  22
ENDBRANCH  20  21
ENDBRANCH  17  20
ENDBRANCH  11  16
ENDBRANCH   4  10
ENDBRANCH   1   3
BRANCH   1  27
ATOM     27  C   UNL A   1      34.496  33.156  29.899  1.00  0.00     0.313 C 
ATOM     28  O   UNL A   1      34.006  34.238  29.589  1.00  0.00    -0.252 OA
BRANCH  27  29
ATOM     29  O   UNL A   1      34.422  32.616  31.143  1.00  0.00    -0.462 OA
BRANCH  29  30
ATOM     30  C   UNL A   1      35.466  32.974  32.069  1.00  0.00     0.274 C 
BRANCH  30  31
ATOM     31  C   UNL A   1      36.162  31.726  32.616  1.00  0.00     0.275 C 
BRANCH  31  32
ATOM     32  O   UNL A   1      37.235  31.308  31.756  1.00  0.00    -0.458 OA
BRANCH  32  33
ATOM     33  C   UNL A   1      37.030  30.140  31.104  1.00  0.00     0.338 C 
ATOM     34  O   UNL A   1      35.989  29.516  31.008  1.00  0.00    -0.246 OA
BRANCH  33  35
ATOM     35  C   UNL A   1      38.269  29.747  30.425  1.00  0.00     0.060 A 
ATOM     36  C   UNL A   1      39.361  29.329  31.191  1.00  0.00     0.016 A 
ATOM     37  C   UNL A   1      38.372  29.869  29.040  1.00  0.00     0.016 A 
ATOM     38  C   UNL A   1      40.576  29.041  30.575  1.00  0.00     0.010 A 
ATOM     39  C   UNL A   1      39.584  29.562  28.422  1.00  0.00     0.010 A 
ATOM     40  C   UNL A   1      40.696  29.158  29.186  1.00  0.00    -0.014 A 
BRANCH  40  41
ATOM     41  C   UNL A   1      41.986  28.907  28.504  1.00  0.00     0.031 A 
ATOM     42  C   UNL A   1      42.305  27.520  28.028  1.00  0.00     0.074 A 
ATOM     43  C   UNL A   1      42.883  29.901  28.373  1.00  0.00     0.049 A 
ATOM     44  N   UNL A   1      43.445  27.029  27.621  1.00  0.00    -0.248 NA
ATOM     45  C   UNL A   1      41.194  26.554  28.024  1.00  0.00     0.031 C 
ATOM     46  C   UNL A   1      42.659  31.300  28.742  1.00  0.00     0.029 A 
ATOM     47  N   UNL A   1      44.177  29.878  27.917  1.00  0.00    -0.354 N 
ATOM     48  C   UNL A   1      43.200  25.688  27.347  1.00  0.00     0.074 A 
ATOM     49  C   UNL A   1      41.806  25.442  27.640  1.00  0.00     0.031 C 
ATOM     50  C   UNL A   1      43.784  31.997  28.515  1.00  0.00     0.029 A 
ATOM     51  C   UNL A   1      44.824  31.085  28.049  1.00  0.00     0.049 A 
ATOM     52  H   UNL A   1      44.601  29.077  27.533  1.00  0.00     0.167 HD
ATOM     53  C   UNL A   1      44.069  24.750  26.900  1.00  0.00     0.031 A 
ATOM     54  C   UNL A   1      46.120  31.406  27.866  1.00  0.00     0.031 A 
ATOM     55  C   UNL A   1      45.455  25.015  26.615  1.00  0.00     0.049 A 
ATOM     56  C   UNL A   1      47.084  30.331  27.440  1.00  0.00     0.074 A 
ATOM     57  C   UNL A   1      46.420  24.139  26.153  1.00  0.00     0.029 A 
ATOM     58  N   UNL A   1      46.070  26.250  26.765  1.00  0.00    -0.354 N 
ATOM     59  N   UNL A   1      46.848  29.063  27.201  1.00  0.00    -0.248 NA
ATOM     60  C   UNL A   1      48.488  30.726  27.262  1.00  0.00     0.031 C 
ATOM     61  C   UNL A   1      47.632  24.833  26.072  1.00  0.00     0.029 A 
ATOM     62  C   UNL A   1      47.406  26.156  26.420  1.00  0.00     0.049 A 
ATOM     63  H   UNL A   1      45.621  27.072  27.071  1.00  0.00     0.167 HD
ATOM     64  C   UNL A   1      48.065  28.518  26.807  1.00  0.00     0.074 A 
ATOM     65  C   UNL A   1      49.035  29.593  26.844  1.00  0.00     0.031 C 
ATOM     66  C   UNL A   1      48.350  27.245  26.441  1.00  0.00     0.031 A 
BRANCH  53  67
ATOM     67  C   UNL A   1      43.559  23.343  26.739  1.00  0.00    -0.014 A 
ATOM     68  C   UNL A   1      43.438  22.747  25.470  1.00  0.00     0.010 A 
ATOM     69  C   UNL A   1      43.231  22.590  27.881  1.00  0.00     0.010 A 
ATOM     70  C   UNL A   1      42.966  21.437  25.347  1.00  0.00     0.020 A 
ATOM     71  C   UNL A   1      42.784  21.272  27.764  1.00  0.00     0.020 A 
ATOM     72  C   UNL A   1      42.638  20.709  26.496  1.00  0.00     0.054 A 
BRANCH  72  73
ATOM     73  S   UNL A   1      42.049  19.003  26.309  1.00  0.00     0.124 S 
ATOM     74  O   UNL A   1      40.715  19.204  25.751  1.00  0.00    -0.237 OA
ATOM     75  O   UNL A   1      43.031  18.423  25.395  1.00  0.00    -0.237 OA
ATOM     76  O   UNL A   1      42.082  18.473  27.670  1.00  0.00    -0.744 OA
ENDBRANCH  72  73
ENDBRANCH  53  67
BRANCH  54  77
ATOM     77  C   UNL A   1      46.582  32.798  28.120  1.00  0.00    -0.014 A 
ATOM     78  C   UNL A   1      47.023  33.182  29.397  1.00  0.00     0.010 A 
ATOM     79  C   UNL A   1      46.601  33.743  27.077  1.00  0.00     0.010 A 
ATOM     80  C   UNL A   1      47.464  34.489  29.631  1.00  0.00     0.020 A 
ATOM     81  C   UNL A   1      47.067  35.042  27.299  1.00  0.00     0.020 A 
ATOM     82  C   UNL A   1      47.486  35.410  28.579  1.00  0.00     0.054 A 
BRANCH  82  83
ATOM     83  S   UNL A   1      48.110  37.084  28.895  1.00  0.00     0.124 S 
ATOM     84  O   UNL A   1      46.945  37.906  28.581  1.00  0.00    -0.237 OA
ATOM     85  O   UNL A   1      48.478  37.021  30.307  1.00  0.00    -0.237 OA
ATOM     86  O   UNL A   1      49.234  37.210  27.971  1.00  0.00    -0.744 OA
ENDBRANCH  82  83
ENDBRANCH  54  77
BRANCH  66  87
ATOM     87  C   UNL A   1      49.750  26.943  25.979  1.00  0.00    -0.014 A 
ATOM     88  C   UNL A   1      50.150  27.176  24.652  1.00  0.00     0.010 A 
ATOM     89  C   UNL A   1      50.705  26.526  26.924  1.00  0.00     0.010 A 
ATOM     90  C   UNL A   1      51.485  26.997  24.280  1.00  0.00     0.020 A 
ATOM     91  C   UNL A   1      52.044  26.369  26.561  1.00  0.00     0.020 A 
ATOM     92  C   UNL A   1      52.425  26.603  25.239  1.00  0.00     0.054 A 
BRANCH  92  93
ATOM     93  S   UNL A   1      54.168  26.473  24.751  1.00  0.00     0.124 S 
ATOM     94  O   UNL A   1      54.835  27.251  25.792  1.00  0.00    -0.237 OA
ATOM     95  O   UNL A   1      54.406  25.033  24.793  1.00  0.00    -0.237 OA
ATOM     96  O   UNL A   1      54.199  27.064  23.416  1.00  0.00    -0.744 OA
ENDBRANCH  92  93
ENDBRANCH  66  87
ENDBRANCH  40  41
ENDBRANCH  33  35
ENDBRANCH  32  33
ENDBRANCH  31  32
ENDBRANCH  30  31
ENDBRANCH  29  30
ENDBRANCH  27  29
ENDBRANCH   1  27
TORSDOF 23
ENDMDL
MODEL 3
REMARK VINA RESULT:     -10.0      1.249      2.442
REMARK SMILES CCCCCCOC(=O)Nc1cccc(-c2ccc([C@@H](C)C(=O)OCCOC(=O)c3ccc(-c4c5nc(c(-c6ccc(S(=O)(=O)[O-])cc6)c6ccc([nH]6)c(-c6ccc(S(=O)(=O)[O-])cc6)c6nc(c(-c7ccc(S(=O)(=O)[O-])cc7)c7ccc4[nH]7)C=C6)C=C5)cc3)cc2F)c1
REMARK SMILES IDX 20 1 21 2 19 3 16 4 17 5 91 6 18 7 90 8 92 9 15 10 11 11
REMARK SMILES IDX 12 12 93 13 13 14 14 15 10 16 8 17 9 18 7 20 6 21 5 22 4 23
REMARK SMILES IDX 3 24 2 25 1 26 22 27 23 28 24 29 25 30 26 31 27 32 28 33
REMARK SMILES IDX 29 34 30 35 31 36 89 37 32 38 88 39 33 40 34 41 35 42 82 43
REMARK SMILES IDX 36 44 87 45 81 46 83 47 37 48 86 49 80 50 79 51 38 53 68 54
REMARK SMILES IDX 49 55 67 56 50 57 53 58 66 59 84 60 51 61 52 62 65 64 85 65
REMARK SMILES IDX 54 66 39 67 40 68 48 69 41 70 47 71 42 72 43 73 44 74 45 75
REMARK SMILES IDX 46 76 69 77 70 78 78 79 71 80 77 81 72 82 73 83 74 84 75 85
REMARK SMILES IDX 76 86 55 87 56 88 64 89 57 90 63 91 58 92 59 93 60 94 61 95
REMARK SMILES IDX 62 96
REMARK H PARENT 10 19 83 52 53 63
REMARK Flexibility Score: inf
ROOT
ATOM      1  C   UNL A   1      40.499  20.949  26.710  1.00  0.00     0.126 C 
ATOM      2  C   UNL A   1      40.653  19.588  26.039  1.00  0.00     0.025 C 
ENDROOT
BRANCH   1   3
ATOM      3  C   UNL A   1      39.292  21.711  26.186  1.00  0.00    -0.031 A 
ATOM      4  C   UNL A   1      37.035  23.170  25.257  1.00  0.00     0.018 A 
ATOM      5  C   UNL A   1      37.252  21.846  24.855  1.00  0.00     0.012 A 
ATOM      6  C   UNL A   1      37.974  23.748  26.124  1.00  0.00     0.131 A 
ATOM      7  C   UNL A   1      38.359  21.124  25.318  1.00  0.00     0.005 A 
ATOM      8  C   UNL A   1      39.082  23.039  26.584  1.00  0.00     0.044 A 
ATOM      9  F   UNL A   1      37.809  25.007  26.558  1.00  0.00    -0.206 F 
BRANCH   4  10
ATOM     10  C   UNL A   1      35.861  23.921  24.792  1.00  0.00    -0.013 A 
ATOM     11  C   UNL A   1      34.035  25.474  25.251  1.00  0.00     0.045 A 
ATOM     12  C   UNL A   1      33.494  25.219  23.992  1.00  0.00     0.026 A 
ATOM     13  C   UNL A   1      35.211  24.827  25.644  1.00  0.00     0.035 A 
ATOM     14  C   UNL A   1      34.156  24.365  23.111  1.00  0.00     0.003 A 
ATOM     15  C   UNL A   1      35.329  23.720  23.510  1.00  0.00     0.009 A 
BRANCH  11  16
ATOM     16  N   UNL A   1      33.321  26.300  26.130  1.00  0.00    -0.291 N 
ATOM     17  C   UNL A   1      32.068  26.091  26.636  1.00  0.00     0.411 C 
ATOM     18  O   UNL A   1      31.400  27.021  27.069  1.00  0.00    -0.224 OA
ATOM     19  H   UNL A   1      33.775  27.125  26.417  1.00  0.00     0.173 HD
BRANCH  17  20
ATOM     20  O   UNL A   1      31.739  24.776  26.727  1.00  0.00    -0.449 OA
BRANCH  20  21
ATOM     21  C   UNL A   1      30.486  24.348  26.170  1.00  0.00     0.235 C 
BRANCH  21  22
ATOM     22  C   UNL A   1      30.502  22.864  25.785  1.00  0.00     0.042 C 
BRANCH  22  23
ATOM     23  C   UNL A   1      31.822  22.341  25.204  1.00  0.00     0.003 C 
BRANCH  23  24
ATOM     24  C   UNL A   1      32.425  21.138  25.942  1.00  0.00    -0.000 C 
BRANCH  24  25
ATOM     25  C   UNL A   1      33.947  21.161  26.079  1.00  0.00    -0.003 C 
ATOM     26  C   UNL A   1      34.405  21.613  27.456  1.00  0.00     0.004 C 
ENDBRANCH  24  25
ENDBRANCH  23  24
ENDBRANCH  22  23
ENDBRANCH  21  22
ENDBRANCH  20  21
ENDBRANCH  17  20
ENDBRANCH  11  16
ENDBRANCH   4  10
ENDBRANCH   1   3
BRANCH   1  27
ATOM     27  C   UNL A   1      41.830  21.692  26.697  1.00  0.00     0.313 C 
ATOM     28  O   UNL A   1      42.481  21.879  27.721  1.00  0.00    -0.252 OA
BRANCH  27  29
ATOM     29  O   UNL A   1      42.227  22.088  25.460  1.00  0.00    -0.462 OA
BRANCH  29  30
ATOM     30  C   UNL A   1      43.518  22.719  25.363  1.00  0.00     0.274 C 
BRANCH  30  31
ATOM     31  C   UNL A   1      43.378  24.193  24.982  1.00  0.00     0.275 C 
BRANCH  31  32
ATOM     32  O   UNL A   1      42.684  24.933  26.001  1.00  0.00    -0.458 OA
BRANCH  32  33
ATOM     33  C   UNL A   1      42.441  26.231  25.708  1.00  0.00     0.338 C 
ATOM     34  O   UNL A   1      42.478  26.764  24.614  1.00  0.00    -0.246 OA
BRANCH  33  35
ATOM     35  C   UNL A   1      42.027  26.929  26.929  1.00  0.00     0.060 A 
ATOM     36  C   UNL A   1      42.607  28.163  27.236  1.00  0.00     0.016 A 
ATOM     37  C   UNL A   1      41.129  26.323  27.806  1.00  0.00     0.016 A 
ATOM     38  C   UNL A   1      42.300  28.798  28.436  1.00  0.00     0.010 A 
ATOM     39  C   UNL A   1      40.808  26.970  28.999  1.00  0.00     0.010 A 
ATOM     40  C   UNL A   1      41.400  28.204  29.327  1.00  0.00    -0.014 A 
BRANCH  40  41
ATOM     41  C   UNL A   1      41.088  28.829  30.633  1.00  0.00     0.031 A 
ATOM     42  C   UNL A   1      39.963  29.817  30.723  1.00  0.00     0.074 A 
ATOM     43  C   UNL A   1      41.850  28.557  31.708  1.00  0.00     0.049 A 
ATOM     44  N   UNL A   1      39.664  30.643  31.690  1.00  0.00    -0.248 NA
ATOM     45  C   UNL A   1      39.061  29.894  29.561  1.00  0.00     0.031 C 
ATOM     46  C   UNL A   1      42.930  27.569  31.755  1.00  0.00     0.029 A 
ATOM     47  N   UNL A   1      41.847  29.110  32.964  1.00  0.00    -0.354 N 
ATOM     48  C   UNL A   1      38.564  31.365  31.242  1.00  0.00     0.074 A 
ATOM     49  C   UNL A   1      38.252  30.884  29.914  1.00  0.00     0.031 C 
ATOM     50  C   UNL A   1      43.498  27.600  32.972  1.00  0.00     0.029 A 
ATOM     51  C   UNL A   1      42.868  28.651  33.764  1.00  0.00     0.049 A 
ATOM     52  H   UNL A   1      41.181  29.770  33.263  1.00  0.00     0.167 HD
ATOM     53  C   UNL A   1      37.886  32.347  31.882  1.00  0.00     0.031 A 
ATOM     54  C   UNL A   1      43.281  29.068  34.978  1.00  0.00     0.031 A 
ATOM     55  C   UNL A   1      38.213  32.813  33.205  1.00  0.00     0.049 A 
ATOM     56  C   UNL A   1      42.559  30.210  35.641  1.00  0.00     0.074 A 
ATOM     57  C   UNL A   1      37.589  33.797  33.948  1.00  0.00     0.029 A 
ATOM     58  N   UNL A   1      39.256  32.323  33.979  1.00  0.00    -0.354 N 
ATOM     59  N   UNL A   1      41.532  30.898  35.202  1.00  0.00    -0.248 NA
ATOM     60  C   UNL A   1      43.051  30.635  36.959  1.00  0.00     0.031 C 
ATOM     61  C   UNL A   1      38.285  33.938  35.153  1.00  0.00     0.029 A 
ATOM     62  C   UNL A   1      39.302  32.997  35.186  1.00  0.00     0.049 A 
ATOM     63  H   UNL A   1      39.870  31.603  33.709  1.00  0.00     0.167 HD
ATOM     64  C   UNL A   1      41.231  31.812  36.207  1.00  0.00     0.074 A 
ATOM     65  C   UNL A   1      42.185  31.591  37.273  1.00  0.00     0.031 C 
ATOM     66  C   UNL A   1      40.247  32.744  36.245  1.00  0.00     0.031 A 
BRANCH  53  67
ATOM     67  C   UNL A   1      36.757  33.015  31.145  1.00  0.00    -0.014 A 
ATOM     68  C   UNL A   1      35.433  32.949  31.614  1.00  0.00     0.010 A 
ATOM     69  C   UNL A   1      37.033  33.755  29.980  1.00  0.00     0.010 A 
ATOM     70  C   UNL A   1      34.402  33.582  30.913  1.00  0.00     0.020 A 
ATOM     71  C   UNL A   1      36.009  34.411  29.291  1.00  0.00     0.020 A 
ATOM     72  C   UNL A   1      34.696  34.306  29.753  1.00  0.00     0.054 A 
BRANCH  72  73
ATOM     73  S   UNL A   1      33.343  35.137  28.875  1.00  0.00     0.124 S 
ATOM     74  O   UNL A   1      32.870  34.081  27.983  1.00  0.00    -0.237 OA
ATOM     75  O   UNL A   1      32.432  35.497  29.959  1.00  0.00    -0.237 OA
ATOM     76  O   UNL A   1      33.997  36.263  28.216  1.00  0.00    -0.744 OA
ENDBRANCH  72  73
ENDBRANCH  53  67
BRANCH  54  77
ATOM     77  C   UNL A   1      44.456  28.421  35.623  1.00  0.00    -0.014 A 
ATOM     78  C   UNL A   1      45.750  28.931  35.425  1.00  0.00     0.010 A 
ATOM     79  C   UNL A   1      44.283  27.302  36.459  1.00  0.00     0.010 A 
ATOM     80  C   UNL A   1      46.852  28.326  36.038  1.00  0.00     0.020 A 
ATOM     81  C   UNL A   1      45.378  26.711  37.096  1.00  0.00     0.020 A 
ATOM     82  C   UNL A   1      46.658  27.221  36.873  1.00  0.00     0.054 A 
BRANCH  82  83
ATOM     83  S   UNL A   1      48.096  26.485  37.698  1.00  0.00     0.124 S 
ATOM     84  O   UNL A   1      48.988  27.632  37.834  1.00  0.00    -0.237 OA
ATOM     85  O   UNL A   1      47.520  25.981  38.943  1.00  0.00    -0.237 OA
ATOM     86  O   UNL A   1      48.537  25.454  36.763  1.00  0.00    -0.744 OA
ENDBRANCH  82  83
ENDBRANCH  54  77
BRANCH  66  87
ATOM     87  C   UNL A   1      40.095  33.555  37.502  1.00  0.00    -0.014 A 
ATOM     88  C   UNL A   1      39.337  33.088  38.589  1.00  0.00     0.010 A 
ATOM     89  C   UNL A   1      40.823  34.753  37.633  1.00  0.00     0.010 A 
ATOM     90  C   UNL A   1      39.308  33.808  39.786  1.00  0.00     0.020 A 
ATOM     91  C   UNL A   1      40.816  35.462  38.836  1.00  0.00     0.020 A 
ATOM     92  C   UNL A   1      40.055  34.986  39.905  1.00  0.00     0.054 A 
BRANCH  92  93
ATOM     93  S   UNL A   1      40.079  35.847  41.502  1.00  0.00     0.124 S 
ATOM     94  O   UNL A   1      41.158  36.813  41.311  1.00  0.00    -0.237 OA
ATOM     95  O   UNL A   1      38.735  36.414  41.580  1.00  0.00    -0.237 OA
ATOM     96  O   UNL A   1      40.358  34.785  42.465  1.00  0.00    -0.744 OA
ENDBRANCH  92  93
ENDBRANCH  66  87
ENDBRANCH  40  41
ENDBRANCH  33  35
ENDBRANCH  32  33
ENDBRANCH  31  32
ENDBRANCH  30  31
ENDBRANCH  29  30
ENDBRANCH  27  29
ENDBRANCH   1  27
TORSDOF 23
ENDMDL
