MODEL 1
REMARK VINA RESULT:     -11.0      0.000      0.000
REMARK SMILES Cc1cc([C@H](C)NC(=O)N2CC[C@H](C(=O)OCCOC(=O)c3ccc(-c4c5nc(c(-c6ccc(S(=O)(=O)[O-])cc6)c6ccc([nH]6)c(-c6ccc(S(=O)(=O)[O-])cc6)c6nc(c(-c7ccc(S(=O)(=O)[O-])cc7)c7ccc4[nH]7)C=C6)C=C5)cc3)[C@@H]2C)c(C)s1
REMARK SMILES IDX 17 1 16 2 14 3 15 4 13 5 10 6 11 7 82 8 12 9 83 10 8 11 7 12
REMARK SMILES IDX 9 14 5 15 6 16 4 17 1 18 2 19 3 20 86 21 84 22 85 23 18 24
REMARK SMILES IDX 19 25 20 26 21 27 22 28 23 29 81 30 24 31 80 32 25 33 26 34
REMARK SMILES IDX 27 35 74 36 28 37 79 38 73 39 75 40 29 41 78 42 72 43 71 44
REMARK SMILES IDX 30 46 60 47 41 48 59 49 42 50 45 51 58 52 76 53 43 54 44 55
REMARK SMILES IDX 57 57 77 58 46 59 31 60 32 61 40 62 33 63 39 64 34 65 35 66
REMARK SMILES IDX 36 67 37 68 38 69 61 70 62 71 70 72 63 73 69 74 64 75 65 76
REMARK SMILES IDX 66 77 67 78 68 79 47 80 48 81 56 82 49 83 55 84 50 85 51 86
REMARK SMILES IDX 52 87 53 88 54 89
REMARK H PARENT 7 13 75 45 45 56
REMARK Flexibility Score: inf
ROOT
ATOM      1  C   UNL A   1      33.793  30.116  26.825  1.00  0.00     0.274 C 
ENDROOT
BRANCH   1   2
ATOM      2  O   UNL A   1      32.557  30.416  26.134  1.00  0.00    -0.462 OA
BRANCH   2   3
ATOM      3  C   UNL A   1      31.954  29.371  25.490  1.00  0.00     0.311 C 
ATOM      4  O   UNL A   1      31.091  29.492  24.632  1.00  0.00    -0.252 OA
BRANCH   3   5
ATOM      5  C   UNL A   1      32.447  28.037  26.042  1.00  0.00     0.123 C 
ATOM      6  N   UNL A   1      31.838  26.083  24.783  1.00  0.00    -0.321 N 
ATOM      7  C   UNL A   1      30.704  26.455  25.613  1.00  0.00     0.122 C 
ATOM      8  C   UNL A   1      32.960  27.004  25.008  1.00  0.00     0.098 C 
ATOM      9  C   UNL A   1      31.305  27.284  26.734  1.00  0.00     0.039 C 
ATOM     10  C   UNL A   1      33.498  27.636  23.739  1.00  0.00     0.032 C 
BRANCH   6  11
ATOM     11  C   UNL A   1      31.675  25.069  23.880  1.00  0.00     0.318 C 
ATOM     12  N   UNL A   1      32.233  23.852  24.066  1.00  0.00    -0.331 N 
ATOM     13  H   UNL A   1      32.713  23.478  23.291  1.00  0.00     0.165 HD
ATOM     14  O   UNL A   1      31.038  25.238  22.839  1.00  0.00    -0.249 OA
BRANCH  12  15
ATOM     15  C   UNL A   1      32.217  23.022  25.259  1.00  0.00     0.112 C 
ATOM     16  C   UNL A   1      30.774  22.857  25.751  1.00  0.00     0.036 C 
BRANCH  15  17
ATOM     17  C   UNL A   1      32.885  21.687  24.951  1.00  0.00    -0.012 A 
ATOM     18  C   UNL A   1      32.687  18.148  23.535  1.00  0.00     0.056 C 
ATOM     19  C   UNL A   1      33.030  19.475  24.128  1.00  0.00     0.002 A 
ATOM     20  C   UNL A   1      32.276  20.628  24.175  1.00  0.00     0.021 A 
ATOM     21  S   UNL A   1      34.536  19.690  24.886  1.00  0.00    -0.146 S 
ATOM     22  C   UNL A   1      34.131  21.270  25.412  1.00  0.00     0.007 A 
ATOM     23  C   UNL A   1      35.133  21.966  26.270  1.00  0.00     0.057 C 
ENDBRANCH  15  17
ENDBRANCH  12  15
ENDBRANCH   6  11
ENDBRANCH   3   5
ENDBRANCH   2   3
ENDBRANCH   1   2
BRANCH   1  24
ATOM     24  C   UNL A   1      34.189  31.250  27.773  1.00  0.00     0.275 C 
BRANCH  24  25
ATOM     25  O   UNL A   1      35.618  31.279  27.887  1.00  0.00    -0.458 OA
BRANCH  25  26
ATOM     26  C   UNL A   1      36.127  31.115  29.136  1.00  0.00     0.338 C 
ATOM     27  O   UNL A   1      35.547  31.363  30.179  1.00  0.00    -0.246 OA
BRANCH  26  28
ATOM     28  C   UNL A   1      37.462  30.456  29.057  1.00  0.00     0.060 A 
ATOM     29  C   UNL A   1      38.311  30.420  30.166  1.00  0.00     0.016 A 
ATOM     30  C   UNL A   1      37.940  30.007  27.822  1.00  0.00     0.016 A 
ATOM     31  C   UNL A   1      39.646  30.051  30.015  1.00  0.00     0.010 A 
ATOM     32  C   UNL A   1      39.253  29.524  27.705  1.00  0.00     0.010 A 
ATOM     33  C   UNL A   1      40.137  29.564  28.795  1.00  0.00    -0.014 A 
BRANCH  33  34
ATOM     34  C   UNL A   1      41.545  29.074  28.686  1.00  0.00     0.031 A 
ATOM     35  C   UNL A   1      42.723  29.999  28.889  1.00  0.00     0.074 A 
ATOM     36  C   UNL A   1      41.789  27.775  28.409  1.00  0.00     0.049 A 
ATOM     37  N   UNL A   1      43.994  29.776  28.651  1.00  0.00    -0.248 NA
ATOM     38  C   UNL A   1      42.447  31.345  29.418  1.00  0.00     0.031 C 
ATOM     39  C   UNL A   1      40.772  26.732  28.247  1.00  0.00     0.029 A 
ATOM     40  N   UNL A   1      42.975  27.104  28.217  1.00  0.00    -0.354 N 
ATOM     41  C   UNL A   1      44.662  30.950  28.982  1.00  0.00     0.074 A 
ATOM     42  C   UNL A   1      43.657  31.891  29.428  1.00  0.00     0.031 C 
ATOM     43  C   UNL A   1      41.374  25.555  28.034  1.00  0.00     0.029 A 
ATOM     44  C   UNL A   1      42.809  25.774  27.911  1.00  0.00     0.049 A 
ATOM     45  H   UNL A   1      43.857  27.535  28.291  1.00  0.00     0.167 HD
ATOM     46  C   UNL A   1      45.988  31.219  28.913  1.00  0.00     0.031 A 
ATOM     47  C   UNL A   1      43.682  24.835  27.498  1.00  0.00     0.031 A 
ATOM     48  C   UNL A   1      46.998  30.289  28.472  1.00  0.00     0.049 A 
ATOM     49  C   UNL A   1      45.118  25.199  27.289  1.00  0.00     0.074 A 
ATOM     50  C   UNL A   1      48.366  30.492  28.371  1.00  0.00     0.029 A 
ATOM     51  N   UNL A   1      46.759  28.990  28.057  1.00  0.00    -0.354 N 
ATOM     52  N   UNL A   1      45.719  26.339  27.527  1.00  0.00    -0.248 NA
ATOM     53  C   UNL A   1      45.987  24.161  26.719  1.00  0.00     0.031 C 
ATOM     54  C   UNL A   1      48.945  29.333  27.840  1.00  0.00     0.029 A 
ATOM     55  C   UNL A   1      47.947  28.392  27.662  1.00  0.00     0.049 A 
ATOM     56  H   UNL A   1      45.876  28.555  28.044  1.00  0.00     0.167 HD
ATOM     57  C   UNL A   1      47.038  26.157  27.132  1.00  0.00     0.074 A 
ATOM     58  C   UNL A   1      47.153  24.791  26.660  1.00  0.00     0.031 C 
ATOM     59  C   UNL A   1      48.057  27.048  27.158  1.00  0.00     0.031 A 
BRANCH  46  60
ATOM     60  C   UNL A   1      46.446  32.603  29.286  1.00  0.00    -0.014 A 
ATOM     61  C   UNL A   1      46.474  33.640  28.337  1.00  0.00     0.010 A 
ATOM     62  C   UNL A   1      46.748  32.892  30.630  1.00  0.00     0.010 A 
ATOM     63  C   UNL A   1      46.807  34.940  28.727  1.00  0.00     0.020 A 
ATOM     64  C   UNL A   1      47.068  34.193  31.025  1.00  0.00     0.020 A 
ATOM     65  C   UNL A   1      47.104  35.208  30.068  1.00  0.00     0.054 A 
BRANCH  65  66
ATOM     66  S   UNL A   1      47.508  36.910  30.546  1.00  0.00     0.124 S 
ATOM     67  O   UNL A   1      46.188  37.536  30.550  1.00  0.00    -0.237 OA
ATOM     68  O   UNL A   1      48.126  36.738  31.858  1.00  0.00    -0.237 OA
ATOM     69  O   UNL A   1      48.409  37.365  29.490  1.00  0.00    -0.744 OA
ENDBRANCH  65  66
ENDBRANCH  46  60
BRANCH  47  70
ATOM     70  C   UNL A   1      43.171  23.484  27.144  1.00  0.00    -0.014 A 
ATOM     71  C   UNL A   1      43.031  23.095  25.803  1.00  0.00     0.010 A 
ATOM     72  C   UNL A   1      42.895  22.553  28.165  1.00  0.00     0.010 A 
ATOM     73  C   UNL A   1      42.643  21.789  25.488  1.00  0.00     0.020 A 
ATOM     74  C   UNL A   1      42.539  21.241  27.854  1.00  0.00     0.020 A 
ATOM     75  C   UNL A   1      42.412  20.867  26.516  1.00  0.00     0.054 A 
BRANCH  75  76
ATOM     76  S   UNL A   1      42.029  19.144  26.096  1.00  0.00     0.124 S 
ATOM     77  O   UNL A   1      40.583  19.192  25.913  1.00  0.00    -0.237 OA
ATOM     78  O   UNL A   1      42.814  18.925  24.884  1.00  0.00    -0.237 OA
ATOM     79  O   UNL A   1      42.490  18.401  27.267  1.00  0.00    -0.744 OA
ENDBRANCH  75  76
ENDBRANCH  47  70
BRANCH  59  80
ATOM     80  C   UNL A   1      49.394  26.570  26.662  1.00  0.00    -0.014 A 
ATOM     81  C   UNL A   1      50.288  25.909  27.524  1.00  0.00     0.010 A 
ATOM     82  C   UNL A   1      49.760  26.779  25.321  1.00  0.00     0.010 A 
ATOM     83  C   UNL A   1      51.544  25.502  27.062  1.00  0.00     0.020 A 
ATOM     84  C   UNL A   1      51.005  26.355  24.851  1.00  0.00     0.020 A 
ATOM     85  C   UNL A   1      51.897  25.736  25.730  1.00  0.00     0.054 A 
BRANCH  85  86
ATOM     86  S   UNL A   1      53.528  25.195  25.148  1.00  0.00     0.124 S 
ATOM     87  O   UNL A   1      54.424  25.885  26.073  1.00  0.00    -0.237 OA
ATOM     88  O   UNL A   1      53.463  23.744  25.303  1.00  0.00    -0.237 OA
ATOM     89  O   UNL A   1      53.576  25.666  23.766  1.00  0.00    -0.744 OA
ENDBRANCH  85  86
ENDBRANCH  59  80
ENDBRANCH  33  34
ENDBRANCH  26  28
ENDBRANCH  25  26
ENDBRANCH  24  25
ENDBRANCH   1  24
TORSDOF 17
ENDMDL
MODEL 2
REMARK VINA RESULT:     -10.9      5.265      9.487
REMARK SMILES Cc1cc([C@H](C)NC(=O)N2CC[C@H](C(=O)OCCOC(=O)c3ccc(-c4c5nc(c(-c6ccc(S(=O)(=O)[O-])cc6)c6ccc([nH]6)c(-c6ccc(S(=O)(=O)[O-])cc6)c6nc(c(-c7ccc(S(=O)(=O)[O-])cc7)c7ccc4[nH]7)C=C6)C=C5)cc3)[C@@H]2C)c(C)s1
REMARK SMILES IDX 17 1 16 2 14 3 15 4 13 5 10 6 11 7 82 8 12 9 83 10 8 11 7 12
REMARK SMILES IDX 9 14 5 15 6 16 4 17 1 18 2 19 3 20 86 21 84 22 85 23 18 24
REMARK SMILES IDX 19 25 20 26 21 27 22 28 23 29 81 30 24 31 80 32 25 33 26 34
REMARK SMILES IDX 27 35 74 36 28 37 79 38 73 39 75 40 29 41 78 42 72 43 71 44
REMARK SMILES IDX 30 46 60 47 41 48 59 49 42 50 45 51 58 52 76 53 43 54 44 55
REMARK SMILES IDX 57 57 77 58 46 59 31 60 32 61 40 62 33 63 39 64 34 65 35 66
REMARK SMILES IDX 36 67 37 68 38 69 61 70 62 71 70 72 63 73 69 74 64 75 65 76
REMARK SMILES IDX 66 77 67 78 68 79 47 80 48 81 56 82 49 83 55 84 50 85 51 86
REMARK SMILES IDX 52 87 53 88 54 89
REMARK H PARENT 7 13 75 45 45 56
REMARK Flexibility Score: inf
ROOT
ATOM      1  C   UNL A   1      31.657  30.401  25.700  1.00  0.00     0.274 C 
ENDROOT
BRANCH   1   2
ATOM      2  O   UNL A   1      31.059  29.148  25.290  1.00  0.00    -0.462 OA
BRANCH   2   3
ATOM      3  C   UNL A   1      31.898  28.235  24.715  1.00  0.00     0.311 C 
ATOM      4  O   UNL A   1      32.550  27.407  25.335  1.00  0.00    -0.252 OA
BRANCH   3   5
ATOM      5  C   UNL A   1      31.971  28.441  23.204  1.00  0.00     0.123 C 
ATOM      6  N   UNL A   1      32.727  26.559  21.916  1.00  0.00    -0.321 N 
ATOM      7  C   UNL A   1      33.896  27.232  22.460  1.00  0.00     0.122 C 
ATOM      8  C   UNL A   1      31.501  27.260  22.319  1.00  0.00     0.098 C 
ATOM      9  C   UNL A   1      33.422  28.644  22.756  1.00  0.00     0.039 C 
ATOM     10  C   UNL A   1      30.479  26.367  22.995  1.00  0.00     0.032 C 
BRANCH   6  11
ATOM     11  C   UNL A   1      32.911  25.379  21.252  1.00  0.00     0.318 C 
ATOM     12  N   UNL A   1      33.274  24.247  21.895  1.00  0.00    -0.331 N 
ATOM     13  H   UNL A   1      34.017  23.744  21.489  1.00  0.00     0.165 HD
ATOM     14  O   UNL A   1      32.784  25.309  20.028  1.00  0.00    -0.249 OA
BRANCH  12  15
ATOM     15  C   UNL A   1      32.712  23.675  23.107  1.00  0.00     0.112 C 
ATOM     16  C   UNL A   1      31.939  22.396  22.761  1.00  0.00     0.036 C 
BRANCH  15  17
ATOM     17  C   UNL A   1      33.831  23.426  24.111  1.00  0.00    -0.012 A 
ATOM     18  C   UNL A   1      37.329  22.113  24.894  1.00  0.00     0.056 C 
ATOM     19  C   UNL A   1      35.959  22.706  24.850  1.00  0.00     0.002 A 
ATOM     20  C   UNL A   1      35.157  22.965  23.759  1.00  0.00     0.021 A 
ATOM     21  S   UNL A   1      35.191  23.147  26.300  1.00  0.00    -0.146 S 
ATOM     22  C   UNL A   1      33.731  23.543  25.495  1.00  0.00     0.007 A 
ATOM     23  C   UNL A   1      32.581  23.944  26.355  1.00  0.00     0.057 C 
ENDBRANCH  15  17
ENDBRANCH  12  15
ENDBRANCH   6  11
ENDBRANCH   3   5
ENDBRANCH   2   3
ENDBRANCH   1   2
BRANCH   1  24
ATOM     24  C   UNL A   1      32.258  30.297  27.102  1.00  0.00     0.275 C 
BRANCH  24  25
ATOM     25  O   UNL A   1      33.688  30.336  26.996  1.00  0.00    -0.458 OA
BRANCH  25  26
ATOM     26  C   UNL A   1      34.313  31.364  27.625  1.00  0.00     0.338 C 
ATOM     27  O   UNL A   1      33.834  32.465  27.838  1.00  0.00    -0.246 OA
BRANCH  26  28
ATOM     28  C   UNL A   1      35.635  30.913  28.146  1.00  0.00     0.060 A 
ATOM     29  C   UNL A   1      35.780  29.659  28.746  1.00  0.00     0.016 A 
ATOM     30  C   UNL A   1      36.707  31.810  28.179  1.00  0.00     0.016 A 
ATOM     31  C   UNL A   1      36.935  29.356  29.465  1.00  0.00     0.010 A 
ATOM     32  C   UNL A   1      37.912  31.449  28.804  1.00  0.00     0.010 A 
ATOM     33  C   UNL A   1      38.035  30.225  29.482  1.00  0.00    -0.014 A 
BRANCH  33  34
ATOM     34  C   UNL A   1      39.302  29.830  30.172  1.00  0.00     0.031 A 
ATOM     35  C   UNL A   1      40.179  28.720  29.643  1.00  0.00     0.074 A 
ATOM     36  C   UNL A   1      39.690  30.479  31.292  1.00  0.00     0.049 A 
ATOM     37  N   UNL A   1      41.205  28.138  30.218  1.00  0.00    -0.248 NA
ATOM     38  C   UNL A   1      39.870  28.188  28.306  1.00  0.00     0.031 C 
ATOM     39  C   UNL A   1      38.996  31.615  31.903  1.00  0.00     0.029 A 
ATOM     40  N   UNL A   1      40.771  30.276  32.119  1.00  0.00    -0.354 N 
ATOM     41  C   UNL A   1      41.648  27.166  29.329  1.00  0.00     0.074 A 
ATOM     42  C   UNL A   1      40.775  27.226  28.176  1.00  0.00     0.031 C 
ATOM     43  C   UNL A   1      39.689  32.038  32.968  1.00  0.00     0.029 A 
ATOM     44  C   UNL A   1      40.803  31.127  33.197  1.00  0.00     0.049 A 
ATOM     45  H   UNL A   1      41.454  29.587  31.954  1.00  0.00     0.167 HD
ATOM     46  C   UNL A   1      42.683  26.301  29.464  1.00  0.00     0.031 A 
ATOM     47  C   UNL A   1      41.579  31.148  34.298  1.00  0.00     0.031 A 
ATOM     48  C   UNL A   1      43.560  26.234  30.607  1.00  0.00     0.049 A 
ATOM     49  C   UNL A   1      42.618  30.089  34.492  1.00  0.00     0.074 A 
ATOM     50  C   UNL A   1      44.630  25.379  30.818  1.00  0.00     0.029 A 
ATOM     51  N   UNL A   1      43.472  27.042  31.727  1.00  0.00    -0.354 N 
ATOM     52  N   UNL A   1      42.971  29.125  33.678  1.00  0.00    -0.248 NA
ATOM     53  C   UNL A   1      43.341  30.099  35.771  1.00  0.00     0.031 C 
ATOM     54  C   UNL A   1      45.153  25.633  32.092  1.00  0.00     0.029 A 
ATOM     55  C   UNL A   1      44.443  26.681  32.650  1.00  0.00     0.049 A 
ATOM     56  H   UNL A   1      42.817  27.767  31.851  1.00  0.00     0.167 HD
ATOM     57  C   UNL A   1      43.954  28.408  34.347  1.00  0.00     0.074 A 
ATOM     58  C   UNL A   1      44.157  29.063  35.624  1.00  0.00     0.031 C 
ATOM     59  C   UNL A   1      44.622  27.305  33.935  1.00  0.00     0.031 A 
BRANCH  46  60
ATOM     60  C   UNL A   1      42.917  25.305  28.360  1.00  0.00    -0.014 A 
ATOM     61  C   UNL A   1      43.825  25.571  27.321  1.00  0.00     0.010 A 
ATOM     62  C   UNL A   1      42.300  24.042  28.429  1.00  0.00     0.010 A 
ATOM     63  C   UNL A   1      44.101  24.592  26.362  1.00  0.00     0.020 A 
ATOM     64  C   UNL A   1      42.584  23.058  27.479  1.00  0.00     0.020 A 
ATOM     65  C   UNL A   1      43.477  23.343  26.446  1.00  0.00     0.054 A 
BRANCH  65  66
ATOM     66  S   UNL A   1      43.876  22.087  25.200  1.00  0.00     0.124 S 
ATOM     67  O   UNL A   1      43.768  22.855  23.962  1.00  0.00    -0.237 OA
ATOM     68  O   UNL A   1      45.229  21.683  25.573  1.00  0.00    -0.237 OA
ATOM     69  O   UNL A   1      42.849  21.066  25.392  1.00  0.00    -0.744 OA
ENDBRANCH  65  66
ENDBRANCH  46  60
BRANCH  47  70
ATOM     70  C   UNL A   1      41.300  32.155  35.356  1.00  0.00    -0.014 A 
ATOM     71  C   UNL A   1      41.972  33.387  35.373  1.00  0.00     0.010 A 
ATOM     72  C   UNL A   1      40.296  31.905  36.311  1.00  0.00     0.010 A 
ATOM     73  C   UNL A   1      41.628  34.362  36.315  1.00  0.00     0.020 A 
ATOM     74  C   UNL A   1      39.928  32.885  37.231  1.00  0.00     0.020 A 
ATOM     75  C   UNL A   1      40.600  34.108  37.230  1.00  0.00     0.054 A 
BRANCH  75  76
ATOM     76  S   UNL A   1      40.078  35.422  38.367  1.00  0.00     0.124 S 
ATOM     77  O   UNL A   1      39.651  36.469  37.444  1.00  0.00    -0.237 OA
ATOM     78  O   UNL A   1      39.013  34.783  39.135  1.00  0.00    -0.237 OA
ATOM     79  O   UNL A   1      41.292  35.712  39.127  1.00  0.00    -0.744 OA
ENDBRANCH  75  76
ENDBRANCH  47  70
BRANCH  59  80
ATOM     80  C   UNL A   1      45.645  26.735  34.879  1.00  0.00    -0.014 A 
ATOM     81  C   UNL A   1      45.298  25.723  35.791  1.00  0.00     0.010 A 
ATOM     82  C   UNL A   1      46.966  27.214  34.853  1.00  0.00     0.010 A 
ATOM     83  C   UNL A   1      46.247  25.227  36.690  1.00  0.00     0.020 A 
ATOM     84  C   UNL A   1      47.923  26.706  35.735  1.00  0.00     0.020 A 
ATOM     85  C   UNL A   1      47.552  25.729  36.662  1.00  0.00     0.054 A 
BRANCH  85  86
ATOM     86  S   UNL A   1      48.770  25.068  37.833  1.00  0.00     0.124 S 
ATOM     87  O   UNL A   1      48.355  25.692  39.086  1.00  0.00    -0.237 OA
ATOM     88  O   UNL A   1      48.553  23.626  37.747  1.00  0.00    -0.237 OA
ATOM     89  O   UNL A   1      50.049  25.532  37.299  1.00  0.00    -0.744 OA
ENDBRANCH  85  86
ENDBRANCH  59  80
ENDBRANCH  33  34
ENDBRANCH  26  28
ENDBRANCH  25  26
ENDBRANCH  24  25
ENDBRANCH   1  24
TORSDOF 17
ENDMDL
MODEL 3
REMARK VINA RESULT:     -10.8      6.032     11.517
REMARK SMILES Cc1cc([C@H](C)NC(=O)N2CC[C@H](C(=O)OCCOC(=O)c3ccc(-c4c5nc(c(-c6ccc(S(=O)(=O)[O-])cc6)c6ccc([nH]6)c(-c6ccc(S(=O)(=O)[O-])cc6)c6nc(c(-c7ccc(S(=O)(=O)[O-])cc7)c7ccc4[nH]7)C=C6)C=C5)cc3)[C@@H]2C)c(C)s1
REMARK SMILES IDX 17 1 16 2 14 3 15 4 13 5 10 6 11 7 82 8 12 9 83 10 8 11 7 12
REMARK SMILES IDX 9 14 5 15 6 16 4 17 1 18 2 19 3 20 86 21 84 22 85 23 18 24
REMARK SMILES IDX 19 25 20 26 21 27 22 28 23 29 81 30 24 31 80 32 25 33 26 34
REMARK SMILES IDX 27 35 74 36 28 37 79 38 73 39 75 40 29 41 78 42 72 43 71 44
REMARK SMILES IDX 30 46 60 47 41 48 59 49 42 50 45 51 58 52 76 53 43 54 44 55
REMARK SMILES IDX 57 57 77 58 46 59 31 60 32 61 40 62 33 63 39 64 34 65 35 66
REMARK SMILES IDX 36 67 37 68 38 69 61 70 62 71 70 72 63 73 69 74 64 75 65 76
REMARK SMILES IDX 66 77 67 78 68 79 47 80 48 81 56 82 49 83 55 84 50 85 51 86
REMARK SMILES IDX 52 87 53 88 54 89
REMARK H PARENT 7 13 75 45 45 56
REMARK Flexibility Score: inf
ROOT
ATOM      1  C   UNL A   1      37.654  22.321  25.683  1.00  0.00     0.274 C 
ENDROOT
BRANCH   1   2
ATOM      2  O   UNL A   1      36.818  23.253  26.409  1.00  0.00    -0.462 OA
BRANCH   2   3
ATOM      3  C   UNL A   1      35.645  23.613  25.805  1.00  0.00     0.311 C 
ATOM      4  O   UNL A   1      35.311  24.767  25.575  1.00  0.00    -0.252 OA
BRANCH   3   5
ATOM      5  C   UNL A   1      34.779  22.388  25.527  1.00  0.00     0.123 C 
ATOM      6  N   UNL A   1      32.860  22.746  24.126  1.00  0.00    -0.321 N 
ATOM      7  C   UNL A   1      32.519  23.170  25.475  1.00  0.00     0.122 C 
ATOM      8  C   UNL A   1      34.236  22.234  24.085  1.00  0.00     0.098 C 
ATOM      9  C   UNL A   1      33.499  22.430  26.369  1.00  0.00     0.039 C 
ATOM     10  C   UNL A   1      35.106  22.900  23.036  1.00  0.00     0.032 C 
BRANCH   6  11
ATOM     11  C   UNL A   1      31.957  22.980  23.127  1.00  0.00     0.318 C 
ATOM     12  N   UNL A   1      31.577  24.231  22.787  1.00  0.00    -0.331 N 
ATOM     13  H   UNL A   1      30.607  24.374  22.696  1.00  0.00     0.165 HD
ATOM     14  O   UNL A   1      31.426  22.050  22.516  1.00  0.00    -0.249 OA
BRANCH  12  15
ATOM     15  C   UNL A   1      32.412  25.394  22.537  1.00  0.00     0.112 C 
ATOM     16  C   UNL A   1      32.739  25.480  21.041  1.00  0.00     0.036 C 
BRANCH  15  17
ATOM     17  C   UNL A   1      31.704  26.641  23.052  1.00  0.00    -0.012 A 
ATOM     18  C   UNL A   1      28.742  29.046  22.920  1.00  0.00     0.056 C 
ATOM     19  C   UNL A   1      29.985  28.260  23.182  1.00  0.00     0.002 A 
ATOM     20  C   UNL A   1      30.365  27.036  22.673  1.00  0.00     0.021 A 
ATOM     21  S   UNL A   1      31.163  28.884  24.235  1.00  0.00    -0.146 S 
ATOM     22  C   UNL A   1      32.250  27.602  23.900  1.00  0.00     0.007 A 
ATOM     23  C   UNL A   1      33.596  27.682  24.538  1.00  0.00     0.057 C 
ENDBRANCH  15  17
ENDBRANCH  12  15
ENDBRANCH   6  11
ENDBRANCH   3   5
ENDBRANCH   2   3
ENDBRANCH   1   2
BRANCH   1  24
ATOM     24  C   UNL A   1      39.111  22.409  26.140  1.00  0.00     0.275 C 
BRANCH  24  25
ATOM     25  O   UNL A   1      39.451  23.789  26.338  1.00  0.00    -0.458 OA
BRANCH  25  26
ATOM     26  C   UNL A   1      40.681  24.039  26.857  1.00  0.00     0.338 C 
ATOM     27  O   UNL A   1      41.699  23.418  26.606  1.00  0.00    -0.246 OA
BRANCH  26  28
ATOM     28  C   UNL A   1      40.640  25.278  27.684  1.00  0.00     0.060 A 
ATOM     29  C   UNL A   1      41.743  26.134  27.752  1.00  0.00     0.016 A 
ATOM     30  C   UNL A   1      39.548  25.511  28.527  1.00  0.00     0.016 A 
ATOM     31  C   UNL A   1      41.799  27.130  28.724  1.00  0.00     0.010 A 
ATOM     32  C   UNL A   1      39.564  26.593  29.422  1.00  0.00     0.010 A 
ATOM     33  C   UNL A   1      40.703  27.404  29.554  1.00  0.00    -0.014 A 
BRANCH  33  34
ATOM     34  C   UNL A   1      40.749  28.547  30.517  1.00  0.00     0.031 A 
ATOM     35  C   UNL A   1      41.794  28.624  31.606  1.00  0.00     0.074 A 
ATOM     36  C   UNL A   1      39.847  29.548  30.420  1.00  0.00     0.049 A 
ATOM     37  N   UNL A   1      41.859  29.447  32.626  1.00  0.00    -0.248 NA
ATOM     38  C   UNL A   1      42.904  27.658  31.552  1.00  0.00     0.031 C 
ATOM     39  C   UNL A   1      38.809  29.665  29.391  1.00  0.00     0.029 A 
ATOM     40  N   UNL A   1      39.657  30.666  31.200  1.00  0.00    -0.354 N 
ATOM     41  C   UNL A   1      42.997  29.088  33.340  1.00  0.00     0.074 A 
ATOM     42  C   UNL A   1      43.590  27.965  32.646  1.00  0.00     0.031 C 
ATOM     43  C   UNL A   1      38.133  30.806  29.571  1.00  0.00     0.029 A 
ATOM     44  C   UNL A   1      38.594  31.439  30.799  1.00  0.00     0.049 A 
ATOM     45  H   UNL A   1      40.227  30.889  31.971  1.00  0.00     0.167 HD
ATOM     46  C   UNL A   1      43.495  29.641  34.473  1.00  0.00     0.031 A 
ATOM     47  C   UNL A   1      37.988  32.495  31.376  1.00  0.00     0.031 A 
ATOM     48  C   UNL A   1      42.914  30.759  35.172  1.00  0.00     0.049 A 
ATOM     49  C   UNL A   1      38.470  32.992  32.703  1.00  0.00     0.074 A 
ATOM     50  C   UNL A   1      43.362  31.373  36.332  1.00  0.00     0.029 A 
ATOM     51  N   UNL A   1      41.766  31.431  34.788  1.00  0.00    -0.354 N 
ATOM     52  N   UNL A   1      39.498  32.589  33.407  1.00  0.00    -0.248 NA
ATOM     53  C   UNL A   1      37.686  34.064  33.331  1.00  0.00     0.031 C 
ATOM     54  C   UNL A   1      42.451  32.378  36.679  1.00  0.00     0.029 A 
ATOM     55  C   UNL A   1      41.468  32.426  35.707  1.00  0.00     0.049 A 
ATOM     56  H   UNL A   1      41.239  31.231  33.980  1.00  0.00     0.167 HD
ATOM     57  C   UNL A   1      39.483  33.354  34.566  1.00  0.00     0.074 A 
ATOM     58  C   UNL A   1      38.358  34.261  34.458  1.00  0.00     0.031 C 
ATOM     59  C   UNL A   1      40.329  33.302  35.622  1.00  0.00     0.031 A 
BRANCH  46  60
ATOM     60  C   UNL A   1      44.727  29.019  35.076  1.00  0.00    -0.014 A 
ATOM     61  C   UNL A   1      46.012  29.478  34.739  1.00  0.00     0.010 A 
ATOM     62  C   UNL A   1      44.586  28.038  36.075  1.00  0.00     0.010 A 
ATOM     63  C   UNL A   1      47.136  28.955  35.385  1.00  0.00     0.020 A 
ATOM     64  C   UNL A   1      45.707  27.523  36.731  1.00  0.00     0.020 A 
ATOM     65  C   UNL A   1      46.976  27.979  36.375  1.00  0.00     0.054 A 
BRANCH  65  66
ATOM     66  S   UNL A   1      48.453  27.340  37.212  1.00  0.00     0.124 S 
ATOM     67  O   UNL A   1      47.863  26.573  38.307  1.00  0.00    -0.237 OA
ATOM     68  O   UNL A   1      49.097  26.549  36.167  1.00  0.00    -0.237 OA
ATOM     69  O   UNL A   1      49.175  28.544  37.613  1.00  0.00    -0.744 OA
ENDBRANCH  65  66
ENDBRANCH  46  60
BRANCH  47  70
ATOM     70  C   UNL A   1      36.775  33.067  30.734  1.00  0.00    -0.014 A 
ATOM     71  C   UNL A   1      35.495  32.805  31.248  1.00  0.00     0.010 A 
ATOM     72  C   UNL A   1      36.912  33.946  29.641  1.00  0.00     0.010 A 
ATOM     73  C   UNL A   1      34.374  33.429  30.692  1.00  0.00     0.020 A 
ATOM     74  C   UNL A   1      35.800  34.595  29.106  1.00  0.00     0.020 A 
ATOM     75  C   UNL A   1      34.536  34.329  29.632  1.00  0.00     0.054 A 
BRANCH  75  76
ATOM     76  S   UNL A   1      33.091  35.226  29.000  1.00  0.00     0.124 S 
ATOM     77  O   UNL A   1      32.300  35.416  30.211  1.00  0.00    -0.237 OA
ATOM     78  O   UNL A   1      33.683  36.436  28.435  1.00  0.00    -0.237 OA
ATOM     79  O   UNL A   1      32.525  34.305  28.018  1.00  0.00    -0.744 OA
ENDBRANCH  75  76
ENDBRANCH  47  70
BRANCH  59  80
ATOM     80  C   UNL A   1      40.069  34.262  36.750  1.00  0.00    -0.014 A 
ATOM     81  C   UNL A   1      39.240  33.900  37.827  1.00  0.00     0.010 A 
ATOM     82  C   UNL A   1      40.663  35.536  36.737  1.00  0.00     0.010 A 
ATOM     83  C   UNL A   1      38.975  34.814  38.852  1.00  0.00     0.020 A 
ATOM     84  C   UNL A   1      40.417  36.444  37.771  1.00  0.00     0.020 A 
ATOM     85  C   UNL A   1      39.558  36.083  38.812  1.00  0.00     0.054 A 
BRANCH  85  86
ATOM     86  S   UNL A   1      39.207  37.252  40.155  1.00  0.00     0.124 S 
ATOM     87  O   UNL A   1      38.469  36.416  41.098  1.00  0.00    -0.237 OA
ATOM     88  O   UNL A   1      40.541  37.659  40.588  1.00  0.00    -0.237 OA
ATOM     89  O   UNL A   1      38.423  38.300  39.505  1.00  0.00    -0.744 OA
ENDBRANCH  85  86
ENDBRANCH  59  80
ENDBRANCH  33  34
ENDBRANCH  26  28
ENDBRANCH  25  26
ENDBRANCH  24  25
ENDBRANCH   1  24
TORSDOF 17
ENDMDL
