MODEL 1
REMARK VINA RESULT:     -10.6      0.000      0.000
REMARK SMILES O=C(OCCOC(=O)[C@@H]1[C@@H](C(=O)Nc2cccc([N+](=O)[O-])c2)[C@@H]2C=C[C@H]1O2)c1ccc(-c2c3nc(c(-c4ccc(S(=O)(=O)[O-])cc4)c4ccc([nH]4)c(-c4ccc(S(=O)(=O)[O-])cc4)c4nc(c(-c5ccc(S(=O)(=O)[O-])cc5)c5ccc2[nH]5)C=C4)C=C3)cc1
REMARK SMILES IDX 4 1 3 2 2 3 1 4 28 5 29 6 87 7 30 8 86 9 31 10 32 11 33 12
REMARK SMILES IDX 80 13 34 14 85 15 79 16 81 17 35 18 84 19 78 20 77 21 36 23
REMARK SMILES IDX 66 24 47 25 65 26 48 27 51 28 64 29 82 30 49 31 50 32 63 34
REMARK SMILES IDX 83 35 52 36 37 37 38 38 46 39 39 40 45 41 40 42 41 43 42 44
REMARK SMILES IDX 43 45 44 46 67 47 68 48 76 49 69 50 75 51 70 52 71 53 72 54
REMARK SMILES IDX 73 55 74 56 53 57 54 58 62 59 55 60 61 61 56 62 57 63 58 64
REMARK SMILES IDX 59 65 60 66 5 67 6 68 7 69 8 70 9 71 10 72 26 73 23 74 25 75
REMARK SMILES IDX 27 76 24 77 11 78 12 79 13 80 14 82 15 83 22 84 16 85 18 86
REMARK SMILES IDX 17 87 19 88 20 89 21 90
REMARK H PARENT 81 22 51 33 13 81
REMARK Flexibility Score: inf
ROOT
ATOM      1  C   UNL A   1      37.413  23.421  25.347  1.00  0.00     0.275 C 
ENDROOT
BRANCH   1   2
ATOM      2  O   UNL A   1      38.443  23.236  26.377  1.00  0.00    -0.458 OA
BRANCH   2   3
ATOM      3  C   UNL A   1      39.633  22.538  26.286  1.00  0.00     0.338 C 
ATOM      4  O   UNL A   1      39.667  21.315  26.298  1.00  0.00    -0.246 OA
BRANCH   3   5
ATOM      5  C   UNL A   1      40.862  23.323  26.707  1.00  0.00     0.060 A 
ATOM      6  C   UNL A   1      40.522  24.946  26.803  1.00  0.00     0.016 A 
ATOM      7  C   UNL A   1      41.930  22.482  27.729  1.00  0.00     0.016 A 
ATOM      8  C   UNL A   1      40.933  25.952  27.957  1.00  0.00     0.010 A 
ATOM      9  C   UNL A   1      42.503  23.372  29.124  1.00  0.00     0.010 A 
ATOM     10  C   UNL A   1      41.894  25.373  29.216  1.00  0.00    -0.014 A 
BRANCH  10  11
ATOM     11  C   UNL A   1      42.773  26.942  29.549  1.00  0.00     0.031 A 
ATOM     12  C   UNL A   1      41.973  28.214  30.064  1.00  0.00     0.074 A 
ATOM     13  C   UNL A   1      44.096  27.244  29.435  1.00  0.00     0.049 A 
ATOM     14  N   UNL A   1      42.116  29.485  29.741  1.00  0.00    -0.248 NA
ATOM     15  C   UNL A   1      40.864  28.000  31.009  1.00  0.00     0.031 C 
ATOM     16  C   UNL A   1      45.263  26.372  29.448  1.00  0.00     0.029 A 
ATOM     17  N   UNL A   1      44.648  28.453  29.027  1.00  0.00    -0.354 N 
ATOM     18  C   UNL A   1      41.030  30.167  30.313  1.00  0.00     0.074 A 
ATOM     19  C   UNL A   1      40.230  29.165  30.974  1.00  0.00     0.031 C 
ATOM     20  C   UNL A   1      46.250  26.922  28.728  1.00  0.00     0.029 A 
ATOM     21  C   UNL A   1      45.863  28.281  28.381  1.00  0.00     0.049 A 
ATOM     22  H   UNL A   1      44.227  29.330  29.180  1.00  0.00     0.167 HD
ATOM     23  C   UNL A   1      40.733  31.497  30.318  1.00  0.00     0.031 A 
ATOM     24  C   UNL A   1      46.607  29.097  27.606  1.00  0.00     0.031 A 
ATOM     25  C   UNL A   1      41.641  32.520  29.855  1.00  0.00     0.049 A 
ATOM     26  C   UNL A   1      46.285  30.560  27.564  1.00  0.00     0.074 A 
ATOM     27  C   UNL A   1      41.520  33.897  29.965  1.00  0.00     0.029 A 
ATOM     28  N   UNL A   1      42.861  32.279  29.247  1.00  0.00    -0.354 N 
ATOM     29  N   UNL A   1      45.250  31.182  28.069  1.00  0.00    -0.248 NA
ATOM     30  C   UNL A   1      47.292  31.448  26.965  1.00  0.00     0.031 C 
ATOM     31  C   UNL A   1      42.638  34.488  29.369  1.00  0.00     0.029 A 
ATOM     32  C   UNL A   1      43.486  33.478  28.949  1.00  0.00     0.049 A 
ATOM     33  H   UNL A   1      43.229  31.387  29.055  1.00  0.00     0.167 HD
ATOM     34  C   UNL A   1      45.521  32.537  27.921  1.00  0.00     0.074 A 
ATOM     35  C   UNL A   1      46.810  32.643  27.274  1.00  0.00     0.031 C 
ATOM     36  C   UNL A   1      44.773  33.594  28.316  1.00  0.00     0.031 A 
BRANCH  23  37
ATOM     37  C   UNL A   1      39.386  31.971  30.854  1.00  0.00    -0.014 A 
ATOM     38  C   UNL A   1      38.247  32.100  30.040  1.00  0.00     0.010 A 
ATOM     39  C   UNL A   1      39.235  32.195  32.242  1.00  0.00     0.010 A 
ATOM     40  C   UNL A   1      37.017  32.501  30.581  1.00  0.00     0.020 A 
ATOM     41  C   UNL A   1      37.998  32.551  32.796  1.00  0.00     0.020 A 
ATOM     42  C   UNL A   1      36.900  32.724  31.956  1.00  0.00     0.054 A 
BRANCH  42  43
ATOM     43  S   UNL A   1      35.282  33.213  32.623  1.00  0.00     0.124 S 
ATOM     44  O   UNL A   1      34.370  32.369  31.854  1.00  0.00    -0.237 OA
ATOM     45  O   UNL A   1      35.405  32.872  34.038  1.00  0.00    -0.237 OA
ATOM     46  O   UNL A   1      35.201  34.642  32.334  1.00  0.00    -0.744 OA
ENDBRANCH  42  43
ENDBRANCH  23  37
BRANCH  24  47
ATOM     47  C   UNL A   1      47.810  28.562  26.901  1.00  0.00    -0.014 A 
ATOM     48  C   UNL A   1      49.071  28.603  27.518  1.00  0.00     0.010 A 
ATOM     49  C   UNL A   1      47.697  28.002  25.614  1.00  0.00     0.010 A 
ATOM     50  C   UNL A   1      50.202  28.122  26.853  1.00  0.00     0.020 A 
ATOM     51  C   UNL A   1      48.825  27.501  24.952  1.00  0.00     0.020 A 
ATOM     52  C   UNL A   1      50.073  27.571  25.575  1.00  0.00     0.054 A 
BRANCH  52  53
ATOM     53  S   UNL A   1      51.561  26.915  24.767  1.00  0.00     0.124 S 
ATOM     54  O   UNL A   1      51.659  25.579  25.344  1.00  0.00    -0.237 OA
ATOM     55  O   UNL A   1      51.190  26.970  23.354  1.00  0.00    -0.237 OA
ATOM     56  O   UNL A   1      52.611  27.850  25.164  1.00  0.00    -0.744 OA
ENDBRANCH  52  53
ENDBRANCH  24  47
BRANCH  36  57
ATOM     57  C   UNL A   1      45.331  34.974  28.098  1.00  0.00    -0.014 A 
ATOM     58  C   UNL A   1      45.019  35.706  26.941  1.00  0.00     0.010 A 
ATOM     59  C   UNL A   1      46.114  35.574  29.102  1.00  0.00     0.010 A 
ATOM     60  C   UNL A   1      45.492  37.011  26.784  1.00  0.00     0.020 A 
ATOM     61  C   UNL A   1      46.562  36.891  28.964  1.00  0.00     0.020 A 
ATOM     62  C   UNL A   1      46.252  37.598  27.801  1.00  0.00     0.054 A 
BRANCH  62  63
ATOM     63  S   UNL A   1      46.775  39.323  27.604  1.00  0.00     0.124 S 
ATOM     64  O   UNL A   1      46.974  39.742  28.989  1.00  0.00    -0.237 OA
ATOM     65  O   UNL A   1      47.991  39.195  26.805  1.00  0.00    -0.237 OA
ATOM     66  O   UNL A   1      45.648  39.953  26.920  1.00  0.00    -0.744 OA
ENDBRANCH  62  63
ENDBRANCH  36  57
ENDBRANCH  10  11
ENDBRANCH   3   5
ENDBRANCH   2   3
ENDBRANCH   1   2
BRANCH   1  67
ATOM     67  C   UNL A   1      36.704  22.123  24.817  1.00  0.00     0.274 C 
BRANCH  67  68
ATOM     68  O   UNL A   1      35.566  21.650  25.577  1.00  0.00    -0.462 OA
BRANCH  68  69
ATOM     69  C   UNL A   1      34.573  21.234  24.770  1.00  0.00     0.312 C 
ATOM     70  O   UNL A   1      34.403  20.031  24.549  1.00  0.00    -0.252 OA
BRANCH  69  71
ATOM     71  C   UNL A   1      33.473  22.193  24.405  1.00  0.00     0.147 C 
ATOM     72  C   UNL A   1      33.085  23.679  23.818  1.00  0.00     0.129 C 
ATOM     73  C   UNL A   1      32.371  21.830  25.545  1.00  0.00     0.157 C 
ATOM     74  C   UNL A   1      31.316  24.117  24.344  1.00  0.00     0.155 C 
ATOM     75  C   UNL A   1      31.240  22.901  27.142  1.00  0.00     0.004 C 
ATOM     76  O   UNL A   1      31.523  22.429  23.942  1.00  0.00    -0.365 OA
ATOM     77  C   UNL A   1      30.523  24.190  26.222  1.00  0.00     0.004 C 
BRANCH  72  78
ATOM     78  C   UNL A   1      33.279  23.907  22.312  1.00  0.00     0.231 C 
ATOM     79  O   UNL A   1      33.643  22.967  21.595  1.00  0.00    -0.274 OA
ATOM     80  N   UNL A   1      32.756  25.009  21.663  1.00  0.00    -0.325 N 
ATOM     81  H   UNL A   1      32.532  24.818  20.723  1.00  0.00     0.169 HD
BRANCH  80  82
ATOM     82  C   UNL A   1      32.465  26.342  22.020  1.00  0.00     0.048 A 
ATOM     83  C   UNL A   1      33.514  27.137  22.503  1.00  0.00     0.026 A 
ATOM     84  C   UNL A   1      31.171  26.861  22.089  1.00  0.00     0.111 A 
ATOM     85  C   UNL A   1      33.310  28.478  22.861  1.00  0.00     0.009 A 
ATOM     86  C   UNL A   1      30.970  28.220  22.424  1.00  0.00     0.271 A 
ATOM     87  C   UNL A   1      32.042  29.042  22.778  1.00  0.00     0.086 A 
BRANCH  86  88
ATOM     88  N   UNL A   1      29.630  28.821  22.348  1.00  0.00     0.062 N 
ATOM     89  O   UNL A   1      28.743  28.326  23.068  1.00  0.00    -0.258 OA
ATOM     90  O   UNL A   1      29.456  29.750  21.547  1.00  0.00    -0.258 OA
ENDBRANCH  86  88
ENDBRANCH  80  82
ENDBRANCH  72  78
ENDBRANCH  69  71
ENDBRANCH  68  69
ENDBRANCH  67  68
ENDBRANCH   1  67
TORSDOF 17
ENDMDL
MODEL 2
REMARK VINA RESULT:     -10.6      1.908      8.442
REMARK SMILES O=C(OCCOC(=O)[C@@H]1[C@@H](C(=O)Nc2cccc([N+](=O)[O-])c2)[C@@H]2C=C[C@H]1O2)c1ccc(-c2c3nc(c(-c4ccc(S(=O)(=O)[O-])cc4)c4ccc([nH]4)c(-c4ccc(S(=O)(=O)[O-])cc4)c4nc(c(-c5ccc(S(=O)(=O)[O-])cc5)c5ccc2[nH]5)C=C4)C=C3)cc1
REMARK SMILES IDX 4 1 3 2 2 3 1 4 28 5 29 6 87 7 30 8 86 9 31 10 32 11 33 12
REMARK SMILES IDX 80 13 34 14 85 15 79 16 81 17 35 18 84 19 78 20 77 21 36 23
REMARK SMILES IDX 66 24 47 25 65 26 48 27 51 28 64 29 82 30 49 31 50 32 63 34
REMARK SMILES IDX 83 35 52 36 37 37 38 38 46 39 39 40 45 41 40 42 41 43 42 44
REMARK SMILES IDX 43 45 44 46 67 47 68 48 76 49 69 50 75 51 70 52 71 53 72 54
REMARK SMILES IDX 73 55 74 56 53 57 54 58 62 59 55 60 61 61 56 62 57 63 58 64
REMARK SMILES IDX 59 65 60 66 5 67 6 68 7 69 8 70 9 71 10 72 26 73 23 74 25 75
REMARK SMILES IDX 27 76 24 77 11 78 12 79 13 80 14 82 15 83 22 84 16 85 18 86
REMARK SMILES IDX 17 87 19 88 20 89 21 90
REMARK H PARENT 81 22 51 33 13 81
REMARK Flexibility Score: inf
ROOT
ATOM      1  C   UNL A   1      37.806  21.647  25.116  1.00  0.00     0.275 C 
ENDROOT
BRANCH   1   2
ATOM      2  O   UNL A   1      38.673  21.783  26.294  1.00  0.00    -0.458 OA
BRANCH   2   3
ATOM      3  C   UNL A   1      39.981  21.364  26.450  1.00  0.00     0.338 C 
ATOM      4  O   UNL A   1      40.257  20.232  26.823  1.00  0.00    -0.246 OA
BRANCH   3   5
ATOM      5  C   UNL A   1      40.985  22.484  26.657  1.00  0.00     0.060 A 
ATOM      6  C   UNL A   1      40.369  23.934  26.132  1.00  0.00     0.016 A 
ATOM      7  C   UNL A   1      42.011  22.282  27.999  1.00  0.00     0.016 A 
ATOM      8  C   UNL A   1      40.428  25.334  26.873  1.00  0.00     0.010 A 
ATOM      9  C   UNL A   1      42.210  23.692  29.018  1.00  0.00     0.010 A 
ATOM     10  C   UNL A   1      41.271  25.431  28.331  1.00  0.00    -0.014 A 
BRANCH  10  11
ATOM     11  C   UNL A   1      41.815  27.167  28.145  1.00  0.00     0.031 A 
ATOM     12  C   UNL A   1      43.333  27.499  27.816  1.00  0.00     0.074 A 
ATOM     13  C   UNL A   1      41.099  28.322  28.238  1.00  0.00     0.049 A 
ATOM     14  N   UNL A   1      44.102  28.466  28.277  1.00  0.00    -0.248 NA
ATOM     15  C   UNL A   1      44.056  26.601  26.900  1.00  0.00     0.031 C 
ATOM     16  C   UNL A   1      39.671  28.557  28.074  1.00  0.00     0.029 A 
ATOM     17  N   UNL A   1      41.531  29.537  28.759  1.00  0.00    -0.354 N 
ATOM     18  C   UNL A   1      45.404  28.187  27.835  1.00  0.00     0.074 A 
ATOM     19  C   UNL A   1      45.321  26.950  27.096  1.00  0.00     0.031 C 
ATOM     20  C   UNL A   1      39.297  29.612  28.811  1.00  0.00     0.029 A 
ATOM     21  C   UNL A   1      40.493  30.257  29.329  1.00  0.00     0.049 A 
ATOM     22  H   UNL A   1      42.464  29.849  28.727  1.00  0.00     0.167 HD
ATOM     23  C   UNL A   1      46.558  28.895  27.996  1.00  0.00     0.031 A 
ATOM     24  C   UNL A   1      40.470  31.320  30.161  1.00  0.00     0.031 A 
ATOM     25  C   UNL A   1      46.603  30.234  28.535  1.00  0.00     0.049 A 
ATOM     26  C   UNL A   1      41.729  32.100  30.386  1.00  0.00     0.074 A 
ATOM     27  C   UNL A   1      47.680  31.107  28.591  1.00  0.00     0.029 A 
ATOM     28  N   UNL A   1      45.517  30.913  29.060  1.00  0.00    -0.354 N 
ATOM     29  N   UNL A   1      42.947  31.812  30.001  1.00  0.00    -0.248 NA
ATOM     30  C   UNL A   1      41.595  33.409  31.041  1.00  0.00     0.031 C 
ATOM     31  C   UNL A   1      47.257  32.290  29.204  1.00  0.00     0.029 A 
ATOM     32  C   UNL A   1      45.903  32.179  29.468  1.00  0.00     0.049 A 
ATOM     33  H   UNL A   1      44.605  30.550  29.132  1.00  0.00     0.167 HD
ATOM     34  C   UNL A   1      43.706  32.939  30.294  1.00  0.00     0.074 A 
ATOM     35  C   UNL A   1      42.815  33.907  30.893  1.00  0.00     0.031 C 
ATOM     36  C   UNL A   1      45.022  33.153  30.055  1.00  0.00     0.031 A 
BRANCH  23  37
ATOM     37  C   UNL A   1      47.889  28.282  27.575  1.00  0.00    -0.014 A 
ATOM     38  C   UNL A   1      48.671  27.497  28.441  1.00  0.00     0.010 A 
ATOM     39  C   UNL A   1      48.318  28.414  26.235  1.00  0.00     0.010 A 
ATOM     40  C   UNL A   1      49.871  26.919  28.003  1.00  0.00     0.020 A 
ATOM     41  C   UNL A   1      49.492  27.800  25.778  1.00  0.00     0.020 A 
ATOM     42  C   UNL A   1      50.274  27.074  26.673  1.00  0.00     0.054 A 
BRANCH  42  43
ATOM     43  S   UNL A   1      51.819  26.283  26.135  1.00  0.00     0.124 S 
ATOM     44  O   UNL A   1      52.825  27.073  26.841  1.00  0.00    -0.237 OA
ATOM     45  O   UNL A   1      51.656  24.911  26.608  1.00  0.00    -0.237 OA
ATOM     46  O   UNL A   1      51.808  26.445  24.683  1.00  0.00    -0.744 OA
ENDBRANCH  42  43
ENDBRANCH  23  37
BRANCH  24  47
ATOM     47  C   UNL A   1      39.176  31.778  30.748  1.00  0.00    -0.014 A 
ATOM     48  C   UNL A   1      38.360  32.683  30.049  1.00  0.00     0.010 A 
ATOM     49  C   UNL A   1      38.750  31.305  32.005  1.00  0.00     0.010 A 
ATOM     50  C   UNL A   1      37.158  33.130  30.605  1.00  0.00     0.020 A 
ATOM     51  C   UNL A   1      37.537  31.736  32.556  1.00  0.00     0.020 A 
ATOM     52  C   UNL A   1      36.752  32.653  31.853  1.00  0.00     0.054 A 
BRANCH  52  53
ATOM     53  S   UNL A   1      35.161  33.224  32.516  1.00  0.00     0.124 S 
ATOM     54  O   UNL A   1      34.206  32.433  31.746  1.00  0.00    -0.237 OA
ATOM     55  O   UNL A   1      35.277  32.876  33.930  1.00  0.00    -0.237 OA
ATOM     56  O   UNL A   1      35.162  34.657  32.232  1.00  0.00    -0.744 OA
ENDBRANCH  52  53
ENDBRANCH  24  47
BRANCH  36  57
ATOM     57  C   UNL A   1      45.592  34.500  30.408  1.00  0.00    -0.014 A 
ATOM     58  C   UNL A   1      46.177  34.732  31.664  1.00  0.00     0.010 A 
ATOM     59  C   UNL A   1      45.612  35.522  29.440  1.00  0.00     0.010 A 
ATOM     60  C   UNL A   1      46.761  35.968  31.952  1.00  0.00     0.020 A 
ATOM     61  C   UNL A   1      46.224  36.748  29.713  1.00  0.00     0.020 A 
ATOM     62  C   UNL A   1      46.789  36.964  30.971  1.00  0.00     0.054 A 
BRANCH  62  63
ATOM     63  S   UNL A   1      47.632  38.525  31.347  1.00  0.00     0.124 S 
ATOM     64  O   UNL A   1      46.516  39.465  31.418  1.00  0.00    -0.237 OA
ATOM     65  O   UNL A   1      48.289  38.231  32.619  1.00  0.00    -0.237 OA
ATOM     66  O   UNL A   1      48.534  38.716  30.214  1.00  0.00    -0.744 OA
ENDBRANCH  62  63
ENDBRANCH  36  57
ENDBRANCH  10  11
ENDBRANCH   3   5
ENDBRANCH   2   3
ENDBRANCH   1   2
BRANCH   1  67
ATOM     67  C   UNL A   1      36.334  21.165  25.376  1.00  0.00     0.274 C 
BRANCH  67  68
ATOM     68  O   UNL A   1      35.340  22.198  25.582  1.00  0.00    -0.462 OA
BRANCH  68  69
ATOM     69  C   UNL A   1      34.283  22.035  24.766  1.00  0.00     0.312 C 
ATOM     70  O   UNL A   1      33.973  20.914  24.354  1.00  0.00    -0.252 OA
BRANCH  69  71
ATOM     71  C   UNL A   1      33.286  23.153  24.623  1.00  0.00     0.147 C 
ATOM     72  C   UNL A   1      33.021  24.773  24.692  1.00  0.00     0.129 C 
ATOM     73  C   UNL A   1      31.942  22.427  25.183  1.00  0.00     0.157 C 
ATOM     74  C   UNL A   1      31.166  25.095  24.926  1.00  0.00     0.155 C 
ATOM     75  C   UNL A   1      30.420  22.783  26.774  1.00  0.00     0.004 C 
ATOM     76  O   UNL A   1      31.510  23.745  23.871  1.00  0.00    -0.365 OA
ATOM     77  C   UNL A   1      29.925  24.405  26.391  1.00  0.00     0.004 C 
BRANCH  72  78
ATOM     78  C   UNL A   1      33.582  25.622  23.542  1.00  0.00     0.231 C 
ATOM     79  O   UNL A   1      34.084  25.063  22.561  1.00  0.00    -0.274 OA
ATOM     80  N   UNL A   1      33.261  26.958  23.392  1.00  0.00    -0.325 N 
ATOM     81  H   UNL A   1      33.268  27.240  22.448  1.00  0.00     0.169 HD
BRANCH  80  82
ATOM     82  C   UNL A   1      32.926  28.016  24.263  1.00  0.00     0.048 A 
ATOM     83  C   UNL A   1      31.716  28.688  24.046  1.00  0.00     0.026 A 
ATOM     84  C   UNL A   1      33.803  28.545  25.211  1.00  0.00     0.111 A 
ATOM     85  C   UNL A   1      31.302  29.737  24.881  1.00  0.00     0.009 A 
ATOM     86  C   UNL A   1      33.376  29.585  26.069  1.00  0.00     0.271 A 
ATOM     87  C   UNL A   1      32.112  30.162  25.929  1.00  0.00     0.086 A 
BRANCH  86  88
ATOM     88  N   UNL A   1      34.230  30.045  27.174  1.00  0.00     0.062 N 
ATOM     89  O   UNL A   1      33.928  31.123  27.716  1.00  0.00    -0.258 OA
ATOM     90  O   UNL A   1      35.217  29.356  27.469  1.00  0.00    -0.258 OA
ENDBRANCH  86  88
ENDBRANCH  80  82
ENDBRANCH  72  78
ENDBRANCH  69  71
ENDBRANCH  68  69
ENDBRANCH  67  68
ENDBRANCH   1  67
TORSDOF 17
ENDMDL
MODEL 3
REMARK VINA RESULT:     -10.5      6.353     16.991
REMARK SMILES O=C(OCCOC(=O)[C@@H]1[C@@H](C(=O)Nc2cccc([N+](=O)[O-])c2)[C@@H]2C=C[C@H]1O2)c1ccc(-c2c3nc(c(-c4ccc(S(=O)(=O)[O-])cc4)c4ccc([nH]4)c(-c4ccc(S(=O)(=O)[O-])cc4)c4nc(c(-c5ccc(S(=O)(=O)[O-])cc5)c5ccc2[nH]5)C=C4)C=C3)cc1
REMARK SMILES IDX 4 1 3 2 2 3 1 4 28 5 29 6 87 7 30 8 86 9 31 10 32 11 33 12
REMARK SMILES IDX 80 13 34 14 85 15 79 16 81 17 35 18 84 19 78 20 77 21 36 23
REMARK SMILES IDX 66 24 47 25 65 26 48 27 51 28 64 29 82 30 49 31 50 32 63 34
REMARK SMILES IDX 83 35 52 36 37 37 38 38 46 39 39 40 45 41 40 42 41 43 42 44
REMARK SMILES IDX 43 45 44 46 67 47 68 48 76 49 69 50 75 51 70 52 71 53 72 54
REMARK SMILES IDX 73 55 74 56 53 57 54 58 62 59 55 60 61 61 56 62 57 63 58 64
REMARK SMILES IDX 59 65 60 66 5 67 6 68 7 69 8 70 9 71 10 72 26 73 23 74 25 75
REMARK SMILES IDX 27 76 24 77 11 78 12 79 13 80 14 82 15 83 22 84 16 85 18 86
REMARK SMILES IDX 17 87 19 88 20 89 21 90
REMARK H PARENT 81 22 51 33 13 81
REMARK Flexibility Score: inf
ROOT
ATOM      1  C   UNL A   1      44.718  44.219  29.040  1.00  0.00     0.275 C 
ENDROOT
BRANCH   1   2
ATOM      2  O   UNL A   1      44.348  43.137  29.962  1.00  0.00    -0.458 OA
BRANCH   2   3
ATOM      3  C   UNL A   1      43.145  42.938  30.613  1.00  0.00     0.338 C 
ATOM      4  O   UNL A   1      42.476  43.871  31.034  1.00  0.00    -0.246 OA
BRANCH   3   5
ATOM      5  C   UNL A   1      42.980  41.562  31.232  1.00  0.00     0.060 A 
ATOM      6  C   UNL A   1      43.142  40.373  30.083  1.00  0.00     0.016 A 
ATOM      7  C   UNL A   1      43.495  41.441  32.849  1.00  0.00     0.016 A 
ATOM      8  C   UNL A   1      43.975  39.030  30.195  1.00  0.00     0.010 A 
ATOM      9  C   UNL A   1      44.484  40.046  33.226  1.00  0.00     0.010 A 
ATOM     10  C   UNL A   1      44.739  38.683  31.658  1.00  0.00    -0.014 A 
BRANCH  10  11
ATOM     11  C   UNL A   1      44.609  36.863  31.538  1.00  0.00     0.031 A 
ATOM     12  C   UNL A   1      45.587  36.051  30.586  1.00  0.00     0.074 A 
ATOM     13  C   UNL A   1      43.762  36.004  32.171  1.00  0.00     0.049 A 
ATOM     14  N   UNL A   1      45.337  35.014  29.809  1.00  0.00    -0.248 NA
ATOM     15  C   UNL A   1      46.984  36.505  30.478  1.00  0.00     0.031 C 
ATOM     16  C   UNL A   1      43.024  36.161  33.417  1.00  0.00     0.029 A 
ATOM     17  N   UNL A   1      43.199  34.844  31.650  1.00  0.00    -0.354 N 
ATOM     18  C   UNL A   1      46.485  34.815  29.027  1.00  0.00     0.074 A 
ATOM     19  C   UNL A   1      47.414  35.853  29.405  1.00  0.00     0.031 C 
ATOM     20  C   UNL A   1      41.904  35.424  33.378  1.00  0.00     0.029 A 
ATOM     21  C   UNL A   1      41.953  34.579  32.196  1.00  0.00     0.049 A 
ATOM     22  H   UNL A   1      43.634  34.277  30.973  1.00  0.00     0.167 HD
ATOM     23  C   UNL A   1      46.763  33.852  28.103  1.00  0.00     0.031 A 
ATOM     24  C   UNL A   1      40.951  33.754  31.824  1.00  0.00     0.031 A 
ATOM     25  C   UNL A   1      45.932  32.691  27.887  1.00  0.00     0.049 A 
ATOM     26  C   UNL A   1      41.215  32.706  30.787  1.00  0.00     0.074 A 
ATOM     27  C   UNL A   1      46.194  31.574  27.106  1.00  0.00     0.029 A 
ATOM     28  N   UNL A   1      44.708  32.469  28.494  1.00  0.00    -0.354 N 
ATOM     29  N   UNL A   1      42.275  32.550  30.035  1.00  0.00    -0.248 NA
ATOM     30  C   UNL A   1      40.207  31.646  30.638  1.00  0.00     0.031 C 
ATOM     31  C   UNL A   1      45.101  30.708  27.195  1.00  0.00     0.029 A 
ATOM     32  C   UNL A   1      44.190  31.252  28.083  1.00  0.00     0.049 A 
ATOM     33  H   UNL A   1      44.271  33.085  29.125  1.00  0.00     0.167 HD
ATOM     34  C   UNL A   1      42.097  31.334  29.386  1.00  0.00     0.074 A 
ATOM     35  C   UNL A   1      40.827  30.800  29.827  1.00  0.00     0.031 C 
ATOM     36  C   UNL A   1      42.933  30.708  28.525  1.00  0.00     0.031 A 
BRANCH  23  37
ATOM     37  C   UNL A   1      48.020  33.962  27.248  1.00  0.00    -0.014 A 
ATOM     38  C   UNL A   1      48.079  34.744  26.081  1.00  0.00     0.010 A 
ATOM     39  C   UNL A   1      49.211  33.340  27.687  1.00  0.00     0.010 A 
ATOM     40  C   UNL A   1      49.268  34.850  25.344  1.00  0.00     0.020 A 
ATOM     41  C   UNL A   1      50.414  33.479  26.981  1.00  0.00     0.020 A 
ATOM     42  C   UNL A   1      50.428  34.216  25.799  1.00  0.00     0.054 A 
BRANCH  42  43
ATOM     43  S   UNL A   1      51.956  34.402  24.833  1.00  0.00     0.124 S 
ATOM     44  O   UNL A   1      52.984  34.228  25.857  1.00  0.00    -0.237 OA
ATOM     45  O   UNL A   1      51.852  33.316  23.861  1.00  0.00    -0.237 OA
ATOM     46  O   UNL A   1      51.856  35.747  24.273  1.00  0.00    -0.744 OA
ENDBRANCH  42  43
ENDBRANCH  23  37
BRANCH  24  47
ATOM     47  C   UNL A   1      39.638  33.811  32.531  1.00  0.00    -0.014 A 
ATOM     48  C   UNL A   1      38.559  34.514  31.970  1.00  0.00     0.010 A 
ATOM     49  C   UNL A   1      39.458  33.153  33.764  1.00  0.00     0.010 A 
ATOM     50  C   UNL A   1      37.334  34.585  32.639  1.00  0.00     0.020 A 
ATOM     51  C   UNL A   1      38.225  33.207  34.428  1.00  0.00     0.020 A 
ATOM     52  C   UNL A   1      37.173  33.930  33.862  1.00  0.00     0.054 A 
BRANCH  52  53
ATOM     53  S   UNL A   1      35.550  34.010  34.674  1.00  0.00     0.124 S 
ATOM     54  O   UNL A   1      35.890  33.733  36.066  1.00  0.00    -0.237 OA
ATOM     55  O   UNL A   1      35.132  35.380  34.384  1.00  0.00    -0.237 OA
ATOM     56  O   UNL A   1      34.774  32.974  33.998  1.00  0.00    -0.744 OA
ENDBRANCH  52  53
ENDBRANCH  24  47
BRANCH  36  57
ATOM     57  C   UNL A   1      42.532  29.352  28.012  1.00  0.00    -0.014 A 
ATOM     58  C   UNL A   1      41.863  29.210  26.786  1.00  0.00     0.010 A 
ATOM     59  C   UNL A   1      42.900  28.199  28.732  1.00  0.00     0.010 A 
ATOM     60  C   UNL A   1      41.556  27.940  26.292  1.00  0.00     0.020 A 
ATOM     61  C   UNL A   1      42.624  26.926  28.227  1.00  0.00     0.020 A 
ATOM     62  C   UNL A   1      41.948  26.806  27.012  1.00  0.00     0.054 A 
BRANCH  62  63
ATOM     63  S   UNL A   1      41.612  25.172  26.301  1.00  0.00     0.124 S 
ATOM     64  O   UNL A   1      40.922  24.498  27.398  1.00  0.00    -0.237 OA
ATOM     65  O   UNL A   1      40.784  25.495  25.142  1.00  0.00    -0.237 OA
ATOM     66  O   UNL A   1      42.940  24.649  25.987  1.00  0.00    -0.744 OA
ENDBRANCH  62  63
ENDBRANCH  36  57
ENDBRANCH  10  11
ENDBRANCH   3   5
ENDBRANCH   2   3
ENDBRANCH   1   2
BRANCH   1  67
ATOM     67  C   UNL A   1      45.482  43.802  27.732  1.00  0.00     0.274 C 
BRANCH  67  68
ATOM     68  O   UNL A   1      44.669  43.536  26.564  1.00  0.00    -0.462 OA
BRANCH  68  69
ATOM     69  C   UNL A   1      44.929  44.410  25.575  1.00  0.00     0.312 C 
ATOM     70  O   UNL A   1      45.585  45.432  25.793  1.00  0.00    -0.252 OA
BRANCH  69  71
ATOM     71  C   UNL A   1      44.713  43.988  24.146  1.00  0.00     0.147 C 
ATOM     72  C   UNL A   1      44.648  44.454  22.572  1.00  0.00     0.129 C 
ATOM     73  C   UNL A   1      43.589  42.828  24.345  1.00  0.00     0.157 C 
ATOM     74  C   UNL A   1      43.676  43.165  21.576  1.00  0.00     0.155 C 
ATOM     75  C   UNL A   1      41.533  42.384  23.604  1.00  0.00     0.004 C 
ATOM     76  O   UNL A   1      44.683  42.466  22.822  1.00  0.00    -0.365 OA
ATOM     77  C   UNL A   1      41.781  42.476  21.886  1.00  0.00     0.004 C 
BRANCH  72  78
ATOM     78  C   UNL A   1      45.982  44.782  21.886  1.00  0.00     0.231 C 
ATOM     79  O   UNL A   1      47.033  44.317  22.343  1.00  0.00    -0.274 OA
ATOM     80  N   UNL A   1      46.042  45.292  20.602  1.00  0.00    -0.325 N 
ATOM     81  H   UNL A   1      46.861  45.018  20.129  1.00  0.00     0.169 HD
BRANCH  80  82
ATOM     82  C   UNL A   1      45.214  46.109  19.806  1.00  0.00     0.048 A 
ATOM     83  C   UNL A   1      44.407  45.488  18.842  1.00  0.00     0.026 A 
ATOM     84  C   UNL A   1      45.278  47.504  19.799  1.00  0.00     0.111 A 
ATOM     85  C   UNL A   1      43.541  46.230  18.025  1.00  0.00     0.009 A 
ATOM     86  C   UNL A   1      44.386  48.250  18.994  1.00  0.00     0.271 A 
ATOM     87  C   UNL A   1      43.492  47.615  18.129  1.00  0.00     0.086 A 
BRANCH  86  88
ATOM     88  N   UNL A   1      44.335  49.716  19.093  1.00  0.00     0.062 N 
ATOM     89  O   UNL A   1      43.278  50.273  18.742  1.00  0.00    -0.258 OA
ATOM     90  O   UNL A   1      45.353  50.307  19.477  1.00  0.00    -0.258 OA
ENDBRANCH  86  88
ENDBRANCH  80  82
ENDBRANCH  72  78
ENDBRANCH  69  71
ENDBRANCH  68  69
ENDBRANCH  67  68
ENDBRANCH   1  67
TORSDOF 17
ENDMDL
