MODEL 1
REMARK VINA RESULT:     -10.9      0.000      0.000
REMARK SMILES CC(C)(C)OC(=O)Nc1ccc(-c2cccc(Cl)c2C(=O)OCCOC(=O)c2ccc(-c3c4nc(c(-c5ccc(S(=O)(=O)[O-])cc5)c5ccc([nH]5)c(-c5ccc(S(=O)(=O)[O-])cc5)c5nc(c(-c6ccc(S(=O)(=O)[O-])cc6)c6ccc3[nH]6)C=C5)C=C4)cc2)cc1
REMARK SMILES IDX 23 1 22 2 20 3 21 4 19 5 13 6 14 7 15 8 17 9 16 10 18 11
REMARK SMILES IDX 12 12 9 13 10 14 89 15 11 16 88 17 8 18 6 19 7 20 5 22 2 23
REMARK SMILES IDX 1 24 3 25 4 26 24 27 25 28 26 29 27 30 28 31 29 32 87 33
REMARK SMILES IDX 30 34 86 35 31 36 32 37 33 38 80 39 34 40 85 41 79 42 81 43
REMARK SMILES IDX 35 44 84 45 78 46 77 47 36 49 66 50 47 51 65 52 48 53 51 54
REMARK SMILES IDX 64 55 82 56 49 57 50 58 63 60 83 61 52 62 37 63 38 64 46 65
REMARK SMILES IDX 39 66 45 67 40 68 41 69 42 70 43 71 44 72 67 73 68 74 76 75
REMARK SMILES IDX 69 76 75 77 70 78 71 79 72 80 73 81 74 82 53 83 54 84 62 85
REMARK SMILES IDX 55 86 61 87 56 88 57 89 58 90 59 91 60 92
REMARK H PARENT 8 21 81 48 51 59
REMARK Flexibility Score: inf
ROOT
ATOM      1  C   UNL A   1      38.049  22.657  26.079  1.00  0.00     0.275 C 
ENDROOT
BRANCH   1   2
ATOM      2  O   UNL A   1      36.698  22.182  25.915  1.00  0.00    -0.458 OA
BRANCH   2   3
ATOM      3  C   UNL A   1      36.321  21.864  24.649  1.00  0.00     0.340 C 
ATOM      4  O   UNL A   1      36.907  22.160  23.624  1.00  0.00    -0.246 OA
BRANCH   3   5
ATOM      5  C   UNL A   1      35.017  21.152  24.696  1.00  0.00     0.086 A 
ATOM      6  C   UNL A   1      33.804  21.881  24.576  1.00  0.00    -0.002 A 
ATOM      7  C   UNL A   1      32.590  21.176  24.703  1.00  0.00     0.010 A 
ATOM      8  C   UNL A   1      32.569  19.799  24.911  1.00  0.00     0.002 A 
ATOM      9  C   UNL A   1      34.986  19.754  24.827  1.00  0.00     0.056 A 
ATOM     10  C   UNL A   1      33.765  19.088  24.958  1.00  0.00     0.021 A 
ATOM     11  Cl  UNL A   1      36.408  18.771  24.813  1.00  0.00    -0.083 Cl
BRANCH   6  12
ATOM     12  C   UNL A   1      33.765  23.318  24.234  1.00  0.00    -0.017 A 
ATOM     13  C   UNL A   1      33.688  26.091  23.644  1.00  0.00     0.044 A 
ATOM     14  C   UNL A   1      33.686  25.145  22.616  1.00  0.00     0.027 A 
ATOM     15  C   UNL A   1      33.684  25.640  24.961  1.00  0.00     0.027 A 
ATOM     16  C   UNL A   1      33.725  23.773  22.908  1.00  0.00     0.011 A 
ATOM     17  C   UNL A   1      33.763  24.282  25.252  1.00  0.00     0.011 A 
BRANCH  13  18
ATOM     18  N   UNL A   1      33.682  27.455  23.295  1.00  0.00    -0.291 N 
ATOM     19  C   UNL A   1      32.656  28.211  22.780  1.00  0.00     0.412 C 
ATOM     20  O   UNL A   1      32.833  29.375  22.442  1.00  0.00    -0.224 OA
ATOM     21  H   UNL A   1      34.530  27.933  23.440  1.00  0.00     0.173 HD
BRANCH  19  22
ATOM     22  O   UNL A   1      31.469  27.568  22.761  1.00  0.00    -0.444 OA
BRANCH  22  23
ATOM     23  C   UNL A   1      30.407  27.809  23.709  1.00  0.00     0.106 C 
ATOM     24  C   UNL A   1      31.100  28.529  24.877  1.00  0.00     0.056 C 
ATOM     25  C   UNL A   1      29.818  26.493  24.218  1.00  0.00     0.056 C 
ATOM     26  C   UNL A   1      29.348  28.736  23.112  1.00  0.00     0.056 C 
ENDBRANCH  22  23
ENDBRANCH  19  22
ENDBRANCH  13  18
ENDBRANCH   6  12
ENDBRANCH   3   5
ENDBRANCH   2   3
ENDBRANCH   1   2
BRANCH   1  27
ATOM     27  C   UNL A   1      38.047  24.180  26.223  1.00  0.00     0.275 C 
BRANCH  27  28
ATOM     28  O   UNL A   1      38.856  24.544  27.355  1.00  0.00    -0.458 OA
BRANCH  28  29
ATOM     29  C   UNL A   1      39.741  25.540  27.114  1.00  0.00     0.338 C 
ATOM     30  O   UNL A   1      40.385  25.743  26.100  1.00  0.00    -0.246 OA
BRANCH  29  31
ATOM     31  C   UNL A   1      39.661  26.498  28.222  1.00  0.00     0.060 A 
ATOM     32  C   UNL A   1      40.395  27.676  28.097  1.00  0.00     0.016 A 
ATOM     33  C   UNL A   1      38.957  26.219  29.388  1.00  0.00     0.016 A 
ATOM     34  C   UNL A   1      40.458  28.578  29.154  1.00  0.00     0.010 A 
ATOM     35  C   UNL A   1      38.999  27.140  30.443  1.00  0.00     0.010 A 
ATOM     36  C   UNL A   1      39.767  28.317  30.343  1.00  0.00    -0.014 A 
BRANCH  36  37
ATOM     37  C   UNL A   1      39.934  29.223  31.510  1.00  0.00     0.031 A 
ATOM     38  C   UNL A   1      41.127  29.049  32.412  1.00  0.00     0.074 A 
ATOM     39  C   UNL A   1      39.059  30.223  31.739  1.00  0.00     0.049 A 
ATOM     40  N   UNL A   1      41.386  29.620  33.560  1.00  0.00    -0.248 NA
ATOM     41  C   UNL A   1      42.166  28.108  31.961  1.00  0.00     0.031 C 
ATOM     42  C   UNL A   1      37.911  30.561  30.895  1.00  0.00     0.029 A 
ATOM     43  N   UNL A   1      39.006  31.147  32.755  1.00  0.00    -0.354 N 
ATOM     44  C   UNL A   1      42.596  29.082  33.985  1.00  0.00     0.074 A 
ATOM     45  C   UNL A   1      43.014  28.131  32.979  1.00  0.00     0.031 C 
ATOM     46  C   UNL A   1      37.276  31.621  31.420  1.00  0.00     0.029 A 
ATOM     47  C   UNL A   1      37.923  31.993  32.674  1.00  0.00     0.049 A 
ATOM     48  H   UNL A   1      39.677  31.199  33.473  1.00  0.00     0.167 HD
ATOM     49  C   UNL A   1      43.295  29.358  35.112  1.00  0.00     0.031 A 
ATOM     50  C   UNL A   1      37.476  32.931  33.534  1.00  0.00     0.031 A 
ATOM     51  C   UNL A   1      42.884  30.322  36.098  1.00  0.00     0.049 A 
ATOM     52  C   UNL A   1      38.226  33.157  34.822  1.00  0.00     0.074 A 
ATOM     53  C   UNL A   1      43.508  30.653  37.289  1.00  0.00     0.029 A 
ATOM     54  N   UNL A   1      41.758  31.124  36.000  1.00  0.00    -0.354 N 
ATOM     55  N   UNL A   1      39.332  32.593  35.243  1.00  0.00    -0.248 NA
ATOM     56  C   UNL A   1      37.658  34.140  35.757  1.00  0.00     0.031 C 
ATOM     57  C   UNL A   1      42.734  31.624  37.932  1.00  0.00     0.029 A 
ATOM     58  C   UNL A   1      41.662  31.941  37.113  1.00  0.00     0.049 A 
ATOM     59  H   UNL A   1      41.119  31.112  35.250  1.00  0.00     0.167 HD
ATOM     60  C   UNL A   1      39.605  33.170  36.479  1.00  0.00     0.074 A 
ATOM     61  C   UNL A   1      38.562  34.142  36.727  1.00  0.00     0.031 C 
ATOM     62  C   UNL A   1      40.624  32.914  37.336  1.00  0.00     0.031 A 
BRANCH  49  63
ATOM     63  C   UNL A   1      44.563  28.585  35.361  1.00  0.00    -0.014 A 
ATOM     64  C   UNL A   1      44.535  27.304  35.938  1.00  0.00     0.010 A 
ATOM     65  C   UNL A   1      45.795  29.125  34.948  1.00  0.00     0.010 A 
ATOM     66  C   UNL A   1      45.721  26.584  36.116  1.00  0.00     0.020 A 
ATOM     67  C   UNL A   1      46.978  28.399  35.101  1.00  0.00     0.020 A 
ATOM     68  C   UNL A   1      46.934  27.135  35.693  1.00  0.00     0.054 A 
BRANCH  68  69
ATOM     69  S   UNL A   1      48.449  26.157  35.891  1.00  0.00     0.124 S 
ATOM     70  O   UNL A   1      49.244  26.594  34.745  1.00  0.00    -0.237 OA
ATOM     71  O   UNL A   1      48.941  26.588  37.196  1.00  0.00    -0.237 OA
ATOM     72  O   UNL A   1      47.981  24.774  35.831  1.00  0.00    -0.744 OA
ENDBRANCH  68  69
ENDBRANCH  49  63
BRANCH  50  73
ATOM     73  C   UNL A   1      36.216  33.677  33.252  1.00  0.00    -0.014 A 
ATOM     74  C   UNL A   1      34.959  33.096  33.494  1.00  0.00     0.010 A 
ATOM     75  C   UNL A   1      36.270  34.968  32.692  1.00  0.00     0.010 A 
ATOM     76  C   UNL A   1      33.784  33.772  33.147  1.00  0.00     0.020 A 
ATOM     77  C   UNL A   1      35.100  35.662  32.378  1.00  0.00     0.020 A 
ATOM     78  C   UNL A   1      33.863  35.051  32.586  1.00  0.00     0.054 A 
BRANCH  78  79
ATOM     79  S   UNL A   1      32.331  35.916  32.146  1.00  0.00     0.124 S 
ATOM     80  O   UNL A   1      32.458  36.037  30.697  1.00  0.00    -0.237 OA
ATOM     81  O   UNL A   1      31.299  34.995  32.616  1.00  0.00    -0.237 OA
ATOM     82  O   UNL A   1      32.422  37.170  32.890  1.00  0.00    -0.744 OA
ENDBRANCH  78  79
ENDBRANCH  50  73
BRANCH  62  83
ATOM     83  C   UNL A   1      40.691  33.733  38.597  1.00  0.00    -0.014 A 
ATOM     84  C   UNL A   1      40.128  33.270  39.800  1.00  0.00     0.010 A 
ATOM     85  C   UNL A   1      41.378  34.960  38.589  1.00  0.00     0.010 A 
ATOM     86  C   UNL A   1      40.222  34.038  40.964  1.00  0.00     0.020 A 
ATOM     87  C   UNL A   1      41.499  35.718  39.757  1.00  0.00     0.020 A 
ATOM     88  C   UNL A   1      40.907  35.258  40.934  1.00  0.00     0.054 A 
BRANCH  88  89
ATOM     89  S   UNL A   1      41.053  36.215  42.468  1.00  0.00     0.124 S 
ATOM     90  O   UNL A   1      41.320  35.170  43.454  1.00  0.00    -0.237 OA
ATOM     91  O   UNL A   1      42.170  37.111  42.183  1.00  0.00    -0.237 OA
ATOM     92  O   UNL A   1      39.752  36.870  42.592  1.00  0.00    -0.744 OA
ENDBRANCH  88  89
ENDBRANCH  62  83
ENDBRANCH  36  37
ENDBRANCH  29  31
ENDBRANCH  28  29
ENDBRANCH  27  28
ENDBRANCH   1  27
TORSDOF 18
ENDMDL
MODEL 2
REMARK VINA RESULT:     -10.8      5.582     10.239
REMARK SMILES CC(C)(C)OC(=O)Nc1ccc(-c2cccc(Cl)c2C(=O)OCCOC(=O)c2ccc(-c3c4nc(c(-c5ccc(S(=O)(=O)[O-])cc5)c5ccc([nH]5)c(-c5ccc(S(=O)(=O)[O-])cc5)c5nc(c(-c6ccc(S(=O)(=O)[O-])cc6)c6ccc3[nH]6)C=C5)C=C4)cc2)cc1
REMARK SMILES IDX 23 1 22 2 20 3 21 4 19 5 13 6 14 7 15 8 17 9 16 10 18 11
REMARK SMILES IDX 12 12 9 13 10 14 89 15 11 16 88 17 8 18 6 19 7 20 5 22 2 23
REMARK SMILES IDX 1 24 3 25 4 26 24 27 25 28 26 29 27 30 28 31 29 32 87 33
REMARK SMILES IDX 30 34 86 35 31 36 32 37 33 38 80 39 34 40 85 41 79 42 81 43
REMARK SMILES IDX 35 44 84 45 78 46 77 47 36 49 66 50 47 51 65 52 48 53 51 54
REMARK SMILES IDX 64 55 82 56 49 57 50 58 63 60 83 61 52 62 37 63 38 64 46 65
REMARK SMILES IDX 39 66 45 67 40 68 41 69 42 70 43 71 44 72 67 73 68 74 76 75
REMARK SMILES IDX 69 76 75 77 70 78 71 79 72 80 73 81 74 82 53 83 54 84 62 85
REMARK SMILES IDX 55 86 61 87 56 88 57 89 58 90 59 91 60 92
REMARK H PARENT 8 21 81 48 51 59
REMARK Flexibility Score: inf
ROOT
ATOM      1  C   UNL A   1      36.718  22.568  24.681  1.00  0.00     0.275 C 
ENDROOT
BRANCH   1   2
ATOM      2  O   UNL A   1      35.603  21.744  24.289  1.00  0.00    -0.458 OA
BRANCH   2   3
ATOM      3  C   UNL A   1      34.955  21.092  25.289  1.00  0.00     0.340 C 
ATOM      4  O   UNL A   1      34.983  21.373  26.473  1.00  0.00    -0.246 OA
BRANCH   3   5
ATOM      5  C   UNL A   1      34.251  19.911  24.722  1.00  0.00     0.086 A 
ATOM      6  C   UNL A   1      32.896  20.021  24.311  1.00  0.00    -0.002 A 
ATOM      7  C   UNL A   1      32.245  18.858  23.851  1.00  0.00     0.010 A 
ATOM      8  C   UNL A   1      32.911  17.637  23.773  1.00  0.00     0.002 A 
ATOM      9  C   UNL A   1      34.937  18.696  24.565  1.00  0.00     0.056 A 
ATOM     10  C   UNL A   1      34.258  17.560  24.115  1.00  0.00     0.021 A 
ATOM     11  Cl  UNL A   1      36.626  18.514  24.882  1.00  0.00    -0.083 Cl
BRANCH   6  12
ATOM     12  C   UNL A   1      32.179  21.312  24.257  1.00  0.00    -0.017 A 
ATOM     13  C   UNL A   1      30.823  23.796  24.090  1.00  0.00     0.044 A 
ATOM     14  C   UNL A   1      30.861  23.088  25.293  1.00  0.00     0.027 A 
ATOM     15  C   UNL A   1      31.501  23.277  22.991  1.00  0.00     0.027 A 
ATOM     16  C   UNL A   1      31.531  21.858  25.375  1.00  0.00     0.011 A 
ATOM     17  C   UNL A   1      32.132  22.038  23.060  1.00  0.00     0.011 A 
BRANCH  13  18
ATOM     18  N   UNL A   1      30.108  25.009  24.053  1.00  0.00    -0.291 N 
ATOM     19  C   UNL A   1      30.583  26.296  24.135  1.00  0.00     0.412 C 
ATOM     20  O   UNL A   1      29.820  27.254  24.177  1.00  0.00    -0.224 OA
ATOM     21  H   UNL A   1      29.132  24.923  23.957  1.00  0.00     0.173 HD
BRANCH  19  22
ATOM     22  O   UNL A   1      31.931  26.376  24.090  1.00  0.00    -0.444 OA
BRANCH  22  23
ATOM     23  C   UNL A   1      32.759  26.678  25.233  1.00  0.00     0.106 C 
ATOM     24  C   UNL A   1      33.719  25.481  25.328  1.00  0.00     0.056 C 
ATOM     25  C   UNL A   1      31.925  26.746  26.512  1.00  0.00     0.056 C 
ATOM     26  C   UNL A   1      33.574  27.949  24.991  1.00  0.00     0.056 C 
ENDBRANCH  22  23
ENDBRANCH  19  22
ENDBRANCH  13  18
ENDBRANCH   6  12
ENDBRANCH   3   5
ENDBRANCH   2   3
ENDBRANCH   1   2
BRANCH   1  27
ATOM     27  C   UNL A   1      37.919  21.685  25.022  1.00  0.00     0.275 C 
BRANCH  27  28
ATOM     28  O   UNL A   1      38.348  21.975  26.364  1.00  0.00    -0.458 OA
BRANCH  28  29
ATOM     29  C   UNL A   1      39.664  21.756  26.592  1.00  0.00     0.338 C 
ATOM     30  O   UNL A   1      40.330  20.786  26.273  1.00  0.00    -0.246 OA
BRANCH  29  31
ATOM     31  C   UNL A   1      40.247  22.993  27.122  1.00  0.00     0.060 A 
ATOM     32  C   UNL A   1      39.866  24.187  26.514  1.00  0.00     0.016 A 
ATOM     33  C   UNL A   1      41.204  22.982  28.132  1.00  0.00     0.016 A 
ATOM     34  C   UNL A   1      40.462  25.386  26.889  1.00  0.00     0.010 A 
ATOM     35  C   UNL A   1      41.786  24.193  28.527  1.00  0.00     0.010 A 
ATOM     36  C   UNL A   1      41.436  25.403  27.895  1.00  0.00    -0.014 A 
BRANCH  36  37
ATOM     37  C   UNL A   1      42.156  26.666  28.207  1.00  0.00     0.031 A 
ATOM     38  C   UNL A   1      41.407  27.798  28.858  1.00  0.00     0.074 A 
ATOM     39  C   UNL A   1      43.476  26.787  27.961  1.00  0.00     0.049 A 
ATOM     40  N   UNL A   1      41.794  29.028  29.075  1.00  0.00    -0.248 NA
ATOM     41  C   UNL A   1      40.041  27.507  29.325  1.00  0.00     0.031 C 
ATOM     42  C   UNL A   1      44.342  25.738  27.419  1.00  0.00     0.029 A 
ATOM     43  N   UNL A   1      44.323  27.854  28.142  1.00  0.00    -0.354 N 
ATOM     44  C   UNL A   1      40.710  29.667  29.669  1.00  0.00     0.074 A 
ATOM     45  C   UNL A   1      39.646  28.692  29.768  1.00  0.00     0.031 C 
ATOM     46  C   UNL A   1      45.596  26.208  27.324  1.00  0.00     0.029 A 
ATOM     47  C   UNL A   1      45.612  27.611  27.726  1.00  0.00     0.049 A 
ATOM     48  H   UNL A   1      44.037  28.710  28.533  1.00  0.00     0.167 HD
ATOM     49  C   UNL A   1      40.613  30.948  30.095  1.00  0.00     0.031 A 
ATOM     50  C   UNL A   1      46.675  28.437  27.633  1.00  0.00     0.031 A 
ATOM     51  C   UNL A   1      41.683  31.907  30.015  1.00  0.00     0.049 A 
ATOM     52  C   UNL A   1      46.514  29.881  28.034  1.00  0.00     0.074 A 
ATOM     53  C   UNL A   1      41.675  33.239  30.392  1.00  0.00     0.029 A 
ATOM     54  N   UNL A   1      42.958  31.633  29.543  1.00  0.00    -0.354 N 
ATOM     55  N   UNL A   1      45.464  30.488  28.531  1.00  0.00    -0.248 NA
ATOM     56  C   UNL A   1      47.682  30.755  27.849  1.00  0.00     0.031 C 
ATOM     57  C   UNL A   1      42.932  33.782  30.107  1.00  0.00     0.029 A 
ATOM     58  C   UNL A   1      43.741  32.772  29.609  1.00  0.00     0.049 A 
ATOM     59  H   UNL A   1      43.261  30.757  29.209  1.00  0.00     0.167 HD
ATOM     60  C   UNL A   1      45.852  31.807  28.741  1.00  0.00     0.074 A 
ATOM     61  C   UNL A   1      47.239  31.905  28.337  1.00  0.00     0.031 C 
ATOM     62  C   UNL A   1      45.125  32.847  29.217  1.00  0.00     0.031 A 
BRANCH  49  63
ATOM     63  C   UNL A   1      39.294  31.405  30.659  1.00  0.00    -0.014 A 
ATOM     64  C   UNL A   1      38.997  31.266  32.026  1.00  0.00     0.010 A 
ATOM     65  C   UNL A   1      38.365  32.043  29.816  1.00  0.00     0.010 A 
ATOM     66  C   UNL A   1      37.785  31.740  32.536  1.00  0.00     0.020 A 
ATOM     67  C   UNL A   1      37.164  32.541  30.328  1.00  0.00     0.020 A 
ATOM     68  C   UNL A   1      36.878  32.378  31.684  1.00  0.00     0.054 A 
BRANCH  68  69
ATOM     69  S   UNL A   1      35.336  33.028  32.385  1.00  0.00     0.124 S 
ATOM     70  O   UNL A   1      35.469  32.669  33.795  1.00  0.00    -0.237 OA
ATOM     71  O   UNL A   1      35.428  34.456  32.091  1.00  0.00    -0.237 OA
ATOM     72  O   UNL A   1      34.292  32.311  31.657  1.00  0.00    -0.744 OA
ENDBRANCH  68  69
ENDBRANCH  49  63
BRANCH  50  73
ATOM     73  C   UNL A   1      47.967  27.947  27.071  1.00  0.00    -0.014 A 
ATOM     74  C   UNL A   1      49.001  27.499  27.912  1.00  0.00     0.010 A 
ATOM     75  C   UNL A   1      48.185  27.972  25.681  1.00  0.00     0.010 A 
ATOM     76  C   UNL A   1      50.238  27.122  27.378  1.00  0.00     0.020 A 
ATOM     77  C   UNL A   1      49.407  27.562  25.140  1.00  0.00     0.020 A 
ATOM     78  C   UNL A   1      50.434  27.161  25.994  1.00  0.00     0.054 A 
BRANCH  78  79
ATOM     79  S   UNL A   1      52.042  26.664  25.318  1.00  0.00     0.124 S 
ATOM     80  O   UNL A   1      51.784  26.681  23.881  1.00  0.00    -0.237 OA
ATOM     81  O   UNL A   1      52.933  27.710  25.813  1.00  0.00    -0.237 OA
ATOM     82  O   UNL A   1      52.263  25.342  25.898  1.00  0.00    -0.744 OA
ENDBRANCH  78  79
ENDBRANCH  50  73
BRANCH  62  83
ATOM     83  C   UNL A   1      45.828  34.168  29.379  1.00  0.00    -0.014 A 
ATOM     84  C   UNL A   1      46.519  34.489  30.561  1.00  0.00     0.010 A 
ATOM     85  C   UNL A   1      45.841  35.080  28.308  1.00  0.00     0.010 A 
ATOM     86  C   UNL A   1      47.183  35.712  30.680  1.00  0.00     0.020 A 
ATOM     87  C   UNL A   1      46.528  36.292  28.413  1.00  0.00     0.020 A 
ATOM     88  C   UNL A   1      47.183  36.607  29.604  1.00  0.00     0.054 A 
BRANCH  88  89
ATOM     89  S   UNL A   1      48.089  38.170  29.768  1.00  0.00     0.124 S 
ATOM     90  O   UNL A   1      47.419  38.790  30.909  1.00  0.00    -0.237 OA
ATOM     91  O   UNL A   1      49.458  37.723  30.009  1.00  0.00    -0.237 OA
ATOM     92  O   UNL A   1      47.872  38.831  28.484  1.00  0.00    -0.744 OA
ENDBRANCH  88  89
ENDBRANCH  62  83
ENDBRANCH  36  37
ENDBRANCH  29  31
ENDBRANCH  28  29
ENDBRANCH  27  28
ENDBRANCH   1  27
TORSDOF 18
ENDMDL
MODEL 3
REMARK VINA RESULT:     -10.8      1.757      2.603
REMARK SMILES CC(C)(C)OC(=O)Nc1ccc(-c2cccc(Cl)c2C(=O)OCCOC(=O)c2ccc(-c3c4nc(c(-c5ccc(S(=O)(=O)[O-])cc5)c5ccc([nH]5)c(-c5ccc(S(=O)(=O)[O-])cc5)c5nc(c(-c6ccc(S(=O)(=O)[O-])cc6)c6ccc3[nH]6)C=C5)C=C4)cc2)cc1
REMARK SMILES IDX 23 1 22 2 20 3 21 4 19 5 13 6 14 7 15 8 17 9 16 10 18 11
REMARK SMILES IDX 12 12 9 13 10 14 89 15 11 16 88 17 8 18 6 19 7 20 5 22 2 23
REMARK SMILES IDX 1 24 3 25 4 26 24 27 25 28 26 29 27 30 28 31 29 32 87 33
REMARK SMILES IDX 30 34 86 35 31 36 32 37 33 38 80 39 34 40 85 41 79 42 81 43
REMARK SMILES IDX 35 44 84 45 78 46 77 47 36 49 66 50 47 51 65 52 48 53 51 54
REMARK SMILES IDX 64 55 82 56 49 57 50 58 63 60 83 61 52 62 37 63 38 64 46 65
REMARK SMILES IDX 39 66 45 67 40 68 41 69 42 70 43 71 44 72 67 73 68 74 76 75
REMARK SMILES IDX 69 76 75 77 70 78 71 79 72 80 73 81 74 82 53 83 54 84 62 85
REMARK SMILES IDX 55 86 61 87 56 88 57 89 58 90 59 91 60 92
REMARK H PARENT 8 21 81 48 51 59
REMARK Flexibility Score: inf
ROOT
ATOM      1  C   UNL A   1      36.846  23.657  26.326  1.00  0.00     0.275 C 
ENDROOT
BRANCH   1   2
ATOM      2  O   UNL A   1      36.083  22.452  26.113  1.00  0.00    -0.458 OA
BRANCH   2   3
ATOM      3  C   UNL A   1      35.700  22.199  24.835  1.00  0.00     0.340 C 
ATOM      4  O   UNL A   1      35.688  22.993  23.913  1.00  0.00    -0.246 OA
BRANCH   3   5
ATOM      5  C   UNL A   1      35.215  20.797  24.743  1.00  0.00     0.086 A 
ATOM      6  C   UNL A   1      33.823  20.532  24.641  1.00  0.00    -0.002 A 
ATOM      7  C   UNL A   1      33.402  19.187  24.634  1.00  0.00     0.010 A 
ATOM      8  C   UNL A   1      34.319  18.140  24.696  1.00  0.00     0.002 A 
ATOM      9  C   UNL A   1      36.135  19.737  24.726  1.00  0.00     0.056 A 
ATOM     10  C   UNL A   1      35.682  18.414  24.727  1.00  0.00     0.021 A 
ATOM     11  Cl  UNL A   1      37.847  19.969  24.680  1.00  0.00    -0.083 Cl
BRANCH   6  12
ATOM     12  C   UNL A   1      32.818  21.598  24.449  1.00  0.00    -0.017 A 
ATOM     13  C   UNL A   1      30.903  23.643  24.014  1.00  0.00     0.044 A 
ATOM     14  C   UNL A   1      31.187  23.200  25.308  1.00  0.00     0.027 A 
ATOM     15  C   UNL A   1      31.612  23.090  22.951  1.00  0.00     0.027 A 
ATOM     16  C   UNL A   1      32.134  22.187  25.522  1.00  0.00     0.011 A 
ATOM     17  C   UNL A   1      32.522  22.058  23.159  1.00  0.00     0.011 A 
BRANCH  13  18
ATOM     18  N   UNL A   1      29.920  24.638  23.851  1.00  0.00    -0.291 N 
ATOM     19  C   UNL A   1      30.016  25.992  24.068  1.00  0.00     0.412 C 
ATOM     20  O   UNL A   1      29.038  26.723  23.965  1.00  0.00    -0.224 OA
ATOM     21  H   UNL A   1      29.042  24.320  23.539  1.00  0.00     0.173 HD
BRANCH  19  22
ATOM     22  O   UNL A   1      31.275  26.409  24.324  1.00  0.00    -0.444 OA
BRANCH  22  23
ATOM     23  C   UNL A   1      32.182  26.901  23.314  1.00  0.00     0.106 C 
ATOM     24  C   UNL A   1      32.271  28.410  23.590  1.00  0.00     0.056 C 
ATOM     25  C   UNL A   1      31.609  26.687  21.912  1.00  0.00     0.056 C 
ATOM     26  C   UNL A   1      33.570  26.283  23.484  1.00  0.00     0.056 C 
ENDBRANCH  22  23
ENDBRANCH  19  22
ENDBRANCH  13  18
ENDBRANCH   6  12
ENDBRANCH   3   5
ENDBRANCH   2   3
ENDBRANCH   1   2
BRANCH   1  27
ATOM     27  C   UNL A   1      38.340  23.348  26.220  1.00  0.00     0.275 C 
BRANCH  27  28
ATOM     28  O   UNL A   1      39.076  24.584  26.248  1.00  0.00    -0.458 OA
BRANCH  28  29
ATOM     29  C   UNL A   1      40.331  24.477  26.746  1.00  0.00     0.338 C 
ATOM     30  O   UNL A   1      41.262  23.828  26.300  1.00  0.00    -0.246 OA
BRANCH  29  31
ATOM     31  C   UNL A   1      40.476  25.452  27.831  1.00  0.00     0.060 A 
ATOM     32  C   UNL A   1      39.405  25.588  28.711  1.00  0.00     0.016 A 
ATOM     33  C   UNL A   1      41.594  26.274  27.938  1.00  0.00     0.016 A 
ATOM     34  C   UNL A   1      39.426  26.571  29.695  1.00  0.00     0.010 A 
ATOM     35  C   UNL A   1      41.626  27.247  28.945  1.00  0.00     0.010 A 
ATOM     36  C   UNL A   1      40.533  27.418  29.818  1.00  0.00    -0.014 A 
BRANCH  36  37
ATOM     37  C   UNL A   1      40.500  28.543  30.790  1.00  0.00     0.031 A 
ATOM     38  C   UNL A   1      41.489  28.565  31.924  1.00  0.00     0.074 A 
ATOM     39  C   UNL A   1      39.630  29.562  30.637  1.00  0.00     0.049 A 
ATOM     40  N   UNL A   1      41.539  29.359  32.963  1.00  0.00    -0.248 NA
ATOM     41  C   UNL A   1      42.565  27.560  31.885  1.00  0.00     0.031 C 
ATOM     42  C   UNL A   1      38.680  29.713  29.533  1.00  0.00     0.029 A 
ATOM     43  N   UNL A   1      39.411  30.672  31.417  1.00  0.00    -0.354 N 
ATOM     44  C   UNL A   1      42.625  28.927  33.717  1.00  0.00     0.074 A 
ATOM     45  C   UNL A   1      43.200  27.795  33.024  1.00  0.00     0.031 C 
ATOM     46  C   UNL A   1      37.990  30.853  29.700  1.00  0.00     0.029 A 
ATOM     47  C   UNL A   1      38.393  31.477  30.957  1.00  0.00     0.049 A 
ATOM     48  H   UNL A   1      39.931  30.874  32.227  1.00  0.00     0.167 HD
ATOM     49  C   UNL A   1      43.101  29.432  34.881  1.00  0.00     0.031 A 
ATOM     50  C   UNL A   1      37.818  32.565  31.507  1.00  0.00     0.031 A 
ATOM     51  C   UNL A   1      42.538  30.572  35.554  1.00  0.00     0.049 A 
ATOM     52  C   UNL A   1      38.310  33.054  32.845  1.00  0.00     0.074 A 
ATOM     53  C   UNL A   1      42.929  31.143  36.753  1.00  0.00     0.029 A 
ATOM     54  N   UNL A   1      41.479  31.329  35.077  1.00  0.00    -0.354 N 
ATOM     55  N   UNL A   1      39.295  32.595  33.580  1.00  0.00    -0.248 NA
ATOM     56  C   UNL A   1      37.605  34.202  33.434  1.00  0.00     0.031 C 
ATOM     57  C   UNL A   1      42.077  32.219  37.023  1.00  0.00     0.029 A 
ATOM     58  C   UNL A   1      41.195  32.354  35.963  1.00  0.00     0.049 A 
ATOM     59  H   UNL A   1      40.998  31.161  34.234  1.00  0.00     0.167 HD
ATOM     60  C   UNL A   1      39.342  33.413  34.704  1.00  0.00     0.074 A 
ATOM     61  C   UNL A   1      38.302  34.407  34.542  1.00  0.00     0.031 C 
ATOM     62  C   UNL A   1      40.166  33.344  35.778  1.00  0.00     0.031 A 
BRANCH  49  63
ATOM     63  C   UNL A   1      44.271  28.735  35.524  1.00  0.00    -0.014 A 
ATOM     64  C   UNL A   1      45.575  29.248  35.415  1.00  0.00     0.010 A 
ATOM     65  C   UNL A   1      44.048  27.585  36.304  1.00  0.00     0.010 A 
ATOM     66  C   UNL A   1      46.639  28.611  36.061  1.00  0.00     0.020 A 
ATOM     67  C   UNL A   1      45.105  26.962  36.971  1.00  0.00     0.020 A 
ATOM     68  C   UNL A   1      46.397  27.474  36.837  1.00  0.00     0.054 A 
BRANCH  68  69
ATOM     69  S   UNL A   1      47.790  26.700  37.704  1.00  0.00     0.124 S 
ATOM     70  O   UNL A   1      48.238  25.707  36.730  1.00  0.00    -0.237 OA
ATOM     71  O   UNL A   1      48.698  27.823  37.917  1.00  0.00    -0.237 OA
ATOM     72  O   UNL A   1      47.185  26.153  38.917  1.00  0.00    -0.744 OA
ENDBRANCH  68  69
ENDBRANCH  49  63
BRANCH  50  73
ATOM     73  C   UNL A   1      36.661  33.229  30.839  1.00  0.00    -0.014 A 
ATOM     74  C   UNL A   1      36.822  33.913  29.620  1.00  0.00     0.010 A 
ATOM     75  C   UNL A   1      35.393  33.219  31.449  1.00  0.00     0.010 A 
ATOM     76  C   UNL A   1      35.749  34.603  29.046  1.00  0.00     0.020 A 
ATOM     77  C   UNL A   1      34.310  33.877  30.861  1.00  0.00     0.020 A 
ATOM     78  C   UNL A   1      34.500  34.584  29.673  1.00  0.00     0.054 A 
BRANCH  78  79
ATOM     79  S   UNL A   1      33.118  35.480  28.913  1.00  0.00     0.124 S 
ATOM     80  O   UNL A   1      32.460  36.065  30.078  1.00  0.00    -0.237 OA
ATOM     81  O   UNL A   1      33.798  36.423  28.029  1.00  0.00    -0.237 OA
ATOM     82  O   UNL A   1      32.365  34.431  28.231  1.00  0.00    -0.744 OA
ENDBRANCH  78  79
ENDBRANCH  50  73
BRANCH  62  83
ATOM     83  C   UNL A   1      40.014  34.402  36.838  1.00  0.00    -0.014 A 
ATOM     84  C   UNL A   1      40.780  35.581  36.810  1.00  0.00     0.010 A 
ATOM     85  C   UNL A   1      39.047  34.236  37.847  1.00  0.00     0.010 A 
ATOM     86  C   UNL A   1      40.605  36.559  37.792  1.00  0.00     0.020 A 
ATOM     87  C   UNL A   1      38.850  35.224  38.814  1.00  0.00     0.020 A 
ATOM     88  C   UNL A   1      39.641  36.374  38.789  1.00  0.00     0.054 A 
BRANCH  88  89
ATOM     89  S   UNL A   1      39.404  37.678  40.027  1.00  0.00     0.124 S 
ATOM     90  O   UNL A   1      40.642  38.443  39.903  1.00  0.00    -0.237 OA
ATOM     91  O   UNL A   1      38.198  38.353  39.555  1.00  0.00    -0.237 OA
ATOM     92  O   UNL A   1      39.248  36.942  41.280  1.00  0.00    -0.744 OA
ENDBRANCH  88  89
ENDBRANCH  62  83
ENDBRANCH  36  37
ENDBRANCH  29  31
ENDBRANCH  28  29
ENDBRANCH  27  28
ENDBRANCH   1  27
TORSDOF 18
ENDMDL
