MODEL 1
REMARK VINA RESULT:     -10.5      0.000      0.000
REMARK SMILES CSCc1ccc(C(=O)N[C@H]2C=C[C@@H](C(=O)OCCOC(=O)c3ccc(-c4c5nc(c(-c6ccc(S(=O)(=O)[O-])cc6)c6ccc([nH]6)c(-c6ccc(S(=O)(=O)[O-])cc6)c6nc(c(-c7ccc(S(=O)(=O)[O-])cc7)c7ccc4[nH]7)C=C6)C=C5)cc3)C2)o1
REMARK SMILES IDX 18 1 17 2 15 3 16 4 14 5 11 6 12 7 83 8 13 9 10 10 8 11 9 12
REMARK SMILES IDX 7 14 4 15 5 16 84 17 6 18 3 19 2 20 1 21 19 22 20 23 21 24
REMARK SMILES IDX 22 25 23 26 24 27 82 28 25 29 81 30 26 31 27 32 28 33 75 34
REMARK SMILES IDX 29 35 80 36 74 37 76 38 30 39 79 40 73 41 72 42 31 44 61 45
REMARK SMILES IDX 42 46 60 47 43 48 46 49 59 50 77 51 44 52 45 53 58 55 78 56
REMARK SMILES IDX 47 57 32 58 33 59 41 60 34 61 40 62 35 63 36 64 37 65 38 66
REMARK SMILES IDX 39 67 62 68 63 69 71 70 64 71 70 72 65 73 66 74 67 75 68 76
REMARK SMILES IDX 69 77 48 78 49 79 57 80 50 81 56 82 51 83 52 84 53 85 54 86
REMARK SMILES IDX 55 87
REMARK H PARENT 10 13 76 43 46 54
REMARK Flexibility Score: inf
ROOT
ATOM      1  C   UNL A   1      31.835  30.405  25.787  1.00  0.00     0.274 C 
ENDROOT
BRANCH   1   2
ATOM      2  O   UNL A   1      31.351  29.228  25.117  1.00  0.00    -0.462 OA
BRANCH   2   3
ATOM      3  C   UNL A   1      32.029  28.789  24.028  1.00  0.00     0.312 C 
ATOM      4  O   UNL A   1      33.210  29.028  23.799  1.00  0.00    -0.252 OA
BRANCH   3   5
ATOM      5  C   UNL A   1      31.179  27.861  23.156  1.00  0.00     0.124 C 
ATOM      6  C   UNL A   1      30.182  25.737  23.860  1.00  0.00     0.106 C 
ATOM      7  C   UNL A   1      29.193  26.838  23.921  1.00  0.00    -0.006 C 
ATOM      8  C   UNL A   1      31.456  26.358  23.293  1.00  0.00     0.048 C 
ATOM      9  C   UNL A   1      29.721  27.992  23.494  1.00  0.00    -0.014 C 
BRANCH   6  10
ATOM     10  N   UNL A   1      30.338  25.012  25.102  1.00  0.00    -0.343 N 
ATOM     11  C   UNL A   1      30.682  23.738  25.480  1.00  0.00     0.287 C 
ATOM     12  O   UNL A   1      30.352  23.449  26.637  1.00  0.00    -0.266 OA
ATOM     13  H   UNL A   1      30.148  25.583  25.882  1.00  0.00     0.164 HD
BRANCH  11  14
ATOM     14  C   UNL A   1      31.385  22.795  24.634  1.00  0.00     0.191 A 
ATOM     15  C   UNL A   1      32.532  20.909  24.332  1.00  0.00     0.114 A 
ATOM     16  C   UNL A   1      32.548  21.576  23.128  1.00  0.00     0.047 A 
ATOM     17  O   UNL A   1      31.821  21.635  25.239  1.00  0.00    -0.455 OA
ATOM     18  C   UNL A   1      31.874  22.802  23.342  1.00  0.00     0.056 A 
BRANCH  15  19
ATOM     19  C   UNL A   1      33.204  19.652  24.765  1.00  0.00     0.144 C 
BRANCH  19  20
ATOM     20  S   UNL A   1      32.579  18.105  24.054  1.00  0.00    -0.157 SA
ATOM     21  C   UNL A   1      32.611  17.064  25.538  1.00  0.00     0.085 C 
ENDBRANCH  19  20
ENDBRANCH  15  19
ENDBRANCH  11  14
ENDBRANCH   6  10
ENDBRANCH   3   5
ENDBRANCH   2   3
ENDBRANCH   1   2
BRANCH   1  22
ATOM     22  C   UNL A   1      32.449  30.002  27.128  1.00  0.00     0.275 C 
BRANCH  22  23
ATOM     23  O   UNL A   1      33.883  29.921  27.022  1.00  0.00    -0.458 OA
BRANCH  23  24
ATOM     24  C   UNL A   1      34.565  30.648  27.937  1.00  0.00     0.338 C 
ATOM     25  O   UNL A   1      34.164  31.588  28.601  1.00  0.00    -0.246 OA
BRANCH  24  26
ATOM     26  C   UNL A   1      35.886  30.049  28.137  1.00  0.00     0.060 A 
ATOM     27  C   UNL A   1      36.222  29.590  29.413  1.00  0.00     0.016 A 
ATOM     28  C   UNL A   1      36.825  30.060  27.109  1.00  0.00     0.016 A 
ATOM     29  C   UNL A   1      37.527  29.211  29.693  1.00  0.00     0.010 A 
ATOM     30  C   UNL A   1      38.121  29.619  27.376  1.00  0.00     0.010 A 
ATOM     31  C   UNL A   1      38.487  29.224  28.676  1.00  0.00    -0.014 A 
BRANCH  31  32
ATOM     32  C   UNL A   1      39.894  28.876  28.972  1.00  0.00     0.031 A 
ATOM     33  C   UNL A   1      40.803  29.930  29.536  1.00  0.00     0.074 A 
ATOM     34  C   UNL A   1      40.349  27.634  28.723  1.00  0.00     0.049 A 
ATOM     35  N   UNL A   1      42.105  29.925  29.643  1.00  0.00    -0.248 NA
ATOM     36  C   UNL A   1      40.160  31.158  30.035  1.00  0.00     0.031 C 
ATOM     37  C   UNL A   1      39.535  26.508  28.257  1.00  0.00     0.029 A 
ATOM     38  N   UNL A   1      41.614  27.115  28.815  1.00  0.00    -0.354 N 
ATOM     39  C   UNL A   1      42.442  31.163  30.178  1.00  0.00     0.074 A 
ATOM     40  C   UNL A   1      41.209  31.894  30.372  1.00  0.00     0.031 C 
ATOM     41  C   UNL A   1      40.324  25.432  28.103  1.00  0.00     0.029 A 
ATOM     42  C   UNL A   1      41.703  25.813  28.380  1.00  0.00     0.049 A 
ATOM     43  H   UNL A   1      42.383  27.624  29.158  1.00  0.00     0.167 HD
ATOM     44  C   UNL A   1      43.674  31.644  30.467  1.00  0.00     0.031 A 
ATOM     45  C   UNL A   1      42.783  25.036  28.178  1.00  0.00     0.031 A 
ATOM     46  C   UNL A   1      44.885  30.892  30.273  1.00  0.00     0.049 A 
ATOM     47  C   UNL A   1      44.145  25.614  28.439  1.00  0.00     0.074 A 
ATOM     48  C   UNL A   1      46.191  31.283  30.501  1.00  0.00     0.029 A 
ATOM     49  N   UNL A   1      44.931  29.581  29.820  1.00  0.00    -0.354 N 
ATOM     50  N   UNL A   1      44.461  26.812  28.873  1.00  0.00    -0.248 NA
ATOM     51  C   UNL A   1      45.298  24.743  28.174  1.00  0.00     0.031 C 
ATOM     52  C   UNL A   1      47.031  30.219  30.155  1.00  0.00     0.029 A 
ATOM     53  C   UNL A   1      46.244  29.148  29.761  1.00  0.00     0.049 A 
ATOM     54  H   UNL A   1      44.146  29.039  29.576  1.00  0.00     0.167 HD
ATOM     55  C   UNL A   1      45.847  26.826  28.963  1.00  0.00     0.074 A 
ATOM     56  C   UNL A   1      46.308  25.519  28.543  1.00  0.00     0.031 C 
ATOM     57  C   UNL A   1      46.667  27.831  29.360  1.00  0.00     0.031 A 
BRANCH  44  58
ATOM     58  C   UNL A   1      43.772  33.056  30.976  1.00  0.00    -0.014 A 
ATOM     59  C   UNL A   1      43.930  34.142  30.098  1.00  0.00     0.010 A 
ATOM     60  C   UNL A   1      43.673  33.302  32.358  1.00  0.00     0.010 A 
ATOM     61  C   UNL A   1      44.023  35.446  30.595  1.00  0.00     0.020 A 
ATOM     62  C   UNL A   1      43.742  34.606  32.857  1.00  0.00     0.020 A 
ATOM     63  C   UNL A   1      43.933  35.669  31.973  1.00  0.00     0.054 A 
BRANCH  63  64
ATOM     64  S   UNL A   1      44.038  37.372  32.590  1.00  0.00     0.124 S 
ATOM     65  O   UNL A   1      43.751  38.147  31.385  1.00  0.00    -0.237 OA
ATOM     66  O   UNL A   1      43.001  37.405  33.619  1.00  0.00    -0.237 OA
ATOM     67  O   UNL A   1      45.407  37.477  33.086  1.00  0.00    -0.744 OA
ENDBRANCH  63  64
ENDBRANCH  44  58
BRANCH  45  68
ATOM     68  C   UNL A   1      42.619  23.652  27.654  1.00  0.00    -0.014 A 
ATOM     69  C   UNL A   1      42.764  23.386  26.282  1.00  0.00     0.010 A 
ATOM     70  C   UNL A   1      42.328  22.589  28.530  1.00  0.00     0.010 A 
ATOM     71  C   UNL A   1      42.600  22.087  25.791  1.00  0.00     0.020 A 
ATOM     72  C   UNL A   1      42.192  21.284  28.048  1.00  0.00     0.020 A 
ATOM     73  C   UNL A   1      42.314  21.044  26.678  1.00  0.00     0.054 A 
BRANCH  73  74
ATOM     74  S   UNL A   1      42.145  19.360  26.027  1.00  0.00     0.124 S 
ATOM     75  O   UNL A   1      42.645  18.554  27.137  1.00  0.00    -0.237 OA
ATOM     76  O   UNL A   1      40.711  19.261  25.766  1.00  0.00    -0.237 OA
ATOM     77  O   UNL A   1      42.987  19.371  24.832  1.00  0.00    -0.744 OA
ENDBRANCH  73  74
ENDBRANCH  45  68
BRANCH  57  78
ATOM     78  C   UNL A   1      48.137  27.533  29.427  1.00  0.00    -0.014 A 
ATOM     79  C   UNL A   1      49.001  27.880  28.374  1.00  0.00     0.010 A 
ATOM     80  C   UNL A   1      48.668  26.969  30.601  1.00  0.00     0.010 A 
ATOM     81  C   UNL A   1      50.374  27.650  28.489  1.00  0.00     0.020 A 
ATOM     82  C   UNL A   1      50.042  26.758  30.728  1.00  0.00     0.020 A 
ATOM     83  C   UNL A   1      50.886  27.093  29.666  1.00  0.00     0.054 A 
BRANCH  83  84
ATOM     84  S   UNL A   1      52.678  26.870  29.821  1.00  0.00     0.124 S 
ATOM     85  O   UNL A   1      52.998  26.131  28.602  1.00  0.00    -0.237 OA
ATOM     86  O   UNL A   1      53.171  28.244  29.872  1.00  0.00    -0.237 OA
ATOM     87  O   UNL A   1      52.827  26.115  31.063  1.00  0.00    -0.744 OA
ENDBRANCH  83  84
ENDBRANCH  57  78
ENDBRANCH  31  32
ENDBRANCH  24  26
ENDBRANCH  23  24
ENDBRANCH  22  23
ENDBRANCH   1  22
TORSDOF 18
ENDMDL
MODEL 2
REMARK VINA RESULT:     -10.4      2.509      3.192
REMARK SMILES CSCc1ccc(C(=O)N[C@H]2C=C[C@@H](C(=O)OCCOC(=O)c3ccc(-c4c5nc(c(-c6ccc(S(=O)(=O)[O-])cc6)c6ccc([nH]6)c(-c6ccc(S(=O)(=O)[O-])cc6)c6nc(c(-c7ccc(S(=O)(=O)[O-])cc7)c7ccc4[nH]7)C=C6)C=C5)cc3)C2)o1
REMARK SMILES IDX 18 1 17 2 15 3 16 4 14 5 11 6 12 7 83 8 13 9 10 10 8 11 9 12
REMARK SMILES IDX 7 14 4 15 5 16 84 17 6 18 3 19 2 20 1 21 19 22 20 23 21 24
REMARK SMILES IDX 22 25 23 26 24 27 82 28 25 29 81 30 26 31 27 32 28 33 75 34
REMARK SMILES IDX 29 35 80 36 74 37 76 38 30 39 79 40 73 41 72 42 31 44 61 45
REMARK SMILES IDX 42 46 60 47 43 48 46 49 59 50 77 51 44 52 45 53 58 55 78 56
REMARK SMILES IDX 47 57 32 58 33 59 41 60 34 61 40 62 35 63 36 64 37 65 38 66
REMARK SMILES IDX 39 67 62 68 63 69 71 70 64 71 70 72 65 73 66 74 67 75 68 76
REMARK SMILES IDX 69 77 48 78 49 79 57 80 50 81 56 82 51 83 52 84 53 85 54 86
REMARK SMILES IDX 55 87
REMARK H PARENT 10 13 76 43 46 54
REMARK Flexibility Score: inf
ROOT
ATOM      1  C   UNL A   1      33.001  29.863  26.890  1.00  0.00     0.274 C 
ENDROOT
BRANCH   1   2
ATOM      2  O   UNL A   1      33.524  28.605  26.429  1.00  0.00    -0.462 OA
BRANCH   2   3
ATOM      3  C   UNL A   1      33.364  28.288  25.120  1.00  0.00     0.312 C 
ATOM      4  O   UNL A   1      34.254  27.859  24.393  1.00  0.00    -0.252 OA
BRANCH   3   5
ATOM      5  C   UNL A   1      31.907  28.423  24.670  1.00  0.00     0.124 C 
ATOM      6  C   UNL A   1      30.934  27.470  22.634  1.00  0.00     0.106 C 
ATOM      7  C   UNL A   1      30.652  26.617  23.812  1.00  0.00    -0.006 C 
ATOM      8  C   UNL A   1      31.680  28.687  23.176  1.00  0.00     0.048 C 
ATOM      9  C   UNL A   1      31.143  27.156  24.934  1.00  0.00    -0.014 C 
BRANCH   6  10
ATOM     10  N   UNL A   1      31.580  26.776  21.541  1.00  0.00    -0.343 N 
ATOM     11  C   UNL A   1      32.513  25.779  21.402  1.00  0.00     0.287 C 
ATOM     12  O   UNL A   1      33.036  25.731  20.282  1.00  0.00    -0.266 OA
ATOM     13  H   UNL A   1      31.268  27.105  20.667  1.00  0.00     0.164 HD
BRANCH  11  14
ATOM     14  C   UNL A   1      32.864  24.836  22.445  1.00  0.00     0.191 A 
ATOM     15  C   UNL A   1      34.254  24.074  24.011  1.00  0.00     0.114 A 
ATOM     16  C   UNL A   1      33.232  23.157  23.912  1.00  0.00     0.047 A 
ATOM     17  O   UNL A   1      34.030  25.094  23.136  1.00  0.00    -0.455 OA
ATOM     18  C   UNL A   1      32.386  23.614  22.872  1.00  0.00     0.056 A 
BRANCH  15  19
ATOM     19  C   UNL A   1      35.510  24.059  24.811  1.00  0.00     0.144 C 
BRANCH  19  20
ATOM     20  S   UNL A   1      35.705  22.702  26.000  1.00  0.00    -0.157 SA
ATOM     21  C   UNL A   1      36.681  21.559  24.986  1.00  0.00     0.085 C 
ENDBRANCH  19  20
ENDBRANCH  15  19
ENDBRANCH  11  14
ENDBRANCH   6  10
ENDBRANCH   3   5
ENDBRANCH   2   3
ENDBRANCH   1   2
BRANCH   1  22
ATOM     22  C   UNL A   1      34.121  30.652  27.570  1.00  0.00     0.275 C 
BRANCH  22  23
ATOM     23  O   UNL A   1      35.130  29.761  28.080  1.00  0.00    -0.458 OA
BRANCH  23  24
ATOM     24  C   UNL A   1      36.022  30.330  28.921  1.00  0.00     0.338 C 
ATOM     25  O   UNL A   1      35.813  31.156  29.793  1.00  0.00    -0.246 OA
BRANCH  24  26
ATOM     26  C   UNL A   1      37.330  29.700  28.731  1.00  0.00     0.060 A 
ATOM     27  C   UNL A   1      37.984  29.174  29.848  1.00  0.00     0.016 A 
ATOM     28  C   UNL A   1      37.957  29.744  27.489  1.00  0.00     0.016 A 
ATOM     29  C   UNL A   1      39.305  28.761  29.749  1.00  0.00     0.010 A 
ATOM     30  C   UNL A   1      39.264  29.269  27.377  1.00  0.00     0.010 A 
ATOM     31  C   UNL A   1      39.955  28.806  28.512  1.00  0.00    -0.014 A 
BRANCH  31  32
ATOM     32  C   UNL A   1      41.379  28.421  28.401  1.00  0.00     0.031 A 
ATOM     33  C   UNL A   1      42.434  29.481  28.529  1.00  0.00     0.074 A 
ATOM     34  C   UNL A   1      41.715  27.137  28.174  1.00  0.00     0.049 A 
ATOM     35  N   UNL A   1      43.705  29.421  28.232  1.00  0.00    -0.248 NA
ATOM     36  C   UNL A   1      41.996  30.787  29.052  1.00  0.00     0.031 C 
ATOM     37  C   UNL A   1      40.780  26.010  28.117  1.00  0.00     0.029 A 
ATOM     38  N   UNL A   1      42.938  26.567  27.934  1.00  0.00    -0.354 N 
ATOM     39  C   UNL A   1      44.210  30.691  28.486  1.00  0.00     0.074 A 
ATOM     40  C   UNL A   1      43.110  31.501  28.961  1.00  0.00     0.031 C 
ATOM     41  C   UNL A   1      41.465  24.884  27.858  1.00  0.00     0.029 A 
ATOM     42  C   UNL A   1      42.868  25.223  27.652  1.00  0.00     0.049 A 
ATOM     43  H   UNL A   1      43.784  27.070  27.962  1.00  0.00     0.167 HD
ATOM     44  C   UNL A   1      45.478  31.136  28.324  1.00  0.00     0.031 A 
ATOM     45  C   UNL A   1      43.819  24.373  27.222  1.00  0.00     0.031 A 
ATOM     46  C   UNL A   1      46.557  30.306  27.860  1.00  0.00     0.049 A 
ATOM     47  C   UNL A   1      45.204  24.906  26.982  1.00  0.00     0.074 A 
ATOM     48  C   UNL A   1      47.876  30.652  27.628  1.00  0.00     0.029 A 
ATOM     49  N   UNL A   1      46.441  28.953  27.573  1.00  0.00    -0.354 N 
ATOM     50  N   UNL A   1      45.657  26.126  27.152  1.00  0.00    -0.248 NA
ATOM     51  C   UNL A   1      46.204  23.953  26.482  1.00  0.00     0.031 C 
ATOM     52  C   UNL A   1      48.550  29.516  27.170  1.00  0.00     0.029 A 
ATOM     53  C   UNL A   1      47.663  28.450  27.166  1.00  0.00     0.049 A 
ATOM     54  H   UNL A   1      45.610  28.429  27.649  1.00  0.00     0.167 HD
ATOM     55  C   UNL A   1      47.003  26.079  26.811  1.00  0.00     0.074 A 
ATOM     56  C   UNL A   1      47.291  24.711  26.428  1.00  0.00     0.031 C 
ATOM     57  C   UNL A   1      47.921  27.077  26.815  1.00  0.00     0.031 A 
BRANCH  44  58
ATOM     58  C   UNL A   1      45.751  32.588  28.608  1.00  0.00    -0.014 A 
ATOM     59  C   UNL A   1      46.181  33.018  29.876  1.00  0.00     0.010 A 
ATOM     60  C   UNL A   1      45.603  33.535  27.578  1.00  0.00     0.010 A 
ATOM     61  C   UNL A   1      46.423  34.373  30.118  1.00  0.00     0.020 A 
ATOM     62  C   UNL A   1      45.868  34.888  27.809  1.00  0.00     0.020 A 
ATOM     63  C   UNL A   1      46.261  35.301  29.083  1.00  0.00     0.054 A 
BRANCH  63  64
ATOM     64  S   UNL A   1      46.601  37.051  29.419  1.00  0.00     0.124 S 
ATOM     65  O   UNL A   1      47.814  37.278  28.637  1.00  0.00    -0.237 OA
ATOM     66  O   UNL A   1      45.400  37.714  28.918  1.00  0.00    -0.237 OA
ATOM     67  O   UNL A   1      46.776  37.098  30.868  1.00  0.00    -0.744 OA
ENDBRANCH  63  64
ENDBRANCH  44  58
BRANCH  45  68
ATOM     68  C   UNL A   1      43.480  22.951  26.942  1.00  0.00    -0.014 A 
ATOM     69  C   UNL A   1      43.803  22.370  25.704  1.00  0.00     0.010 A 
ATOM     70  C   UNL A   1      42.841  22.166  27.920  1.00  0.00     0.010 A 
ATOM     71  C   UNL A   1      43.475  21.037  25.440  1.00  0.00     0.020 A 
ATOM     72  C   UNL A   1      42.537  20.825  27.671  1.00  0.00     0.020 A 
ATOM     73  C   UNL A   1      42.842  20.273  26.426  1.00  0.00     0.054 A 
BRANCH  73  74
ATOM     74  S   UNL A   1      42.462  18.534  26.079  1.00  0.00     0.124 S 
ATOM     75  O   UNL A   1      43.330  18.255  24.939  1.00  0.00    -0.237 OA
ATOM     76  O   UNL A   1      42.825  17.872  27.330  1.00  0.00    -0.237 OA
ATOM     77  O   UNL A   1      41.030  18.551  25.787  1.00  0.00    -0.744 OA
ENDBRANCH  73  74
ENDBRANCH  45  68
BRANCH  57  78
ATOM     78  C   UNL A   1      49.335  26.713  26.462  1.00  0.00    -0.014 A 
ATOM     79  C   UNL A   1      50.205  26.157  27.414  1.00  0.00     0.010 A 
ATOM     80  C   UNL A   1      49.766  26.861  25.132  1.00  0.00     0.010 A 
ATOM     81  C   UNL A   1      51.494  25.768  27.043  1.00  0.00     0.020 A 
ATOM     82  C   UNL A   1      51.046  26.453  24.752  1.00  0.00     0.020 A 
ATOM     83  C   UNL A   1      51.905  25.917  25.714  1.00  0.00     0.054 A 
BRANCH  83  84
ATOM     84  S   UNL A   1      53.557  25.340  25.239  1.00  0.00     0.124 S 
ATOM     85  O   UNL A   1      53.475  23.911  25.533  1.00  0.00    -0.237 OA
ATOM     86  O   UNL A   1      53.626  25.688  23.822  1.00  0.00    -0.237 OA
ATOM     87  O   UNL A   1      54.453  26.103  26.106  1.00  0.00    -0.744 OA
ENDBRANCH  83  84
ENDBRANCH  57  78
ENDBRANCH  31  32
ENDBRANCH  24  26
ENDBRANCH  23  24
ENDBRANCH  22  23
ENDBRANCH   1  22
TORSDOF 18
ENDMDL
MODEL 3
REMARK VINA RESULT:     -10.3      3.478      9.786
REMARK SMILES CSCc1ccc(C(=O)N[C@H]2C=C[C@@H](C(=O)OCCOC(=O)c3ccc(-c4c5nc(c(-c6ccc(S(=O)(=O)[O-])cc6)c6ccc([nH]6)c(-c6ccc(S(=O)(=O)[O-])cc6)c6nc(c(-c7ccc(S(=O)(=O)[O-])cc7)c7ccc4[nH]7)C=C6)C=C5)cc3)C2)o1
REMARK SMILES IDX 18 1 17 2 15 3 16 4 14 5 11 6 12 7 83 8 13 9 10 10 8 11 9 12
REMARK SMILES IDX 7 14 4 15 5 16 84 17 6 18 3 19 2 20 1 21 19 22 20 23 21 24
REMARK SMILES IDX 22 25 23 26 24 27 82 28 25 29 81 30 26 31 27 32 28 33 75 34
REMARK SMILES IDX 29 35 80 36 74 37 76 38 30 39 79 40 73 41 72 42 31 44 61 45
REMARK SMILES IDX 42 46 60 47 43 48 46 49 59 50 77 51 44 52 45 53 58 55 78 56
REMARK SMILES IDX 47 57 32 58 33 59 41 60 34 61 40 62 35 63 36 64 37 65 38 66
REMARK SMILES IDX 39 67 62 68 63 69 71 70 64 71 70 72 65 73 66 74 67 75 68 76
REMARK SMILES IDX 69 77 48 78 49 79 57 80 50 81 56 82 51 83 52 84 53 85 54 86
REMARK SMILES IDX 55 87
REMARK H PARENT 10 13 76 43 46 54
REMARK Flexibility Score: inf
ROOT
ATOM      1  C   UNL A   1      36.919  22.296  23.952  1.00  0.00     0.274 C 
ENDROOT
BRANCH   1   2
ATOM      2  O   UNL A   1      35.489  22.371  23.815  1.00  0.00    -0.462 OA
BRANCH   2   3
ATOM      3  C   UNL A   1      34.730  21.551  24.582  1.00  0.00     0.312 C 
ATOM      4  O   UNL A   1      35.170  20.632  25.266  1.00  0.00    -0.252 OA
BRANCH   3   5
ATOM      5  C   UNL A   1      33.258  21.967  24.588  1.00  0.00     0.124 C 
ATOM      6  C   UNL A   1      32.163  23.412  22.941  1.00  0.00     0.106 C 
ATOM      7  C   UNL A   1      31.916  21.982  22.646  1.00  0.00    -0.006 C 
ATOM      8  C   UNL A   1      32.965  23.433  24.239  1.00  0.00     0.048 C 
ATOM      9  C   UNL A   1      32.474  21.190  23.569  1.00  0.00    -0.014 C 
BRANCH   6  10
ATOM     10  N   UNL A   1      32.737  24.154  21.839  1.00  0.00    -0.343 N 
ATOM     11  C   UNL A   1      32.689  25.442  21.368  1.00  0.00     0.287 C 
ATOM     12  O   UNL A   1      33.055  25.563  20.192  1.00  0.00    -0.266 OA
ATOM     13  H   UNL A   1      33.313  23.584  21.279  1.00  0.00     0.164 HD
BRANCH  11  14
ATOM     14  C   UNL A   1      32.272  26.585  22.154  1.00  0.00     0.191 A 
ATOM     15  C   UNL A   1      32.653  28.148  23.696  1.00  0.00     0.114 A 
ATOM     16  C   UNL A   1      31.326  28.255  23.348  1.00  0.00     0.047 A 
ATOM     17  O   UNL A   1      33.230  27.151  22.970  1.00  0.00    -0.455 OA
ATOM     18  C   UNL A   1      31.073  27.219  22.416  1.00  0.00     0.056 A 
BRANCH  15  19
ATOM     19  C   UNL A   1      33.454  28.854  24.735  1.00  0.00     0.144 C 
BRANCH  19  20
ATOM     20  S   UNL A   1      33.512  28.092  26.380  1.00  0.00    -0.157 SA
ATOM     21  C   UNL A   1      34.395  29.396  27.278  1.00  0.00     0.085 C 
ENDBRANCH  19  20
ENDBRANCH  15  19
ENDBRANCH  11  14
ENDBRANCH   6  10
ENDBRANCH   3   5
ENDBRANCH   2   3
ENDBRANCH   1   2
BRANCH   1  22
ATOM     22  C   UNL A   1      37.385  23.362  24.944  1.00  0.00     0.275 C 
BRANCH  22  23
ATOM     23  O   UNL A   1      38.024  22.749  26.080  1.00  0.00    -0.458 OA
BRANCH  23  24
ATOM     24  C   UNL A   1      39.342  23.023  26.211  1.00  0.00     0.338 C 
ATOM     25  O   UNL A   1      40.287  22.404  25.754  1.00  0.00    -0.246 OA
BRANCH  24  26
ATOM     26  C   UNL A   1      39.499  24.304  26.903  1.00  0.00     0.060 A 
ATOM     27  C   UNL A   1      40.332  25.269  26.333  1.00  0.00     0.016 A 
ATOM     28  C   UNL A   1      38.934  24.496  28.160  1.00  0.00     0.016 A 
ATOM     29  C   UNL A   1      40.673  26.405  27.054  1.00  0.00     0.010 A 
ATOM     30  C   UNL A   1      39.227  25.668  28.858  1.00  0.00     0.010 A 
ATOM     31  C   UNL A   1      40.123  26.612  28.323  1.00  0.00    -0.014 A 
BRANCH  31  32
ATOM     32  C   UNL A   1      40.519  27.790  29.126  1.00  0.00     0.031 A 
ATOM     33  C   UNL A   1      41.811  27.752  29.889  1.00  0.00     0.074 A 
ATOM     34  C   UNL A   1      39.719  28.871  29.179  1.00  0.00     0.049 A 
ATOM     35  N   UNL A   1      42.238  28.550  30.831  1.00  0.00    -0.248 NA
ATOM     36  C   UNL A   1      42.744  26.662  29.552  1.00  0.00     0.031 C 
ATOM     37  C   UNL A   1      38.483  29.053  28.411  1.00  0.00     0.029 A 
ATOM     38  N   UNL A   1      39.820  30.017  29.922  1.00  0.00    -0.354 N 
ATOM     39  C   UNL A   1      43.464  28.035  31.233  1.00  0.00     0.074 A 
ATOM     40  C   UNL A   1      43.715  26.856  30.434  1.00  0.00     0.031 C 
ATOM     41  C   UNL A   1      37.942  30.240  28.727  1.00  0.00     0.029 A 
ATOM     42  C   UNL A   1      38.746  30.863  29.772  1.00  0.00     0.049 A 
ATOM     43  H   UNL A   1      40.587  30.217  30.507  1.00  0.00     0.167 HD
ATOM     44  C   UNL A   1      44.296  28.504  32.193  1.00  0.00     0.031 A 
ATOM     45  C   UNL A   1      38.421  31.984  30.441  1.00  0.00     0.031 A 
ATOM     46  C   UNL A   1      44.028  29.687  32.967  1.00  0.00     0.049 A 
ATOM     47  C   UNL A   1      39.324  32.448  31.550  1.00  0.00     0.074 A 
ATOM     48  C   UNL A   1      44.781  30.242  33.985  1.00  0.00     0.029 A 
ATOM     49  N   UNL A   1      42.923  30.507  32.791  1.00  0.00    -0.354 N 
ATOM     50  N   UNL A   1      40.444  31.913  31.976  1.00  0.00    -0.248 NA
ATOM     51  C   UNL A   1      38.916  33.658  32.276  1.00  0.00     0.031 C 
ATOM     52  C   UNL A   1      44.114  31.381  34.448  1.00  0.00     0.029 A 
ATOM     53  C   UNL A   1      42.972  31.563  33.682  1.00  0.00     0.049 A 
ATOM     54  H   UNL A   1      42.208  30.359  32.129  1.00  0.00     0.167 HD
ATOM     55  C   UNL A   1      40.891  32.740  32.999  1.00  0.00     0.074 A 
ATOM     56  C   UNL A   1      39.923  33.811  33.125  1.00  0.00     0.031 C 
ATOM     57  C   UNL A   1      42.004  32.626  33.765  1.00  0.00     0.031 A 
BRANCH  44  58
ATOM     58  C   UNL A   1      45.542  27.714  32.485  1.00  0.00    -0.014 A 
ATOM     59  C   UNL A   1      45.553  26.695  33.453  1.00  0.00     0.010 A 
ATOM     60  C   UNL A   1      46.716  27.976  31.754  1.00  0.00     0.010 A 
ATOM     61  C   UNL A   1      46.725  25.977  33.711  1.00  0.00     0.020 A 
ATOM     62  C   UNL A   1      47.883  27.244  31.992  1.00  0.00     0.020 A 
ATOM     63  C   UNL A   1      47.884  26.259  32.981  1.00  0.00     0.054 A 
BRANCH  63  64
ATOM     64  S   UNL A   1      49.386  25.300  33.322  1.00  0.00     0.124 S 
ATOM     65  O   UNL A   1      50.218  26.278  34.018  1.00  0.00    -0.237 OA
ATOM     66  O   UNL A   1      48.886  24.202  34.146  1.00  0.00    -0.237 OA
ATOM     67  O   UNL A   1      49.858  24.912  31.996  1.00  0.00    -0.744 OA
ENDBRANCH  63  64
ENDBRANCH  44  58
BRANCH  45  68
ATOM     68  C   UNL A   1      37.163  32.711  30.116  1.00  0.00    -0.014 A 
ATOM     69  C   UNL A   1      37.131  33.648  29.069  1.00  0.00     0.010 A 
ATOM     70  C   UNL A   1      35.986  32.459  30.845  1.00  0.00     0.010 A 
ATOM     71  C   UNL A   1      35.950  34.336  28.771  1.00  0.00     0.020 A 
ATOM     72  C   UNL A   1      34.797  33.124  30.532  1.00  0.00     0.020 A 
ATOM     73  C   UNL A   1      34.791  34.070  29.506  1.00  0.00     0.054 A 
BRANCH  73  74
ATOM     74  S   UNL A   1      33.260  34.944  29.078  1.00  0.00     0.124 S 
ATOM     75  O   UNL A   1      32.646  34.029  28.121  1.00  0.00    -0.237 OA
ATOM     76  O   UNL A   1      32.586  35.057  30.369  1.00  0.00    -0.237 OA
ATOM     77  O   UNL A   1      33.735  36.209  28.521  1.00  0.00    -0.744 OA
ENDBRANCH  73  74
ENDBRANCH  45  68
BRANCH  57  78
ATOM     78  C   UNL A   1      42.271  33.721  34.757  1.00  0.00    -0.014 A 
ATOM     79  C   UNL A   1      41.800  33.641  36.078  1.00  0.00     0.010 A 
ATOM     80  C   UNL A   1      43.077  34.809  34.374  1.00  0.00     0.010 A 
ATOM     81  C   UNL A   1      42.118  34.643  36.998  1.00  0.00     0.020 A 
ATOM     82  C   UNL A   1      43.415  35.801  35.297  1.00  0.00     0.020 A 
ATOM     83  C   UNL A   1      42.925  35.715  36.602  1.00  0.00     0.054 A 
BRANCH  83  84
ATOM     84  S   UNL A   1      43.384  36.966  37.831  1.00  0.00     0.124 S 
ATOM     85  O   UNL A   1      44.168  37.904  37.031  1.00  0.00    -0.237 OA
ATOM     86  O   UNL A   1      42.087  37.461  38.287  1.00  0.00    -0.237 OA
ATOM     87  O   UNL A   1      44.142  36.213  38.827  1.00  0.00    -0.744 OA
ENDBRANCH  83  84
ENDBRANCH  57  78
ENDBRANCH  31  32
ENDBRANCH  24  26
ENDBRANCH  23  24
ENDBRANCH  22  23
ENDBRANCH   1  22
TORSDOF 18
ENDMDL
