MODEL 1
REMARK VINA RESULT:     -10.8      0.000      0.000
REMARK SMILES CCN(CC)C(=O)[C@@H]1CC=CC[C@H]1C(=O)Nc1ccc(C(=O)OCCOC(=O)c2ccc(-c3c4nc(c(-c5ccc(S(=O)(=O)[O-])cc5)c5ccc([nH]5)c(-c5ccc(S(=O)(=O)[O-])cc5)c5nc(c(-c6ccc(S(=O)(=O)[O-])cc6)c6ccc3[nH]6)C=C5)C=C4)cc2)cc1
REMARK SMILES IDX 24 1 23 2 21 3 22 4 20 5 17 6 18 7 90 8 19 9 89 10 16 11
REMARK SMILES IDX 14 12 15 13 13 15 8 16 9 17 10 18 12 19 11 20 6 21 3 22 7 23
REMARK SMILES IDX 2 24 1 25 4 26 5 27 25 28 26 29 27 30 28 31 29 32 30 33
REMARK SMILES IDX 88 34 31 35 87 36 32 37 33 38 34 39 81 40 35 41 86 42 80 43
REMARK SMILES IDX 82 44 36 45 85 46 79 47 78 48 37 50 67 51 48 52 66 53 49 54
REMARK SMILES IDX 52 55 65 56 83 57 50 58 51 59 64 61 84 62 53 63 38 64 39 65
REMARK SMILES IDX 47 66 40 67 46 68 41 69 42 70 43 71 44 72 45 73 68 74 69 75
REMARK SMILES IDX 77 76 70 77 76 78 71 79 72 80 73 81 74 82 75 83 54 84 55 85
REMARK SMILES IDX 63 86 56 87 62 88 57 89 58 90 59 91 60 92 61 93
REMARK H PARENT 16 14 82 49 52 60
REMARK Flexibility Score: inf
ROOT
ATOM      1  C   UNL A   1      31.576  29.914  25.346  1.00  0.00     0.275 C 
ENDROOT
BRANCH   1   2
ATOM      2  O   UNL A   1      30.973  28.718  24.819  1.00  0.00    -0.458 OA
BRANCH   2   3
ATOM      3  C   UNL A   1      31.474  28.317  23.627  1.00  0.00     0.338 C 
ATOM      4  O   UNL A   1      31.859  29.046  22.723  1.00  0.00    -0.246 OA
BRANCH   3   5
ATOM      5  C   UNL A   1      31.575  26.841  23.539  1.00  0.00     0.060 A 
ATOM      6  C   UNL A   1      31.913  24.129  23.043  1.00  0.00     0.041 A 
ATOM      7  C   UNL A   1      33.033  24.921  23.273  1.00  0.00     0.027 A 
ATOM      8  C   UNL A   1      30.636  24.637  23.271  1.00  0.00     0.027 A 
ATOM      9  C   UNL A   1      32.862  26.285  23.472  1.00  0.00     0.018 A 
ATOM     10  C   UNL A   1      30.459  26.003  23.505  1.00  0.00     0.018 A 
BRANCH   6  11
ATOM     11  N   UNL A   1      32.131  22.849  22.529  1.00  0.00    -0.326 N 
ATOM     12  C   UNL A   1      32.279  21.684  23.241  1.00  0.00     0.228 C 
ATOM     13  O   UNL A   1      32.038  20.640  22.618  1.00  0.00    -0.274 OA
ATOM     14  H   UNL A   1      32.184  22.774  21.549  1.00  0.00     0.169 HD
BRANCH  12  15
ATOM     15  C   UNL A   1      32.596  21.586  24.745  1.00  0.00     0.095 C 
ATOM     16  C   UNL A   1      33.967  22.085  25.271  1.00  0.00     0.095 C 
ATOM     17  C   UNL A   1      33.918  22.297  26.821  1.00  0.00     0.041 C 
ATOM     18  C   UNL A   1      32.684  22.913  27.383  1.00  0.00    -0.030 C 
ATOM     19  C   UNL A   1      31.331  22.159  25.448  1.00  0.00     0.041 C 
ATOM     20  C   UNL A   1      31.509  22.836  26.763  1.00  0.00    -0.030 C 
BRANCH  16  21
ATOM     21  C   UNL A   1      35.241  21.200  25.044  1.00  0.00     0.226 C 
ATOM     22  N   UNL A   1      36.517  21.745  24.956  1.00  0.00    -0.343 N 
ATOM     23  O   UNL A   1      35.135  19.966  25.096  1.00  0.00    -0.275 OA
BRANCH  22  24
ATOM     24  C   UNL A   1      37.667  20.878  25.235  1.00  0.00     0.116 C 
ATOM     25  C   UNL A   1      38.829  21.690  25.793  1.00  0.00     0.027 C 
ENDBRANCH  22  24
BRANCH  22  26
ATOM     26  C   UNL A   1      36.863  23.074  24.481  1.00  0.00     0.116 C 
ATOM     27  C   UNL A   1      36.588  23.198  22.988  1.00  0.00     0.027 C 
ENDBRANCH  22  26
ENDBRANCH  16  21
ENDBRANCH  12  15
ENDBRANCH   6  11
ENDBRANCH   3   5
ENDBRANCH   2   3
ENDBRANCH   1   2
BRANCH   1  28
ATOM     28  C   UNL A   1      32.516  29.569  26.499  1.00  0.00     0.275 C 
BRANCH  28  29
ATOM     29  O   UNL A   1      33.745  30.307  26.376  1.00  0.00    -0.458 OA
BRANCH  29  30
ATOM     30  C   UNL A   1      34.043  31.134  27.404  1.00  0.00     0.338 C 
ATOM     31  O   UNL A   1      33.340  32.025  27.863  1.00  0.00    -0.246 OA
BRANCH  30  32
ATOM     32  C   UNL A   1      35.376  30.815  27.947  1.00  0.00     0.060 A 
ATOM     33  C   UNL A   1      35.607  29.573  28.534  1.00  0.00     0.016 A 
ATOM     34  C   UNL A   1      36.364  31.794  27.994  1.00  0.00     0.016 A 
ATOM     35  C   UNL A   1      36.781  29.332  29.244  1.00  0.00     0.010 A 
ATOM     36  C   UNL A   1      37.590  31.511  28.612  1.00  0.00     0.010 A 
ATOM     37  C   UNL A   1      37.805  30.288  29.278  1.00  0.00    -0.014 A 
BRANCH  37  38
ATOM     38  C   UNL A   1      39.075  30.036  30.024  1.00  0.00     0.031 A 
ATOM     39  C   UNL A   1      40.050  28.993  29.534  1.00  0.00     0.074 A 
ATOM     40  C   UNL A   1      39.372  30.725  31.147  1.00  0.00     0.049 A 
ATOM     41  N   UNL A   1      41.074  28.461  30.152  1.00  0.00    -0.248 NA
ATOM     42  C   UNL A   1      39.831  28.464  28.178  1.00  0.00     0.031 C 
ATOM     43  C   UNL A   1      38.566  31.802  31.728  1.00  0.00     0.029 A 
ATOM     44  N   UNL A   1      40.443  30.621  32.005  1.00  0.00    -0.354 N 
ATOM     45  C   UNL A   1      41.570  27.482  29.297  1.00  0.00     0.074 A 
ATOM     46  C   UNL A   1      40.741  27.503  28.111  1.00  0.00     0.031 C 
ATOM     47  C   UNL A   1      39.188  32.285  32.812  1.00  0.00     0.029 A 
ATOM     48  C   UNL A   1      40.380  31.486  33.072  1.00  0.00     0.049 A 
ATOM     49  H   UNL A   1      41.183  29.987  31.867  1.00  0.00     0.167 HD
ATOM     50  C   UNL A   1      42.612  26.636  29.487  1.00  0.00     0.031 A 
ATOM     51  C   UNL A   1      41.152  31.596  34.172  1.00  0.00     0.031 A 
ATOM     52  C   UNL A   1      43.473  26.655  30.641  1.00  0.00     0.049 A 
ATOM     53  C   UNL A   1      42.285  30.633  34.379  1.00  0.00     0.074 A 
ATOM     54  C   UNL A   1      44.572  25.855  30.908  1.00  0.00     0.029 A 
ATOM     55  N   UNL A   1      43.344  27.526  31.712  1.00  0.00    -0.354 N 
ATOM     56  N   UNL A   1      42.695  29.667  33.593  1.00  0.00    -0.248 NA
ATOM     57  C   UNL A   1      43.036  30.754  35.636  1.00  0.00     0.031 C 
ATOM     58  C   UNL A   1      45.082  26.217  32.161  1.00  0.00     0.029 A 
ATOM     59  C   UNL A   1      44.328  27.270  32.652  1.00  0.00     0.049 A 
ATOM     60  H   UNL A   1      42.654  28.223  31.793  1.00  0.00     0.167 HD
ATOM     61  C   UNL A   1      43.748  29.058  34.265  1.00  0.00     0.074 A 
ATOM     62  C   UNL A   1      43.931  29.784  35.506  1.00  0.00     0.031 C 
ATOM     63  C   UNL A   1      44.488  27.986  33.891  1.00  0.00     0.031 A 
BRANCH  50  64
ATOM     64  C   UNL A   1      42.844  25.574  28.445  1.00  0.00    -0.014 A 
ATOM     65  C   UNL A   1      43.601  25.822  27.288  1.00  0.00     0.010 A 
ATOM     66  C   UNL A   1      42.310  24.287  28.649  1.00  0.00     0.010 A 
ATOM     67  C   UNL A   1      43.779  24.818  26.331  1.00  0.00     0.020 A 
ATOM     68  C   UNL A   1      42.507  23.273  27.709  1.00  0.00     0.020 A 
ATOM     69  C   UNL A   1      43.224  23.552  26.544  1.00  0.00     0.054 A 
BRANCH  69  70
ATOM     70  S   UNL A   1      43.470  22.264  25.290  1.00  0.00     0.124 S 
ATOM     71  O   UNL A   1      44.757  21.699  25.690  1.00  0.00    -0.237 OA
ATOM     72  O   UNL A   1      42.315  21.394  25.488  1.00  0.00    -0.237 OA
ATOM     73  O   UNL A   1      43.480  23.004  24.031  1.00  0.00    -0.744 OA
ENDBRANCH  69  70
ENDBRANCH  50  64
BRANCH  51  74
ATOM     74  C   UNL A   1      40.816  32.618  35.202  1.00  0.00    -0.014 A 
ATOM     75  C   UNL A   1      39.951  32.307  36.264  1.00  0.00     0.010 A 
ATOM     76  C   UNL A   1      41.407  33.894  35.149  1.00  0.00     0.010 A 
ATOM     77  C   UNL A   1      39.693  33.250  37.264  1.00  0.00     0.020 A 
ATOM     78  C   UNL A   1      41.175  34.828  36.161  1.00  0.00     0.020 A 
ATOM     79  C   UNL A   1      40.315  34.502  37.211  1.00  0.00     0.054 A 
BRANCH  79  80
ATOM     80  S   UNL A   1      40.053  35.674  38.571  1.00  0.00     0.124 S 
ATOM     81  O   UNL A   1      39.726  36.902  37.855  1.00  0.00    -0.237 OA
ATOM     82  O   UNL A   1      38.953  35.061  39.312  1.00  0.00    -0.237 OA
ATOM     83  O   UNL A   1      41.336  35.675  39.270  1.00  0.00    -0.744 OA
ENDBRANCH  79  80
ENDBRANCH  51  74
BRANCH  63  84
ATOM     84  C   UNL A   1      45.565  27.531  34.837  1.00  0.00    -0.014 A 
ATOM     85  C   UNL A   1      45.320  26.504  35.765  1.00  0.00     0.010 A 
ATOM     86  C   UNL A   1      46.846  28.107  34.770  1.00  0.00     0.010 A 
ATOM     87  C   UNL A   1      46.333  26.078  36.629  1.00  0.00     0.020 A 
ATOM     88  C   UNL A   1      47.867  27.669  35.617  1.00  0.00     0.020 A 
ATOM     89  C   UNL A   1      47.599  26.665  36.551  1.00  0.00     0.054 A 
BRANCH  89  90
ATOM     90  S   UNL A   1      48.910  26.069  37.655  1.00  0.00     0.124 S 
ATOM     91  O   UNL A   1      49.006  24.661  37.277  1.00  0.00    -0.237 OA
ATOM     92  O   UNL A   1      50.051  26.899  37.279  1.00  0.00    -0.237 OA
ATOM     93  O   UNL A   1      48.377  26.321  38.991  1.00  0.00    -0.744 OA
ENDBRANCH  89  90
ENDBRANCH  63  84
ENDBRANCH  37  38
ENDBRANCH  30  32
ENDBRANCH  29  30
ENDBRANCH  28  29
ENDBRANCH   1  28
TORSDOF 19
ENDMDL
MODEL 2
REMARK VINA RESULT:     -10.8      3.785      8.648
REMARK SMILES CCN(CC)C(=O)[C@@H]1CC=CC[C@H]1C(=O)Nc1ccc(C(=O)OCCOC(=O)c2ccc(-c3c4nc(c(-c5ccc(S(=O)(=O)[O-])cc5)c5ccc([nH]5)c(-c5ccc(S(=O)(=O)[O-])cc5)c5nc(c(-c6ccc(S(=O)(=O)[O-])cc6)c6ccc3[nH]6)C=C5)C=C4)cc2)cc1
REMARK SMILES IDX 24 1 23 2 21 3 22 4 20 5 17 6 18 7 90 8 19 9 89 10 16 11
REMARK SMILES IDX 14 12 15 13 13 15 8 16 9 17 10 18 12 19 11 20 6 21 3 22 7 23
REMARK SMILES IDX 2 24 1 25 4 26 5 27 25 28 26 29 27 30 28 31 29 32 30 33
REMARK SMILES IDX 88 34 31 35 87 36 32 37 33 38 34 39 81 40 35 41 86 42 80 43
REMARK SMILES IDX 82 44 36 45 85 46 79 47 78 48 37 50 67 51 48 52 66 53 49 54
REMARK SMILES IDX 52 55 65 56 83 57 50 58 51 59 64 61 84 62 53 63 38 64 39 65
REMARK SMILES IDX 47 66 40 67 46 68 41 69 42 70 43 71 44 72 45 73 68 74 69 75
REMARK SMILES IDX 77 76 70 77 76 78 71 79 72 80 73 81 74 82 75 83 54 84 55 85
REMARK SMILES IDX 63 86 56 87 62 88 57 89 58 90 59 91 60 92 61 93
REMARK H PARENT 16 14 82 49 52 60
REMARK Flexibility Score: inf
ROOT
ATOM      1  C   UNL A   1      31.803  30.120  25.632  1.00  0.00     0.275 C 
ENDROOT
BRANCH   1   2
ATOM      2  O   UNL A   1      31.623  28.755  25.212  1.00  0.00    -0.458 OA
BRANCH   2   3
ATOM      3  C   UNL A   1      32.495  28.343  24.261  1.00  0.00     0.338 C 
ATOM      4  O   UNL A   1      33.347  29.031  23.716  1.00  0.00    -0.246 OA
BRANCH   3   5
ATOM      5  C   UNL A   1      32.354  26.896  23.974  1.00  0.00     0.060 A 
ATOM      6  C   UNL A   1      32.327  24.240  23.160  1.00  0.00     0.041 A 
ATOM      7  C   UNL A   1      33.473  24.754  23.759  1.00  0.00     0.027 A 
ATOM      8  C   UNL A   1      31.143  24.976  23.164  1.00  0.00     0.027 A 
ATOM      9  C   UNL A   1      33.498  26.095  24.120  1.00  0.00     0.018 A 
ATOM     10  C   UNL A   1      31.155  26.316  23.557  1.00  0.00     0.018 A 
BRANCH   6  11
ATOM     11  N   UNL A   1      32.441  23.005  22.520  1.00  0.00    -0.326 N 
ATOM     12  C   UNL A   1      32.341  21.761  23.095  1.00  0.00     0.228 C 
ATOM     13  O   UNL A   1      32.049  20.835  22.324  1.00  0.00    -0.274 OA
ATOM     14  H   UNL A   1      32.612  23.028  21.551  1.00  0.00     0.169 HD
BRANCH  12  15
ATOM     15  C   UNL A   1      32.442  21.459  24.601  1.00  0.00     0.095 C 
ATOM     16  C   UNL A   1      33.839  21.363  25.269  1.00  0.00     0.095 C 
ATOM     17  C   UNL A   1      33.715  21.483  26.825  1.00  0.00     0.041 C 
ATOM     18  C   UNL A   1      32.752  22.489  27.353  1.00  0.00    -0.030 C 
ATOM     19  C   UNL A   1      31.420  22.428  25.264  1.00  0.00     0.041 C 
ATOM     20  C   UNL A   1      31.703  22.905  26.646  1.00  0.00    -0.030 C 
BRANCH  16  21
ATOM     21  C   UNL A   1      34.704  20.074  25.051  1.00  0.00     0.226 C 
ATOM     22  N   UNL A   1      34.134  18.827  24.826  1.00  0.00    -0.343 N 
ATOM     23  O   UNL A   1      35.932  20.187  24.924  1.00  0.00    -0.275 OA
BRANCH  22  24
ATOM     24  C   UNL A   1      34.944  17.799  24.161  1.00  0.00     0.116 C 
ATOM     25  C   UNL A   1      35.176  16.614  25.090  1.00  0.00     0.027 C 
ENDBRANCH  22  24
BRANCH  22  26
ATOM     26  C   UNL A   1      32.840  18.364  25.299  1.00  0.00     0.116 C 
ATOM     27  C   UNL A   1      32.057  17.715  24.165  1.00  0.00     0.027 C 
ENDBRANCH  22  26
ENDBRANCH  16  21
ENDBRANCH  12  15
ENDBRANCH   6  11
ENDBRANCH   3   5
ENDBRANCH   2   3
ENDBRANCH   1   2
BRANCH   1  28
ATOM     28  C   UNL A   1      32.152  30.174  27.118  1.00  0.00     0.275 C 
BRANCH  28  29
ATOM     29  O   UNL A   1      33.522  29.780  27.320  1.00  0.00    -0.458 OA
BRANCH  29  30
ATOM     30  C   UNL A   1      34.289  30.647  28.020  1.00  0.00     0.338 C 
ATOM     31  O   UNL A   1      33.953  31.735  28.468  1.00  0.00    -0.246 OA
BRANCH  30  32
ATOM     32  C   UNL A   1      35.644  30.097  28.203  1.00  0.00     0.060 A 
ATOM     33  C   UNL A   1      36.057  29.675  29.465  1.00  0.00     0.016 A 
ATOM     34  C   UNL A   1      36.555  30.118  27.151  1.00  0.00     0.016 A 
ATOM     35  C   UNL A   1      37.394  29.361  29.704  1.00  0.00     0.010 A 
ATOM     36  C   UNL A   1      37.873  29.694  27.367  1.00  0.00     0.010 A 
ATOM     37  C   UNL A   1      38.322  29.342  28.655  1.00  0.00    -0.014 A 
BRANCH  37  38
ATOM     38  C   UNL A   1      39.755  28.993  28.897  1.00  0.00     0.031 A 
ATOM     39  C   UNL A   1      40.704  30.024  29.460  1.00  0.00     0.074 A 
ATOM     40  C   UNL A   1      40.230  27.760  28.615  1.00  0.00     0.049 A 
ATOM     41  N   UNL A   1      42.012  30.000  29.521  1.00  0.00    -0.248 NA
ATOM     42  C   UNL A   1      40.103  31.250  30.008  1.00  0.00     0.031 C 
ATOM     43  C   UNL A   1      39.438  26.633  28.115  1.00  0.00     0.029 A 
ATOM     44  N   UNL A   1      41.503  27.247  28.710  1.00  0.00    -0.354 N 
ATOM     45  C   UNL A   1      42.393  31.235  30.035  1.00  0.00     0.074 A 
ATOM     46  C   UNL A   1      41.176  31.979  30.281  1.00  0.00     0.031 C 
ATOM     47  C   UNL A   1      40.228  25.557  27.991  1.00  0.00     0.029 A 
ATOM     48  C   UNL A   1      41.602  25.939  28.296  1.00  0.00     0.049 A 
ATOM     49  H   UNL A   1      42.269  27.767  29.044  1.00  0.00     0.167 HD
ATOM     50  C   UNL A   1      43.640  31.710  30.269  1.00  0.00     0.031 A 
ATOM     51  C   UNL A   1      42.676  25.143  28.118  1.00  0.00     0.031 A 
ATOM     52  C   UNL A   1      44.847  30.949  30.080  1.00  0.00     0.049 A 
ATOM     53  C   UNL A   1      44.051  25.695  28.356  1.00  0.00     0.074 A 
ATOM     54  C   UNL A   1      46.156  31.336  30.319  1.00  0.00     0.029 A 
ATOM     55  N   UNL A   1      44.896  29.641  29.622  1.00  0.00    -0.354 N 
ATOM     56  N   UNL A   1      44.396  26.888  28.775  1.00  0.00    -0.248 NA
ATOM     57  C   UNL A   1      45.182  24.803  28.067  1.00  0.00     0.031 C 
ATOM     58  C   UNL A   1      46.998  30.275  29.966  1.00  0.00     0.029 A 
ATOM     59  C   UNL A   1      46.211  29.213  29.551  1.00  0.00     0.049 A 
ATOM     60  H   UNL A   1      44.112  29.097  29.383  1.00  0.00     0.167 HD
ATOM     61  C   UNL A   1      45.786  26.895  28.790  1.00  0.00     0.074 A 
ATOM     62  C   UNL A   1      46.216  25.576  28.369  1.00  0.00     0.031 C 
ATOM     63  C   UNL A   1      46.628  27.906  29.112  1.00  0.00     0.031 A 
BRANCH  50  64
ATOM     64  C   UNL A   1      43.767  33.147  30.703  1.00  0.00    -0.014 A 
ATOM     65  C   UNL A   1      43.885  34.195  29.774  1.00  0.00     0.010 A 
ATOM     66  C   UNL A   1      43.738  33.452  32.077  1.00  0.00     0.010 A 
ATOM     67  C   UNL A   1      44.021  35.516  30.212  1.00  0.00     0.020 A 
ATOM     68  C   UNL A   1      43.847  34.773  32.519  1.00  0.00     0.020 A 
ATOM     69  C   UNL A   1      44.010  35.795  31.583  1.00  0.00     0.054 A 
BRANCH  69  70
ATOM     70  S   UNL A   1      44.186  37.516  32.128  1.00  0.00     0.124 S 
ATOM     71  O   UNL A   1      43.732  38.251  30.949  1.00  0.00    -0.237 OA
ATOM     72  O   UNL A   1      43.299  37.581  33.287  1.00  0.00    -0.237 OA
ATOM     73  O   UNL A   1      45.610  37.641  32.430  1.00  0.00    -0.744 OA
ENDBRANCH  69  70
ENDBRANCH  50  64
BRANCH  51  74
ATOM     74  C   UNL A   1      42.483  23.757  27.610  1.00  0.00    -0.014 A 
ATOM     75  C   UNL A   1      42.423  23.502  26.229  1.00  0.00     0.010 A 
ATOM     76  C   UNL A   1      42.411  22.678  28.511  1.00  0.00     0.010 A 
ATOM     77  C   UNL A   1      42.309  22.190  25.758  1.00  0.00     0.020 A 
ATOM     78  C   UNL A   1      42.326  21.365  28.043  1.00  0.00     0.020 A 
ATOM     79  C   UNL A   1      42.271  21.129  26.669  1.00  0.00     0.054 A 
BRANCH  79  80
ATOM     80  S   UNL A   1      42.230  19.428  26.038  1.00  0.00     0.124 S 
ATOM     81  O   UNL A   1      43.155  19.500  24.912  1.00  0.00    -0.237 OA
ATOM     82  O   UNL A   1      42.690  18.651  27.187  1.00  0.00    -0.237 OA
ATOM     83  O   UNL A   1      40.826  19.230  25.688  1.00  0.00    -0.744 OA
ENDBRANCH  79  80
ENDBRANCH  51  74
BRANCH  63  84
ATOM     84  C   UNL A   1      48.103  27.627  29.021  1.00  0.00    -0.014 A 
ATOM     85  C   UNL A   1      48.797  27.066  30.106  1.00  0.00     0.010 A 
ATOM     86  C   UNL A   1      48.793  27.890  27.824  1.00  0.00     0.010 A 
ATOM     87  C   UNL A   1      50.165  26.797  30.005  1.00  0.00     0.020 A 
ATOM     88  C   UNL A   1      50.155  27.602  27.712  1.00  0.00     0.020 A 
ATOM     89  C   UNL A   1      50.836  27.069  28.809  1.00  0.00     0.054 A 
BRANCH  89  90
ATOM     90  S   UNL A   1      52.602  26.674  28.687  1.00  0.00     0.124 S 
ATOM     91  O   UNL A   1      52.873  26.091  29.999  1.00  0.00    -0.237 OA
ATOM     92  O   UNL A   1      52.648  25.741  27.564  1.00  0.00    -0.237 OA
ATOM     93  O   UNL A   1      53.230  27.969  28.439  1.00  0.00    -0.744 OA
ENDBRANCH  89  90
ENDBRANCH  63  84
ENDBRANCH  37  38
ENDBRANCH  30  32
ENDBRANCH  29  30
ENDBRANCH  28  29
ENDBRANCH   1  28
TORSDOF 19
ENDMDL
MODEL 3
REMARK VINA RESULT:     -10.6      1.672      8.346
REMARK SMILES CCN(CC)C(=O)[C@@H]1CC=CC[C@H]1C(=O)Nc1ccc(C(=O)OCCOC(=O)c2ccc(-c3c4nc(c(-c5ccc(S(=O)(=O)[O-])cc5)c5ccc([nH]5)c(-c5ccc(S(=O)(=O)[O-])cc5)c5nc(c(-c6ccc(S(=O)(=O)[O-])cc6)c6ccc3[nH]6)C=C5)C=C4)cc2)cc1
REMARK SMILES IDX 24 1 23 2 21 3 22 4 20 5 17 6 18 7 90 8 19 9 89 10 16 11
REMARK SMILES IDX 14 12 15 13 13 15 8 16 9 17 10 18 12 19 11 20 6 21 3 22 7 23
REMARK SMILES IDX 2 24 1 25 4 26 5 27 25 28 26 29 27 30 28 31 29 32 30 33
REMARK SMILES IDX 88 34 31 35 87 36 32 37 33 38 34 39 81 40 35 41 86 42 80 43
REMARK SMILES IDX 82 44 36 45 85 46 79 47 78 48 37 50 67 51 48 52 66 53 49 54
REMARK SMILES IDX 52 55 65 56 83 57 50 58 51 59 64 61 84 62 53 63 38 64 39 65
REMARK SMILES IDX 47 66 40 67 46 68 41 69 42 70 43 71 44 72 45 73 68 74 69 75
REMARK SMILES IDX 77 76 70 77 76 78 71 79 72 80 73 81 74 82 75 83 54 84 55 85
REMARK SMILES IDX 63 86 56 87 62 88 57 89 58 90 59 91 60 92 61 93
REMARK H PARENT 16 14 82 49 52 60
REMARK Flexibility Score: inf
ROOT
ATOM      1  C   UNL A   1      31.781  30.340  26.488  1.00  0.00     0.275 C 
ENDROOT
BRANCH   1   2
ATOM      2  O   UNL A   1      32.601  29.188  26.760  1.00  0.00    -0.458 OA
BRANCH   2   3
ATOM      3  C   UNL A   1      31.910  28.086  27.138  1.00  0.00     0.338 C 
ATOM      4  O   UNL A   1      31.086  28.025  28.039  1.00  0.00    -0.246 OA
BRANCH   3   5
ATOM      5  C   UNL A   1      32.215  26.922  26.273  1.00  0.00     0.060 A 
ATOM      6  C   UNL A   1      32.658  24.943  24.375  1.00  0.00     0.041 A 
ATOM      7  C   UNL A   1      33.455  26.083  24.364  1.00  0.00     0.027 A 
ATOM      8  C   UNL A   1      31.800  24.697  25.445  1.00  0.00     0.027 A 
ATOM      9  C   UNL A   1      33.198  27.091  25.285  1.00  0.00     0.018 A 
ATOM     10  C   UNL A   1      31.561  25.694  26.393  1.00  0.00     0.018 A 
BRANCH   6  11
ATOM     11  N   UNL A   1      32.720  24.111  23.256  1.00  0.00    -0.326 N 
ATOM     12  C   UNL A   1      33.327  22.881  23.170  1.00  0.00     0.228 C 
ATOM     13  O   UNL A   1      32.916  22.142  22.263  1.00  0.00    -0.274 OA
ATOM     14  H   UNL A   1      32.281  24.441  22.439  1.00  0.00     0.169 HD
BRANCH  12  15
ATOM     15  C   UNL A   1      34.365  22.323  24.160  1.00  0.00     0.095 C 
ATOM     16  C   UNL A   1      34.550  20.788  24.290  1.00  0.00     0.095 C 
ATOM     17  C   UNL A   1      35.906  20.454  24.996  1.00  0.00     0.041 C 
ATOM     18  C   UNL A   1      37.090  21.273  24.614  1.00  0.00    -0.030 C 
ATOM     19  C   UNL A   1      35.651  23.157  23.888  1.00  0.00     0.041 C 
ATOM     20  C   UNL A   1      36.970  22.506  24.124  1.00  0.00    -0.030 C 
BRANCH  16  21
ATOM     21  C   UNL A   1      33.487  19.955  25.085  1.00  0.00     0.226 C 
ATOM     22  N   UNL A   1      33.263  18.606  24.837  1.00  0.00    -0.343 N 
ATOM     23  O   UNL A   1      32.932  20.467  26.069  1.00  0.00    -0.275 OA
BRANCH  22  24
ATOM     24  C   UNL A   1      32.650  17.793  25.894  1.00  0.00     0.116 C 
ATOM     25  C   UNL A   1      32.920  16.312  25.656  1.00  0.00     0.027 C 
ENDBRANCH  22  24
BRANCH  22  26
ATOM     26  C   UNL A   1      33.450  17.913  23.573  1.00  0.00     0.116 C 
ATOM     27  C   UNL A   1      32.355  18.294  22.586  1.00  0.00     0.027 C 
ENDBRANCH  22  26
ENDBRANCH  16  21
ENDBRANCH  12  15
ENDBRANCH   6  11
ENDBRANCH   3   5
ENDBRANCH   2   3
ENDBRANCH   1   2
BRANCH   1  28
ATOM     28  C   UNL A   1      32.459  31.606  27.009  1.00  0.00     0.275 C 
BRANCH  28  29
ATOM     29  O   UNL A   1      33.581  31.260  27.842  1.00  0.00    -0.458 OA
BRANCH  29  30
ATOM     30  C   UNL A   1      34.571  32.180  27.911  1.00  0.00     0.338 C 
ATOM     31  O   UNL A   1      34.493  33.371  27.638  1.00  0.00    -0.246 OA
BRANCH  30  32
ATOM     32  C   UNL A   1      35.817  31.555  28.390  1.00  0.00     0.060 A 
ATOM     33  C   UNL A   1      35.799  30.244  28.861  1.00  0.00     0.016 A 
ATOM     34  C   UNL A   1      36.981  32.310  28.498  1.00  0.00     0.016 A 
ATOM     35  C   UNL A   1      36.907  29.713  29.518  1.00  0.00     0.010 A 
ATOM     36  C   UNL A   1      38.130  31.735  29.058  1.00  0.00     0.010 A 
ATOM     37  C   UNL A   1      38.101  30.440  29.609  1.00  0.00    -0.014 A 
BRANCH  37  38
ATOM     38  C   UNL A   1      39.301  29.874  30.298  1.00  0.00     0.031 A 
ATOM     39  C   UNL A   1      39.790  30.481  31.592  1.00  0.00     0.074 A 
ATOM     40  C   UNL A   1      39.970  28.821  29.782  1.00  0.00     0.049 A 
ATOM     41  N   UNL A   1      40.926  30.297  32.215  1.00  0.00    -0.248 NA
ATOM     42  C   UNL A   1      38.889  31.434  32.261  1.00  0.00     0.031 C 
ATOM     43  C   UNL A   1      39.601  28.085  28.570  1.00  0.00     0.029 A 
ATOM     44  N   UNL A   1      41.109  28.183  30.217  1.00  0.00    -0.354 N 
ATOM     45  C   UNL A   1      40.913  31.169  33.299  1.00  0.00     0.074 A 
ATOM     46  C   UNL A   1      39.648  31.872  33.256  1.00  0.00     0.031 C 
ATOM     47  C   UNL A   1      40.464  27.076  28.385  1.00  0.00     0.029 A 
ATOM     48  C   UNL A   1      41.511  27.155  29.397  1.00  0.00     0.049 A 
ATOM     49  H   UNL A   1      41.589  28.439  31.037  1.00  0.00     0.167 HD
ATOM     50  C   UNL A   1      41.870  31.374  34.236  1.00  0.00     0.031 A 
ATOM     51  C   UNL A   1      42.623  26.392  29.410  1.00  0.00     0.031 A 
ATOM     52  C   UNL A   1      43.102  30.634  34.314  1.00  0.00     0.049 A 
ATOM     53  C   UNL A   1      43.685  26.652  30.440  1.00  0.00     0.074 A 
ATOM     54  C   UNL A   1      44.120  30.751  35.247  1.00  0.00     0.029 A 
ATOM     55  N   UNL A   1      43.479  29.629  33.437  1.00  0.00    -0.354 N 
ATOM     56  N   UNL A   1      43.686  27.528  31.414  1.00  0.00    -0.248 NA
ATOM     57  C   UNL A   1      44.907  25.842  30.350  1.00  0.00     0.031 C 
ATOM     58  C   UNL A   1      45.130  29.844  34.908  1.00  0.00     0.029 A 
ATOM     59  C   UNL A   1      44.722  29.131  33.792  1.00  0.00     0.049 A 
ATOM     60  H   UNL A   1      42.943  29.315  32.674  1.00  0.00     0.167 HD
ATOM     61  C   UNL A   1      44.914  27.382  32.050  1.00  0.00     0.074 A 
ATOM     62  C   UNL A   1      45.614  26.312  31.368  1.00  0.00     0.031 C 
ATOM     63  C   UNL A   1      45.418  28.080  33.095  1.00  0.00     0.031 A 
BRANCH  50  64
ATOM     64  C   UNL A   1      41.647  32.488  35.226  1.00  0.00    -0.014 A 
ATOM     65  C   UNL A   1      42.077  33.802  34.973  1.00  0.00     0.010 A 
ATOM     66  C   UNL A   1      40.963  32.212  36.425  1.00  0.00     0.010 A 
ATOM     67  C   UNL A   1      41.871  34.807  35.922  1.00  0.00     0.020 A 
ATOM     68  C   UNL A   1      40.732  33.218  37.365  1.00  0.00     0.020 A 
ATOM     69  C   UNL A   1      41.207  34.507  37.116  1.00  0.00     0.054 A 
BRANCH  69  70
ATOM     70  S   UNL A   1      40.949  35.828  38.332  1.00  0.00     0.124 S 
ATOM     71  O   UNL A   1      42.306  36.341  38.510  1.00  0.00    -0.237 OA
ATOM     72  O   UNL A   1      40.025  36.725  37.644  1.00  0.00    -0.237 OA
ATOM     73  O   UNL A   1      40.390  35.131  39.488  1.00  0.00    -0.744 OA
ENDBRANCH  69  70
ENDBRANCH  50  64
BRANCH  51  74
ATOM     74  C   UNL A   1      42.816  25.362  28.353  1.00  0.00    -0.014 A 
ATOM     75  C   UNL A   1      43.519  25.667  27.175  1.00  0.00     0.010 A 
ATOM     76  C   UNL A   1      42.340  24.052  28.548  1.00  0.00     0.010 A 
ATOM     77  C   UNL A   1      43.753  24.675  26.217  1.00  0.00     0.020 A 
ATOM     78  C   UNL A   1      42.597  23.053  27.607  1.00  0.00     0.020 A 
ATOM     79  C   UNL A   1      43.300  23.372  26.444  1.00  0.00     0.054 A 
BRANCH  79  80
ATOM     80  S   UNL A   1      43.705  22.076  25.241  1.00  0.00     0.124 S 
ATOM     81  O   UNL A   1      45.098  21.786  25.565  1.00  0.00    -0.237 OA
ATOM     82  O   UNL A   1      42.746  21.023  25.571  1.00  0.00    -0.237 OA
ATOM     83  O   UNL A   1      43.481  22.727  23.952  1.00  0.00    -0.744 OA
ENDBRANCH  79  80
ENDBRANCH  51  74
BRANCH  63  84
ATOM     84  C   UNL A   1      46.796  27.711  33.567  1.00  0.00    -0.014 A 
ATOM     85  C   UNL A   1      47.932  28.364  33.056  1.00  0.00     0.010 A 
ATOM     86  C   UNL A   1      46.957  26.729  34.562  1.00  0.00     0.010 A 
ATOM     87  C   UNL A   1      49.207  28.023  33.514  1.00  0.00     0.020 A 
ATOM     88  C   UNL A   1      48.229  26.402  35.037  1.00  0.00     0.020 A 
ATOM     89  C   UNL A   1      49.348  27.042  34.500  1.00  0.00     0.054 A 
BRANCH  89  90
ATOM     90  S   UNL A   1      51.011  26.644  35.107  1.00  0.00     0.124 S 
ATOM     91  O   UNL A   1      50.744  25.522  36.004  1.00  0.00    -0.237 OA
ATOM     92  O   UNL A   1      51.731  26.310  33.881  1.00  0.00    -0.237 OA
ATOM     93  O   UNL A   1      51.443  27.876  35.761  1.00  0.00    -0.744 OA
ENDBRANCH  89  90
ENDBRANCH  63  84
ENDBRANCH  37  38
ENDBRANCH  30  32
ENDBRANCH  29  30
ENDBRANCH  28  29
ENDBRANCH   1  28
TORSDOF 19
ENDMDL
