MODEL 1
REMARK VINA RESULT:     -11.5      0.000      0.000
REMARK SMILES O=C(NCc1cccc(F)c1)NCc1ccc(C(=O)OCCOC(=O)c2ccc(-c3c4nc(c(-c5ccc(S(=O)(=O)[O-])cc5)c5ccc([nH]5)c(-c5ccc(S(=O)(=O)[O-])cc5)c5nc(c(-c6ccc(S(=O)(=O)[O-])cc6)c6ccc3[nH]6)C=C5)C=C4)cc2)o1
REMARK SMILES IDX 21 1 20 2 18 3 19 4 17 5 14 6 15 7 86 8 16 9 13 10 12 11
REMARK SMILES IDX 1 12 2 13 3 14 4 17 5 18 6 19 11 20 7 21 9 22 8 23 10 24
REMARK SMILES IDX 22 25 23 26 24 27 25 28 26 29 27 30 85 31 28 32 84 33 29 34
REMARK SMILES IDX 30 35 31 36 78 37 32 38 83 39 77 40 79 41 33 42 82 43 76 44
REMARK SMILES IDX 75 45 34 47 64 48 45 49 63 50 46 51 49 52 62 53 80 54 47 55
REMARK SMILES IDX 48 56 61 58 81 59 50 60 35 61 36 62 44 63 37 64 43 65 38 66
REMARK SMILES IDX 39 67 40 68 41 69 42 70 65 71 66 72 74 73 67 74 73 75 68 76
REMARK SMILES IDX 69 77 70 78 71 79 72 80 51 81 52 82 60 83 53 84 59 85 54 86
REMARK SMILES IDX 55 87 56 88 57 89 58 90
REMARK H PARENT 3 15 12 16 79 46 49 57
REMARK Flexibility Score: inf
ROOT
ATOM      1  C   UNL A   1      39.663  21.592  26.307  1.00  0.00     0.275 C 
ENDROOT
BRANCH   1   2
ATOM      2  O   UNL A   1      38.352  22.008  25.885  1.00  0.00    -0.456 OA
BRANCH   2   3
ATOM      3  C   UNL A   1      37.657  21.105  25.130  1.00  0.00     0.374 C 
ATOM      4  O   UNL A   1      37.987  19.939  24.968  1.00  0.00    -0.242 OA
BRANCH   3   5
ATOM      5  C   UNL A   1      36.438  21.711  24.643  1.00  0.00     0.211 A 
ATOM      6  C   UNL A   1      34.305  22.247  24.834  1.00  0.00     0.124 A 
ATOM      7  C   UNL A   1      34.799  22.985  23.780  1.00  0.00     0.048 A 
ATOM      8  O   UNL A   1      35.275  21.410  25.301  1.00  0.00    -0.452 OA
ATOM      9  C   UNL A   1      36.172  22.650  23.665  1.00  0.00     0.058 A 
BRANCH   6  10
ATOM     10  C   UNL A   1      33.016  22.284  25.576  1.00  0.00     0.193 C 
BRANCH  10  11
ATOM     11  N   UNL A   1      32.519  23.634  25.684  1.00  0.00    -0.331 N 
ATOM     12  O   UNL A   1      31.377  23.250  27.612  1.00  0.00    -0.249 OA
ATOM     13  C   UNL A   1      31.768  24.022  26.743  1.00  0.00     0.315 C 
ATOM     14  N   UNL A   1      31.464  25.336  26.829  1.00  0.00    -0.334 N 
ATOM     15  H   UNL A   1      30.724  25.558  27.440  1.00  0.00     0.165 HD
ATOM     16  H   UNL A   1      32.729  24.285  24.976  1.00  0.00     0.165 HD
BRANCH  14  17
ATOM     17  C   UNL A   1      32.071  26.462  26.155  1.00  0.00     0.153 C 
BRANCH  17  18
ATOM     18  C   UNL A   1      31.172  27.059  25.110  1.00  0.00    -0.026 A 
ATOM     19  C   UNL A   1      31.451  28.316  24.549  1.00  0.00     0.006 A 
ATOM     20  C   UNL A   1      30.005  26.393  24.719  1.00  0.00     0.044 A 
ATOM     21  C   UNL A   1      30.574  28.896  23.626  1.00  0.00     0.003 A 
ATOM     22  C   UNL A   1      29.138  26.985  23.809  1.00  0.00     0.123 A 
ATOM     23  C   UNL A   1      29.408  28.229  23.256  1.00  0.00     0.039 A 
ATOM     24  F   UNL A   1      28.014  26.343  23.481  1.00  0.00    -0.207 F 
ENDBRANCH  17  18
ENDBRANCH  14  17
ENDBRANCH  10  11
ENDBRANCH   6  10
ENDBRANCH   3   5
ENDBRANCH   2   3
ENDBRANCH   1   2
BRANCH   1  25
ATOM     25  C   UNL A   1      40.526  22.797  26.706  1.00  0.00     0.275 C 
BRANCH  25  26
ATOM     26  O   UNL A   1      39.866  24.049  26.440  1.00  0.00    -0.458 OA
BRANCH  26  27
ATOM     27  C   UNL A   1      40.682  25.102  26.188  1.00  0.00     0.338 C 
ATOM     28  O   UNL A   1      41.367  25.271  25.193  1.00  0.00    -0.246 OA
BRANCH  27  29
ATOM     29  C   UNL A   1      40.543  26.099  27.266  1.00  0.00     0.060 A 
ATOM     30  C   UNL A   1      41.361  27.231  27.235  1.00  0.00     0.016 A 
ATOM     31  C   UNL A   1      39.649  25.902  28.322  1.00  0.00     0.016 A 
ATOM     32  C   UNL A   1      41.285  28.180  28.253  1.00  0.00     0.010 A 
ATOM     33  C   UNL A   1      39.579  26.850  29.348  1.00  0.00     0.010 A 
ATOM     34  C   UNL A   1      40.398  27.992  29.320  1.00  0.00    -0.014 A 
BRANCH  34  35
ATOM     35  C   UNL A   1      40.350  28.979  30.424  1.00  0.00     0.031 A 
ATOM     36  C   UNL A   1      41.340  28.888  31.548  1.00  0.00     0.074 A 
ATOM     37  C   UNL A   1      39.417  29.949  30.414  1.00  0.00     0.049 A 
ATOM     38  N   UNL A   1      41.417  29.605  32.640  1.00  0.00    -0.248 NA
ATOM     39  C   UNL A   1      42.376  27.849  31.433  1.00  0.00     0.031 C 
ATOM     40  C   UNL A   1      38.433  30.161  29.352  1.00  0.00     0.029 A 
ATOM     41  N   UNL A   1      39.148  30.943  31.323  1.00  0.00    -0.354 N 
ATOM     42  C   UNL A   1      42.486  29.084  33.358  1.00  0.00     0.074 A 
ATOM     43  C   UNL A   1      43.032  27.995  32.576  1.00  0.00     0.031 C 
ATOM     44  C   UNL A   1      37.675  31.225  29.665  1.00  0.00     0.029 A 
ATOM     45  C   UNL A   1      38.098  31.752  30.960  1.00  0.00     0.049 A 
ATOM     46  H   UNL A   1      39.659  31.063  32.156  1.00  0.00     0.167 HD
ATOM     47  C   UNL A   1      42.958  29.472  34.567  1.00  0.00     0.031 A 
ATOM     48  C   UNL A   1      37.538  32.798  31.602  1.00  0.00     0.031 A 
ATOM     49  C   UNL A   1      42.415  30.561  35.335  1.00  0.00     0.049 A 
ATOM     50  C   UNL A   1      38.090  33.215  32.938  1.00  0.00     0.074 A 
ATOM     51  C   UNL A   1      42.813  31.021  36.577  1.00  0.00     0.029 A 
ATOM     52  N   UNL A   1      41.360  31.363  34.928  1.00  0.00    -0.354 N 
ATOM     53  N   UNL A   1      39.097  32.707  33.608  1.00  0.00    -0.248 NA
ATOM     54  C   UNL A   1      37.428  34.342  33.609  1.00  0.00     0.031 C 
ATOM     55  C   UNL A   1      41.977  32.085  36.936  1.00  0.00     0.029 A 
ATOM     56  C   UNL A   1      41.084  32.308  35.900  1.00  0.00     0.049 A 
ATOM     57  H   UNL A   1      40.879  31.275  34.073  1.00  0.00     0.167 HD
ATOM     58  C   UNL A   1      39.193  33.455  34.774  1.00  0.00     0.074 A 
ATOM     59  C   UNL A   1      38.158  34.467  34.710  1.00  0.00     0.031 C 
ATOM     60  C   UNL A   1      40.054  33.311  35.810  1.00  0.00     0.031 A 
BRANCH  47  61
ATOM     61  C   UNL A   1      44.085  28.672  35.157  1.00  0.00    -0.014 A 
ATOM     62  C   UNL A   1      45.427  29.018  34.930  1.00  0.00     0.010 A 
ATOM     63  C   UNL A   1      43.789  27.564  35.972  1.00  0.00     0.010 A 
ATOM     64  C   UNL A   1      46.457  28.249  35.480  1.00  0.00     0.020 A 
ATOM     65  C   UNL A   1      44.815  26.802  36.537  1.00  0.00     0.020 A 
ATOM     66  C   UNL A   1      46.144  27.139  36.271  1.00  0.00     0.054 A 
BRANCH  66  67
ATOM     67  S   UNL A   1      47.493  26.155  36.981  1.00  0.00     0.124 S 
ATOM     68  O   UNL A   1      48.386  25.998  35.836  1.00  0.00    -0.237 OA
ATOM     69  O   UNL A   1      47.993  27.011  38.054  1.00  0.00    -0.237 OA
ATOM     70  O   UNL A   1      46.831  24.930  37.425  1.00  0.00    -0.744 OA
ENDBRANCH  66  67
ENDBRANCH  47  61
BRANCH  48  71
ATOM     71  C   UNL A   1      36.404  33.535  30.979  1.00  0.00    -0.014 A 
ATOM     72  C   UNL A   1      35.274  33.873  31.744  1.00  0.00     0.010 A 
ATOM     73  C   UNL A   1      36.460  33.942  29.633  1.00  0.00     0.010 A 
ATOM     74  C   UNL A   1      34.234  34.623  31.190  1.00  0.00     0.020 A 
ATOM     75  C   UNL A   1      35.427  34.707  29.078  1.00  0.00     0.020 A 
ATOM     76  C   UNL A   1      34.320  35.043  29.861  1.00  0.00     0.054 A 
BRANCH  76  77
ATOM     77  S   UNL A   1      33.011  36.104  29.189  1.00  0.00     0.124 S 
ATOM     78  O   UNL A   1      32.287  35.182  28.320  1.00  0.00    -0.237 OA
ATOM     79  O   UNL A   1      32.298  36.534  30.390  1.00  0.00    -0.237 OA
ATOM     80  O   UNL A   1      33.750  37.163  28.505  1.00  0.00    -0.744 OA
ENDBRANCH  76  77
ENDBRANCH  48  71
BRANCH  60  81
ATOM     81  C   UNL A   1      39.921  34.270  36.961  1.00  0.00    -0.014 A 
ATOM     82  C   UNL A   1      40.477  35.559  36.885  1.00  0.00     0.010 A 
ATOM     83  C   UNL A   1      39.158  33.911  38.086  1.00  0.00     0.010 A 
ATOM     84  C   UNL A   1      40.280  36.472  37.924  1.00  0.00     0.020 A 
ATOM     85  C   UNL A   1      38.946  34.827  39.119  1.00  0.00     0.020 A 
ATOM     86  C   UNL A   1      39.515  36.101  39.034  1.00  0.00     0.054 A 
BRANCH  86  87
ATOM     87  S   UNL A   1      39.206  37.328  40.335  1.00  0.00     0.124 S 
ATOM     88  O   UNL A   1      38.512  38.382  39.600  1.00  0.00    -0.237 OA
ATOM     89  O   UNL A   1      38.390  36.589  41.293  1.00  0.00    -0.237 OA
ATOM     90  O   UNL A   1      40.546  37.675  40.805  1.00  0.00    -0.744 OA
ENDBRANCH  86  87
ENDBRANCH  60  81
ENDBRANCH  34  35
ENDBRANCH  27  29
ENDBRANCH  26  27
ENDBRANCH  25  26
ENDBRANCH   1  25
TORSDOF 18
ENDMDL
MODEL 2
REMARK VINA RESULT:     -11.2      3.268      4.100
REMARK SMILES O=C(NCc1cccc(F)c1)NCc1ccc(C(=O)OCCOC(=O)c2ccc(-c3c4nc(c(-c5ccc(S(=O)(=O)[O-])cc5)c5ccc([nH]5)c(-c5ccc(S(=O)(=O)[O-])cc5)c5nc(c(-c6ccc(S(=O)(=O)[O-])cc6)c6ccc3[nH]6)C=C5)C=C4)cc2)o1
REMARK SMILES IDX 21 1 20 2 18 3 19 4 17 5 14 6 15 7 86 8 16 9 13 10 12 11
REMARK SMILES IDX 1 12 2 13 3 14 4 17 5 18 6 19 11 20 7 21 9 22 8 23 10 24
REMARK SMILES IDX 22 25 23 26 24 27 25 28 26 29 27 30 85 31 28 32 84 33 29 34
REMARK SMILES IDX 30 35 31 36 78 37 32 38 83 39 77 40 79 41 33 42 82 43 76 44
REMARK SMILES IDX 75 45 34 47 64 48 45 49 63 50 46 51 49 52 62 53 80 54 47 55
REMARK SMILES IDX 48 56 61 58 81 59 50 60 35 61 36 62 44 63 37 64 43 65 38 66
REMARK SMILES IDX 39 67 40 68 41 69 42 70 65 71 66 72 74 73 67 74 73 75 68 76
REMARK SMILES IDX 69 77 70 78 71 79 72 80 51 81 52 82 60 83 53 84 59 85 54 86
REMARK SMILES IDX 55 87 56 88 57 89 58 90
REMARK H PARENT 3 15 12 16 79 46 49 57
REMARK Flexibility Score: inf
ROOT
ATOM      1  C   UNL A   1      35.771  21.167  25.423  1.00  0.00     0.275 C 
ENDROOT
BRANCH   1   2
ATOM      2  O   UNL A   1      35.293  20.119  24.561  1.00  0.00    -0.456 OA
BRANCH   2   3
ATOM      3  C   UNL A   1      34.028  19.667  24.820  1.00  0.00     0.374 C 
ATOM      4  O   UNL A   1      33.769  18.566  25.283  1.00  0.00    -0.242 OA
BRANCH   3   5
ATOM      5  C   UNL A   1      33.071  20.717  24.556  1.00  0.00     0.211 A 
ATOM      6  C   UNL A   1      31.544  22.181  25.189  1.00  0.00     0.124 A 
ATOM      7  C   UNL A   1      31.896  22.519  23.900  1.00  0.00     0.048 A 
ATOM      8  O   UNL A   1      32.191  21.037  25.556  1.00  0.00    -0.452 OA
ATOM      9  C   UNL A   1      32.885  21.587  23.498  1.00  0.00     0.058 A 
BRANCH   6  10
ATOM     10  C   UNL A   1      30.722  22.865  26.224  1.00  0.00     0.193 C 
BRANCH  10  11
ATOM     11  N   UNL A   1      30.093  24.047  25.688  1.00  0.00    -0.331 N 
ATOM     12  O   UNL A   1      31.471  25.492  26.775  1.00  0.00    -0.249 OA
ATOM     13  C   UNL A   1      30.565  25.284  25.976  1.00  0.00     0.315 C 
ATOM     14  N   UNL A   1      30.000  26.322  25.320  1.00  0.00    -0.334 N 
ATOM     15  H   UNL A   1      30.163  27.209  25.715  1.00  0.00     0.165 HD
ATOM     16  H   UNL A   1      29.307  23.954  25.103  1.00  0.00     0.165 HD
BRANCH  14  17
ATOM     17  C   UNL A   1      29.191  26.317  24.122  1.00  0.00     0.153 C 
BRANCH  17  18
ATOM     18  C   UNL A   1      29.294  27.603  23.352  1.00  0.00    -0.026 A 
ATOM     19  C   UNL A   1      30.541  28.104  22.945  1.00  0.00     0.006 A 
ATOM     20  C   UNL A   1      28.145  28.354  23.077  1.00  0.00     0.044 A 
ATOM     21  C   UNL A   1      30.635  29.336  22.288  1.00  0.00     0.003 A 
ATOM     22  C   UNL A   1      28.254  29.580  22.432  1.00  0.00     0.123 A 
ATOM     23  C   UNL A   1      29.486  30.080  22.033  1.00  0.00     0.039 A 
ATOM     24  F   UNL A   1      27.147  30.292  22.214  1.00  0.00    -0.207 F 
ENDBRANCH  17  18
ENDBRANCH  14  17
ENDBRANCH  10  11
ENDBRANCH   6  10
ENDBRANCH   3   5
ENDBRANCH   2   3
ENDBRANCH   1   2
BRANCH   1  25
ATOM     25  C   UNL A   1      37.078  21.771  24.893  1.00  0.00     0.275 C 
BRANCH  25  26
ATOM     26  O   UNL A   1      37.532  22.873  25.700  1.00  0.00    -0.458 OA
BRANCH  26  27
ATOM     27  C   UNL A   1      38.802  22.777  26.165  1.00  0.00     0.338 C 
ATOM     28  O   UNL A   1      39.569  21.842  26.001  1.00  0.00    -0.246 OA
BRANCH  27  29
ATOM     29  C   UNL A   1      39.180  24.040  26.827  1.00  0.00     0.060 A 
ATOM     30  C   UNL A   1      39.956  24.958  26.115  1.00  0.00     0.016 A 
ATOM     31  C   UNL A   1      38.813  24.301  28.150  1.00  0.00     0.016 A 
ATOM     32  C   UNL A   1      40.363  26.148  26.715  1.00  0.00     0.010 A 
ATOM     33  C   UNL A   1      39.228  25.492  28.755  1.00  0.00     0.010 A 
ATOM     34  C   UNL A   1      40.007  26.420  28.041  1.00  0.00    -0.014 A 
BRANCH  34  35
ATOM     35  C   UNL A   1      40.477  27.664  28.693  1.00  0.00     0.031 A 
ATOM     36  C   UNL A   1      41.890  27.756  29.193  1.00  0.00     0.074 A 
ATOM     37  C   UNL A   1      39.635  28.705  28.835  1.00  0.00     0.049 A 
ATOM     38  N   UNL A   1      42.469  28.724  29.856  1.00  0.00    -0.248 NA
ATOM     39  C   UNL A   1      42.763  26.604  28.919  1.00  0.00     0.031 C 
ATOM     40  C   UNL A   1      38.256  28.744  28.348  1.00  0.00     0.029 A 
ATOM     41  N   UNL A   1      39.817  29.931  29.425  1.00  0.00    -0.354 N 
ATOM     42  C   UNL A   1      43.763  28.286  30.108  1.00  0.00     0.074 A 
ATOM     43  C   UNL A   1      43.886  26.968  29.522  1.00  0.00     0.031 C 
ATOM     44  C   UNL A   1      37.721  29.939  28.649  1.00  0.00     0.029 A 
ATOM     45  C   UNL A   1      38.706  30.738  29.375  1.00  0.00     0.049 A 
ATOM     46  H   UNL A   1      40.665  30.206  29.845  1.00  0.00     0.167 HD
ATOM     47  C   UNL A   1      44.752  28.922  30.780  1.00  0.00     0.031 A 
ATOM     48  C   UNL A   1      38.503  31.979  29.863  1.00  0.00     0.031 A 
ATOM     49  C   UNL A   1      44.624  30.235  31.352  1.00  0.00     0.049 A 
ATOM     50  C   UNL A   1      39.623  32.666  30.595  1.00  0.00     0.074 A 
ATOM     51  C   UNL A   1      45.563  30.959  32.066  1.00  0.00     0.029 A 
ATOM     52  N   UNL A   1      43.487  31.024  31.270  1.00  0.00    -0.354 N 
ATOM     53  N   UNL A   1      40.840  32.235  30.832  1.00  0.00    -0.248 NA
ATOM     54  C   UNL A   1      39.344  34.006  31.132  1.00  0.00     0.031 C 
ATOM     55  C   UNL A   1      44.982  32.175  32.442  1.00  0.00     0.029 A 
ATOM     56  C   UNL A   1      43.696  32.222  31.931  1.00  0.00     0.049 A 
ATOM     57  H   UNL A   1      42.655  30.771  30.809  1.00  0.00     0.167 HD
ATOM     58  C   UNL A   1      41.472  33.251  31.539  1.00  0.00     0.074 A 
ATOM     59  C   UNL A   1      40.513  34.329  31.671  1.00  0.00     0.031 C 
ATOM     60  C   UNL A   1      42.729  33.284  32.042  1.00  0.00     0.031 A 
BRANCH  47  61
ATOM     61  C   UNL A   1      46.040  28.175  30.980  1.00  0.00    -0.014 A 
ATOM     62  C   UNL A   1      46.202  27.260  32.034  1.00  0.00     0.010 A 
ATOM     63  C   UNL A   1      47.102  28.381  30.080  1.00  0.00     0.010 A 
ATOM     64  C   UNL A   1      47.416  26.589  32.206  1.00  0.00     0.020 A 
ATOM     65  C   UNL A   1      48.312  27.699  30.238  1.00  0.00     0.020 A 
ATOM     66  C   UNL A   1      48.467  26.821  31.312  1.00  0.00     0.054 A 
BRANCH  66  67
ATOM     67  S   UNL A   1      50.034  25.937  31.547  1.00  0.00     0.124 S 
ATOM     68  O   UNL A   1      50.946  27.027  31.885  1.00  0.00    -0.237 OA
ATOM     69  O   UNL A   1      49.729  25.014  32.637  1.00  0.00    -0.237 OA
ATOM     70  O   UNL A   1      50.273  25.306  30.251  1.00  0.00    -0.744 OA
ENDBRANCH  66  67
ENDBRANCH  47  61
BRANCH  48  71
ATOM     71  C   UNL A   1      37.194  32.657  29.657  1.00  0.00    -0.014 A 
ATOM     72  C   UNL A   1      36.192  32.574  30.640  1.00  0.00     0.010 A 
ATOM     73  C   UNL A   1      36.952  33.423  28.502  1.00  0.00     0.010 A 
ATOM     74  C   UNL A   1      34.985  33.262  30.489  1.00  0.00     0.020 A 
ATOM     75  C   UNL A   1      35.750  34.125  28.353  1.00  0.00     0.020 A 
ATOM     76  C   UNL A   1      34.774  34.041  29.349  1.00  0.00     0.054 A 
BRANCH  76  77
ATOM     77  S   UNL A   1      33.246  35.010  29.218  1.00  0.00     0.124 S 
ATOM     78  O   UNL A   1      33.740  36.294  28.730  1.00  0.00    -0.237 OA
ATOM     79  O   UNL A   1      32.454  34.234  28.265  1.00  0.00    -0.237 OA
ATOM     80  O   UNL A   1      32.727  35.013  30.583  1.00  0.00    -0.744 OA
ENDBRANCH  76  77
ENDBRANCH  48  71
BRANCH  60  81
ATOM     81  C   UNL A   1      43.148  34.525  32.780  1.00  0.00    -0.014 A 
ATOM     82  C   UNL A   1      42.992  34.616  34.174  1.00  0.00     0.010 A 
ATOM     83  C   UNL A   1      43.782  35.570  32.086  1.00  0.00     0.010 A 
ATOM     84  C   UNL A   1      43.458  35.738  34.862  1.00  0.00     0.020 A 
ATOM     85  C   UNL A   1      44.263  36.687  32.774  1.00  0.00     0.020 A 
ATOM     86  C   UNL A   1      44.092  36.767  34.158  1.00  0.00     0.054 A 
BRANCH  86  87
ATOM     87  S   UNL A   1      44.758  38.179  35.082  1.00  0.00     0.124 S 
ATOM     88  O   UNL A   1      43.844  39.252  34.699  1.00  0.00    -0.237 OA
ATOM     89  O   UNL A   1      44.660  37.736  36.470  1.00  0.00    -0.237 OA
ATOM     90  O   UNL A   1      46.122  38.311  34.573  1.00  0.00    -0.744 OA
ENDBRANCH  86  87
ENDBRANCH  60  81
ENDBRANCH  34  35
ENDBRANCH  27  29
ENDBRANCH  26  27
ENDBRANCH  25  26
ENDBRANCH   1  25
TORSDOF 18
ENDMDL
MODEL 3
REMARK VINA RESULT:     -11.1      1.521      2.223
REMARK SMILES O=C(NCc1cccc(F)c1)NCc1ccc(C(=O)OCCOC(=O)c2ccc(-c3c4nc(c(-c5ccc(S(=O)(=O)[O-])cc5)c5ccc([nH]5)c(-c5ccc(S(=O)(=O)[O-])cc5)c5nc(c(-c6ccc(S(=O)(=O)[O-])cc6)c6ccc3[nH]6)C=C5)C=C4)cc2)o1
REMARK SMILES IDX 21 1 20 2 18 3 19 4 17 5 14 6 15 7 86 8 16 9 13 10 12 11
REMARK SMILES IDX 1 12 2 13 3 14 4 17 5 18 6 19 11 20 7 21 9 22 8 23 10 24
REMARK SMILES IDX 22 25 23 26 24 27 25 28 26 29 27 30 85 31 28 32 84 33 29 34
REMARK SMILES IDX 30 35 31 36 78 37 32 38 83 39 77 40 79 41 33 42 82 43 76 44
REMARK SMILES IDX 75 45 34 47 64 48 45 49 63 50 46 51 49 52 62 53 80 54 47 55
REMARK SMILES IDX 48 56 61 58 81 59 50 60 35 61 36 62 44 63 37 64 43 65 38 66
REMARK SMILES IDX 39 67 40 68 41 69 42 70 65 71 66 72 74 73 67 74 73 75 68 76
REMARK SMILES IDX 69 77 70 78 71 79 72 80 51 81 52 82 60 83 53 84 59 85 54 86
REMARK SMILES IDX 55 87 56 88 57 89 58 90
REMARK H PARENT 3 15 12 16 79 46 49 57
REMARK Flexibility Score: inf
ROOT
ATOM      1  C   UNL A   1      43.013  21.719  26.087  1.00  0.00     0.275 C 
ENDROOT
BRANCH   1   2
ATOM      2  O   UNL A   1      41.733  21.220  25.660  1.00  0.00    -0.456 OA
BRANCH   2   3
ATOM      3  C   UNL A   1      40.773  21.140  26.630  1.00  0.00     0.374 C 
ATOM      4  O   UNL A   1      40.861  20.451  27.637  1.00  0.00    -0.242 OA
BRANCH   3   5
ATOM      5  C   UNL A   1      39.698  22.059  26.331  1.00  0.00     0.211 A 
ATOM      6  C   UNL A   1      37.648  22.524  25.658  1.00  0.00     0.124 A 
ATOM      7  C   UNL A   1      38.134  23.673  26.243  1.00  0.00     0.048 A 
ATOM      8  O   UNL A   1      38.625  21.573  25.632  1.00  0.00    -0.452 OA
ATOM      9  C   UNL A   1      39.447  23.371  26.686  1.00  0.00     0.058 A 
BRANCH   6  10
ATOM     10  C   UNL A   1      36.294  22.128  25.183  1.00  0.00     0.193 C 
BRANCH  10  11
ATOM     11  N   UNL A   1      35.396  23.257  25.178  1.00  0.00    -0.331 N 
ATOM     12  O   UNL A   1      35.416  23.494  22.918  1.00  0.00    -0.249 OA
ATOM     13  C   UNL A   1      34.985  23.822  24.018  1.00  0.00     0.315 C 
ATOM     14  N   UNL A   1      34.038  24.782  24.106  1.00  0.00    -0.334 N 
ATOM     15  H   UNL A   1      33.939  25.351  23.308  1.00  0.00     0.165 HD
ATOM     16  H   UNL A   1      35.075  23.623  26.034  1.00  0.00     0.165 HD
BRANCH  14  17
ATOM     17  C   UNL A   1      33.149  25.093  25.204  1.00  0.00     0.153 C 
BRANCH  17  18
ATOM     18  C   UNL A   1      31.934  25.856  24.761  1.00  0.00    -0.026 A 
ATOM     19  C   UNL A   1      30.835  25.196  24.186  1.00  0.00     0.006 A 
ATOM     20  C   UNL A   1      31.900  27.252  24.863  1.00  0.00     0.044 A 
ATOM     21  C   UNL A   1      29.734  25.920  23.714  1.00  0.00     0.003 A 
ATOM     22  C   UNL A   1      30.805  27.959  24.381  1.00  0.00     0.123 A 
ATOM     23  C   UNL A   1      29.720  27.309  23.809  1.00  0.00     0.039 A 
ATOM     24  F   UNL A   1      30.816  29.291  24.459  1.00  0.00    -0.207 F 
ENDBRANCH  17  18
ENDBRANCH  14  17
ENDBRANCH  10  11
ENDBRANCH   6  10
ENDBRANCH   3   5
ENDBRANCH   2   3
ENDBRANCH   1   2
BRANCH   1  25
ATOM     25  C   UNL A   1      43.267  23.132  25.545  1.00  0.00     0.275 C 
BRANCH  25  26
ATOM     26  O   UNL A   1      42.992  24.147  26.529  1.00  0.00    -0.458 OA
BRANCH  26  27
ATOM     27  C   UNL A   1      42.659  25.367  26.039  1.00  0.00     0.338 C 
ATOM     28  O   UNL A   1      42.581  25.682  24.863  1.00  0.00    -0.246 OA
BRANCH  27  29
ATOM     29  C   UNL A   1      42.287  26.259  27.152  1.00  0.00     0.060 A 
ATOM     30  C   UNL A   1      42.913  27.505  27.244  1.00  0.00     0.016 A 
ATOM     31  C   UNL A   1      41.365  25.858  28.123  1.00  0.00     0.016 A 
ATOM     32  C   UNL A   1      42.615  28.364  28.300  1.00  0.00     0.010 A 
ATOM     33  C   UNL A   1      41.072  26.717  29.188  1.00  0.00     0.010 A 
ATOM     34  C   UNL A   1      41.698  27.973  29.283  1.00  0.00    -0.014 A 
BRANCH  34  35
ATOM     35  C   UNL A   1      41.415  28.867  30.430  1.00  0.00     0.031 A 
ATOM     36  C   UNL A   1      42.297  28.825  31.643  1.00  0.00     0.074 A 
ATOM     37  C   UNL A   1      40.368  29.712  30.377  1.00  0.00     0.049 A 
ATOM     38  N   UNL A   1      42.174  29.469  32.775  1.00  0.00    -0.248 NA
ATOM     39  C   UNL A   1      43.466  27.934  31.578  1.00  0.00     0.031 C 
ATOM     40  C   UNL A   1      39.471  29.871  29.232  1.00  0.00     0.029 A 
ATOM     41  N   UNL A   1      39.885  30.600  31.307  1.00  0.00    -0.354 N 
ATOM     42  C   UNL A   1      43.229  29.038  33.570  1.00  0.00     0.074 A 
ATOM     43  C   UNL A   1      43.985  28.082  32.789  1.00  0.00     0.031 C 
ATOM     44  C   UNL A   1      38.554  30.808  29.523  1.00  0.00     0.029 A 
ATOM     45  C   UNL A   1      38.778  31.294  30.882  1.00  0.00     0.049 A 
ATOM     46  H   UNL A   1      40.294  30.726  32.193  1.00  0.00     0.167 HD
ATOM     47  C   UNL A   1      43.528  29.399  34.841  1.00  0.00     0.031 A 
ATOM     48  C   UNL A   1      38.026  32.215  31.520  1.00  0.00     0.031 A 
ATOM     49  C   UNL A   1      42.776  30.356  35.607  1.00  0.00     0.049 A 
ATOM     50  C   UNL A   1      38.389  32.606  32.927  1.00  0.00     0.074 A 
ATOM     51  C   UNL A   1      42.989  30.777  36.908  1.00  0.00     0.029 A 
ATOM     52  N   UNL A   1      41.668  31.046  35.139  1.00  0.00    -0.354 N 
ATOM     53  N   UNL A   1      39.386  32.183  33.668  1.00  0.00    -0.248 NA
ATOM     54  C   UNL A   1      37.524  33.593  33.587  1.00  0.00     0.031 C 
ATOM     55  C   UNL A   1      41.991  31.700  37.237  1.00  0.00     0.029 A 
ATOM     56  C   UNL A   1      41.180  31.881  36.128  1.00  0.00     0.049 A 
ATOM     57  H   UNL A   1      41.287  30.957  34.236  1.00  0.00     0.167 HD
ATOM     58  C   UNL A   1      39.271  32.856  34.878  1.00  0.00     0.074 A 
ATOM     59  C   UNL A   1      38.122  33.732  34.763  1.00  0.00     0.031 C 
ATOM     60  C   UNL A   1      40.040  32.750  35.988  1.00  0.00     0.031 A 
BRANCH  47  61
ATOM     61  C   UNL A   1      44.689  28.707  35.499  1.00  0.00    -0.014 A 
ATOM     62  C   UNL A   1      45.971  29.281  35.514  1.00  0.00     0.010 A 
ATOM     63  C   UNL A   1      44.482  27.468  36.133  1.00  0.00     0.010 A 
ATOM     64  C   UNL A   1      47.037  28.610  36.121  1.00  0.00     0.020 A 
ATOM     65  C   UNL A   1      45.541  26.802  36.756  1.00  0.00     0.020 A 
ATOM     66  C   UNL A   1      46.817  27.370  36.729  1.00  0.00     0.054 A 
BRANCH  66  67
ATOM     67  S   UNL A   1      48.210  26.516  37.518  1.00  0.00     0.124 S 
ATOM     68  O   UNL A   1      49.335  27.370  37.147  1.00  0.00    -0.237 OA
ATOM     69  O   UNL A   1      47.847  26.535  38.933  1.00  0.00    -0.237 OA
ATOM     70  O   UNL A   1      48.202  25.193  36.896  1.00  0.00    -0.744 OA
ENDBRANCH  66  67
ENDBRANCH  47  61
BRANCH  48  71
ATOM     71  C   UNL A   1      36.871  32.846  30.825  1.00  0.00    -0.014 A 
ATOM     72  C   UNL A   1      35.569  32.356  31.029  1.00  0.00     0.010 A 
ATOM     73  C   UNL A   1      37.052  33.963  29.989  1.00  0.00     0.010 A 
ATOM     74  C   UNL A   1      34.469  32.981  30.437  1.00  0.00     0.020 A 
ATOM     75  C   UNL A   1      35.952  34.601  29.405  1.00  0.00     0.020 A 
ATOM     76  C   UNL A   1      34.666  34.106  29.633  1.00  0.00     0.054 A 
BRANCH  76  77
ATOM     77  S   UNL A   1      33.220  34.967  28.957  1.00  0.00     0.124 S 
ATOM     78  O   UNL A   1      32.380  35.128  30.140  1.00  0.00    -0.237 OA
ATOM     79  O   UNL A   1      33.800  36.197  28.421  1.00  0.00    -0.237 OA
ATOM     80  O   UNL A   1      32.713  34.041  27.948  1.00  0.00    -0.744 OA
ENDBRANCH  76  77
ENDBRANCH  48  71
BRANCH  60  81
ATOM     81  C   UNL A   1      39.673  33.604  37.170  1.00  0.00    -0.014 A 
ATOM     82  C   UNL A   1      38.902  33.078  38.221  1.00  0.00     0.010 A 
ATOM     83  C   UNL A   1      40.177  34.913  37.270  1.00  0.00     0.010 A 
ATOM     84  C   UNL A   1      38.634  33.852  39.352  1.00  0.00     0.020 A 
ATOM     85  C   UNL A   1      39.924  35.684  38.407  1.00  0.00     0.020 A 
ATOM     86  C   UNL A   1      39.147  35.150  39.440  1.00  0.00     0.054 A 
BRANCH  86  87
ATOM     87  S   UNL A   1      38.852  36.109  40.951  1.00  0.00     0.124 S 
ATOM     88  O   UNL A   1      40.106  35.926  41.677  1.00  0.00    -0.237 OA
ATOM     89  O   UNL A   1      38.613  37.456  40.441  1.00  0.00    -0.237 OA
ATOM     90  O   UNL A   1      37.686  35.461  41.548  1.00  0.00    -0.744 OA
ENDBRANCH  86  87
ENDBRANCH  60  81
ENDBRANCH  34  35
ENDBRANCH  27  29
ENDBRANCH  26  27
ENDBRANCH  25  26
ENDBRANCH   1  25
TORSDOF 18
ENDMDL
