MODEL 1
REMARK VINA RESULT:     -11.3      0.000      0.000
REMARK SMILES NS(=O)(=O)c1ccc(-c2cc(Cl)cc3c2O[C@H](C(F)(F)F)C(C(=O)OCCOC(=O)c2ccc(-c4c5nc(c(-c6ccc(S(=O)(=O)[O-])cc6)c6ccc([nH]6)c(-c6ccc(S(=O)(=O)[O-])cc6)c6nc(c(-c7ccc(S(=O)(=O)[O-])cc7)c7ccc4[nH]7)C=C6)C=C5)cc2)=C3)cc1
REMARK SMILES IDX 26 1 25 2 23 3 24 4 22 5 9 6 10 7 15 8 11 9 14 10 16 11
REMARK SMILES IDX 12 12 13 13 91 14 17 15 8 16 5 17 6 18 93 19 7 20 92 21 2 22
REMARK SMILES IDX 3 23 4 24 1 25 18 28 19 29 20 30 21 31 27 32 28 33 29 34
REMARK SMILES IDX 30 35 31 36 32 37 90 38 33 39 89 40 34 41 35 42 36 43 83 44
REMARK SMILES IDX 37 45 88 46 82 47 84 48 38 49 87 50 81 51 80 52 39 54 69 55
REMARK SMILES IDX 50 56 68 57 51 58 54 59 67 60 85 61 52 62 53 63 66 65 86 66
REMARK SMILES IDX 55 67 40 68 41 69 49 70 42 71 48 72 43 73 44 74 45 75 46 76
REMARK SMILES IDX 47 77 70 78 71 79 79 80 72 81 78 82 73 83 74 84 75 85 76 86
REMARK SMILES IDX 77 87 56 88 57 89 65 90 58 91 64 92 59 93 60 94 61 95 62 96
REMARK SMILES IDX 63 97
REMARK H PARENT 1 26 1 27 84 53 54 64
REMARK Flexibility Score: inf
ROOT
ATOM      1  C   UNL A   1      44.926  23.454  26.021  1.00  0.00     0.275 C 
ENDROOT
BRANCH   1   2
ATOM      2  O   UNL A   1      43.696  22.701  26.030  1.00  0.00    -0.459 OA
BRANCH   2   3
ATOM      3  C   UNL A   1      43.296  22.382  27.288  1.00  0.00     0.338 C 
ATOM      4  O   UNL A   1      43.803  22.818  28.315  1.00  0.00    -0.246 OA
BRANCH   3   5
ATOM      5  C   UNL A   1      42.064  21.562  27.305  1.00  0.00     0.087 C 
ATOM      6  C   UNL A   1      38.471  22.949  25.913  1.00  0.00     0.026 A 
ATOM      7  C   UNL A   1      38.444  24.337  26.182  1.00  0.00     0.033 A 
ATOM      8  C   UNL A   1      39.527  22.248  26.487  1.00  0.00     0.135 A 
ATOM      9  C   UNL A   1      39.307  24.958  27.086  1.00  0.00     0.042 A 
ATOM     10  C   UNL A   1      40.252  22.839  27.547  1.00  0.00     0.019 A 
ATOM     11  O   UNL A   1      39.971  21.019  26.033  1.00  0.00    -0.475 OA
ATOM     12  Cl  UNL A   1      39.316  26.658  27.317  1.00  0.00    -0.084 Cl
ATOM     13  C   UNL A   1      40.166  24.190  27.839  1.00  0.00     0.032 A 
ATOM     14  C   UNL A   1      41.234  22.003  28.264  1.00  0.00     0.027 C 
ATOM     15  C   UNL A   1      41.461  20.960  26.045  1.00  0.00     0.316 C 
BRANCH   6  16
ATOM     16  C   UNL A   1      37.281  22.415  25.212  1.00  0.00    -0.015 A 
ATOM     17  C   UNL A   1      34.601  21.995  24.401  1.00  0.00     0.082 A 
ATOM     18  C   UNL A   1      35.484  22.720  23.591  1.00  0.00     0.022 A 
ATOM     19  C   UNL A   1      35.058  21.409  25.574  1.00  0.00     0.022 A 
ATOM     20  C   UNL A   1      36.825  22.896  23.980  1.00  0.00     0.010 A 
ATOM     21  C   UNL A   1      36.386  21.620  25.968  1.00  0.00     0.010 A 
BRANCH  17  22
ATOM     22  S   UNL A   1      32.893  21.915  23.931  1.00  0.00     0.238 S 
ATOM     23  O   UNL A   1      32.805  22.211  22.527  1.00  0.00    -0.207 OA
ATOM     24  O   UNL A   1      32.128  22.625  24.932  1.00  0.00    -0.207 OA
BRANCH  22  25
ATOM     25  N   UNL A   1      32.454  20.298  24.094  1.00  0.00    -0.225 NA
ATOM     26  H   UNL A   1      32.713  19.789  23.249  1.00  0.00     0.137 HD
ATOM     27  H   UNL A   1      31.446  20.233  24.235  1.00  0.00     0.137 HD
ENDBRANCH  22  25
ENDBRANCH  17  22
ENDBRANCH   6  16
BRANCH  15  28
ATOM     28  C   UNL A   1      41.941  19.509  25.957  1.00  0.00     0.430 C 
ATOM     29  F   UNL A   1      42.443  19.066  27.134  1.00  0.00    -0.167 F 
ATOM     30  F   UNL A   1      40.952  18.666  25.588  1.00  0.00    -0.167 F 
ATOM     31  F   UNL A   1      42.930  19.381  25.033  1.00  0.00    -0.167 F 
ENDBRANCH  15  28
ENDBRANCH   3   5
ENDBRANCH   2   3
ENDBRANCH   1   2
BRANCH   1  32
ATOM     32  C   UNL A   1      44.841  24.700  25.140  1.00  0.00     0.275 C 
BRANCH  32  33
ATOM     33  O   UNL A   1      43.643  25.454  25.418  1.00  0.00    -0.458 OA
BRANCH  33  34
ATOM     34  C   UNL A   1      43.867  26.759  25.712  1.00  0.00     0.338 C 
ATOM     35  O   UNL A   1      44.369  27.580  24.957  1.00  0.00    -0.246 OA
BRANCH  34  36
ATOM     36  C   UNL A   1      43.337  27.129  27.051  1.00  0.00     0.060 A 
ATOM     37  C   UNL A   1      43.241  28.494  27.317  1.00  0.00     0.016 A 
ATOM     38  C   UNL A   1      42.945  26.216  28.039  1.00  0.00     0.016 A 
ATOM     39  C   UNL A   1      42.723  28.935  28.534  1.00  0.00     0.010 A 
ATOM     40  C   UNL A   1      42.427  26.673  29.273  1.00  0.00     0.010 A 
ATOM     41  C   UNL A   1      42.283  28.044  29.528  1.00  0.00    -0.014 A 
BRANCH  41  42
ATOM     42  C   UNL A   1      41.723  28.654  30.782  1.00  0.00     0.031 A 
ATOM     43  C   UNL A   1      42.643  28.840  31.955  1.00  0.00     0.074 A 
ATOM     44  C   UNL A   1      40.511  29.246  30.834  1.00  0.00     0.049 A 
ATOM     45  N   UNL A   1      42.559  29.687  32.946  1.00  0.00    -0.248 NA
ATOM     46  C   UNL A   1      43.824  27.964  31.993  1.00  0.00     0.031 C 
ATOM     47  C   UNL A   1      39.499  29.168  29.796  1.00  0.00     0.029 A 
ATOM     48  N   UNL A   1      39.966  30.129  31.747  1.00  0.00    -0.354 N 
ATOM     49  C   UNL A   1      43.697  29.478  33.711  1.00  0.00     0.074 A 
ATOM     50  C   UNL A   1      44.451  28.420  33.067  1.00  0.00     0.031 C 
ATOM     51  C   UNL A   1      38.566  30.110  30.003  1.00  0.00     0.029 A 
ATOM     52  C   UNL A   1      38.841  30.779  31.269  1.00  0.00     0.049 A 
ATOM     53  H   UNL A   1      40.339  30.280  32.645  1.00  0.00     0.167 HD
ATOM     54  C   UNL A   1      44.069  30.079  34.866  1.00  0.00     0.031 A 
ATOM     55  C   UNL A   1      38.123  31.807  31.771  1.00  0.00     0.031 A 
ATOM     56  C   UNL A   1      43.268  31.021  35.598  1.00  0.00     0.049 A 
ATOM     57  C   UNL A   1      38.462  32.348  33.132  1.00  0.00     0.074 A 
ATOM     58  C   UNL A   1      43.515  31.579  36.841  1.00  0.00     0.029 A 
ATOM     59  N   UNL A   1      42.051  31.530  35.169  1.00  0.00    -0.354 N 
ATOM     60  N   UNL A   1      39.529  32.134  33.856  1.00  0.00    -0.248 NA
ATOM     61  C   UNL A   1      37.501  33.279  33.743  1.00  0.00     0.031 C 
ATOM     62  C   UNL A   1      42.407  32.355  37.200  1.00  0.00     0.029 A 
ATOM     63  C   UNL A   1      41.506  32.349  36.147  1.00  0.00     0.049 A 
ATOM     64  H   UNL A   1      41.635  31.339  34.297  1.00  0.00     0.167 HD
ATOM     65  C   UNL A   1      39.392  32.920  34.993  1.00  0.00     0.074 A 
ATOM     66  C   UNL A   1      38.132  33.623  34.859  1.00  0.00     0.031 C 
ATOM     67  C   UNL A   1      40.258  33.064  36.027  1.00  0.00     0.031 A 
BRANCH  54  68
ATOM     68  C   UNL A   1      45.360  29.598  35.463  1.00  0.00    -0.014 A 
ATOM     69  C   UNL A   1      46.593  30.154  35.080  1.00  0.00     0.010 A 
ATOM     70  C   UNL A   1      45.335  28.511  36.353  1.00  0.00     0.010 A 
ATOM     71  C   UNL A   1      47.787  29.582  35.527  1.00  0.00     0.020 A 
ATOM     72  C   UNL A   1      46.525  27.950  36.817  1.00  0.00     0.020 A 
ATOM     73  C   UNL A   1      47.744  28.469  36.375  1.00  0.00     0.054 A 
BRANCH  73  74
ATOM     74  S   UNL A   1      49.301  27.690  36.876  1.00  0.00     0.124 S 
ATOM     75  O   UNL A   1      48.847  26.375  37.322  1.00  0.00    -0.237 OA
ATOM     76  O   UNL A   1      50.080  27.701  35.641  1.00  0.00    -0.237 OA
ATOM     77  O   UNL A   1      49.802  28.566  37.932  1.00  0.00    -0.744 OA
ENDBRANCH  73  74
ENDBRANCH  54  68
BRANCH  55  78
ATOM     78  C   UNL A   1      37.044  32.460  30.967  1.00  0.00    -0.014 A 
ATOM     79  C   UNL A   1      35.698  32.120  31.211  1.00  0.00     0.010 A 
ATOM     80  C   UNL A   1      37.329  33.408  29.970  1.00  0.00     0.010 A 
ATOM     81  C   UNL A   1      34.664  32.714  30.482  1.00  0.00     0.020 A 
ATOM     82  C   UNL A   1      36.295  34.029  29.260  1.00  0.00     0.020 A 
ATOM     83  C   UNL A   1      34.968  33.672  29.515  1.00  0.00     0.054 A 
BRANCH  83  84
ATOM     84  S   UNL A   1      33.608  34.495  28.638  1.00  0.00     0.124 S 
ATOM     85  O   UNL A   1      32.709  34.842  29.733  1.00  0.00    -0.237 OA
ATOM     86  O   UNL A   1      34.283  35.616  27.991  1.00  0.00    -0.237 OA
ATOM     87  O   UNL A   1      33.120  33.462  27.727  1.00  0.00    -0.744 OA
ENDBRANCH  83  84
ENDBRANCH  55  78
BRANCH  67  88
ATOM     88  C   UNL A   1      39.937  34.092  37.081  1.00  0.00    -0.014 A 
ATOM     89  C   UNL A   1      39.302  33.763  38.291  1.00  0.00     0.010 A 
ATOM     90  C   UNL A   1      40.347  35.422  36.866  1.00  0.00     0.010 A 
ATOM     91  C   UNL A   1      39.057  34.752  39.252  1.00  0.00     0.020 A 
ATOM     92  C   UNL A   1      40.129  36.405  37.832  1.00  0.00     0.020 A 
ATOM     93  C   UNL A   1      39.469  36.068  39.015  1.00  0.00     0.054 A 
BRANCH  93  94
ATOM     94  S   UNL A   1      39.189  37.329  40.289  1.00  0.00     0.124 S 
ATOM     95  O   UNL A   1      38.464  36.574  41.307  1.00  0.00    -0.237 OA
ATOM     96  O   UNL A   1      40.545  37.732  40.652  1.00  0.00    -0.237 OA
ATOM     97  O   UNL A   1      38.408  38.351  39.595  1.00  0.00    -0.744 OA
ENDBRANCH  93  94
ENDBRANCH  67  88
ENDBRANCH  41  42
ENDBRANCH  34  36
ENDBRANCH  33  34
ENDBRANCH  32  33
ENDBRANCH   1  32
TORSDOF 18
ENDMDL
MODEL 2
REMARK VINA RESULT:     -11.3      4.125      9.638
REMARK SMILES NS(=O)(=O)c1ccc(-c2cc(Cl)cc3c2O[C@H](C(F)(F)F)C(C(=O)OCCOC(=O)c2ccc(-c4c5nc(c(-c6ccc(S(=O)(=O)[O-])cc6)c6ccc([nH]6)c(-c6ccc(S(=O)(=O)[O-])cc6)c6nc(c(-c7ccc(S(=O)(=O)[O-])cc7)c7ccc4[nH]7)C=C6)C=C5)cc2)=C3)cc1
REMARK SMILES IDX 26 1 25 2 23 3 24 4 22 5 9 6 10 7 15 8 11 9 14 10 16 11
REMARK SMILES IDX 12 12 13 13 91 14 17 15 8 16 5 17 6 18 93 19 7 20 92 21 2 22
REMARK SMILES IDX 3 23 4 24 1 25 18 28 19 29 20 30 21 31 27 32 28 33 29 34
REMARK SMILES IDX 30 35 31 36 32 37 90 38 33 39 89 40 34 41 35 42 36 43 83 44
REMARK SMILES IDX 37 45 88 46 82 47 84 48 38 49 87 50 81 51 80 52 39 54 69 55
REMARK SMILES IDX 50 56 68 57 51 58 54 59 67 60 85 61 52 62 53 63 66 65 86 66
REMARK SMILES IDX 55 67 40 68 41 69 49 70 42 71 48 72 43 73 44 74 45 75 46 76
REMARK SMILES IDX 47 77 70 78 71 79 79 80 72 81 78 82 73 83 74 84 75 85 76 86
REMARK SMILES IDX 77 87 56 88 57 89 65 90 58 91 64 92 59 93 60 94 61 95 62 96
REMARK SMILES IDX 63 97
REMARK H PARENT 1 26 1 27 84 53 54 64
REMARK Flexibility Score: inf
ROOT
ATOM      1  C   UNL A   1      35.975  22.803  23.959  1.00  0.00     0.275 C 
ENDROOT
BRANCH   1   2
ATOM      2  O   UNL A   1      34.882  22.100  24.586  1.00  0.00    -0.459 OA
BRANCH   2   3
ATOM      3  C   UNL A   1      34.284  22.836  25.557  1.00  0.00     0.338 C 
ATOM      4  O   UNL A   1      34.837  23.230  26.577  1.00  0.00    -0.246 OA
BRANCH   3   5
ATOM      5  C   UNL A   1      32.916  23.264  25.189  1.00  0.00     0.087 C 
ATOM      6  C   UNL A   1      31.997  27.138  24.228  1.00  0.00     0.026 A 
ATOM      7  C   UNL A   1      32.849  27.957  25.005  1.00  0.00     0.033 A 
ATOM      8  C   UNL A   1      32.012  25.784  24.550  1.00  0.00     0.135 A 
ATOM      9  C   UNL A   1      33.541  27.497  26.125  1.00  0.00     0.042 A 
ATOM     10  C   UNL A   1      32.543  25.377  25.796  1.00  0.00     0.019 A 
ATOM     11  O   UNL A   1      31.601  24.784  23.688  1.00  0.00    -0.475 OA
ATOM     12  Cl  UNL A   1      34.642  28.488  26.989  1.00  0.00    -0.084 Cl
ATOM     13  C   UNL A   1      33.323  26.214  26.577  1.00  0.00     0.032 A 
ATOM     14  C   UNL A   1      32.370  23.967  26.194  1.00  0.00     0.027 C 
ATOM     15  C   UNL A   1      32.521  23.613  23.761  1.00  0.00     0.316 C 
BRANCH   6  16
ATOM     16  C   UNL A   1      31.087  27.859  23.309  1.00  0.00    -0.015 A 
ATOM     17  C   UNL A   1      29.203  29.715  22.298  1.00  0.00     0.082 A 
ATOM     18  C   UNL A   1      30.566  29.851  22.002  1.00  0.00     0.022 A 
ATOM     19  C   UNL A   1      28.758  28.619  23.026  1.00  0.00     0.022 A 
ATOM     20  C   UNL A   1      31.495  28.907  22.477  1.00  0.00     0.010 A 
ATOM     21  C   UNL A   1      29.696  27.704  23.522  1.00  0.00     0.010 A 
BRANCH  17  22
ATOM     22  S   UNL A   1      28.094  31.001  21.789  1.00  0.00     0.238 S 
ATOM     23  O   UNL A   1      27.149  31.217  22.851  1.00  0.00    -0.207 OA
ATOM     24  O   UNL A   1      27.695  30.725  20.427  1.00  0.00    -0.207 OA
BRANCH  22  25
ATOM     25  N   UNL A   1      29.029  32.399  21.708  1.00  0.00    -0.225 NA
ATOM     26  H   UNL A   1      28.442  33.184  21.424  1.00  0.00     0.137 HD
ATOM     27  H   UNL A   1      29.776  32.269  21.026  1.00  0.00     0.137 HD
ENDBRANCH  22  25
ENDBRANCH  17  22
ENDBRANCH   6  16
BRANCH  15  28
ATOM     28  C   UNL A   1      31.861  22.373  23.153  1.00  0.00     0.430 C 
ATOM     29  F   UNL A   1      30.616  22.634  22.689  1.00  0.00    -0.167 F 
ATOM     30  F   UNL A   1      32.582  21.860  22.132  1.00  0.00    -0.167 F 
ATOM     31  F   UNL A   1      31.738  21.386  24.080  1.00  0.00    -0.167 F 
ENDBRANCH  15  28
ENDBRANCH   3   5
ENDBRANCH   2   3
ENDBRANCH   1   2
BRANCH   1  32
ATOM     32  C   UNL A   1      37.318  22.505  24.625  1.00  0.00     0.275 C 
BRANCH  32  33
ATOM     33  O   UNL A   1      37.805  23.649  25.353  1.00  0.00    -0.458 OA
BRANCH  33  34
ATOM     34  C   UNL A   1      38.865  23.383  26.156  1.00  0.00     0.338 C 
ATOM     35  O   UNL A   1      39.399  22.291  26.287  1.00  0.00    -0.246 OA
BRANCH  34  36
ATOM     36  C   UNL A   1      39.394  24.610  26.810  1.00  0.00     0.060 A 
ATOM     37  C   UNL A   1      38.943  24.858  28.105  1.00  0.00     0.016 A 
ATOM     38  C   UNL A   1      40.288  25.513  26.218  1.00  0.00     0.016 A 
ATOM     39  C   UNL A   1      39.411  25.966  28.809  1.00  0.00     0.010 A 
ATOM     40  C   UNL A   1      40.751  26.638  26.938  1.00  0.00     0.010 A 
ATOM     41  C   UNL A   1      40.339  26.867  28.258  1.00  0.00    -0.014 A 
BRANCH  41  42
ATOM     42  C   UNL A   1      40.778  28.006  29.135  1.00  0.00     0.031 A 
ATOM     43  C   UNL A   1      39.819  29.138  29.364  1.00  0.00     0.074 A 
ATOM     44  C   UNL A   1      41.888  27.956  29.902  1.00  0.00     0.049 A 
ATOM     45  N   UNL A   1      39.758  29.982  30.359  1.00  0.00    -0.248 NA
ATOM     46  C   UNL A   1      38.781  29.321  28.339  1.00  0.00     0.031 C 
ATOM     47  C   UNL A   1      42.919  26.939  29.813  1.00  0.00     0.029 A 
ATOM     48  N   UNL A   1      42.278  28.715  30.990  1.00  0.00    -0.354 N 
ATOM     49  C   UNL A   1      38.649  30.777  30.106  1.00  0.00     0.074 A 
ATOM     50  C   UNL A   1      38.073  30.312  28.859  1.00  0.00     0.031 C 
ATOM     51  C   UNL A   1      43.698  26.989  30.905  1.00  0.00     0.029 A 
ATOM     52  C   UNL A   1      43.303  28.134  31.717  1.00  0.00     0.049 A 
ATOM     53  H   UNL A   1      41.870  29.579  31.223  1.00  0.00     0.167 HD
ATOM     54  C   UNL A   1      38.170  31.823  30.819  1.00  0.00     0.031 A 
ATOM     55  C   UNL A   1      43.851  28.462  32.907  1.00  0.00     0.031 A 
ATOM     56  C   UNL A   1      38.809  32.392  31.974  1.00  0.00     0.049 A 
ATOM     57  C   UNL A   1      43.410  29.722  33.599  1.00  0.00     0.074 A 
ATOM     58  C   UNL A   1      38.458  33.531  32.678  1.00  0.00     0.029 A 
ATOM     59  N   UNL A   1      39.944  31.881  32.585  1.00  0.00    -0.354 N 
ATOM     60  N   UNL A   1      42.373  30.476  33.345  1.00  0.00    -0.248 NA
ATOM     61  C   UNL A   1      44.210  30.173  34.748  1.00  0.00     0.031 C 
ATOM     62  C   UNL A   1      39.432  33.757  33.658  1.00  0.00     0.029 A 
ATOM     63  C   UNL A   1      40.343  32.714  33.620  1.00  0.00     0.049 A 
ATOM     64  H   UNL A   1      40.400  31.049  32.323  1.00  0.00     0.167 HD
ATOM     65  C   UNL A   1      42.371  31.474  34.312  1.00  0.00     0.074 A 
ATOM     66  C   UNL A   1      43.514  31.223  35.166  1.00  0.00     0.031 C 
ATOM     67  C   UNL A   1      41.474  32.476  34.486  1.00  0.00     0.031 A 
BRANCH  54  68
ATOM     68  C   UNL A   1      36.954  32.495  30.251  1.00  0.00    -0.014 A 
ATOM     69  C   UNL A   1      37.064  33.492  29.266  1.00  0.00     0.010 A 
ATOM     70  C   UNL A   1      35.691  32.179  30.780  1.00  0.00     0.010 A 
ATOM     71  C   UNL A   1      35.934  34.213  28.871  1.00  0.00     0.020 A 
ATOM     72  C   UNL A   1      34.558  32.884  30.374  1.00  0.00     0.020 A 
ATOM     73  C   UNL A   1      34.692  33.918  29.445  1.00  0.00     0.054 A 
BRANCH  73  74
ATOM     74  S   UNL A   1      33.254  34.919  28.982  1.00  0.00     0.124 S 
ATOM     75  O   UNL A   1      32.552  35.039  30.258  1.00  0.00    -0.237 OA
ATOM     76  O   UNL A   1      33.864  36.148  28.482  1.00  0.00    -0.237 OA
ATOM     77  O   UNL A   1      32.578  34.107  27.974  1.00  0.00    -0.744 OA
ENDBRANCH  73  74
ENDBRANCH  54  68
BRANCH  55  78
ATOM     78  C   UNL A   1      44.836  27.560  33.579  1.00  0.00    -0.014 A 
ATOM     79  C   UNL A   1      46.208  27.688  33.280  1.00  0.00     0.010 A 
ATOM     80  C   UNL A   1      44.437  26.581  34.504  1.00  0.00     0.010 A 
ATOM     81  C   UNL A   1      47.156  26.864  33.893  1.00  0.00     0.020 A 
ATOM     82  C   UNL A   1      45.386  25.776  35.145  1.00  0.00     0.020 A 
ATOM     83  C   UNL A   1      46.741  25.917  34.829  1.00  0.00     0.054 A 
BRANCH  83  84
ATOM     84  S   UNL A   1      47.994  24.916  35.677  1.00  0.00     0.124 S 
ATOM     85  O   UNL A   1      47.392  24.730  36.993  1.00  0.00    -0.237 OA
ATOM     86  O   UNL A   1      48.065  23.723  34.837  1.00  0.00    -0.237 OA
ATOM     87  O   UNL A   1      49.184  25.763  35.643  1.00  0.00    -0.744 OA
ENDBRANCH  83  84
ENDBRANCH  55  78
BRANCH  67  88
ATOM     88  C   UNL A   1      41.619  33.352  35.704  1.00  0.00    -0.014 A 
ATOM     89  C   UNL A   1      41.108  32.990  36.962  1.00  0.00     0.010 A 
ATOM     90  C   UNL A   1      42.349  34.550  35.583  1.00  0.00     0.010 A 
ATOM     91  C   UNL A   1      41.300  33.825  38.070  1.00  0.00     0.020 A 
ATOM     92  C   UNL A   1      42.565  35.373  36.689  1.00  0.00     0.020 A 
ATOM     93  C   UNL A   1      42.025  35.013  37.925  1.00  0.00     0.054 A 
BRANCH  93  94
ATOM     94  S   UNL A   1      42.307  36.062  39.379  1.00  0.00     0.124 S 
ATOM     95  O   UNL A   1      41.891  35.186  40.469  1.00  0.00    -0.237 OA
ATOM     96  O   UNL A   1      43.740  36.340  39.306  1.00  0.00    -0.237 OA
ATOM     97  O   UNL A   1      41.444  37.217  39.143  1.00  0.00    -0.744 OA
ENDBRANCH  93  94
ENDBRANCH  67  88
ENDBRANCH  41  42
ENDBRANCH  34  36
ENDBRANCH  33  34
ENDBRANCH  32  33
ENDBRANCH   1  32
TORSDOF 18
ENDMDL
MODEL 3
REMARK VINA RESULT:     -11.1      3.193     10.008
REMARK SMILES NS(=O)(=O)c1ccc(-c2cc(Cl)cc3c2O[C@H](C(F)(F)F)C(C(=O)OCCOC(=O)c2ccc(-c4c5nc(c(-c6ccc(S(=O)(=O)[O-])cc6)c6ccc([nH]6)c(-c6ccc(S(=O)(=O)[O-])cc6)c6nc(c(-c7ccc(S(=O)(=O)[O-])cc7)c7ccc4[nH]7)C=C6)C=C5)cc2)=C3)cc1
REMARK SMILES IDX 26 1 25 2 23 3 24 4 22 5 9 6 10 7 15 8 11 9 14 10 16 11
REMARK SMILES IDX 12 12 13 13 91 14 17 15 8 16 5 17 6 18 93 19 7 20 92 21 2 22
REMARK SMILES IDX 3 23 4 24 1 25 18 28 19 29 20 30 21 31 27 32 28 33 29 34
REMARK SMILES IDX 30 35 31 36 32 37 90 38 33 39 89 40 34 41 35 42 36 43 83 44
REMARK SMILES IDX 37 45 88 46 82 47 84 48 38 49 87 50 81 51 80 52 39 54 69 55
REMARK SMILES IDX 50 56 68 57 51 58 54 59 67 60 85 61 52 62 53 63 66 65 86 66
REMARK SMILES IDX 55 67 40 68 41 69 49 70 42 71 48 72 43 73 44 74 45 75 46 76
REMARK SMILES IDX 47 77 70 78 71 79 79 80 72 81 78 82 73 83 74 84 75 85 76 86
REMARK SMILES IDX 77 87 56 88 57 89 65 90 58 91 64 92 59 93 60 94 61 95 62 96
REMARK SMILES IDX 63 97
REMARK H PARENT 1 26 1 27 84 53 54 64
REMARK Flexibility Score: inf
ROOT
ATOM      1  C   UNL A   1      41.079  21.029  26.723  1.00  0.00     0.275 C 
ENDROOT
BRANCH   1   2
ATOM      2  O   UNL A   1      42.200  21.049  25.816  1.00  0.00    -0.459 OA
BRANCH   2   3
ATOM      3  C   UNL A   1      43.188  21.880  26.236  1.00  0.00     0.338 C 
ATOM      4  O   UNL A   1      43.312  22.297  27.382  1.00  0.00    -0.246 OA
BRANCH   3   5
ATOM      5  C   UNL A   1      44.216  22.116  25.197  1.00  0.00     0.087 C 
ATOM      6  C   UNL A   1      46.789  25.299  25.322  1.00  0.00     0.026 A 
ATOM      7  C   UNL A   1      46.081  26.365  25.924  1.00  0.00     0.033 A 
ATOM      8  C   UNL A   1      46.028  24.178  25.005  1.00  0.00     0.135 A 
ATOM      9  C   UNL A   1      44.693  26.385  26.053  1.00  0.00     0.042 A 
ATOM     10  C   UNL A   1      44.620  24.295  24.947  1.00  0.00     0.019 A 
ATOM     11  O   UNL A   1      46.561  22.917  24.809  1.00  0.00    -0.475 OA
ATOM     12  Cl  UNL A   1      43.870  27.646  26.875  1.00  0.00    -0.084 Cl
ATOM     13  C   UNL A   1      43.945  25.378  25.485  1.00  0.00     0.032 A 
ATOM     14  C   UNL A   1      43.853  23.150  24.421  1.00  0.00     0.027 C 
ATOM     15  C   UNL A   1      45.698  21.877  25.439  1.00  0.00     0.316 C 
BRANCH   6  16
ATOM     16  C   UNL A   1      48.194  25.595  24.957  1.00  0.00    -0.015 A 
ATOM     17  C   UNL A   1      50.577  27.001  24.357  1.00  0.00     0.082 A 
ATOM     18  C   UNL A   1      50.412  26.379  25.601  1.00  0.00     0.022 A 
ATOM     19  C   UNL A   1      49.601  26.864  23.378  1.00  0.00     0.022 A 
ATOM     20  C   UNL A   1      49.241  25.651  25.883  1.00  0.00     0.010 A 
ATOM     21  C   UNL A   1      48.425  26.166  23.682  1.00  0.00     0.010 A 
BRANCH  17  22
ATOM     22  S   UNL A   1      52.008  28.015  24.100  1.00  0.00     0.238 S 
ATOM     23  O   UNL A   1      52.880  27.330  23.185  1.00  0.00    -0.207 OA
ATOM     24  O   UNL A   1      52.446  28.493  25.393  1.00  0.00    -0.207 OA
BRANCH  22  25
ATOM     25  N   UNL A   1      51.456  29.380  23.283  1.00  0.00    -0.225 NA
ATOM     26  H   UNL A   1      51.482  30.185  23.909  1.00  0.00     0.137 HD
ATOM     27  H   UNL A   1      50.498  29.224  22.969  1.00  0.00     0.137 HD
ENDBRANCH  22  25
ENDBRANCH  17  22
ENDBRANCH   6  16
BRANCH  15  28
ATOM     28  C   UNL A   1      46.035  20.491  24.883  1.00  0.00     0.430 C 
ATOM     29  F   UNL A   1      45.083  20.039  24.033  1.00  0.00    -0.167 F 
ATOM     30  F   UNL A   1      47.215  20.479  24.225  1.00  0.00    -0.167 F 
ATOM     31  F   UNL A   1      46.136  19.578  25.885  1.00  0.00    -0.167 F 
ENDBRANCH  15  28
ENDBRANCH   3   5
ENDBRANCH   2   3
ENDBRANCH   1   2
BRANCH   1  32
ATOM     32  C   UNL A   1      40.013  22.060  26.355  1.00  0.00     0.275 C 
BRANCH  32  33
ATOM     33  O   UNL A   1      39.977  23.138  27.312  1.00  0.00    -0.458 OA
BRANCH  33  34
ATOM     34  C   UNL A   1      39.317  24.241  26.878  1.00  0.00     0.338 C 
ATOM     35  O   UNL A   1      38.482  24.261  25.985  1.00  0.00    -0.246 OA
BRANCH  34  36
ATOM     36  C   UNL A   1      39.647  25.444  27.686  1.00  0.00     0.060 A 
ATOM     37  C   UNL A   1      38.982  25.567  28.905  1.00  0.00     0.016 A 
ATOM     38  C   UNL A   1      40.556  26.441  27.306  1.00  0.00     0.016 A 
ATOM     39  C   UNL A   1      39.254  26.645  29.746  1.00  0.00     0.010 A 
ATOM     40  C   UNL A   1      40.820  27.535  28.163  1.00  0.00     0.010 A 
ATOM     41  C   UNL A   1      40.190  27.639  29.410  1.00  0.00    -0.014 A 
BRANCH  41  42
ATOM     42  C   UNL A   1      40.404  28.732  30.419  1.00  0.00     0.031 A 
ATOM     43  C   UNL A   1      39.398  29.845  30.486  1.00  0.00     0.074 A 
ATOM     44  C   UNL A   1      41.319  28.650  31.409  1.00  0.00     0.049 A 
ATOM     45  N   UNL A   1      39.103  30.634  31.484  1.00  0.00    -0.248 NA
ATOM     46  C   UNL A   1      38.608  30.074  29.267  1.00  0.00     0.031 C 
ATOM     47  C   UNL A   1      42.363  27.646  31.500  1.00  0.00     0.029 A 
ATOM     48  N   UNL A   1      41.446  29.353  32.593  1.00  0.00    -0.354 N 
ATOM     49  C   UNL A   1      38.063  31.433  31.033  1.00  0.00     0.074 A 
ATOM     50  C   UNL A   1      37.785  31.031  29.667  1.00  0.00     0.031 C 
ATOM     51  C   UNL A   1      42.881  27.644  32.738  1.00  0.00     0.029 A 
ATOM     52  C   UNL A   1      42.295  28.742  33.498  1.00  0.00     0.049 A 
ATOM     53  H   UNL A   1      40.980  30.201  32.772  1.00  0.00     0.167 HD
ATOM     54  C   UNL A   1      37.420  32.438  31.673  1.00  0.00     0.031 A 
ATOM     55  C   UNL A   1      42.561  29.011  34.795  1.00  0.00     0.031 A 
ATOM     56  C   UNL A   1      37.777  32.949  32.968  1.00  0.00     0.049 A 
ATOM     57  C   UNL A   1      41.955  30.229  35.434  1.00  0.00     0.074 A 
ATOM     58  C   UNL A   1      37.259  34.047  33.632  1.00  0.00     0.029 A 
ATOM     59  N   UNL A   1      38.759  32.415  33.788  1.00  0.00    -0.354 N 
ATOM     60  N   UNL A   1      40.986  30.989  34.995  1.00  0.00    -0.248 NA
ATOM     61  C   UNL A   1      42.474  30.624  36.753  1.00  0.00     0.031 C 
ATOM     62  C   UNL A   1      37.988  34.228  34.813  1.00  0.00     0.029 A 
ATOM     63  C   UNL A   1      38.905  33.195  34.926  1.00  0.00     0.049 A 
ATOM     64  H   UNL A   1      39.277  31.601  33.592  1.00  0.00     0.167 HD
ATOM     65  C   UNL A   1      40.753  31.934  35.987  1.00  0.00     0.074 A 
ATOM     66  C   UNL A   1      41.684  31.646  37.058  1.00  0.00     0.031 C 
ATOM     67  C   UNL A   1      39.821  32.919  36.008  1.00  0.00     0.031 A 
BRANCH  54  68
ATOM     68  C   UNL A   1      36.347  33.130  30.884  1.00  0.00    -0.014 A 
ATOM     69  C   UNL A   1      36.662  33.961  29.794  1.00  0.00     0.010 A 
ATOM     70  C   UNL A   1      35.010  33.012  31.302  1.00  0.00     0.010 A 
ATOM     71  C   UNL A   1      35.662  34.719  29.180  1.00  0.00     0.020 A 
ATOM     72  C   UNL A   1      34.006  33.752  30.678  1.00  0.00     0.020 A 
ATOM     73  C   UNL A   1      34.344  34.625  29.641  1.00  0.00     0.054 A 
BRANCH  73  74
ATOM     74  S   UNL A   1      33.076  35.678  28.887  1.00  0.00     0.124 S 
ATOM     75  O   UNL A   1      33.890  36.688  28.215  1.00  0.00    -0.237 OA
ATOM     76  O   UNL A   1      32.369  34.752  28.007  1.00  0.00    -0.237 OA
ATOM     77  O   UNL A   1      32.304  36.161  30.029  1.00  0.00    -0.744 OA
ENDBRANCH  73  74
ENDBRANCH  54  68
BRANCH  55  78
ATOM     78  C   UNL A   1      43.391  28.081  35.622  1.00  0.00    -0.014 A 
ATOM     79  C   UNL A   1      42.762  27.039  36.332  1.00  0.00     0.010 A 
ATOM     80  C   UNL A   1      44.786  28.214  35.715  1.00  0.00     0.010 A 
ATOM     81  C   UNL A   1      43.508  26.149  37.111  1.00  0.00     0.020 A 
ATOM     82  C   UNL A   1      45.540  27.306  36.468  1.00  0.00     0.020 A 
ATOM     83  C   UNL A   1      44.895  26.282  37.168  1.00  0.00     0.054 A 
BRANCH  83  84
ATOM     84  S   UNL A   1      45.854  25.067  38.115  1.00  0.00     0.124 S 
ATOM     85  O   UNL A   1      47.224  25.411  37.749  1.00  0.00    -0.237 OA
ATOM     86  O   UNL A   1      45.470  25.367  39.492  1.00  0.00    -0.237 OA
ATOM     87  O   UNL A   1      45.371  23.785  37.607  1.00  0.00    -0.744 OA
ENDBRANCH  83  84
ENDBRANCH  55  78
BRANCH  67  88
ATOM     88  C   UNL A   1      39.678  33.730  37.269  1.00  0.00    -0.014 A 
ATOM     89  C   UNL A   1      40.334  34.959  37.459  1.00  0.00     0.010 A 
ATOM     90  C   UNL A   1      38.802  33.264  38.269  1.00  0.00     0.010 A 
ATOM     91  C   UNL A   1      40.140  35.689  38.638  1.00  0.00     0.020 A 
ATOM     92  C   UNL A   1      38.585  34.002  39.434  1.00  0.00     0.020 A 
ATOM     93  C   UNL A   1      39.268  35.204  39.619  1.00  0.00     0.054 A 
BRANCH  93  94
ATOM     94  S   UNL A   1      38.989  36.185  41.120  1.00  0.00     0.124 S 
ATOM     95  O   UNL A   1      37.816  35.533  41.693  1.00  0.00    -0.237 OA
ATOM     96  O   UNL A   1      40.235  36.006  41.862  1.00  0.00    -0.237 OA
ATOM     97  O   UNL A   1      38.765  37.537  40.611  1.00  0.00    -0.744 OA
ENDBRANCH  93  94
ENDBRANCH  67  88
ENDBRANCH  41  42
ENDBRANCH  34  36
ENDBRANCH  33  34
ENDBRANCH  32  33
ENDBRANCH   1  32
TORSDOF 18
ENDMDL
