MODEL 1
REMARK VINA RESULT:     -12.2      0.000      0.000
REMARK SMILES Cc1ccc(Nc2c(F)cccc2I)c(CC(=O)OCCOC(=O)c2ccc(-c3c4nc(c(-c5ccc(S(=O)(=O)[O-])cc5)c5ccc([nH]5)c(-c5ccc(S(=O)(=O)[O-])cc5)c5nc(c(-c6ccc(S(=O)(=O)[O-])cc6)c6ccc3[nH]6)C=C5)C=C4)cc2)c1
REMARK SMILES IDX 20 1 19 2 17 3 18 4 16 5 15 6 1 7 2 8 3 9 85 10 4 11 5 12
REMARK SMILES IDX 6 13 7 15 8 16 13 17 9 18 10 19 12 20 14 21 11 22 21 23
REMARK SMILES IDX 22 24 23 25 24 26 25 27 26 28 84 29 27 30 83 31 28 32 29 33
REMARK SMILES IDX 30 34 77 35 31 36 82 37 76 38 78 39 32 40 81 41 75 42 74 43
REMARK SMILES IDX 33 45 63 46 44 47 62 48 45 49 48 50 61 51 79 52 46 53 47 54
REMARK SMILES IDX 60 56 80 57 49 58 34 59 35 60 43 61 36 62 42 63 37 64 38 65
REMARK SMILES IDX 39 66 40 67 41 68 64 69 65 70 73 71 66 72 72 73 67 74 68 75
REMARK SMILES IDX 69 76 70 77 71 78 50 79 51 80 59 81 52 82 58 83 53 84 54 85
REMARK SMILES IDX 55 86 56 87 57 88
REMARK H PARENT 6 14 78 44 48 55
REMARK Flexibility Score: inf
ROOT
ATOM      1  C   UNL A   1      34.303  29.326  27.510  1.00  0.00     0.274 C 
ENDROOT
BRANCH   1   2
ATOM      2  O   UNL A   1      32.895  29.365  27.281  1.00  0.00    -0.462 OA
BRANCH   2   3
ATOM      3  C   UNL A   1      32.275  28.153  27.331  1.00  0.00     0.310 C 
ATOM      4  O   UNL A   1      31.382  27.874  28.082  1.00  0.00    -0.252 OA
BRANCH   3   5
ATOM      5  C   UNL A   1      32.922  27.256  26.284  1.00  0.00     0.160 C 
BRANCH   5   6
ATOM      6  C   UNL A   1      31.909  26.812  25.263  1.00  0.00    -0.013 A 
ATOM      7  C   UNL A   1      29.415  28.703  23.140  1.00  0.00     0.044 C 
ATOM      8  C   UNL A   1      30.165  27.563  23.756  1.00  0.00    -0.051 A 
ATOM      9  C   UNL A   1      29.696  26.249  23.685  1.00  0.00     0.005 A 
ATOM     10  C   UNL A   1      31.282  27.833  24.536  1.00  0.00     0.009 A 
ATOM     11  C   UNL A   1      30.357  25.214  24.357  1.00  0.00     0.026 A 
ATOM     12  C   UNL A   1      31.484  25.464  25.142  1.00  0.00     0.042 A 
BRANCH  12  13
ATOM     13  N   UNL A   1      32.055  24.448  25.932  1.00  0.00    -0.352 N 
ATOM     14  H   UNL A   1      32.161  24.695  26.878  1.00  0.00     0.167 HD
BRANCH  13  15
ATOM     15  C   UNL A   1      32.508  23.136  25.626  1.00  0.00     0.088 A 
ATOM     16  C   UNL A   1      31.603  22.063  25.599  1.00  0.00     0.147 A 
ATOM     17  C   UNL A   1      33.753  22.934  24.998  1.00  0.00     0.040 A 
ATOM     18  F   UNL A   1      30.400  22.179  26.184  1.00  0.00    -0.205 F 
ATOM     19  C   UNL A   1      31.901  20.863  24.950  1.00  0.00     0.041 A 
ATOM     20  C   UNL A   1      34.033  21.757  24.287  1.00  0.00     0.017 A 
ATOM     21  I   UNL A   1      35.347  24.282  25.254  1.00  0.00    -0.042 I 
ATOM     22  C   UNL A   1      33.101  20.724  24.258  1.00  0.00     0.004 A 
ENDBRANCH  13  15
ENDBRANCH  12  13
ENDBRANCH   5   6
ENDBRANCH   3   5
ENDBRANCH   2   3
ENDBRANCH   1   2
BRANCH   1  23
ATOM     23  C   UNL A   1      34.866  30.736  27.804  1.00  0.00     0.275 C 
BRANCH  23  24
ATOM     24  O   UNL A   1      35.947  30.825  28.793  1.00  0.00    -0.458 OA
BRANCH  24  25
ATOM     25  C   UNL A   1      36.599  29.885  29.556  1.00  0.00     0.338 C 
ATOM     26  O   UNL A   1      36.029  29.405  30.535  1.00  0.00    -0.246 OA
BRANCH  25  27
ATOM     27  C   UNL A   1      37.733  29.141  28.967  1.00  0.00     0.060 A 
ATOM     28  C   UNL A   1      38.306  29.508  27.732  1.00  0.00     0.016 A 
ATOM     29  C   UNL A   1      38.413  28.277  29.777  1.00  0.00     0.016 A 
ATOM     30  C   UNL A   1      39.615  29.103  27.435  1.00  0.00     0.010 A 
ATOM     31  C   UNL A   1      39.770  28.281  29.697  1.00  0.00     0.010 A 
ATOM     32  C   UNL A   1      40.359  28.525  28.465  1.00  0.00    -0.014 A 
BRANCH  32  33
ATOM     33  C   UNL A   1      41.631  27.820  28.361  1.00  0.00     0.031 A 
ATOM     34  C   UNL A   1      41.714  26.402  28.030  1.00  0.00     0.074 A 
ATOM     35  C   UNL A   1      42.734  28.601  28.494  1.00  0.00     0.049 A 
ATOM     36  N   UNL A   1      42.339  25.529  28.740  1.00  0.00    -0.248 NA
ATOM     37  C   UNL A   1      41.124  25.868  26.803  1.00  0.00     0.031 C 
ATOM     38  C   UNL A   1      44.139  28.281  28.369  1.00  0.00     0.029 A 
ATOM     39  N   UNL A   1      42.752  29.943  28.904  1.00  0.00    -0.354 N 
ATOM     40  C   UNL A   1      42.549  24.458  27.897  1.00  0.00     0.074 A 
ATOM     41  C   UNL A   1      41.626  24.626  26.792  1.00  0.00     0.031 C 
ATOM     42  C   UNL A   1      44.840  29.237  29.017  1.00  0.00     0.029 A 
ATOM     43  C   UNL A   1      43.902  30.181  29.629  1.00  0.00     0.049 A 
ATOM     44  H   UNL A   1      42.055  30.609  28.706  1.00  0.00     0.167 HD
ATOM     45  C   UNL A   1      43.686  23.711  27.985  1.00  0.00     0.031 A 
ATOM     46  C   UNL A   1      43.761  30.520  30.945  1.00  0.00     0.031 A 
ATOM     47  C   UNL A   1      44.662  24.354  28.867  1.00  0.00     0.049 A 
ATOM     48  C   UNL A   1      44.128  29.342  31.813  1.00  0.00     0.074 A 
ATOM     49  C   UNL A   1      45.790  25.108  28.583  1.00  0.00     0.029 A 
ATOM     50  N   UNL A   1      44.356  24.603  30.202  1.00  0.00    -0.354 N 
ATOM     51  N   UNL A   1      44.297  28.135  31.348  1.00  0.00    -0.248 NA
ATOM     52  C   UNL A   1      44.353  29.418  33.250  1.00  0.00     0.031 C 
ATOM     53  C   UNL A   1      46.104  25.887  29.726  1.00  0.00     0.029 A 
ATOM     54  C   UNL A   1      45.183  25.590  30.714  1.00  0.00     0.049 A 
ATOM     55  H   UNL A   1      43.651  24.143  30.711  1.00  0.00     0.167 HD
ATOM     56  C   UNL A   1      44.719  27.307  32.344  1.00  0.00     0.074 A 
ATOM     57  C   UNL A   1      44.727  28.154  33.526  1.00  0.00     0.031 C 
ATOM     58  C   UNL A   1      45.057  26.006  32.105  1.00  0.00     0.031 A 
BRANCH  45  59
ATOM     59  C   UNL A   1      44.031  22.654  26.960  1.00  0.00    -0.014 A 
ATOM     60  C   UNL A   1      43.097  21.661  26.609  1.00  0.00     0.010 A 
ATOM     61  C   UNL A   1      45.274  22.618  26.291  1.00  0.00     0.010 A 
ATOM     62  C   UNL A   1      43.401  20.640  25.699  1.00  0.00     0.020 A 
ATOM     63  C   UNL A   1      45.599  21.589  25.388  1.00  0.00     0.020 A 
ATOM     64  C   UNL A   1      44.658  20.602  25.100  1.00  0.00     0.054 A 
BRANCH  64  65
ATOM     65  S   UNL A   1      45.028  19.254  23.945  1.00  0.00     0.124 S 
ATOM     66  O   UNL A   1      46.489  19.224  23.950  1.00  0.00    -0.237 OA
ATOM     67  O   UNL A   1      44.374  18.112  24.579  1.00  0.00    -0.237 OA
ATOM     68  O   UNL A   1      44.426  19.697  22.689  1.00  0.00    -0.744 OA
ENDBRANCH  64  65
ENDBRANCH  45  59
BRANCH  46  69
ATOM     69  C   UNL A   1      42.694  31.549  31.219  1.00  0.00    -0.014 A 
ATOM     70  C   UNL A   1      42.891  32.822  30.636  1.00  0.00     0.010 A 
ATOM     71  C   UNL A   1      41.390  31.226  31.653  1.00  0.00     0.010 A 
ATOM     72  C   UNL A   1      41.817  33.677  30.357  1.00  0.00     0.020 A 
ATOM     73  C   UNL A   1      40.305  32.091  31.382  1.00  0.00     0.020 A 
ATOM     74  C   UNL A   1      40.522  33.281  30.679  1.00  0.00     0.054 A 
BRANCH  74  75
ATOM     75  S   UNL A   1      39.144  34.218  29.939  1.00  0.00     0.124 S 
ATOM     76  O   UNL A   1      38.304  33.166  29.381  1.00  0.00    -0.237 OA
ATOM     77  O   UNL A   1      38.600  34.922  31.101  1.00  0.00    -0.237 OA
ATOM     78  O   UNL A   1      39.807  35.084  28.972  1.00  0.00    -0.744 OA
ENDBRANCH  74  75
ENDBRANCH  46  69
BRANCH  58  79
ATOM     79  C   UNL A   1      45.432  24.998  33.153  1.00  0.00    -0.014 A 
ATOM     80  C   UNL A   1      46.618  25.043  33.895  1.00  0.00     0.010 A 
ATOM     81  C   UNL A   1      44.474  24.017  33.507  1.00  0.00     0.010 A 
ATOM     82  C   UNL A   1      46.864  24.107  34.905  1.00  0.00     0.020 A 
ATOM     83  C   UNL A   1      44.687  23.116  34.546  1.00  0.00     0.020 A 
ATOM     84  C   UNL A   1      45.897  23.150  35.223  1.00  0.00     0.054 A 
BRANCH  84  85
ATOM     85  S   UNL A   1      46.191  21.986  36.573  1.00  0.00     0.124 S 
ATOM     86  O   UNL A   1      45.591  22.689  37.705  1.00  0.00    -0.237 OA
ATOM     87  O   UNL A   1      45.482  20.787  36.132  1.00  0.00    -0.237 OA
ATOM     88  O   UNL A   1      47.645  21.864  36.608  1.00  0.00    -0.744 OA
ENDBRANCH  84  85
ENDBRANCH  58  79
ENDBRANCH  32  33
ENDBRANCH  25  27
ENDBRANCH  24  25
ENDBRANCH  23  24
ENDBRANCH   1  23
TORSDOF 17
ENDMDL
MODEL 2
REMARK VINA RESULT:     -12.1      1.708      2.444
REMARK SMILES Cc1ccc(Nc2c(F)cccc2I)c(CC(=O)OCCOC(=O)c2ccc(-c3c4nc(c(-c5ccc(S(=O)(=O)[O-])cc5)c5ccc([nH]5)c(-c5ccc(S(=O)(=O)[O-])cc5)c5nc(c(-c6ccc(S(=O)(=O)[O-])cc6)c6ccc3[nH]6)C=C5)C=C4)cc2)c1
REMARK SMILES IDX 20 1 19 2 17 3 18 4 16 5 15 6 1 7 2 8 3 9 85 10 4 11 5 12
REMARK SMILES IDX 6 13 7 15 8 16 13 17 9 18 10 19 12 20 14 21 11 22 21 23
REMARK SMILES IDX 22 24 23 25 24 26 25 27 26 28 84 29 27 30 83 31 28 32 29 33
REMARK SMILES IDX 30 34 77 35 31 36 82 37 76 38 78 39 32 40 81 41 75 42 74 43
REMARK SMILES IDX 33 45 63 46 44 47 62 48 45 49 48 50 61 51 79 52 46 53 47 54
REMARK SMILES IDX 60 56 80 57 49 58 34 59 35 60 43 61 36 62 42 63 37 64 38 65
REMARK SMILES IDX 39 66 40 67 41 68 64 69 65 70 73 71 66 72 72 73 67 74 68 75
REMARK SMILES IDX 69 76 70 77 71 78 50 79 51 80 59 81 52 82 58 83 53 84 54 85
REMARK SMILES IDX 55 86 56 87 57 88
REMARK H PARENT 6 14 78 44 48 55
REMARK Flexibility Score: inf
ROOT
ATOM      1  C   UNL A   1      33.572  29.921  26.237  1.00  0.00     0.274 C 
ENDROOT
BRANCH   1   2
ATOM      2  O   UNL A   1      33.779  28.962  25.201  1.00  0.00    -0.462 OA
BRANCH   2   3
ATOM      3  C   UNL A   1      32.787  28.906  24.269  1.00  0.00     0.310 C 
ATOM      4  O   UNL A   1      32.958  28.997  23.084  1.00  0.00    -0.252 OA
BRANCH   3   5
ATOM      5  C   UNL A   1      31.467  28.717  25.004  1.00  0.00     0.160 C 
BRANCH   5   6
ATOM      6  C   UNL A   1      30.303  28.898  24.066  1.00  0.00    -0.013 A 
ATOM      7  C   UNL A   1      28.113  31.870  23.248  1.00  0.00     0.044 C 
ATOM      8  C   UNL A   1      28.647  30.472  23.256  1.00  0.00    -0.051 A 
ATOM      9  C   UNL A   1      27.902  29.396  22.766  1.00  0.00     0.005 A 
ATOM     10  C   UNL A   1      29.854  30.214  23.892  1.00  0.00     0.009 A 
ATOM     11  C   UNL A   1      28.377  28.084  22.879  1.00  0.00     0.026 A 
ATOM     12  C   UNL A   1      29.590  27.805  23.510  1.00  0.00     0.042 A 
BRANCH  12  13
ATOM     13  N   UNL A   1      29.991  26.477  23.753  1.00  0.00    -0.352 N 
ATOM     14  H   UNL A   1      29.328  25.948  24.252  1.00  0.00     0.167 HD
BRANCH  13  15
ATOM     15  C   UNL A   1      31.167  25.754  23.416  1.00  0.00     0.088 A 
ATOM     16  C   UNL A   1      31.790  25.954  22.175  1.00  0.00     0.147 A 
ATOM     17  C   UNL A   1      31.930  25.118  24.415  1.00  0.00     0.040 A 
ATOM     18  F   UNL A   1      31.121  26.546  21.171  1.00  0.00    -0.205 F 
ATOM     19  C   UNL A   1      33.115  25.578  21.944  1.00  0.00     0.041 A 
ATOM     20  C   UNL A   1      33.281  24.798  24.214  1.00  0.00     0.017 A 
ATOM     21  I   UNL A   1      31.051  24.417  26.193  1.00  0.00    -0.042 I 
ATOM     22  C   UNL A   1      33.875  25.036  22.978  1.00  0.00     0.004 A 
ENDBRANCH  13  15
ENDBRANCH  12  13
ENDBRANCH   5   6
ENDBRANCH   3   5
ENDBRANCH   2   3
ENDBRANCH   1   2
BRANCH   1  23
ATOM     23  C   UNL A   1      33.691  29.275  27.636  1.00  0.00     0.275 C 
BRANCH  23  24
ATOM     24  O   UNL A   1      34.995  29.375  28.304  1.00  0.00    -0.458 OA
BRANCH  24  25
ATOM     25  C   UNL A   1      36.079  30.201  28.124  1.00  0.00     0.338 C 
ATOM     26  O   UNL A   1      35.900  31.411  28.007  1.00  0.00    -0.246 OA
BRANCH  25  27
ATOM     27  C   UNL A   1      37.421  29.722  28.523  1.00  0.00     0.060 A 
ATOM     28  C   UNL A   1      37.642  29.050  29.742  1.00  0.00     0.016 A 
ATOM     29  C   UNL A   1      38.388  29.674  27.559  1.00  0.00     0.016 A 
ATOM     30  C   UNL A   1      38.771  28.230  29.879  1.00  0.00     0.010 A 
ATOM     31  C   UNL A   1      39.185  28.573  27.528  1.00  0.00     0.010 A 
ATOM     32  C   UNL A   1      39.514  27.960  28.728  1.00  0.00    -0.014 A 
BRANCH  32  33
ATOM     33  C   UNL A   1      40.832  27.345  28.640  1.00  0.00     0.031 A 
ATOM     34  C   UNL A   1      41.023  25.959  28.230  1.00  0.00     0.074 A 
ATOM     35  C   UNL A   1      41.875  28.184  28.870  1.00  0.00     0.049 A 
ATOM     36  N   UNL A   1      41.674  25.085  28.915  1.00  0.00    -0.248 NA
ATOM     37  C   UNL A   1      40.521  25.465  26.949  1.00  0.00     0.031 C 
ATOM     38  C   UNL A   1      43.302  27.963  28.789  1.00  0.00     0.029 A 
ATOM     39  N   UNL A   1      41.788  29.497  29.358  1.00  0.00    -0.354 N 
ATOM     40  C   UNL A   1      41.989  24.083  28.020  1.00  0.00     0.074 A 
ATOM     41  C   UNL A   1      41.104  24.261  26.886  1.00  0.00     0.031 C 
ATOM     42  C   UNL A   1      43.911  28.919  29.524  1.00  0.00     0.029 A 
ATOM     43  C   UNL A   1      42.889  29.762  30.148  1.00  0.00     0.049 A 
ATOM     44  H   UNL A   1      41.057  30.129  29.168  1.00  0.00     0.167 HD
ATOM     45  C   UNL A   1      43.168  23.406  28.115  1.00  0.00     0.031 A 
ATOM     46  C   UNL A   1      42.671  30.009  31.474  1.00  0.00     0.031 A 
ATOM     47  C   UNL A   1      44.062  24.054  29.078  1.00  0.00     0.049 A 
ATOM     48  C   UNL A   1      43.079  28.806  32.286  1.00  0.00     0.074 A 
ATOM     49  C   UNL A   1      45.149  24.894  28.890  1.00  0.00     0.029 A 
ATOM     50  N   UNL A   1      43.686  24.200  30.410  1.00  0.00    -0.354 N 
ATOM     51  N   UNL A   1      43.346  27.643  31.759  1.00  0.00    -0.248 NA
ATOM     52  C   UNL A   1      43.239  28.806  33.734  1.00  0.00     0.031 C 
ATOM     53  C   UNL A   1      45.363  25.618  30.090  1.00  0.00     0.029 A 
ATOM     54  C   UNL A   1      44.423  25.203  31.016  1.00  0.00     0.049 A 
ATOM     55  H   UNL A   1      42.991  23.665  30.858  1.00  0.00     0.167 HD
ATOM     56  C   UNL A   1      43.780  26.782  32.722  1.00  0.00     0.074 A 
ATOM     57  C   UNL A   1      43.683  27.554  33.951  1.00  0.00     0.031 C 
ATOM     58  C   UNL A   1      44.214  25.523  32.422  1.00  0.00     0.031 A 
BRANCH  45  59
ATOM     59  C   UNL A   1      43.624  22.438  27.046  1.00  0.00    -0.014 A 
ATOM     60  C   UNL A   1      42.904  21.255  26.793  1.00  0.00     0.010 A 
ATOM     61  C   UNL A   1      44.760  22.673  26.240  1.00  0.00     0.010 A 
ATOM     62  C   UNL A   1      43.326  20.316  25.843  1.00  0.00     0.020 A 
ATOM     63  C   UNL A   1      45.204  21.730  25.295  1.00  0.00     0.020 A 
ATOM     64  C   UNL A   1      44.483  20.553  25.105  1.00  0.00     0.054 A 
BRANCH  64  65
ATOM     65  S   UNL A   1      45.014  19.305  23.900  1.00  0.00     0.124 S 
ATOM     66  O   UNL A   1      44.554  19.870  22.634  1.00  0.00    -0.237 OA
ATOM     67  O   UNL A   1      46.462  19.284  24.091  1.00  0.00    -0.237 OA
ATOM     68  O   UNL A   1      44.314  18.094  24.324  1.00  0.00    -0.744 OA
ENDBRANCH  64  65
ENDBRANCH  45  59
BRANCH  46  69
ATOM     69  C   UNL A   1      41.528  30.950  31.759  1.00  0.00    -0.014 A 
ATOM     70  C   UNL A   1      41.611  32.230  31.166  1.00  0.00     0.010 A 
ATOM     71  C   UNL A   1      40.262  30.524  32.218  1.00  0.00     0.010 A 
ATOM     72  C   UNL A   1      40.466  32.993  30.900  1.00  0.00     0.020 A 
ATOM     73  C   UNL A   1      39.106  31.296  31.959  1.00  0.00     0.020 A 
ATOM     74  C   UNL A   1      39.213  32.494  31.246  1.00  0.00     0.054 A 
BRANCH  74  75
ATOM     75  S   UNL A   1      37.751  33.310  30.524  1.00  0.00     0.124 S 
ATOM     76  O   UNL A   1      37.738  34.602  31.200  1.00  0.00    -0.237 OA
ATOM     77  O   UNL A   1      38.092  33.336  29.102  1.00  0.00    -0.237 OA
ATOM     78  O   UNL A   1      36.660  32.405  30.862  1.00  0.00    -0.744 OA
ENDBRANCH  74  75
ENDBRANCH  46  69
BRANCH  58  79
ATOM     79  C   UNL A   1      44.610  24.478  33.424  1.00  0.00    -0.014 A 
ATOM     80  C   UNL A   1      43.716  23.578  34.015  1.00  0.00     0.010 A 
ATOM     81  C   UNL A   1      45.990  24.303  33.694  1.00  0.00     0.010 A 
ATOM     82  C   UNL A   1      44.175  22.585  34.888  1.00  0.00     0.020 A 
ATOM     83  C   UNL A   1      46.460  23.285  34.518  1.00  0.00     0.020 A 
ATOM     84  C   UNL A   1      45.543  22.447  35.133  1.00  0.00     0.054 A 
BRANCH  84  85
ATOM     85  S   UNL A   1      46.135  21.121  36.208  1.00  0.00     0.124 S 
ATOM     86  O   UNL A   1      47.583  21.239  36.053  1.00  0.00    -0.237 OA
ATOM     87  O   UNL A   1      45.611  21.501  37.518  1.00  0.00    -0.237 OA
ATOM     88  O   UNL A   1      45.537  19.921  35.630  1.00  0.00    -0.744 OA
ENDBRANCH  84  85
ENDBRANCH  58  79
ENDBRANCH  32  33
ENDBRANCH  25  27
ENDBRANCH  24  25
ENDBRANCH  23  24
ENDBRANCH   1  23
TORSDOF 17
ENDMDL
MODEL 3
REMARK VINA RESULT:     -12.0      1.343      2.827
REMARK SMILES Cc1ccc(Nc2c(F)cccc2I)c(CC(=O)OCCOC(=O)c2ccc(-c3c4nc(c(-c5ccc(S(=O)(=O)[O-])cc5)c5ccc([nH]5)c(-c5ccc(S(=O)(=O)[O-])cc5)c5nc(c(-c6ccc(S(=O)(=O)[O-])cc6)c6ccc3[nH]6)C=C5)C=C4)cc2)c1
REMARK SMILES IDX 20 1 19 2 17 3 18 4 16 5 15 6 1 7 2 8 3 9 85 10 4 11 5 12
REMARK SMILES IDX 6 13 7 15 8 16 13 17 9 18 10 19 12 20 14 21 11 22 21 23
REMARK SMILES IDX 22 24 23 25 24 26 25 27 26 28 84 29 27 30 83 31 28 32 29 33
REMARK SMILES IDX 30 34 77 35 31 36 82 37 76 38 78 39 32 40 81 41 75 42 74 43
REMARK SMILES IDX 33 45 63 46 44 47 62 48 45 49 48 50 61 51 79 52 46 53 47 54
REMARK SMILES IDX 60 56 80 57 49 58 34 59 35 60 43 61 36 62 42 63 37 64 38 65
REMARK SMILES IDX 39 66 40 67 41 68 64 69 65 70 73 71 66 72 72 73 67 74 68 75
REMARK SMILES IDX 69 76 70 77 71 78 50 79 51 80 59 81 52 82 58 83 53 84 54 85
REMARK SMILES IDX 55 86 56 87 57 88
REMARK H PARENT 6 14 78 44 48 55
REMARK Flexibility Score: inf
ROOT
ATOM      1  C   UNL A   1      33.363  28.704  26.352  1.00  0.00     0.274 C 
ENDROOT
BRANCH   1   2
ATOM      2  O   UNL A   1      32.651  27.821  27.217  1.00  0.00    -0.462 OA
BRANCH   2   3
ATOM      3  C   UNL A   1      32.290  26.636  26.651  1.00  0.00     0.310 C 
ATOM      4  O   UNL A   1      31.214  26.119  26.778  1.00  0.00    -0.252 OA
BRANCH   3   5
ATOM      5  C   UNL A   1      33.482  26.116  25.859  1.00  0.00     0.160 C 
BRANCH   5   6
ATOM      6  C   UNL A   1      33.304  24.660  25.521  1.00  0.00    -0.013 A 
ATOM      7  C   UNL A   1      34.396  21.479  27.251  1.00  0.00     0.044 C 
ATOM      8  C   UNL A   1      33.808  22.395  26.224  1.00  0.00    -0.051 A 
ATOM      9  C   UNL A   1      33.500  21.954  24.934  1.00  0.00     0.005 A 
ATOM     10  C   UNL A   1      33.692  23.748  26.513  1.00  0.00     0.009 A 
ATOM     11  C   UNL A   1      33.049  22.851  23.958  1.00  0.00     0.026 A 
ATOM     12  C   UNL A   1      32.922  24.214  24.231  1.00  0.00     0.042 A 
BRANCH  12  13
ATOM     13  N   UNL A   1      32.612  25.130  23.207  1.00  0.00    -0.352 N 
ATOM     14  H   UNL A   1      33.225  25.087  22.438  1.00  0.00     0.167 HD
BRANCH  13  15
ATOM     15  C   UNL A   1      31.586  26.104  23.071  1.00  0.00     0.088 A 
ATOM     16  C   UNL A   1      30.246  25.757  23.302  1.00  0.00     0.147 A 
ATOM     17  C   UNL A   1      31.896  27.478  23.067  1.00  0.00     0.040 A 
ATOM     18  F   UNL A   1      29.874  24.466  23.311  1.00  0.00    -0.205 F 
ATOM     19  C   UNL A   1      29.267  26.721  23.555  1.00  0.00     0.041 A 
ATOM     20  C   UNL A   1      30.933  28.448  23.387  1.00  0.00     0.017 A 
ATOM     21  I   UNL A   1      33.755  28.186  22.384  1.00  0.00    -0.042 I 
ATOM     22  C   UNL A   1      29.619  28.066  23.638  1.00  0.00     0.004 A 
ENDBRANCH  13  15
ENDBRANCH  12  13
ENDBRANCH   5   6
ENDBRANCH   3   5
ENDBRANCH   2   3
ENDBRANCH   1   2
BRANCH   1  23
ATOM     23  C   UNL A   1      33.980  29.886  27.135  1.00  0.00     0.275 C 
BRANCH  23  24
ATOM     24  O   UNL A   1      35.383  29.750  27.544  1.00  0.00    -0.458 OA
BRANCH  24  25
ATOM     25  C   UNL A   1      36.145  30.375  28.503  1.00  0.00     0.338 C 
ATOM     26  O   UNL A   1      35.605  31.157  29.284  1.00  0.00    -0.246 OA
BRANCH  25  27
ATOM     27  C   UNL A   1      37.447  29.787  28.882  1.00  0.00     0.060 A 
ATOM     28  C   UNL A   1      37.582  28.918  29.985  1.00  0.00     0.016 A 
ATOM     29  C   UNL A   1      38.464  29.857  27.972  1.00  0.00     0.016 A 
ATOM     30  C   UNL A   1      38.676  28.043  30.040  1.00  0.00     0.010 A 
ATOM     31  C   UNL A   1      39.227  28.745  27.800  1.00  0.00     0.010 A 
ATOM     32  C   UNL A   1      39.471  27.934  28.898  1.00  0.00    -0.014 A 
BRANCH  32  33
ATOM     33  C   UNL A   1      40.773  27.290  28.775  1.00  0.00     0.031 A 
ATOM     34  C   UNL A   1      40.921  25.895  28.377  1.00  0.00     0.074 A 
ATOM     35  C   UNL A   1      41.840  28.110  28.958  1.00  0.00     0.049 A 
ATOM     36  N   UNL A   1      41.577  25.016  29.053  1.00  0.00    -0.248 NA
ATOM     37  C   UNL A   1      40.366  25.396  27.121  1.00  0.00     0.031 C 
ATOM     38  C   UNL A   1      43.259  27.857  28.834  1.00  0.00     0.029 A 
ATOM     39  N   UNL A   1      41.796  29.431  29.432  1.00  0.00    -0.354 N 
ATOM     40  C   UNL A   1      41.841  23.997  28.162  1.00  0.00     0.074 A 
ATOM     41  C   UNL A   1      40.922  24.179  27.055  1.00  0.00     0.031 C 
ATOM     42  C   UNL A   1      43.912  28.810  29.535  1.00  0.00     0.029 A 
ATOM     43  C   UNL A   1      42.929  29.682  30.180  1.00  0.00     0.049 A 
ATOM     44  H   UNL A   1      41.073  30.075  29.257  1.00  0.00     0.167 HD
ATOM     45  C   UNL A   1      43.009  23.296  28.227  1.00  0.00     0.031 A 
ATOM     46  C   UNL A   1      42.761  29.951  31.510  1.00  0.00     0.031 A 
ATOM     47  C   UNL A   1      43.947  23.937  29.150  1.00  0.00     0.049 A 
ATOM     48  C   UNL A   1      43.170  28.750  32.324  1.00  0.00     0.074 A 
ATOM     49  C   UNL A   1      45.044  24.752  28.915  1.00  0.00     0.029 A 
ATOM     50  N   UNL A   1      43.619  24.108  30.492  1.00  0.00    -0.354 N 
ATOM     51  N   UNL A   1      43.396  27.575  31.804  1.00  0.00    -0.248 NA
ATOM     52  C   UNL A   1      43.378  28.766  33.766  1.00  0.00     0.031 C 
ATOM     53  C   UNL A   1      45.313  25.487  30.097  1.00  0.00     0.029 A 
ATOM     54  C   UNL A   1      44.397  25.104  31.059  1.00  0.00     0.049 A 
ATOM     55  H   UNL A   1      42.929  23.594  30.970  1.00  0.00     0.167 HD
ATOM     56  C   UNL A   1      43.844  26.718  32.764  1.00  0.00     0.074 A 
ATOM     57  C   UNL A   1      43.804  27.507  33.985  1.00  0.00     0.031 C 
ATOM     58  C   UNL A   1      44.241  25.446  32.467  1.00  0.00     0.031 A 
BRANCH  45  59
ATOM     59  C   UNL A   1      43.408  22.305  27.156  1.00  0.00    -0.014 A 
ATOM     60  C   UNL A   1      42.753  21.064  27.044  1.00  0.00     0.010 A 
ATOM     61  C   UNL A   1      44.423  22.572  26.211  1.00  0.00     0.010 A 
ATOM     62  C   UNL A   1      43.131  20.105  26.095  1.00  0.00     0.020 A 
ATOM     63  C   UNL A   1      44.824  21.612  25.264  1.00  0.00     0.020 A 
ATOM     64  C   UNL A   1      44.174  20.380  25.215  1.00  0.00     0.054 A 
BRANCH  64  65
ATOM     65  S   UNL A   1      44.654  19.108  24.014  1.00  0.00     0.124 S 
ATOM     66  O   UNL A   1      46.037  18.823  24.390  1.00  0.00    -0.237 OA
ATOM     67  O   UNL A   1      43.695  18.042  24.289  1.00  0.00    -0.237 OA
ATOM     68  O   UNL A   1      44.492  19.773  22.722  1.00  0.00    -0.744 OA
ENDBRANCH  64  65
ENDBRANCH  45  59
BRANCH  46  69
ATOM     69  C   UNL A   1      41.647  30.920  31.820  1.00  0.00    -0.014 A 
ATOM     70  C   UNL A   1      41.830  32.246  31.368  1.00  0.00     0.010 A 
ATOM     71  C   UNL A   1      40.335  30.520  32.153  1.00  0.00     0.010 A 
ATOM     72  C   UNL A   1      40.744  33.093  31.112  1.00  0.00     0.020 A 
ATOM     73  C   UNL A   1      39.237  31.375  31.906  1.00  0.00     0.020 A 
ATOM     74  C   UNL A   1      39.448  32.631  31.328  1.00  0.00     0.054 A 
BRANCH  74  75
ATOM     75  S   UNL A   1      38.078  33.593  30.605  1.00  0.00     0.124 S 
ATOM     76  O   UNL A   1      38.422  34.962  30.968  1.00  0.00    -0.237 OA
ATOM     77  O   UNL A   1      38.191  33.260  29.186  1.00  0.00    -0.237 OA
ATOM     78  O   UNL A   1      36.898  33.040  31.258  1.00  0.00    -0.744 OA
ENDBRANCH  74  75
ENDBRANCH  46  69
BRANCH  58  79
ATOM     79  C   UNL A   1      44.649  24.406  33.470  1.00  0.00    -0.014 A 
ATOM     80  C   UNL A   1      43.748  23.653  34.230  1.00  0.00     0.010 A 
ATOM     81  C   UNL A   1      46.023  24.072  33.561  1.00  0.00     0.010 A 
ATOM     82  C   UNL A   1      44.204  22.651  35.094  1.00  0.00     0.020 A 
ATOM     83  C   UNL A   1      46.482  23.041  34.376  1.00  0.00     0.020 A 
ATOM     84  C   UNL A   1      45.567  22.353  35.160  1.00  0.00     0.054 A 
BRANCH  84  85
ATOM     85  S   UNL A   1      46.145  21.014  36.226  1.00  0.00     0.124 S 
ATOM     86  O   UNL A   1      47.595  21.148  36.111  1.00  0.00    -0.237 OA
ATOM     87  O   UNL A   1      45.584  21.365  37.528  1.00  0.00    -0.237 OA
ATOM     88  O   UNL A   1      45.573  19.819  35.612  1.00  0.00    -0.744 OA
ENDBRANCH  84  85
ENDBRANCH  58  79
ENDBRANCH  32  33
ENDBRANCH  25  27
ENDBRANCH  24  25
ENDBRANCH  23  24
ENDBRANCH   1  23
TORSDOF 17
ENDMDL
