MODEL 1
REMARK VINA RESULT:     -11.3      0.000      0.000
REMARK SMILES COc1ccc(C(=O)N(C)C)cc1NC(=O)[C@H]1[C@@H](C(=O)OCCOC(=O)c2ccc(-c3c4nc(c(-c5ccc(S(=O)(=O)[O-])cc5)c5ccc([nH]5)c(-c5ccc(S(=O)(=O)[O-])cc5)c5nc(c(-c6ccc(S(=O)(=O)[O-])cc6)c6ccc3[nH]6)C=C5)C=C4)cc2)[C@H]2C=C[C@@H]1C2
REMARK SMILES IDX 22 1 21 2 19 3 20 4 18 5 17 6 90 7 87 8 89 9 91 10 88 11
REMARK SMILES IDX 15 12 14 13 16 15 13 16 3 17 4 18 5 19 12 20 6 21 2 22 1 23
REMARK SMILES IDX 7 24 8 25 9 26 10 27 11 28 23 29 24 30 25 31 26 32 27 33
REMARK SMILES IDX 28 34 86 35 29 36 85 37 30 38 31 39 32 40 79 41 33 42 84 43
REMARK SMILES IDX 78 44 80 45 34 46 83 47 77 48 76 49 35 51 65 52 46 53 64 54
REMARK SMILES IDX 47 55 50 56 63 57 81 58 48 59 49 60 62 62 82 63 51 64 36 65
REMARK SMILES IDX 37 66 45 67 38 68 44 69 39 70 40 71 41 72 42 73 43 74 66 75
REMARK SMILES IDX 67 76 75 77 68 78 74 79 69 80 70 81 71 82 72 83 73 84 52 85
REMARK SMILES IDX 53 86 61 87 54 88 60 89 55 90 56 91 57 92 58 93 59 94
REMARK H PARENT 14 14 80 50 50 61
REMARK Flexibility Score: inf
ROOT
ATOM      1  C   UNL A   1      34.541  28.697  26.166  1.00  0.00     0.274 C 
ENDROOT
BRANCH   1   2
ATOM      2  O   UNL A   1      33.829  27.468  26.390  1.00  0.00    -0.462 OA
BRANCH   2   3
ATOM      3  C   UNL A   1      32.615  27.383  25.812  1.00  0.00     0.310 C 
ATOM      4  O   UNL A   1      32.095  28.259  25.124  1.00  0.00    -0.252 OA
BRANCH   3   5
ATOM      5  C   UNL A   1      31.891  26.093  26.069  1.00  0.00     0.119 C 
ATOM      6  C   UNL A   1      32.480  24.840  25.367  1.00  0.00     0.100 C 
ATOM      7  C   UNL A   1      31.195  24.040  25.002  1.00  0.00     0.025 C 
ATOM      8  C   UNL A   1      30.369  25.933  25.872  1.00  0.00     0.027 C 
ATOM      9  C   UNL A   1      30.458  24.765  23.898  1.00  0.00    -0.027 C 
ATOM     10  C   UNL A   1      30.254  24.420  26.152  1.00  0.00     0.017 C 
ATOM     11  C   UNL A   1      29.992  25.910  24.417  1.00  0.00    -0.027 C 
BRANCH   6  12
ATOM     12  C   UNL A   1      33.365  25.042  24.148  1.00  0.00     0.229 C 
ATOM     13  N   UNL A   1      34.107  24.027  23.620  1.00  0.00    -0.323 N 
ATOM     14  H   UNL A   1      34.466  24.240  22.727  1.00  0.00     0.170 HD
ATOM     15  O   UNL A   1      33.453  26.130  23.571  1.00  0.00    -0.274 OA
BRANCH  13  16
ATOM     16  C   UNL A   1      34.472  22.747  24.068  1.00  0.00     0.084 A 
ATOM     17  C   UNL A   1      35.801  22.589  24.505  1.00  0.00     0.142 A 
ATOM     18  C   UNL A   1      36.238  21.393  25.074  1.00  0.00     0.049 A 
ATOM     19  C   UNL A   1      35.335  20.344  25.247  1.00  0.00     0.018 A 
ATOM     20  C   UNL A   1      33.619  21.648  24.141  1.00  0.00     0.044 A 
ATOM     21  C   UNL A   1      34.018  20.474  24.792  1.00  0.00     0.042 A 
BRANCH  17  22
ATOM     22  O   UNL A   1      36.726  23.588  24.317  1.00  0.00    -0.495 OA
ATOM     23  C   UNL A   1      37.547  23.782  25.470  1.00  0.00     0.278 C 
ENDBRANCH  17  22
BRANCH  21  24
ATOM     24  C   UNL A   1      33.096  19.312  24.906  1.00  0.00     0.253 C 
ATOM     25  O   UNL A   1      31.906  19.564  25.090  1.00  0.00    -0.269 OA
ATOM     26  N   UNL A   1      33.592  18.008  24.824  1.00  0.00    -0.345 N 
ATOM     27  C   UNL A   1      34.893  17.618  24.298  1.00  0.00     0.146 C 
ATOM     28  C   UNL A   1      32.703  16.910  25.165  1.00  0.00     0.146 C 
ENDBRANCH  21  24
ENDBRANCH  13  16
ENDBRANCH   6  12
ENDBRANCH   3   5
ENDBRANCH   2   3
ENDBRANCH   1   2
BRANCH   1  29
ATOM     29  C   UNL A   1      34.803  29.368  27.508  1.00  0.00     0.275 C 
BRANCH  29  30
ATOM     30  O   UNL A   1      36.191  29.736  27.601  1.00  0.00    -0.458 OA
BRANCH  30  31
ATOM     31  C   UNL A   1      36.769  29.452  28.789  1.00  0.00     0.338 C 
ATOM     32  O   UNL A   1      36.259  29.499  29.902  1.00  0.00    -0.246 OA
BRANCH  31  33
ATOM     33  C   UNL A   1      38.162  29.053  28.581  1.00  0.00     0.060 A 
ATOM     34  C   UNL A   1      38.903  28.522  29.639  1.00  0.00     0.016 A 
ATOM     35  C   UNL A   1      38.766  29.342  27.360  1.00  0.00     0.016 A 
ATOM     36  C   UNL A   1      40.280  28.356  29.500  1.00  0.00     0.010 A 
ATOM     37  C   UNL A   1      40.127  29.093  27.196  1.00  0.00     0.010 A 
ATOM     38  C   UNL A   1      40.904  28.629  28.273  1.00  0.00    -0.014 A 
BRANCH  38  39
ATOM     39  C   UNL A   1      42.367  28.439  28.093  1.00  0.00     0.031 A 
ATOM     40  C   UNL A   1      43.316  29.577  28.355  1.00  0.00     0.074 A 
ATOM     41  C   UNL A   1      42.837  27.262  27.639  1.00  0.00     0.049 A 
ATOM     42  N   UNL A   1      44.584  29.680  28.054  1.00  0.00    -0.248 NA
ATOM     43  C   UNL A   1      42.756  30.760  29.029  1.00  0.00     0.031 C 
ATOM     44  C   UNL A   1      42.028  26.072  27.370  1.00  0.00     0.029 A 
ATOM     45  N   UNL A   1      44.112  26.882  27.302  1.00  0.00    -0.354 N 
ATOM     46  C   UNL A   1      44.967  30.955  28.456  1.00  0.00     0.074 A 
ATOM     47  C   UNL A   1      43.793  31.589  29.020  1.00  0.00     0.031 C 
ATOM     48  C   UNL A   1      42.824  25.095  26.911  1.00  0.00     0.029 A 
ATOM     49  C   UNL A   1      44.183  25.611  26.784  1.00  0.00     0.049 A 
ATOM     50  H   UNL A   1      44.899  27.462  27.420  1.00  0.00     0.167 HD
ATOM     51  C   UNL A   1      46.182  31.547  28.357  1.00  0.00     0.031 A 
ATOM     52  C   UNL A   1      45.209  24.947  26.219  1.00  0.00     0.031 A 
ATOM     53  C   UNL A   1      47.347  30.908  27.802  1.00  0.00     0.049 A 
ATOM     54  C   UNL A   1      46.540  25.626  26.094  1.00  0.00     0.074 A 
ATOM     55  C   UNL A   1      48.627  31.416  27.662  1.00  0.00     0.029 A 
ATOM     56  N   UNL A   1      47.374  29.616  27.299  1.00  0.00    -0.354 N 
ATOM     57  N   UNL A   1      46.879  26.842  26.453  1.00  0.00    -0.248 NA
ATOM     58  C   UNL A   1      47.626  24.848  25.484  1.00  0.00     0.031 C 
ATOM     59  C   UNL A   1      49.419  30.442  27.042  1.00  0.00     0.029 A 
ATOM     60  C   UNL A   1      48.644  29.313  26.837  1.00  0.00     0.049 A 
ATOM     61  H   UNL A   1      46.603  29.003  27.274  1.00  0.00     0.167 HD
ATOM     62  C   UNL A   1      48.220  26.975  26.113  1.00  0.00     0.074 A 
ATOM     63  C   UNL A   1      48.634  25.709  25.541  1.00  0.00     0.031 C 
ATOM     64  C   UNL A   1      49.032  28.051  26.257  1.00  0.00     0.031 A 
BRANCH  51  65
ATOM     65  C   UNL A   1      46.291  32.976  28.817  1.00  0.00    -0.014 A 
ATOM     66  C   UNL A   1      46.034  34.049  27.943  1.00  0.00     0.010 A 
ATOM     67  C   UNL A   1      46.662  33.251  30.146  1.00  0.00     0.010 A 
ATOM     68  C   UNL A   1      46.202  35.367  28.373  1.00  0.00     0.020 A 
ATOM     69  C   UNL A   1      46.810  34.569  30.587  1.00  0.00     0.020 A 
ATOM     70  C   UNL A   1      46.603  35.619  29.690  1.00  0.00     0.054 A 
BRANCH  70  71
ATOM     71  S   UNL A   1      46.837  37.338  30.222  1.00  0.00     0.124 S 
ATOM     72  O   UNL A   1      46.371  37.288  31.606  1.00  0.00    -0.237 OA
ATOM     73  O   UNL A   1      48.273  37.539  30.051  1.00  0.00    -0.237 OA
ATOM     74  O   UNL A   1      45.991  38.101  29.306  1.00  0.00    -0.744 OA
ENDBRANCH  70  71
ENDBRANCH  51  65
BRANCH  52  75
ATOM     75  C   UNL A   1      44.981  23.578  25.693  1.00  0.00    -0.014 A 
ATOM     76  C   UNL A   1      44.572  23.382  24.364  1.00  0.00     0.010 A 
ATOM     77  C   UNL A   1      45.253  22.457  26.501  1.00  0.00     0.010 A 
ATOM     78  C   UNL A   1      44.450  22.088  23.848  1.00  0.00     0.020 A 
ATOM     79  C   UNL A   1      45.156  21.165  25.982  1.00  0.00     0.020 A 
ATOM     80  C   UNL A   1      44.752  20.988  24.657  1.00  0.00     0.054 A 
BRANCH  80  81
ATOM     81  S   UNL A   1      44.697  19.324  23.935  1.00  0.00     0.124 S 
ATOM     82  O   UNL A   1      44.529  19.614  22.516  1.00  0.00    -0.237 OA
ATOM     83  O   UNL A   1      45.993  18.768  24.319  1.00  0.00    -0.237 OA
ATOM     84  O   UNL A   1      43.547  18.708  24.593  1.00  0.00    -0.744 OA
ENDBRANCH  80  81
ENDBRANCH  52  75
BRANCH  64  85
ATOM     85  C   UNL A   1      50.456  27.894  25.802  1.00  0.00    -0.014 A 
ATOM     86  C   UNL A   1      50.826  28.174  24.475  1.00  0.00     0.010 A 
ATOM     87  C   UNL A   1      51.441  27.494  26.723  1.00  0.00     0.010 A 
ATOM     88  C   UNL A   1      52.154  28.028  24.068  1.00  0.00     0.020 A 
ATOM     89  C   UNL A   1      52.774  27.366  26.323  1.00  0.00     0.020 A 
ATOM     90  C   UNL A   1      53.119  27.621  24.994  1.00  0.00     0.054 A 
BRANCH  90  91
ATOM     91  S   UNL A   1      54.844  27.469  24.454  1.00  0.00     0.124 S 
ATOM     92  O   UNL A   1      55.564  28.101  25.555  1.00  0.00    -0.237 OA
ATOM     93  O   UNL A   1      55.020  26.023  24.335  1.00  0.00    -0.237 OA
ATOM     94  O   UNL A   1      54.874  28.198  23.188  1.00  0.00    -0.744 OA
ENDBRANCH  90  91
ENDBRANCH  64  85
ENDBRANCH  38  39
ENDBRANCH  31  33
ENDBRANCH  30  31
ENDBRANCH  29  30
ENDBRANCH   1  29
TORSDOF 18
ENDMDL
MODEL 2
REMARK VINA RESULT:     -11.2      6.901     12.210
REMARK SMILES COc1ccc(C(=O)N(C)C)cc1NC(=O)[C@H]1[C@@H](C(=O)OCCOC(=O)c2ccc(-c3c4nc(c(-c5ccc(S(=O)(=O)[O-])cc5)c5ccc([nH]5)c(-c5ccc(S(=O)(=O)[O-])cc5)c5nc(c(-c6ccc(S(=O)(=O)[O-])cc6)c6ccc3[nH]6)C=C5)C=C4)cc2)[C@H]2C=C[C@@H]1C2
REMARK SMILES IDX 22 1 21 2 19 3 20 4 18 5 17 6 90 7 87 8 89 9 91 10 88 11
REMARK SMILES IDX 15 12 14 13 16 15 13 16 3 17 4 18 5 19 12 20 6 21 2 22 1 23
REMARK SMILES IDX 7 24 8 25 9 26 10 27 11 28 23 29 24 30 25 31 26 32 27 33
REMARK SMILES IDX 28 34 86 35 29 36 85 37 30 38 31 39 32 40 79 41 33 42 84 43
REMARK SMILES IDX 78 44 80 45 34 46 83 47 77 48 76 49 35 51 65 52 46 53 64 54
REMARK SMILES IDX 47 55 50 56 63 57 81 58 48 59 49 60 62 62 82 63 51 64 36 65
REMARK SMILES IDX 37 66 45 67 38 68 44 69 39 70 40 71 41 72 42 73 43 74 66 75
REMARK SMILES IDX 67 76 75 77 68 78 74 79 69 80 70 81 71 82 72 83 73 84 52 85
REMARK SMILES IDX 53 86 61 87 54 88 60 89 55 90 56 91 57 92 58 93 59 94
REMARK H PARENT 14 14 80 50 50 61
REMARK Flexibility Score: inf
ROOT
ATOM      1  C   UNL A   1      37.287  23.047  24.949  1.00  0.00     0.274 C 
ENDROOT
BRANCH   1   2
ATOM      2  O   UNL A   1      35.990  23.099  25.565  1.00  0.00    -0.462 OA
BRANCH   2   3
ATOM      3  C   UNL A   1      35.211  24.136  25.201  1.00  0.00     0.310 C 
ATOM      4  O   UNL A   1      35.287  25.274  25.660  1.00  0.00    -0.252 OA
BRANCH   3   5
ATOM      5  C   UNL A   1      34.189  23.810  24.151  1.00  0.00     0.119 C 
ATOM      6  C   UNL A   1      32.749  24.319  24.433  1.00  0.00     0.100 C 
ATOM      7  C   UNL A   1      31.880  23.162  23.860  1.00  0.00     0.025 C 
ATOM      8  C   UNL A   1      33.966  22.381  23.614  1.00  0.00     0.027 C 
ATOM      9  C   UNL A   1      32.020  21.949  24.752  1.00  0.00    -0.027 C 
ATOM     10  C   UNL A   1      32.752  22.660  22.703  1.00  0.00     0.017 C 
ATOM     11  C   UNL A   1      33.279  21.505  24.623  1.00  0.00    -0.027 C 
BRANCH   6  12
ATOM     12  C   UNL A   1      32.362  24.637  25.868  1.00  0.00     0.229 C 
ATOM     13  N   UNL A   1      31.854  25.851  26.225  1.00  0.00    -0.323 N 
ATOM     14  H   UNL A   1      31.462  25.851  27.129  1.00  0.00     0.170 HD
ATOM     15  O   UNL A   1      32.482  23.813  26.780  1.00  0.00    -0.274 OA
BRANCH  13  16
ATOM     16  C   UNL A   1      31.768  27.100  25.589  1.00  0.00     0.084 A 
ATOM     17  C   UNL A   1      32.658  28.096  26.035  1.00  0.00     0.142 A 
ATOM     18  C   UNL A   1      32.735  29.334  25.399  1.00  0.00     0.049 A 
ATOM     19  C   UNL A   1      31.942  29.583  24.278  1.00  0.00     0.018 A 
ATOM     20  C   UNL A   1      30.902  27.411  24.543  1.00  0.00     0.044 A 
ATOM     21  C   UNL A   1      31.031  28.615  23.839  1.00  0.00     0.042 A 
BRANCH  17  22
ATOM     22  O   UNL A   1      33.426  27.900  27.157  1.00  0.00    -0.495 OA
ATOM     23  C   UNL A   1      34.510  28.829  27.234  1.00  0.00     0.278 C 
ENDBRANCH  17  22
BRANCH  21  24
ATOM     24  C   UNL A   1      30.133  28.932  22.697  1.00  0.00     0.253 C 
ATOM     25  O   UNL A   1      30.075  28.103  21.790  1.00  0.00    -0.269 OA
ATOM     26  N   UNL A   1      29.420  30.133  22.675  1.00  0.00    -0.345 N 
ATOM     27  C   UNL A   1      29.175  31.006  23.816  1.00  0.00     0.146 C 
ATOM     28  C   UNL A   1      28.737  30.507  21.447  1.00  0.00     0.146 C 
ENDBRANCH  21  24
ENDBRANCH  13  16
ENDBRANCH   6  12
ENDBRANCH   3   5
ENDBRANCH   2   3
ENDBRANCH   1   2
BRANCH   1  29
ATOM     29  C   UNL A   1      38.332  22.764  26.020  1.00  0.00     0.275 C 
BRANCH  29  30
ATOM     30  O   UNL A   1      38.530  23.942  26.824  1.00  0.00    -0.458 OA
BRANCH  30  31
ATOM     31  C   UNL A   1      39.771  24.469  26.750  1.00  0.00     0.338 C 
ATOM     32  O   UNL A   1      40.646  24.220  25.929  1.00  0.00    -0.246 OA
BRANCH  31  33
ATOM     33  C   UNL A   1      39.964  25.439  27.830  1.00  0.00     0.060 A 
ATOM     34  C   UNL A   1      39.090  25.457  28.919  1.00  0.00     0.016 A 
ATOM     35  C   UNL A   1      40.940  26.422  27.681  1.00  0.00     0.016 A 
ATOM     36  C   UNL A   1      39.138  26.516  29.824  1.00  0.00     0.010 A 
ATOM     37  C   UNL A   1      41.042  27.432  28.636  1.00  0.00     0.010 A 
ATOM     38  C   UNL A   1      40.123  27.509  29.697  1.00  0.00    -0.014 A 
BRANCH  38  39
ATOM     39  C   UNL A   1      40.210  28.635  30.662  1.00  0.00     0.031 A 
ATOM     40  C   UNL A   1      41.181  28.575  31.810  1.00  0.00     0.074 A 
ATOM     41  C   UNL A   1      39.378  29.686  30.538  1.00  0.00     0.049 A 
ATOM     42  N   UNL A   1      41.258  29.342  32.866  1.00  0.00    -0.248 NA
ATOM     43  C   UNL A   1      42.184  27.499  31.770  1.00  0.00     0.031 C 
ATOM     44  C   UNL A   1      38.409  29.879  29.458  1.00  0.00     0.029 A 
ATOM     45  N   UNL A   1      39.200  30.782  31.346  1.00  0.00    -0.354 N 
ATOM     46  C   UNL A   1      42.285  28.816  33.643  1.00  0.00     0.074 A 
ATOM     47  C   UNL A   1      42.799  27.662  32.935  1.00  0.00     0.031 C 
ATOM     48  C   UNL A   1      37.739  31.022  29.670  1.00  0.00     0.029 A 
ATOM     49  C   UNL A   1      38.178  31.602  30.934  1.00  0.00     0.049 A 
ATOM     50  H   UNL A   1      39.750  30.962  32.143  1.00  0.00     0.167 HD
ATOM     51  C   UNL A   1      42.751  29.249  34.839  1.00  0.00     0.031 A 
ATOM     52  C   UNL A   1      37.616  32.673  31.525  1.00  0.00     0.031 A 
ATOM     53  C   UNL A   1      42.241  30.402  35.534  1.00  0.00     0.049 A 
ATOM     54  C   UNL A   1      38.128  33.124  32.861  1.00  0.00     0.074 A 
ATOM     55  C   UNL A   1      42.648  30.931  36.747  1.00  0.00     0.029 A 
ATOM     56  N   UNL A   1      41.212  31.211  35.072  1.00  0.00    -0.354 N 
ATOM     57  N   UNL A   1      39.080  32.599  33.596  1.00  0.00    -0.248 NA
ATOM     58  C   UNL A   1      37.487  34.307  33.451  1.00  0.00     0.031 C 
ATOM     59  C   UNL A   1      41.841  32.039  37.035  1.00  0.00     0.029 A 
ATOM     60  C   UNL A   1      40.962  32.226  35.980  1.00  0.00     0.049 A 
ATOM     61  H   UNL A   1      40.731  31.082  34.223  1.00  0.00     0.167 HD
ATOM     62  C   UNL A   1      39.154  33.389  34.736  1.00  0.00     0.074 A 
ATOM     63  C   UNL A   1      38.166  34.439  34.583  1.00  0.00     0.031 C 
ATOM     64  C   UNL A   1      39.964  33.254  35.815  1.00  0.00     0.031 A 
BRANCH  51  65
ATOM     65  C   UNL A   1      43.838  28.435  35.490  1.00  0.00    -0.014 A 
ATOM     66  C   UNL A   1      45.197  28.693  35.239  1.00  0.00     0.010 A 
ATOM     67  C   UNL A   1      43.491  27.388  36.364  1.00  0.00     0.010 A 
ATOM     68  C   UNL A   1      46.187  27.886  35.804  1.00  0.00     0.020 A 
ATOM     69  C   UNL A   1      44.479  26.592  36.950  1.00  0.00     0.020 A 
ATOM     70  C   UNL A   1      45.821  26.830  36.646  1.00  0.00     0.054 A 
BRANCH  70  71
ATOM     71  S   UNL A   1      47.120  25.779  37.353  1.00  0.00     0.124 S 
ATOM     72  O   UNL A   1      47.294  26.369  38.677  1.00  0.00    -0.237 OA
ATOM     73  O   UNL A   1      46.511  24.452  37.333  1.00  0.00    -0.237 OA
ATOM     74  O   UNL A   1      48.245  25.958  36.437  1.00  0.00    -0.744 OA
ENDBRANCH  70  71
ENDBRANCH  51  65
BRANCH  52  75
ATOM     75  C   UNL A   1      36.474  33.350  30.860  1.00  0.00    -0.014 A 
ATOM     76  C   UNL A   1      35.230  33.451  31.504  1.00  0.00     0.010 A 
ATOM     77  C   UNL A   1      36.653  33.969  29.608  1.00  0.00     0.010 A 
ATOM     78  C   UNL A   1      34.188  34.171  30.913  1.00  0.00     0.020 A 
ATOM     79  C   UNL A   1      35.622  34.709  29.026  1.00  0.00     0.020 A 
ATOM     80  C   UNL A   1      34.393  34.803  29.683  1.00  0.00     0.054 A 
BRANCH  80  81
ATOM     81  S   UNL A   1      33.065  35.825  28.986  1.00  0.00     0.124 S 
ATOM     82  O   UNL A   1      33.815  36.859  28.282  1.00  0.00    -0.237 OA
ATOM     83  O   UNL A   1      32.344  34.876  28.139  1.00  0.00    -0.237 OA
ATOM     84  O   UNL A   1      32.329  36.274  30.166  1.00  0.00    -0.744 OA
ENDBRANCH  80  81
ENDBRANCH  52  75
BRANCH  64  85
ATOM     85  C   UNL A   1      39.823  34.278  36.906  1.00  0.00    -0.014 A 
ATOM     86  C   UNL A   1      39.120  33.985  38.087  1.00  0.00     0.010 A 
ATOM     87  C   UNL A   1      40.430  35.538  36.759  1.00  0.00     0.010 A 
ATOM     88  C   UNL A   1      39.001  34.947  39.093  1.00  0.00     0.020 A 
ATOM     89  C   UNL A   1      40.330  36.495  37.772  1.00  0.00     0.020 A 
ATOM     90  C   UNL A   1      39.603  36.198  38.928  1.00  0.00     0.054 A 
BRANCH  90  91
ATOM     91  S   UNL A   1      39.465  37.421  40.259  1.00  0.00     0.124 S 
ATOM     92  O   UNL A   1      40.865  37.661  40.597  1.00  0.00    -0.237 OA
ATOM     93  O   UNL A   1      38.775  38.533  39.609  1.00  0.00    -0.237 OA
ATOM     94  O   UNL A   1      38.685  36.728  41.284  1.00  0.00    -0.744 OA
ENDBRANCH  90  91
ENDBRANCH  64  85
ENDBRANCH  38  39
ENDBRANCH  31  33
ENDBRANCH  30  31
ENDBRANCH  29  30
ENDBRANCH   1  29
TORSDOF 18
ENDMDL
MODEL 3
REMARK VINA RESULT:     -11.1      3.116      3.889
REMARK SMILES COc1ccc(C(=O)N(C)C)cc1NC(=O)[C@H]1[C@@H](C(=O)OCCOC(=O)c2ccc(-c3c4nc(c(-c5ccc(S(=O)(=O)[O-])cc5)c5ccc([nH]5)c(-c5ccc(S(=O)(=O)[O-])cc5)c5nc(c(-c6ccc(S(=O)(=O)[O-])cc6)c6ccc3[nH]6)C=C5)C=C4)cc2)[C@H]2C=C[C@@H]1C2
REMARK SMILES IDX 22 1 21 2 19 3 20 4 18 5 17 6 90 7 87 8 89 9 91 10 88 11
REMARK SMILES IDX 15 12 14 13 16 15 13 16 3 17 4 18 5 19 12 20 6 21 2 22 1 23
REMARK SMILES IDX 7 24 8 25 9 26 10 27 11 28 23 29 24 30 25 31 26 32 27 33
REMARK SMILES IDX 28 34 86 35 29 36 85 37 30 38 31 39 32 40 79 41 33 42 84 43
REMARK SMILES IDX 78 44 80 45 34 46 83 47 77 48 76 49 35 51 65 52 46 53 64 54
REMARK SMILES IDX 47 55 50 56 63 57 81 58 48 59 49 60 62 62 82 63 51 64 36 65
REMARK SMILES IDX 37 66 45 67 38 68 44 69 39 70 40 71 41 72 42 73 43 74 66 75
REMARK SMILES IDX 67 76 75 77 68 78 74 79 69 80 70 81 71 82 72 83 73 84 52 85
REMARK SMILES IDX 53 86 61 87 54 88 60 89 55 90 56 91 57 92 58 93 59 94
REMARK H PARENT 14 14 80 50 50 61
REMARK Flexibility Score: inf
ROOT
ATOM      1  C   UNL A   1      33.421  28.956  24.456  1.00  0.00     0.274 C 
ENDROOT
BRANCH   1   2
ATOM      2  O   UNL A   1      32.632  27.756  24.396  1.00  0.00    -0.462 OA
BRANCH   2   3
ATOM      3  C   UNL A   1      33.197  26.658  24.932  1.00  0.00     0.310 C 
ATOM      4  O   UNL A   1      34.403  26.421  24.954  1.00  0.00    -0.252 OA
BRANCH   3   5
ATOM      5  C   UNL A   1      32.224  25.684  25.532  1.00  0.00     0.119 C 
ATOM      6  C   UNL A   1      32.165  24.289  24.855  1.00  0.00     0.100 C 
ATOM      7  C   UNL A   1      30.650  23.945  24.953  1.00  0.00     0.025 C 
ATOM      8  C   UNL A   1      30.740  26.027  25.777  1.00  0.00     0.027 C 
ATOM      9  C   UNL A   1      29.877  24.841  24.011  1.00  0.00    -0.027 C 
ATOM     10  C   UNL A   1      30.256  24.644  26.260  1.00  0.00     0.017 C 
ATOM     11  C   UNL A   1      29.960  26.090  24.494  1.00  0.00    -0.027 C 
BRANCH   6  12
ATOM     12  C   UNL A   1      32.666  24.156  23.425  1.00  0.00     0.229 C 
ATOM     13  N   UNL A   1      33.313  23.038  22.989  1.00  0.00    -0.323 N 
ATOM     14  H   UNL A   1      33.398  23.003  22.008  1.00  0.00     0.170 HD
ATOM     15  O   UNL A   1      32.507  25.049  22.587  1.00  0.00    -0.274 OA
BRANCH  13  16
ATOM     16  C   UNL A   1      33.887  21.927  23.630  1.00  0.00     0.084 A 
ATOM     17  C   UNL A   1      35.227  22.061  24.041  1.00  0.00     0.142 A 
ATOM     18  C   UNL A   1      35.857  21.064  24.785  1.00  0.00     0.049 A 
ATOM     19  C   UNL A   1      35.140  19.928  25.160  1.00  0.00     0.018 A 
ATOM     20  C   UNL A   1      33.226  20.734  23.914  1.00  0.00     0.044 A 
ATOM     21  C   UNL A   1      33.816  19.766  24.736  1.00  0.00     0.042 A 
BRANCH  17  22
ATOM     22  O   UNL A   1      35.974  23.148  23.658  1.00  0.00    -0.495 OA
ATOM     23  C   UNL A   1      36.850  23.590  24.698  1.00  0.00     0.278 C 
ENDBRANCH  17  22
BRANCH  21  24
ATOM     24  C   UNL A   1      33.098  18.508  25.072  1.00  0.00     0.253 C 
ATOM     25  O   UNL A   1      32.218  18.584  25.929  1.00  0.00    -0.269 OA
ATOM     26  N   UNL A   1      33.443  17.310  24.442  1.00  0.00    -0.345 N 
ATOM     27  C   UNL A   1      34.221  17.178  23.217  1.00  0.00     0.146 C 
ATOM     28  C   UNL A   1      32.879  16.073  24.958  1.00  0.00     0.146 C 
ENDBRANCH  21  24
ENDBRANCH  13  16
ENDBRANCH   6  12
ENDBRANCH   3   5
ENDBRANCH   2   3
ENDBRANCH   1   2
BRANCH   1  29
ATOM     29  C   UNL A   1      33.153  29.658  25.780  1.00  0.00     0.275 C 
BRANCH  29  30
ATOM     30  O   UNL A   1      34.167  29.291  26.734  1.00  0.00    -0.458 OA
BRANCH  30  31
ATOM     31  C   UNL A   1      34.489  30.266  27.612  1.00  0.00     0.338 C 
ATOM     32  O   UNL A   1      33.787  31.193  27.997  1.00  0.00    -0.246 OA
BRANCH  31  33
ATOM     33  C   UNL A   1      35.861  30.073  28.086  1.00  0.00     0.060 A 
ATOM     34  C   UNL A   1      36.931  30.171  27.194  1.00  0.00     0.016 A 
ATOM     35  C   UNL A   1      36.063  29.654  29.400  1.00  0.00     0.016 A 
ATOM     36  C   UNL A   1      38.203  29.768  27.596  1.00  0.00     0.010 A 
ATOM     37  C   UNL A   1      37.351  29.335  29.823  1.00  0.00     0.010 A 
ATOM     38  C   UNL A   1      38.428  29.356  28.919  1.00  0.00    -0.014 A 
BRANCH  38  39
ATOM     39  C   UNL A   1      39.779  28.943  29.378  1.00  0.00     0.031 A 
ATOM     40  C   UNL A   1      40.650  29.909  30.134  1.00  0.00     0.074 A 
ATOM     41  C   UNL A   1      40.245  27.719  29.067  1.00  0.00     0.049 A 
ATOM     42  N   UNL A   1      41.921  29.819  30.429  1.00  0.00    -0.248 NA
ATOM     43  C   UNL A   1      40.007  31.147  30.604  1.00  0.00     0.031 C 
ATOM     44  C   UNL A   1      39.495  26.679  28.361  1.00  0.00     0.029 A 
ATOM     45  N   UNL A   1      41.476  27.151  29.286  1.00  0.00    -0.354 N 
ATOM     46  C   UNL A   1      42.246  31.006  31.076  1.00  0.00     0.074 A 
ATOM     47  C   UNL A   1      41.037  31.802  31.128  1.00  0.00     0.031 C 
ATOM     48  C   UNL A   1      40.279  25.602  28.206  1.00  0.00     0.029 A 
ATOM     49  C   UNL A   1      41.605  25.900  28.733  1.00  0.00     0.049 A 
ATOM     50  H   UNL A   1      42.195  27.597  29.790  1.00  0.00     0.167 HD
ATOM     51  C   UNL A   1      43.443  31.401  31.573  1.00  0.00     0.031 A 
ATOM     52  C   UNL A   1      42.680  25.098  28.614  1.00  0.00     0.031 A 
ATOM     53  C   UNL A   1      44.639  30.602  31.525  1.00  0.00     0.049 A 
ATOM     54  C   UNL A   1      44.003  25.562  29.147  1.00  0.00     0.074 A 
ATOM     55  C   UNL A   1      45.902  30.905  32.006  1.00  0.00     0.029 A 
ATOM     56  N   UNL A   1      44.720  29.335  30.965  1.00  0.00    -0.354 N 
ATOM     57  N   UNL A   1      44.300  26.699  29.731  1.00  0.00    -0.248 NA
ATOM     58  C   UNL A   1      45.135  24.638  29.002  1.00  0.00     0.031 C 
ATOM     59  C   UNL A   1      46.754  29.835  31.705  1.00  0.00     0.029 A 
ATOM     60  C   UNL A   1      46.012  28.848  31.077  1.00  0.00     0.049 A 
ATOM     61  H   UNL A   1      43.969  28.853  30.549  1.00  0.00     0.167 HD
ATOM     62  C   UNL A   1      45.656  26.627  30.024  1.00  0.00     0.074 A 
ATOM     63  C   UNL A   1      46.114  25.327  29.574  1.00  0.00     0.031 C 
ATOM     64  C   UNL A   1      46.451  27.557  30.609  1.00  0.00     0.031 A 
BRANCH  51  65
ATOM     65  C   UNL A   1      43.519  32.783  32.167  1.00  0.00    -0.014 A 
ATOM     66  C   UNL A   1      43.295  33.005  33.537  1.00  0.00     0.010 A 
ATOM     67  C   UNL A   1      43.816  33.879  31.336  1.00  0.00     0.010 A 
ATOM     68  C   UNL A   1      43.309  34.303  34.055  1.00  0.00     0.020 A 
ATOM     69  C   UNL A   1      43.853  35.177  31.854  1.00  0.00     0.020 A 
ATOM     70  C   UNL A   1      43.575  35.383  33.207  1.00  0.00     0.054 A 
BRANCH  70  71
ATOM     71  S   UNL A   1      43.566  37.062  33.894  1.00  0.00     0.124 S 
ATOM     72  O   UNL A   1      42.342  37.053  34.691  1.00  0.00    -0.237 OA
ATOM     73  O   UNL A   1      44.811  37.106  34.657  1.00  0.00    -0.237 OA
ATOM     74  O   UNL A   1      43.535  37.919  32.712  1.00  0.00    -0.744 OA
ENDBRANCH  70  71
ENDBRANCH  51  65
BRANCH  52  75
ATOM     75  C   UNL A   1      42.535  23.796  27.914  1.00  0.00    -0.014 A 
ATOM     76  C   UNL A   1      42.930  23.658  26.574  1.00  0.00     0.010 A 
ATOM     77  C   UNL A   1      42.076  22.665  28.617  1.00  0.00     0.010 A 
ATOM     78  C   UNL A   1      42.879  22.407  25.950  1.00  0.00     0.020 A 
ATOM     79  C   UNL A   1      42.046  21.411  28.004  1.00  0.00     0.020 A 
ATOM     80  C   UNL A   1      42.447  21.290  26.672  1.00  0.00     0.054 A 
BRANCH  80  81
ATOM     81  S   UNL A   1      42.495  19.659  25.880  1.00  0.00     0.124 S 
ATOM     82  O   UNL A   1      43.455  19.872  24.802  1.00  0.00    -0.237 OA
ATOM     83  O   UNL A   1      42.945  18.791  26.966  1.00  0.00    -0.237 OA
ATOM     84  O   UNL A   1      41.112  19.445  25.458  1.00  0.00    -0.744 OA
ENDBRANCH  80  81
ENDBRANCH  52  75
BRANCH  64  85
ATOM     85  C   UNL A   1      47.895  27.190  30.809  1.00  0.00    -0.014 A 
ATOM     86  C   UNL A   1      48.310  26.485  31.952  1.00  0.00     0.010 A 
ATOM     87  C   UNL A   1      48.841  27.527  29.825  1.00  0.00     0.010 A 
ATOM     88  C   UNL A   1      49.655  26.148  32.122  1.00  0.00     0.020 A 
ATOM     89  C   UNL A   1      50.183  27.173  29.982  1.00  0.00     0.020 A 
ATOM     90  C   UNL A   1      50.584  26.498  31.137  1.00  0.00     0.054 A 
BRANCH  90  91
ATOM     91  S   UNL A   1      52.320  26.022  31.361  1.00  0.00     0.124 S 
ATOM     92  O   UNL A   1      52.824  26.059  29.991  1.00  0.00    -0.237 OA
ATOM     93  O   UNL A   1      52.831  27.066  32.247  1.00  0.00    -0.237 OA
ATOM     94  O   UNL A   1      52.238  24.692  31.961  1.00  0.00    -0.744 OA
ENDBRANCH  90  91
ENDBRANCH  64  85
ENDBRANCH  38  39
ENDBRANCH  31  33
ENDBRANCH  30  31
ENDBRANCH  29  30
ENDBRANCH   1  29
TORSDOF 18
ENDMDL
