MODEL 1
REMARK VINA RESULT:     -10.2      0.000      0.000
REMARK SMILES CCc1[nH]nc(-n2cccc2)c1C(=O)OCCOC(=O)c1ccc(-c2c3nc(c(-c4ccc(S(=O)(=O)[O-])cc4)c4ccc([nH]4)c(-c4ccc(S(=O)(=O)[O-])cc4)c4nc(c(-c5ccc(S(=O)(=O)[O-])cc5)c5ccc2[nH]5)C=C4)C=C3)cc1
REMARK SMILES IDX 17 1 16 2 15 3 13 4 14 5 12 6 3 7 4 8 5 9 6 11 2 12 1 13
REMARK SMILES IDX 7 14 8 15 11 16 9 17 10 18 18 19 19 20 20 21 21 22 22 23
REMARK SMILES IDX 80 24 23 25 79 26 24 27 25 28 26 29 73 30 27 31 78 32 72 33
REMARK SMILES IDX 74 34 28 35 77 36 71 37 70 38 29 40 59 41 40 42 58 43 41 44
REMARK SMILES IDX 44 45 57 46 75 47 42 48 43 49 56 51 76 52 45 53 30 54 31 55
REMARK SMILES IDX 39 56 32 57 38 58 33 59 34 60 35 61 36 62 37 63 60 64 61 65
REMARK SMILES IDX 69 66 62 67 68 68 63 69 64 70 65 71 66 72 67 73 46 74 47 75
REMARK SMILES IDX 55 76 48 77 54 78 49 79 50 80 51 81 52 82 53 83
REMARK H PARENT 4 10 74 39 44 50
REMARK Flexibility Score: inf
ROOT
ATOM      1  C   UNL A   1      35.060  31.723  28.168  1.00  0.00     0.275 C 
ENDROOT
BRANCH   1   2
ATOM      2  C   UNL A   1      35.134  31.845  29.696  1.00  0.00     0.275 C 
BRANCH   2   3
ATOM      3  O   UNL A   1      34.165  32.749  30.273  1.00  0.00    -0.458 OA
BRANCH   3   4
ATOM      4  C   UNL A   1      34.562  34.038  30.550  1.00  0.00     0.343 C 
ATOM      5  O   UNL A   1      34.775  34.870  29.696  1.00  0.00    -0.246 OA
BRANCH   4   6
ATOM      6  C   UNL A   1      34.684  34.310  31.988  1.00  0.00     0.125 A 
ATOM      7  C   UNL A   1      33.990  35.232  32.777  1.00  0.00     0.052 A 
ATOM      8  N   UNL A   1      34.509  35.115  34.042  1.00  0.00    -0.280 N 
ATOM      9  N   UNL A   1      35.528  34.259  34.139  1.00  0.00    -0.156 NA
ATOM     10  H   UNL A   1      34.159  35.619  34.812  1.00  0.00     0.190 HD
ATOM     11  C   UNL A   1      35.618  33.752  32.906  1.00  0.00     0.173 A 
BRANCH   7  12
ATOM     12  C   UNL A   1      32.896  36.209  32.480  1.00  0.00     0.053 C 
ATOM     13  C   UNL A   1      33.383  37.497  31.826  1.00  0.00     0.011 C 
ENDBRANCH   7  12
BRANCH  11  14
ATOM     14  N   UNL A   1      36.672  32.831  32.667  1.00  0.00    -0.306 N 
ATOM     15  C   UNL A   1      36.673  31.505  33.051  1.00  0.00     0.093 A 
ATOM     16  C   UNL A   1      37.794  33.043  31.894  1.00  0.00     0.093 A 
ATOM     17  C   UNL A   1      37.865  30.931  32.673  1.00  0.00     0.020 A 
ATOM     18  C   UNL A   1      38.554  31.891  31.896  1.00  0.00     0.020 A 
ENDBRANCH  11  14
ENDBRANCH   4   6
ENDBRANCH   3   4
ENDBRANCH   2   3
ENDBRANCH   1   2
BRANCH   1  19
ATOM     19  O   UNL A   1      36.282  31.265  27.584  1.00  0.00    -0.458 OA
BRANCH  19  20
ATOM     20  C   UNL A   1      36.479  29.958  27.842  1.00  0.00     0.338 C 
ATOM     21  O   UNL A   1      35.726  29.037  27.550  1.00  0.00    -0.246 OA
BRANCH  20  22
ATOM     22  C   UNL A   1      37.631  29.700  28.690  1.00  0.00     0.060 A 
ATOM     23  C   UNL A   1      38.850  29.979  28.070  1.00  0.00     0.016 A 
ATOM     24  C   UNL A   1      37.521  28.825  29.775  1.00  0.00     0.016 A 
ATOM     25  C   UNL A   1      39.945  29.224  28.395  1.00  0.00     0.010 A 
ATOM     26  C   UNL A   1      38.632  28.070  30.117  1.00  0.00     0.010 A 
ATOM     27  C   UNL A   1      39.815  28.240  29.382  1.00  0.00    -0.014 A 
BRANCH  27  28
ATOM     28  C   UNL A   1      41.066  27.608  29.805  1.00  0.00     0.031 A 
ATOM     29  C   UNL A   1      41.225  26.298  28.978  1.00  0.00     0.074 A 
ATOM     30  C   UNL A   1      41.739  28.214  30.843  1.00  0.00     0.049 A 
ATOM     31  N   UNL A   1      41.900  25.233  29.254  1.00  0.00    -0.248 NA
ATOM     32  C   UNL A   1      40.464  26.097  27.697  1.00  0.00     0.031 C 
ATOM     33  C   UNL A   1      41.375  29.510  31.482  1.00  0.00     0.029 A 
ATOM     34  N   UNL A   1      42.862  27.889  31.581  1.00  0.00    -0.354 N 
ATOM     35  C   UNL A   1      41.876  24.393  28.115  1.00  0.00     0.074 A 
ATOM     36  C   UNL A   1      40.866  24.904  27.250  1.00  0.00     0.031 C 
ATOM     37  C   UNL A   1      42.189  29.801  32.531  1.00  0.00     0.029 A 
ATOM     38  C   UNL A   1      43.196  28.764  32.669  1.00  0.00     0.049 A 
ATOM     39  H   UNL A   1      43.407  27.097  31.370  1.00  0.00     0.167 HD
ATOM     40  C   UNL A   1      42.833  23.445  27.898  1.00  0.00     0.031 A 
ATOM     41  C   UNL A   1      44.209  28.629  33.597  1.00  0.00     0.031 A 
ATOM     42  C   UNL A   1      43.711  23.415  29.020  1.00  0.00     0.049 A 
ATOM     43  C   UNL A   1      45.035  27.561  33.026  1.00  0.00     0.074 A 
ATOM     44  C   UNL A   1      43.501  23.029  30.319  1.00  0.00     0.029 A 
ATOM     45  N   UNL A   1      44.783  24.274  28.949  1.00  0.00    -0.354 N 
ATOM     46  N   UNL A   1      45.807  27.710  31.994  1.00  0.00    -0.248 NA
ATOM     47  C   UNL A   1      44.993  26.226  33.631  1.00  0.00     0.031 C 
ATOM     48  C   UNL A   1      44.081  24.094  31.034  1.00  0.00     0.029 A 
ATOM     49  C   UNL A   1      44.893  24.855  30.182  1.00  0.00     0.049 A 
ATOM     50  H   UNL A   1      45.358  24.438  28.167  1.00  0.00     0.167 HD
ATOM     51  C   UNL A   1      45.959  26.417  31.580  1.00  0.00     0.074 A 
ATOM     52  C   UNL A   1      45.767  25.585  32.756  1.00  0.00     0.031 C 
ATOM     53  C   UNL A   1      45.610  26.098  30.305  1.00  0.00     0.031 A 
BRANCH  40  54
ATOM     54  C   UNL A   1      43.296  22.719  26.668  1.00  0.00    -0.014 A 
ATOM     55  C   UNL A   1      42.614  21.509  26.371  1.00  0.00     0.010 A 
ATOM     56  C   UNL A   1      44.535  22.937  26.050  1.00  0.00     0.010 A 
ATOM     57  C   UNL A   1      43.211  20.491  25.631  1.00  0.00     0.020 A 
ATOM     58  C   UNL A   1      45.120  21.930  25.259  1.00  0.00     0.020 A 
ATOM     59  C   UNL A   1      44.477  20.698  25.102  1.00  0.00     0.054 A 
BRANCH  59  60
ATOM     60  S   UNL A   1      45.277  19.303  24.265  1.00  0.00     0.124 S 
ATOM     61  O   UNL A   1      44.641  19.325  22.950  1.00  0.00    -0.237 OA
ATOM     62  O   UNL A   1      46.685  19.694  24.284  1.00  0.00    -0.237 OA
ATOM     63  O   UNL A   1      44.945  18.159  25.108  1.00  0.00    -0.744 OA
ENDBRANCH  59  60
ENDBRANCH  40  54
BRANCH  41  64
ATOM     64  C   UNL A   1      44.779  29.129  34.929  1.00  0.00    -0.014 A 
ATOM     65  C   UNL A   1      44.272  28.902  36.213  1.00  0.00     0.010 A 
ATOM     66  C   UNL A   1      46.105  29.679  34.899  1.00  0.00     0.010 A 
ATOM     67  C   UNL A   1      45.109  29.039  37.363  1.00  0.00     0.020 A 
ATOM     68  C   UNL A   1      46.957  29.746  36.005  1.00  0.00     0.020 A 
ATOM     69  C   UNL A   1      46.464  29.385  37.241  1.00  0.00     0.054 A 
BRANCH  69  70
ATOM     70  S   UNL A   1      47.627  29.200  38.634  1.00  0.00     0.124 S 
ATOM     71  O   UNL A   1      48.927  29.225  37.973  1.00  0.00    -0.237 OA
ATOM     72  O   UNL A   1      47.317  30.361  39.466  1.00  0.00    -0.237 OA
ATOM     73  O   UNL A   1      47.255  27.915  39.227  1.00  0.00    -0.744 OA
ENDBRANCH  69  70
ENDBRANCH  41  64
BRANCH  53  74
ATOM     74  C   UNL A   1      45.666  27.230  29.273  1.00  0.00    -0.014 A 
ATOM     75  C   UNL A   1      46.911  27.803  28.946  1.00  0.00     0.010 A 
ATOM     76  C   UNL A   1      44.533  27.807  28.663  1.00  0.00     0.010 A 
ATOM     77  C   UNL A   1      47.026  28.889  28.059  1.00  0.00     0.020 A 
ATOM     78  C   UNL A   1      44.632  28.905  27.778  1.00  0.00     0.020 A 
ATOM     79  C   UNL A   1      45.887  29.432  27.472  1.00  0.00     0.054 A 
BRANCH  79  80
ATOM     80  S   UNL A   1      46.082  30.810  26.298  1.00  0.00     0.124 S 
ATOM     81  O   UNL A   1      44.765  31.445  26.315  1.00  0.00    -0.237 OA
ATOM     82  O   UNL A   1      47.157  31.591  26.905  1.00  0.00    -0.237 OA
ATOM     83  O   UNL A   1      46.428  30.154  25.038  1.00  0.00    -0.744 OA
ENDBRANCH  79  80
ENDBRANCH  53  74
ENDBRANCH  27  28
ENDBRANCH  20  22
ENDBRANCH  19  20
ENDBRANCH   1  19
TORSDOF 16
ENDMDL
MODEL 2
REMARK VINA RESULT:     -10.0      3.078      8.973
REMARK SMILES CCc1[nH]nc(-n2cccc2)c1C(=O)OCCOC(=O)c1ccc(-c2c3nc(c(-c4ccc(S(=O)(=O)[O-])cc4)c4ccc([nH]4)c(-c4ccc(S(=O)(=O)[O-])cc4)c4nc(c(-c5ccc(S(=O)(=O)[O-])cc5)c5ccc2[nH]5)C=C4)C=C3)cc1
REMARK SMILES IDX 17 1 16 2 15 3 13 4 14 5 12 6 3 7 4 8 5 9 6 11 2 12 1 13
REMARK SMILES IDX 7 14 8 15 11 16 9 17 10 18 18 19 19 20 20 21 21 22 22 23
REMARK SMILES IDX 80 24 23 25 79 26 24 27 25 28 26 29 73 30 27 31 78 32 72 33
REMARK SMILES IDX 74 34 28 35 77 36 71 37 70 38 29 40 59 41 40 42 58 43 41 44
REMARK SMILES IDX 44 45 57 46 75 47 42 48 43 49 56 51 76 52 45 53 30 54 31 55
REMARK SMILES IDX 39 56 32 57 38 58 33 59 34 60 35 61 36 62 37 63 60 64 61 65
REMARK SMILES IDX 69 66 62 67 68 68 63 69 64 70 65 71 66 72 67 73 46 74 47 75
REMARK SMILES IDX 55 76 48 77 54 78 49 79 50 80 51 81 52 82 53 83
REMARK H PARENT 4 10 74 39 44 50
REMARK Flexibility Score: inf
ROOT
ATOM      1  C   UNL A   1      36.930  31.651  31.646  1.00  0.00     0.275 C 
ENDROOT
BRANCH   1   2
ATOM      2  C   UNL A   1      35.891  32.155  32.657  1.00  0.00     0.275 C 
BRANCH   2   3
ATOM      3  O   UNL A   1      34.822  32.936  32.079  1.00  0.00    -0.458 OA
BRANCH   3   4
ATOM      4  C   UNL A   1      35.010  34.293  31.941  1.00  0.00     0.343 C 
ATOM      5  O   UNL A   1      35.843  34.919  32.559  1.00  0.00    -0.246 OA
BRANCH   4   6
ATOM      6  C   UNL A   1      34.112  34.905  30.953  1.00  0.00     0.125 A 
ATOM      7  C   UNL A   1      33.198  35.950  31.114  1.00  0.00     0.052 A 
ATOM      8  N   UNL A   1      32.583  36.107  29.897  1.00  0.00    -0.280 N 
ATOM      9  N   UNL A   1      32.954  35.215  28.976  1.00  0.00    -0.156 NA
ATOM     10  H   UNL A   1      31.926  36.818  29.718  1.00  0.00     0.190 HD
ATOM     11  C   UNL A   1      33.897  34.504  29.604  1.00  0.00     0.173 A 
BRANCH   7  12
ATOM     12  C   UNL A   1      32.835  36.818  32.278  1.00  0.00     0.053 C 
ATOM     13  C   UNL A   1      33.900  37.849  32.633  1.00  0.00     0.011 C 
ENDBRANCH   7  12
BRANCH  11  14
ATOM     14  N   UNL A   1      34.458  33.413  28.889  1.00  0.00    -0.306 N 
ATOM     15  C   UNL A   1      33.738  32.404  28.282  1.00  0.00     0.093 A 
ATOM     16  C   UNL A   1      35.783  33.248  28.544  1.00  0.00     0.093 A 
ATOM     17  C   UNL A   1      34.616  31.513  27.708  1.00  0.00     0.020 A 
ATOM     18  C   UNL A   1      35.908  32.073  27.830  1.00  0.00     0.020 A 
ENDBRANCH  11  14
ENDBRANCH   4   6
ENDBRANCH   3   4
ENDBRANCH   2   3
ENDBRANCH   1   2
BRANCH   1  19
ATOM     19  O   UNL A   1      37.207  30.255  31.778  1.00  0.00    -0.458 OA
BRANCH  19  20
ATOM     20  C   UNL A   1      36.786  29.574  30.696  1.00  0.00     0.338 C 
ATOM     21  O   UNL A   1      35.621  29.368  30.374  1.00  0.00    -0.246 OA
BRANCH  20  22
ATOM     22  C   UNL A   1      37.857  28.912  29.970  1.00  0.00     0.060 A 
ATOM     23  C   UNL A   1      38.821  28.342  30.803  1.00  0.00     0.016 A 
ATOM     24  C   UNL A   1      38.116  29.253  28.639  1.00  0.00     0.016 A 
ATOM     25  C   UNL A   1      40.121  28.297  30.374  1.00  0.00     0.010 A 
ATOM     26  C   UNL A   1      39.429  29.195  28.198  1.00  0.00     0.010 A 
ATOM     27  C   UNL A   1      40.423  28.771  29.092  1.00  0.00    -0.014 A 
BRANCH  27  28
ATOM     28  C   UNL A   1      41.792  28.518  28.638  1.00  0.00     0.031 A 
ATOM     29  C   UNL A   1      42.576  29.858  28.763  1.00  0.00     0.074 A 
ATOM     30  C   UNL A   1      42.049  27.261  28.138  1.00  0.00     0.049 A 
ATOM     31  N   UNL A   1      43.634  30.248  28.136  1.00  0.00    -0.248 NA
ATOM     32  C   UNL A   1      42.077  30.964  29.650  1.00  0.00     0.031 C 
ATOM     33  C   UNL A   1      41.102  26.111  28.133  1.00  0.00     0.029 A 
ATOM     34  N   UNL A   1      43.144  26.672  27.534  1.00  0.00    -0.354 N 
ATOM     35  C   UNL A   1      44.067  31.461  28.722  1.00  0.00     0.074 A 
ATOM     36  C   UNL A   1      42.999  31.925  29.543  1.00  0.00     0.031 C 
ATOM     37  C   UNL A   1      41.625  25.029  27.498  1.00  0.00     0.029 A 
ATOM     38  C   UNL A   1      42.976  25.327  27.060  1.00  0.00     0.049 A 
ATOM     39  H   UNL A   1      43.999  27.151  27.434  1.00  0.00     0.167 HD
ATOM     40  C   UNL A   1      45.360  31.888  28.625  1.00  0.00     0.031 A 
ATOM     41  C   UNL A   1      43.875  24.545  26.363  1.00  0.00     0.031 A 
ATOM     42  C   UNL A   1      46.077  30.988  27.786  1.00  0.00     0.049 A 
ATOM     43  C   UNL A   1      45.129  25.295  26.492  1.00  0.00     0.074 A 
ATOM     44  C   UNL A   1      45.972  30.726  26.444  1.00  0.00     0.029 A 
ATOM     45  N   UNL A   1      46.656  29.919  28.432  1.00  0.00    -0.354 N 
ATOM     46  N   UNL A   1      45.823  25.368  27.585  1.00  0.00    -0.248 NA
ATOM     47  C   UNL A   1      45.645  26.028  25.333  1.00  0.00     0.031 C 
ATOM     48  C   UNL A   1      45.964  29.319  26.424  1.00  0.00     0.029 A 
ATOM     49  C   UNL A   1      46.408  28.821  27.657  1.00  0.00     0.049 A 
ATOM     50  H   UNL A   1      47.150  29.941  29.283  1.00  0.00     0.167 HD
ATOM     51  C   UNL A   1      46.564  26.494  27.361  1.00  0.00     0.074 A 
ATOM     52  C   UNL A   1      46.682  26.624  25.917  1.00  0.00     0.031 C 
ATOM     53  C   UNL A   1      46.485  27.514  28.256  1.00  0.00     0.031 A 
BRANCH  40  54
ATOM     54  C   UNL A   1      46.182  32.856  29.426  1.00  0.00    -0.014 A 
ATOM     55  C   UNL A   1      47.019  33.724  28.676  1.00  0.00     0.010 A 
ATOM     56  C   UNL A   1      46.458  32.706  30.791  1.00  0.00     0.010 A 
ATOM     57  C   UNL A   1      48.173  34.284  29.219  1.00  0.00     0.020 A 
ATOM     58  C   UNL A   1      47.596  33.310  31.357  1.00  0.00     0.020 A 
ATOM     59  C   UNL A   1      48.471  34.049  30.553  1.00  0.00     0.054 A 
BRANCH  59  60
ATOM     60  S   UNL A   1      50.050  34.675  31.187  1.00  0.00     0.124 S 
ATOM     61  O   UNL A   1      49.618  35.632  32.202  1.00  0.00    -0.237 OA
ATOM     62  O   UNL A   1      50.684  33.463  31.700  1.00  0.00    -0.237 OA
ATOM     63  O   UNL A   1      50.689  35.253  30.007  1.00  0.00    -0.744 OA
ENDBRANCH  59  60
ENDBRANCH  40  54
BRANCH  41  64
ATOM     64  C   UNL A   1      44.067  23.267  25.539  1.00  0.00    -0.014 A 
ATOM     65  C   UNL A   1      45.041  23.014  24.569  1.00  0.00     0.010 A 
ATOM     66  C   UNL A   1      43.337  22.107  25.969  1.00  0.00     0.010 A 
ATOM     67  C   UNL A   1      45.380  21.675  24.204  1.00  0.00     0.020 A 
ATOM     68  C   UNL A   1      43.707  20.789  25.680  1.00  0.00     0.020 A 
ATOM     69  C   UNL A   1      44.763  20.574  24.820  1.00  0.00     0.054 A 
BRANCH  69  70
ATOM     70  S   UNL A   1      45.432  18.886  24.651  1.00  0.00     0.124 S 
ATOM     71  O   UNL A   1      45.603  18.751  23.209  1.00  0.00    -0.237 OA
ATOM     72  O   UNL A   1      46.666  18.951  25.431  1.00  0.00    -0.237 OA
ATOM     73  O   UNL A   1      44.391  18.040  25.236  1.00  0.00    -0.744 OA
ENDBRANCH  69  70
ENDBRANCH  41  64
BRANCH  53  74
ATOM     74  C   UNL A   1      46.102  27.140  29.692  1.00  0.00    -0.014 A 
ATOM     75  C   UNL A   1      44.932  27.685  30.258  1.00  0.00     0.010 A 
ATOM     76  C   UNL A   1      46.885  26.328  30.538  1.00  0.00     0.010 A 
ATOM     77  C   UNL A   1      44.558  27.436  31.590  1.00  0.00     0.020 A 
ATOM     78  C   UNL A   1      46.528  26.078  31.883  1.00  0.00     0.020 A 
ATOM     79  C   UNL A   1      45.354  26.627  32.397  1.00  0.00     0.054 A 
BRANCH  79  80
ATOM     80  S   UNL A   1      44.814  26.297  34.105  1.00  0.00     0.124 S 
ATOM     81  O   UNL A   1      45.798  27.025  34.906  1.00  0.00    -0.237 OA
ATOM     82  O   UNL A   1      43.464  26.854  34.122  1.00  0.00    -0.237 OA
ATOM     83  O   UNL A   1      44.886  24.841  34.223  1.00  0.00    -0.744 OA
ENDBRANCH  79  80
ENDBRANCH  53  74
ENDBRANCH  27  28
ENDBRANCH  20  22
ENDBRANCH  19  20
ENDBRANCH   1  19
TORSDOF 16
ENDMDL
MODEL 3
REMARK VINA RESULT:     -10.0      5.671      8.175
REMARK SMILES CCc1[nH]nc(-n2cccc2)c1C(=O)OCCOC(=O)c1ccc(-c2c3nc(c(-c4ccc(S(=O)(=O)[O-])cc4)c4ccc([nH]4)c(-c4ccc(S(=O)(=O)[O-])cc4)c4nc(c(-c5ccc(S(=O)(=O)[O-])cc5)c5ccc2[nH]5)C=C4)C=C3)cc1
REMARK SMILES IDX 17 1 16 2 15 3 13 4 14 5 12 6 3 7 4 8 5 9 6 11 2 12 1 13
REMARK SMILES IDX 7 14 8 15 11 16 9 17 10 18 18 19 19 20 20 21 21 22 22 23
REMARK SMILES IDX 80 24 23 25 79 26 24 27 25 28 26 29 73 30 27 31 78 32 72 33
REMARK SMILES IDX 74 34 28 35 77 36 71 37 70 38 29 40 59 41 40 42 58 43 41 44
REMARK SMILES IDX 44 45 57 46 75 47 42 48 43 49 56 51 76 52 45 53 30 54 31 55
REMARK SMILES IDX 39 56 32 57 38 58 33 59 34 60 35 61 36 62 37 63 60 64 61 65
REMARK SMILES IDX 69 66 62 67 68 68 63 69 64 70 65 71 66 72 67 73 46 74 47 75
REMARK SMILES IDX 55 76 48 77 54 78 49 79 50 80 51 81 52 82 53 83
REMARK H PARENT 4 10 74 39 44 50
REMARK Flexibility Score: inf
ROOT
ATOM      1  C   UNL A   1      32.830  31.296  27.294  1.00  0.00     0.275 C 
ENDROOT
BRANCH   1   2
ATOM      2  C   UNL A   1      32.919  30.088  26.352  1.00  0.00     0.275 C 
BRANCH   2   3
ATOM      3  O   UNL A   1      31.680  29.753  25.688  1.00  0.00    -0.458 OA
BRANCH   3   4
ATOM      4  C   UNL A   1      31.746  29.215  24.422  1.00  0.00     0.343 C 
ATOM      5  O   UNL A   1      32.721  29.302  23.708  1.00  0.00    -0.246 OA
BRANCH   4   6
ATOM      6  C   UNL A   1      30.521  28.505  24.030  1.00  0.00     0.125 A 
ATOM      7  C   UNL A   1      30.232  27.139  24.088  1.00  0.00     0.052 A 
ATOM      8  N   UNL A   1      28.972  26.995  23.564  1.00  0.00    -0.280 N 
ATOM      9  N   UNL A   1      28.439  28.128  23.100  1.00  0.00    -0.156 NA
ATOM     10  H   UNL A   1      28.501  26.131  23.534  1.00  0.00     0.190 HD
ATOM     11  C   UNL A   1      29.363  29.045  23.404  1.00  0.00     0.173 A 
BRANCH   7  12
ATOM     12  C   UNL A   1      31.002  25.953  24.578  1.00  0.00     0.053 C 
ATOM     13  C   UNL A   1      30.496  25.396  25.904  1.00  0.00     0.011 C 
ENDBRANCH   7  12
BRANCH  11  14
ATOM     14  N   UNL A   1      29.109  30.375  22.977  1.00  0.00    -0.306 N 
ATOM     15  C   UNL A   1      28.789  30.749  21.687  1.00  0.00     0.093 A 
ATOM     16  C   UNL A   1      28.984  31.490  23.779  1.00  0.00     0.093 A 
ATOM     17  C   UNL A   1      28.637  32.116  21.643  1.00  0.00     0.020 A 
ATOM     18  C   UNL A   1      28.711  32.580  22.978  1.00  0.00     0.020 A 
ENDBRANCH  11  14
ENDBRANCH   4   6
ENDBRANCH   3   4
ENDBRANCH   2   3
ENDBRANCH   1   2
BRANCH   1  19
ATOM     19  O   UNL A   1      34.080  31.972  27.455  1.00  0.00    -0.458 OA
BRANCH  19  20
ATOM     20  C   UNL A   1      33.935  33.081  28.205  1.00  0.00     0.338 C 
ATOM     21  O   UNL A   1      33.190  34.025  27.972  1.00  0.00    -0.246 OA
BRANCH  20  22
ATOM     22  C   UNL A   1      34.898  33.179  29.290  1.00  0.00     0.060 A 
ATOM     23  C   UNL A   1      36.140  33.672  28.887  1.00  0.00     0.016 A 
ATOM     24  C   UNL A   1      34.730  32.412  30.447  1.00  0.00     0.016 A 
ATOM     25  C   UNL A   1      37.266  33.225  29.526  1.00  0.00     0.010 A 
ATOM     26  C   UNL A   1      35.868  31.972  31.104  1.00  0.00     0.010 A 
ATOM     27  C   UNL A   1      37.124  32.339  30.599  1.00  0.00    -0.014 A 
BRANCH  27  28
ATOM     28  C   UNL A   1      38.352  32.058  31.345  1.00  0.00     0.031 A 
ATOM     29  C   UNL A   1      38.957  30.746  30.763  1.00  0.00     0.074 A 
ATOM     30  C   UNL A   1      38.637  32.900  32.397  1.00  0.00     0.049 A 
ATOM     31  N   UNL A   1      39.758  29.898  31.316  1.00  0.00    -0.248 NA
ATOM     32  C   UNL A   1      38.560  30.252  29.400  1.00  0.00     0.031 C 
ATOM     33  C   UNL A   1      37.881  34.132  32.760  1.00  0.00     0.029 A 
ATOM     34  N   UNL A   1      39.609  32.917  33.380  1.00  0.00    -0.354 N 
ATOM     35  C   UNL A   1      40.162  28.970  30.327  1.00  0.00     0.074 A 
ATOM     36  C   UNL A   1      39.288  29.147  29.216  1.00  0.00     0.031 C 
ATOM     37  C   UNL A   1      38.363  34.703  33.895  1.00  0.00     0.029 A 
ATOM     38  C   UNL A   1      39.504  33.946  34.375  1.00  0.00     0.049 A 
ATOM     39  H   UNL A   1      40.338  32.256  33.396  1.00  0.00     0.167 HD
ATOM     40  C   UNL A   1      41.318  28.253  30.440  1.00  0.00     0.031 A 
ATOM     41  C   UNL A   1      40.291  34.140  35.493  1.00  0.00     0.031 A 
ATOM     42  C   UNL A   1      41.910  28.536  31.704  1.00  0.00     0.049 A 
ATOM     43  C   UNL A   1      41.425  33.242  35.255  1.00  0.00     0.074 A 
ATOM     44  C   UNL A   1      41.500  28.239  32.979  1.00  0.00     0.029 A 
ATOM     45  N   UNL A   1      42.771  29.609  31.723  1.00  0.00    -0.354 N 
ATOM     46  N   UNL A   1      42.359  33.465  34.384  1.00  0.00    -0.248 NA
ATOM     47  C   UNL A   1      41.525  31.999  36.025  1.00  0.00     0.031 C 
ATOM     48  C   UNL A   1      41.674  29.473  33.633  1.00  0.00     0.029 A 
ATOM     49  C   UNL A   1      42.481  30.316  32.857  1.00  0.00     0.049 A 
ATOM     50  H   UNL A   1      43.460  29.826  31.053  1.00  0.00     0.167 HD
ATOM     51  C   UNL A   1      42.863  32.209  34.197  1.00  0.00     0.074 A 
ATOM     52  C   UNL A   1      42.589  31.473  35.421  1.00  0.00     0.031 C 
ATOM     53  C   UNL A   1      42.881  31.696  32.938  1.00  0.00     0.031 A 
BRANCH  40  54
ATOM     54  C   UNL A   1      42.182  27.539  29.442  1.00  0.00    -0.014 A 
ATOM     55  C   UNL A   1      42.735  28.347  28.412  1.00  0.00     0.010 A 
ATOM     56  C   UNL A   1      42.165  26.152  29.241  1.00  0.00     0.010 A 
ATOM     57  C   UNL A   1      43.097  27.818  27.176  1.00  0.00     0.020 A 
ATOM     58  C   UNL A   1      42.577  25.607  28.011  1.00  0.00     0.020 A 
ATOM     59  C   UNL A   1      42.988  26.449  26.973  1.00  0.00     0.054 A 
BRANCH  59  60
ATOM     60  S   UNL A   1      43.335  25.816  25.310  1.00  0.00     0.124 S 
ATOM     61  O   UNL A   1      42.717  26.828  24.458  1.00  0.00    -0.237 OA
ATOM     62  O   UNL A   1      44.795  25.785  25.285  1.00  0.00    -0.237 OA
ATOM     63  O   UNL A   1      42.692  24.505  25.300  1.00  0.00    -0.744 OA
ENDBRANCH  59  60
ENDBRANCH  40  54
BRANCH  41  64
ATOM     64  C   UNL A   1      40.433  34.884  36.826  1.00  0.00    -0.014 A 
ATOM     65  C   UNL A   1      41.300  35.939  37.127  1.00  0.00     0.010 A 
ATOM     66  C   UNL A   1      39.408  34.655  37.805  1.00  0.00     0.010 A 
ATOM     67  C   UNL A   1      41.036  36.811  38.227  1.00  0.00     0.020 A 
ATOM     68  C   UNL A   1      39.093  35.542  38.840  1.00  0.00     0.020 A 
ATOM     69  C   UNL A   1      39.892  36.650  39.026  1.00  0.00     0.054 A 
BRANCH  69  70
ATOM     70  S   UNL A   1      39.341  37.951  40.179  1.00  0.00     0.124 S 
ATOM     71  O   UNL A   1      40.479  38.864  40.200  1.00  0.00    -0.237 OA
ATOM     72  O   UNL A   1      38.134  38.460  39.534  1.00  0.00    -0.237 OA
ATOM     73  O   UNL A   1      39.101  37.228  41.428  1.00  0.00    -0.744 OA
ENDBRANCH  69  70
ENDBRANCH  41  64
BRANCH  53  74
ATOM     74  C   UNL A   1      42.931  32.706  31.786  1.00  0.00    -0.014 A 
ATOM     75  C   UNL A   1      41.769  32.943  31.025  1.00  0.00     0.010 A 
ATOM     76  C   UNL A   1      44.098  33.382  31.371  1.00  0.00     0.010 A 
ATOM     77  C   UNL A   1      41.763  33.804  29.914  1.00  0.00     0.020 A 
ATOM     78  C   UNL A   1      44.110  34.243  30.250  1.00  0.00     0.020 A 
ATOM     79  C   UNL A   1      42.933  34.458  29.534  1.00  0.00     0.054 A 
BRANCH  79  80
ATOM     80  S   UNL A   1      42.874  35.597  28.114  1.00  0.00     0.124 S 
ATOM     81  O   UNL A   1      41.456  35.943  28.030  1.00  0.00    -0.237 OA
ATOM     82  O   UNL A   1      43.754  36.681  28.543  1.00  0.00    -0.237 OA
ATOM     83  O   UNL A   1      43.375  34.796  26.998  1.00  0.00    -0.744 OA
ENDBRANCH  79  80
ENDBRANCH  53  74
ENDBRANCH  27  28
ENDBRANCH  20  22
ENDBRANCH  19  20
ENDBRANCH   1  19
TORSDOF 16
ENDMDL
