MODEL 1
REMARK VINA RESULT:     -11.0      0.000      0.000
REMARK SMILES CS(=O)(=O)c1ccc(/C=C(/C(=O)OCCOC(=O)c2ccc(-c3c4nc(c(-c5ccc(S(=O)(=O)[O-])cc5)c5ccc([nH]5)c(-c5ccc(S(=O)(=O)[O-])cc5)c5nc(c(-c6ccc(S(=O)(=O)[O-])cc6)c6ccc3[nH]6)C=C5)C=C4)cc2)c2ccccc2)cc1
REMARK SMILES IDX 15 1 14 2 13 3 11 4 12 5 10 6 9 7 8 8 5 9 6 10 86 11 7 12
REMARK SMILES IDX 85 13 2 14 1 15 3 16 4 17 79 18 80 19 84 20 81 21 83 22
REMARK SMILES IDX 82 23 16 24 17 25 18 26 19 27 20 28 78 29 21 30 77 31 22 32
REMARK SMILES IDX 23 33 24 34 71 35 25 36 76 37 70 38 72 39 26 40 75 41 69 42
REMARK SMILES IDX 68 43 27 45 57 46 38 47 56 48 39 49 42 50 55 51 73 52 40 53
REMARK SMILES IDX 41 54 54 56 74 57 43 58 28 59 29 60 37 61 30 62 36 63 31 64
REMARK SMILES IDX 32 65 33 66 34 67 35 68 58 69 59 70 67 71 60 72 66 73 61 74
REMARK SMILES IDX 62 75 63 76 64 77 65 78 44 79 45 80 53 81 46 82 52 83 47 84
REMARK SMILES IDX 48 85 49 86 50 87 51 88
REMARK H PARENT 72 44 42 55
REMARK Flexibility Score: inf
ROOT
ATOM      1  C   UNL A   1      32.637  28.248  26.470  1.00  0.00     0.275 C 
ENDROOT
BRANCH   1   2
ATOM      2  C   UNL A   1      33.083  27.434  25.256  1.00  0.00     0.275 C 
BRANCH   2   3
ATOM      3  O   UNL A   1      32.187  26.330  25.018  1.00  0.00    -0.458 OA
BRANCH   3   4
ATOM      4  C   UNL A   1      32.452  25.598  23.904  1.00  0.00     0.338 C 
ATOM      5  O   UNL A   1      32.385  26.013  22.755  1.00  0.00    -0.246 OA
BRANCH   4   6
ATOM      6  C   UNL A   1      32.878  24.203  24.234  1.00  0.00     0.067 C 
ATOM      7  C   UNL A   1      31.947  23.221  24.254  1.00  0.00     0.024 C 
BRANCH   7   8
ATOM      8  C   UNL A   1      32.192  21.761  24.303  1.00  0.00    -0.025 A 
ATOM      9  C   UNL A   1      32.937  19.054  24.223  1.00  0.00     0.067 A 
ATOM     10  C   UNL A   1      32.891  19.721  25.444  1.00  0.00     0.021 A 
ATOM     11  C   UNL A   1      32.530  19.697  23.053  1.00  0.00     0.021 A 
ATOM     12  C   UNL A   1      32.491  21.058  25.478  1.00  0.00     0.009 A 
ATOM     13  C   UNL A   1      32.159  21.046  23.098  1.00  0.00     0.009 A 
BRANCH   9  14
ATOM     14  S   UNL A   1      33.556  17.392  24.152  1.00  0.00     0.175 S 
ATOM     15  C   UNL A   1      32.748  16.544  25.488  1.00  0.00     0.163 C 
ATOM     16  O   UNL A   1      34.970  17.445  24.472  1.00  0.00    -0.224 OA
ATOM     17  O   UNL A   1      33.097  16.827  22.897  1.00  0.00    -0.224 OA
ENDBRANCH   9  14
ENDBRANCH   7   8
BRANCH   6  18
ATOM     18  C   UNL A   1      34.324  23.935  24.364  1.00  0.00    -0.011 A 
ATOM     19  C   UNL A   1      34.965  24.185  25.588  1.00  0.00     0.009 A 
ATOM     20  C   UNL A   1      35.059  23.389  23.306  1.00  0.00     0.009 A 
ATOM     21  C   UNL A   1      36.308  23.849  25.764  1.00  0.00     0.001 A 
ATOM     22  C   UNL A   1      36.409  23.076  23.479  1.00  0.00     0.001 A 
ATOM     23  C   UNL A   1      37.030  23.298  24.709  1.00  0.00     0.000 A 
ENDBRANCH   6  18
ENDBRANCH   4   6
ENDBRANCH   3   4
ENDBRANCH   2   3
ENDBRANCH   1   2
BRANCH   1  24
ATOM     24  O   UNL A   1      33.752  28.474  27.349  1.00  0.00    -0.458 OA
BRANCH  24  25
ATOM     25  C   UNL A   1      34.048  29.771  27.596  1.00  0.00     0.338 C 
ATOM     26  O   UNL A   1      33.293  30.725  27.510  1.00  0.00    -0.246 OA
BRANCH  25  27
ATOM     27  C   UNL A   1      35.450  29.915  28.031  1.00  0.00     0.060 A 
ATOM     28  C   UNL A   1      36.434  30.253  27.109  1.00  0.00     0.016 A 
ATOM     29  C   UNL A   1      35.816  29.521  29.318  1.00  0.00     0.016 A 
ATOM     30  C   UNL A   1      37.777  30.038  27.427  1.00  0.00     0.010 A 
ATOM     31  C   UNL A   1      37.171  29.419  29.663  1.00  0.00     0.010 A 
ATOM     32  C   UNL A   1      38.177  29.596  28.698  1.00  0.00    -0.014 A 
BRANCH  32  33
ATOM     33  C   UNL A   1      39.606  29.227  28.981  1.00  0.00     0.031 A 
ATOM     34  C   UNL A   1      40.526  30.200  29.699  1.00  0.00     0.074 A 
ATOM     35  C   UNL A   1      40.103  28.013  28.657  1.00  0.00     0.049 A 
ATOM     36  N   UNL A   1      41.828  30.156  29.843  1.00  0.00    -0.248 NA
ATOM     37  C   UNL A   1      39.905  31.382  30.320  1.00  0.00     0.031 C 
ATOM     38  C   UNL A   1      39.358  26.926  28.019  1.00  0.00     0.029 A 
ATOM     39  N   UNL A   1      41.358  27.480  28.843  1.00  0.00    -0.354 N 
ATOM     40  C   UNL A   1      42.188  31.345  30.475  1.00  0.00     0.074 A 
ATOM     41  C   UNL A   1      40.964  32.080  30.707  1.00  0.00     0.031 C 
ATOM     42  C   UNL A   1      40.137  25.837  27.947  1.00  0.00     0.029 A 
ATOM     43  C   UNL A   1      41.477  26.179  28.412  1.00  0.00     0.049 A 
ATOM     44  H   UNL A   1      42.102  27.982  29.248  1.00  0.00     0.167 HD
ATOM     45  C   UNL A   1      43.421  31.789  30.823  1.00  0.00     0.031 A 
ATOM     46  C   UNL A   1      42.541  25.356  28.342  1.00  0.00     0.031 A 
ATOM     47  C   UNL A   1      44.635  31.025  30.682  1.00  0.00     0.049 A 
ATOM     48  C   UNL A   1      43.898  25.859  28.741  1.00  0.00     0.074 A 
ATOM     49  C   UNL A   1      45.927  31.393  31.015  1.00  0.00     0.029 A 
ATOM     50  N   UNL A   1      44.703  29.727  30.202  1.00  0.00    -0.354 N 
ATOM     51  N   UNL A   1      44.231  27.032  29.222  1.00  0.00    -0.248 NA
ATOM     52  C   UNL A   1      45.027  24.936  28.556  1.00  0.00     0.031 C 
ATOM     53  C   UNL A   1      46.782  30.328  30.712  1.00  0.00     0.029 A 
ATOM     54  C   UNL A   1      46.014  29.280  30.232  1.00  0.00     0.049 A 
ATOM     55  H   UNL A   1      43.933  29.200  29.887  1.00  0.00     0.167 HD
ATOM     56  C   UNL A   1      45.611  26.989  29.392  1.00  0.00     0.074 A 
ATOM     57  C   UNL A   1      46.044  25.667  28.994  1.00  0.00     0.031 C 
ATOM     58  C   UNL A   1      46.442  27.966  29.830  1.00  0.00     0.031 A 
BRANCH  45  59
ATOM     59  C   UNL A   1      43.540  33.196  31.350  1.00  0.00    -0.014 A 
ATOM     60  C   UNL A   1      43.459  33.486  32.723  1.00  0.00     0.010 A 
ATOM     61  C   UNL A   1      43.802  34.244  30.445  1.00  0.00     0.010 A 
ATOM     62  C   UNL A   1      43.601  34.803  33.176  1.00  0.00     0.020 A 
ATOM     63  C   UNL A   1      43.972  35.555  30.896  1.00  0.00     0.020 A 
ATOM     64  C   UNL A   1      43.853  35.830  32.260  1.00  0.00     0.054 A 
BRANCH  64  65
ATOM     65  S   UNL A   1      44.063  37.524  32.873  1.00  0.00     0.124 S 
ATOM     66  O   UNL A   1      45.415  37.478  33.422  1.00  0.00    -0.237 OA
ATOM     67  O   UNL A   1      43.904  38.328  31.663  1.00  0.00    -0.237 OA
ATOM     68  O   UNL A   1      42.994  37.671  33.858  1.00  0.00    -0.744 OA
ENDBRANCH  64  65
ENDBRANCH  45  59
BRANCH  46  69
ATOM     69  C   UNL A   1      42.370  23.978  27.804  1.00  0.00    -0.014 A 
ATOM     70  C   UNL A   1      42.387  23.743  26.418  1.00  0.00     0.010 A 
ATOM     71  C   UNL A   1      42.229  22.887  28.682  1.00  0.00     0.010 A 
ATOM     72  C   UNL A   1      42.274  22.441  25.921  1.00  0.00     0.020 A 
ATOM     73  C   UNL A   1      42.148  21.583  28.190  1.00  0.00     0.020 A 
ATOM     74  C   UNL A   1      42.163  21.368  26.812  1.00  0.00     0.054 A 
BRANCH  74  75
ATOM     75  S   UNL A   1      42.116  19.678  26.156  1.00  0.00     0.124 S 
ATOM     76  O   UNL A   1      40.706  19.525  25.815  1.00  0.00    -0.237 OA
ATOM     77  O   UNL A   1      43.038  19.747  25.025  1.00  0.00    -0.237 OA
ATOM     78  O   UNL A   1      42.584  18.867  27.279  1.00  0.00    -0.744 OA
ENDBRANCH  74  75
ENDBRANCH  46  69
BRANCH  58  79
ATOM     79  C   UNL A   1      47.905  27.633  29.926  1.00  0.00    -0.014 A 
ATOM     80  C   UNL A   1      48.754  27.774  28.814  1.00  0.00     0.010 A 
ATOM     81  C   UNL A   1      48.443  27.206  31.152  1.00  0.00     0.010 A 
ATOM     82  C   UNL A   1      50.112  27.457  28.919  1.00  0.00     0.020 A 
ATOM     83  C   UNL A   1      49.803  26.908  31.266  1.00  0.00     0.020 A 
ATOM     84  C   UNL A   1      50.625  27.020  30.144  1.00  0.00     0.054 A 
BRANCH  84  85
ATOM     85  S   UNL A   1      52.395  26.637  30.265  1.00  0.00     0.124 S 
ATOM     86  O   UNL A   1      52.722  26.279  28.888  1.00  0.00    -0.237 OA
ATOM     87  O   UNL A   1      52.966  27.894  30.741  1.00  0.00    -0.237 OA
ATOM     88  O   UNL A   1      52.445  25.535  31.224  1.00  0.00    -0.744 OA
ENDBRANCH  84  85
ENDBRANCH  58  79
ENDBRANCH  32  33
ENDBRANCH  25  27
ENDBRANCH  24  25
ENDBRANCH   1  24
TORSDOF 17
ENDMDL
MODEL 2
REMARK VINA RESULT:     -10.9      3.802      9.842
REMARK SMILES CS(=O)(=O)c1ccc(/C=C(/C(=O)OCCOC(=O)c2ccc(-c3c4nc(c(-c5ccc(S(=O)(=O)[O-])cc5)c5ccc([nH]5)c(-c5ccc(S(=O)(=O)[O-])cc5)c5nc(c(-c6ccc(S(=O)(=O)[O-])cc6)c6ccc3[nH]6)C=C5)C=C4)cc2)c2ccccc2)cc1
REMARK SMILES IDX 15 1 14 2 13 3 11 4 12 5 10 6 9 7 8 8 5 9 6 10 86 11 7 12
REMARK SMILES IDX 85 13 2 14 1 15 3 16 4 17 79 18 80 19 84 20 81 21 83 22
REMARK SMILES IDX 82 23 16 24 17 25 18 26 19 27 20 28 78 29 21 30 77 31 22 32
REMARK SMILES IDX 23 33 24 34 71 35 25 36 76 37 70 38 72 39 26 40 75 41 69 42
REMARK SMILES IDX 68 43 27 45 57 46 38 47 56 48 39 49 42 50 55 51 73 52 40 53
REMARK SMILES IDX 41 54 54 56 74 57 43 58 28 59 29 60 37 61 30 62 36 63 31 64
REMARK SMILES IDX 32 65 33 66 34 67 35 68 58 69 59 70 67 71 60 72 66 73 61 74
REMARK SMILES IDX 62 75 63 76 64 77 65 78 44 79 45 80 53 81 46 82 52 83 47 84
REMARK SMILES IDX 48 85 49 86 50 87 51 88
REMARK H PARENT 72 44 42 55
REMARK Flexibility Score: inf
ROOT
ATOM      1  C   UNL A   1      37.353  23.677  25.266  1.00  0.00     0.275 C 
ENDROOT
BRANCH   1   2
ATOM      2  C   UNL A   1      35.882  23.409  25.577  1.00  0.00     0.275 C 
BRANCH   2   3
ATOM      3  O   UNL A   1      35.108  24.623  25.495  1.00  0.00    -0.458 OA
BRANCH   3   4
ATOM      4  C   UNL A   1      33.761  24.457  25.572  1.00  0.00     0.338 C 
ATOM      5  O   UNL A   1      33.196  23.468  26.015  1.00  0.00    -0.246 OA
BRANCH   4   6
ATOM      6  C   UNL A   1      33.017  25.656  25.074  1.00  0.00     0.067 C 
ATOM      7  C   UNL A   1      32.246  25.537  23.968  1.00  0.00     0.024 C 
BRANCH   7   8
ATOM      8  C   UNL A   1      31.247  26.509  23.470  1.00  0.00    -0.025 A 
ATOM      9  C   UNL A   1      29.292  28.427  22.844  1.00  0.00     0.067 A 
ATOM     10  C   UNL A   1      30.616  28.645  22.473  1.00  0.00     0.021 A 
ATOM     11  C   UNL A   1      28.918  27.224  23.444  1.00  0.00     0.021 A 
ATOM     12  C   UNL A   1      31.576  27.673  22.761  1.00  0.00     0.009 A 
ATOM     13  C   UNL A   1      29.895  26.271  23.754  1.00  0.00     0.009 A 
BRANCH   9  14
ATOM     14  S   UNL A   1      28.086  29.704  22.589  1.00  0.00     0.175 S 
ATOM     15  C   UNL A   1      28.742  31.128  23.425  1.00  0.00     0.163 C 
ATOM     16  O   UNL A   1      26.883  29.309  23.298  1.00  0.00    -0.224 OA
ATOM     17  O   UNL A   1      28.055  29.974  21.164  1.00  0.00    -0.224 OA
ENDBRANCH   9  14
ENDBRANCH   7   8
BRANCH   6  18
ATOM     18  C   UNL A   1      33.031  26.873  25.910  1.00  0.00    -0.011 A 
ATOM     19  C   UNL A   1      34.041  27.830  25.719  1.00  0.00     0.009 A 
ATOM     20  C   UNL A   1      32.029  27.117  26.855  1.00  0.00     0.009 A 
ATOM     21  C   UNL A   1      34.021  29.031  26.429  1.00  0.00     0.001 A 
ATOM     22  C   UNL A   1      32.025  28.311  27.580  1.00  0.00     0.001 A 
ATOM     23  C   UNL A   1      33.015  29.270  27.361  1.00  0.00     0.000 A 
ENDBRANCH   6  18
ENDBRANCH   4   6
ENDBRANCH   3   4
ENDBRANCH   2   3
ENDBRANCH   1   2
BRANCH   1  24
ATOM     24  O   UNL A   1      38.176  22.651  25.846  1.00  0.00    -0.458 OA
BRANCH  24  25
ATOM     25  C   UNL A   1      39.416  23.040  26.224  1.00  0.00     0.338 C 
ATOM     26  O   UNL A   1      40.459  22.430  26.058  1.00  0.00    -0.246 OA
BRANCH  25  27
ATOM     27  C   UNL A   1      39.375  24.365  26.871  1.00  0.00     0.060 A 
ATOM     28  C   UNL A   1      40.105  25.422  26.341  1.00  0.00     0.016 A 
ATOM     29  C   UNL A   1      38.765  24.504  28.118  1.00  0.00     0.016 A 
ATOM     30  C   UNL A   1      40.358  26.547  27.129  1.00  0.00     0.010 A 
ATOM     31  C   UNL A   1      38.930  25.686  28.853  1.00  0.00     0.010 A 
ATOM     32  C   UNL A   1      39.798  26.697  28.408  1.00  0.00    -0.014 A 
BRANCH  32  33
ATOM     33  C   UNL A   1      40.194  27.838  29.303  1.00  0.00     0.031 A 
ATOM     34  C   UNL A   1      41.537  27.832  30.013  1.00  0.00     0.074 A 
ATOM     35  C   UNL A   1      39.401  28.919  29.466  1.00  0.00     0.049 A 
ATOM     36  N   UNL A   1      41.967  28.605  30.980  1.00  0.00    -0.248 NA
ATOM     37  C   UNL A   1      42.516  26.815  29.595  1.00  0.00     0.031 C 
ATOM     38  C   UNL A   1      38.105  29.135  28.821  1.00  0.00     0.029 A 
ATOM     39  N   UNL A   1      39.583  30.061  30.214  1.00  0.00    -0.354 N 
ATOM     40  C   UNL A   1      43.214  28.106  31.350  1.00  0.00     0.074 A 
ATOM     41  C   UNL A   1      43.482  26.976  30.488  1.00  0.00     0.031 C 
ATOM     42  C   UNL A   1      37.654  30.360  29.128  1.00  0.00     0.029 A 
ATOM     43  C   UNL A   1      38.559  30.971  30.094  1.00  0.00     0.049 A 
ATOM     44  H   UNL A   1      40.374  30.211  30.780  1.00  0.00     0.167 HD
ATOM     45  C   UNL A   1      44.055  28.541  32.321  1.00  0.00     0.031 A 
ATOM     46  C   UNL A   1      38.330  32.143  30.719  1.00  0.00     0.031 A 
ATOM     47  C   UNL A   1      43.840  29.721  33.120  1.00  0.00     0.049 A 
ATOM     48  C   UNL A   1      39.276  32.615  31.784  1.00  0.00     0.074 A 
ATOM     49  C   UNL A   1      44.644  30.240  34.121  1.00  0.00     0.029 A 
ATOM     50  N   UNL A   1      42.766  30.585  32.986  1.00  0.00    -0.354 N 
ATOM     51  N   UNL A   1      40.387  32.060  32.202  1.00  0.00    -0.248 NA
ATOM     52  C   UNL A   1      38.918  33.857  32.484  1.00  0.00     0.031 C 
ATOM     53  C   UNL A   1      44.042  31.404  34.611  1.00  0.00     0.029 A 
ATOM     54  C   UNL A   1      42.887  31.633  33.883  1.00  0.00     0.049 A 
ATOM     55  H   UNL A   1      42.027  30.471  32.345  1.00  0.00     0.167 HD
ATOM     56  C   UNL A   1      40.859  32.884  33.218  1.00  0.00     0.074 A 
ATOM     57  C   UNL A   1      39.931  33.989  33.330  1.00  0.00     0.031 C 
ATOM     58  C   UNL A   1      41.958  32.727  33.995  1.00  0.00     0.031 A 
BRANCH  45  59
ATOM     59  C   UNL A   1      45.276  27.709  32.619  1.00  0.00    -0.014 A 
ATOM     60  C   UNL A   1      46.537  28.017  32.081  1.00  0.00     0.010 A 
ATOM     61  C   UNL A   1      45.162  26.626  33.514  1.00  0.00     0.010 A 
ATOM     62  C   UNL A   1      47.653  27.236  32.404  1.00  0.00     0.020 A 
ATOM     63  C   UNL A   1      46.278  25.861  33.860  1.00  0.00     0.020 A 
ATOM     64  C   UNL A   1      47.515  26.160  33.288  1.00  0.00     0.054 A 
BRANCH  64  65
ATOM     65  S   UNL A   1      48.981  25.179  33.714  1.00  0.00     0.124 S 
ATOM     66  O   UNL A   1      48.388  24.049  34.425  1.00  0.00    -0.237 OA
ATOM     67  O   UNL A   1      49.553  24.867  32.406  1.00  0.00    -0.237 OA
ATOM     68  O   UNL A   1      49.777  26.085  34.537  1.00  0.00    -0.744 OA
ENDBRANCH  64  65
ENDBRANCH  45  59
BRANCH  46  69
ATOM     69  C   UNL A   1      37.103  32.921  30.393  1.00  0.00    -0.014 A 
ATOM     70  C   UNL A   1      37.069  33.766  29.270  1.00  0.00     0.010 A 
ATOM     71  C   UNL A   1      35.947  32.788  31.185  1.00  0.00     0.010 A 
ATOM     72  C   UNL A   1      35.899  34.457  28.942  1.00  0.00     0.020 A 
ATOM     73  C   UNL A   1      34.769  33.451  30.841  1.00  0.00     0.020 A 
ATOM     74  C   UNL A   1      34.753  34.289  29.726  1.00  0.00     0.054 A 
BRANCH  74  75
ATOM     75  S   UNL A   1      33.216  35.114  29.231  1.00  0.00     0.124 S 
ATOM     76  O   UNL A   1      32.666  34.173  28.261  1.00  0.00    -0.237 OA
ATOM     77  O   UNL A   1      32.489  35.222  30.493  1.00  0.00    -0.237 OA
ATOM     78  O   UNL A   1      33.679  36.387  28.680  1.00  0.00    -0.744 OA
ENDBRANCH  74  75
ENDBRANCH  46  69
BRANCH  58  79
ATOM     79  C   UNL A   1      42.234  33.791  35.021  1.00  0.00    -0.014 A 
ATOM     80  C   UNL A   1      42.855  35.001  34.662  1.00  0.00     0.010 A 
ATOM     81  C   UNL A   1      41.836  33.593  36.355  1.00  0.00     0.010 A 
ATOM     82  C   UNL A   1      43.106  35.979  35.628  1.00  0.00     0.020 A 
ATOM     83  C   UNL A   1      42.067  34.576  37.319  1.00  0.00     0.020 A 
ATOM     84  C   UNL A   1      42.716  35.757  36.952  1.00  0.00     0.054 A 
BRANCH  84  85
ATOM     85  S   UNL A   1      43.031  37.049  38.186  1.00  0.00     0.124 S 
ATOM     86  O   UNL A   1      43.794  36.324  39.197  1.00  0.00    -0.237 OA
ATOM     87  O   UNL A   1      43.780  38.047  37.427  1.00  0.00    -0.237 OA
ATOM     88  O   UNL A   1      41.692  37.467  38.598  1.00  0.00    -0.744 OA
ENDBRANCH  84  85
ENDBRANCH  58  79
ENDBRANCH  32  33
ENDBRANCH  25  27
ENDBRANCH  24  25
ENDBRANCH   1  24
TORSDOF 17
ENDMDL
MODEL 3
REMARK VINA RESULT:     -10.8      3.315      9.594
REMARK SMILES CS(=O)(=O)c1ccc(/C=C(/C(=O)OCCOC(=O)c2ccc(-c3c4nc(c(-c5ccc(S(=O)(=O)[O-])cc5)c5ccc([nH]5)c(-c5ccc(S(=O)(=O)[O-])cc5)c5nc(c(-c6ccc(S(=O)(=O)[O-])cc6)c6ccc3[nH]6)C=C5)C=C4)cc2)c2ccccc2)cc1
REMARK SMILES IDX 15 1 14 2 13 3 11 4 12 5 10 6 9 7 8 8 5 9 6 10 86 11 7 12
REMARK SMILES IDX 85 13 2 14 1 15 3 16 4 17 79 18 80 19 84 20 81 21 83 22
REMARK SMILES IDX 82 23 16 24 17 25 18 26 19 27 20 28 78 29 21 30 77 31 22 32
REMARK SMILES IDX 23 33 24 34 71 35 25 36 76 37 70 38 72 39 26 40 75 41 69 42
REMARK SMILES IDX 68 43 27 45 57 46 38 47 56 48 39 49 42 50 55 51 73 52 40 53
REMARK SMILES IDX 41 54 54 56 74 57 43 58 28 59 29 60 37 61 30 62 36 63 31 64
REMARK SMILES IDX 32 65 33 66 34 67 35 68 58 69 59 70 67 71 60 72 66 73 61 74
REMARK SMILES IDX 62 75 63 76 64 77 65 78 44 79 45 80 53 81 46 82 52 83 47 84
REMARK SMILES IDX 48 85 49 86 50 87 51 88
REMARK H PARENT 72 44 42 55
REMARK Flexibility Score: inf
ROOT
ATOM      1  C   UNL A   1      35.793  22.820  26.102  1.00  0.00     0.275 C 
ENDROOT
BRANCH   1   2
ATOM      2  C   UNL A   1      34.902  22.748  24.863  1.00  0.00     0.275 C 
BRANCH   2   3
ATOM      3  O   UNL A   1      34.301  24.029  24.585  1.00  0.00    -0.458 OA
BRANCH   3   4
ATOM      4  C   UNL A   1      33.128  24.271  25.228  1.00  0.00     0.338 C 
ATOM      5  O   UNL A   1      32.599  23.520  26.035  1.00  0.00    -0.246 OA
BRANCH   4   6
ATOM      6  C   UNL A   1      32.549  25.600  24.862  1.00  0.00     0.067 C 
ATOM      7  C   UNL A   1      31.806  25.704  23.735  1.00  0.00     0.024 C 
BRANCH   7   8
ATOM      8  C   UNL A   1      30.946  26.842  23.336  1.00  0.00    -0.025 A 
ATOM      9  C   UNL A   1      29.266  29.051  22.905  1.00  0.00     0.067 A 
ATOM     10  C   UNL A   1      30.608  29.124  22.541  1.00  0.00     0.021 A 
ATOM     11  C   UNL A   1      28.734  27.860  23.399  1.00  0.00     0.021 A 
ATOM     12  C   UNL A   1      31.429  28.010  22.731  1.00  0.00     0.009 A 
ATOM     13  C   UNL A   1      29.575  26.761  23.612  1.00  0.00     0.009 A 
BRANCH   9  14
ATOM     14  S   UNL A   1      28.242  30.495  22.778  1.00  0.00     0.175 S 
ATOM     15  C   UNL A   1      28.067  30.782  21.034  1.00  0.00     0.163 C 
ATOM     16  O   UNL A   1      28.997  31.609  23.321  1.00  0.00    -0.224 OA
ATOM     17  O   UNL A   1      26.945  30.139  23.323  1.00  0.00    -0.224 OA
ENDBRANCH   9  14
ENDBRANCH   7   8
BRANCH   6  18
ATOM     18  C   UNL A   1      32.679  26.702  25.835  1.00  0.00    -0.011 A 
ATOM     19  C   UNL A   1      33.857  27.468  25.857  1.00  0.00     0.009 A 
ATOM     20  C   UNL A   1      31.634  27.032  26.705  1.00  0.00     0.009 A 
ATOM     21  C   UNL A   1      33.966  28.574  26.701  1.00  0.00     0.001 A 
ATOM     22  C   UNL A   1      31.756  28.126  27.565  1.00  0.00     0.001 A 
ATOM     23  C   UNL A   1      32.917  28.900  27.557  1.00  0.00     0.000 A 
ENDBRANCH   6  18
ENDBRANCH   4   6
ENDBRANCH   3   4
ENDBRANCH   2   3
ENDBRANCH   1   2
BRANCH   1  24
ATOM     24  O   UNL A   1      36.848  23.775  25.896  1.00  0.00    -0.458 OA
BRANCH  24  25
ATOM     25  C   UNL A   1      38.106  23.291  26.020  1.00  0.00     0.338 C 
ATOM     26  O   UNL A   1      38.527  22.226  25.601  1.00  0.00    -0.246 OA
BRANCH  25  27
ATOM     27  C   UNL A   1      38.969  24.253  26.731  1.00  0.00     0.060 A 
ATOM     28  C   UNL A   1      38.826  24.437  28.102  1.00  0.00     0.016 A 
ATOM     29  C   UNL A   1      39.787  25.115  26.001  1.00  0.00     0.016 A 
ATOM     30  C   UNL A   1      39.369  25.574  28.704  1.00  0.00     0.010 A 
ATOM     31  C   UNL A   1      40.422  26.190  26.639  1.00  0.00     0.010 A 
ATOM     32  C   UNL A   1      40.157  26.489  27.986  1.00  0.00    -0.014 A 
BRANCH  32  33
ATOM     33  C   UNL A   1      40.610  27.781  28.605  1.00  0.00     0.031 A 
ATOM     34  C   UNL A   1      42.064  27.980  28.999  1.00  0.00     0.074 A 
ATOM     35  C   UNL A   1      39.761  28.816  28.785  1.00  0.00     0.049 A 
ATOM     36  N   UNL A   1      42.602  28.924  29.732  1.00  0.00    -0.248 NA
ATOM     37  C   UNL A   1      43.034  26.980  28.523  1.00  0.00     0.031 C 
ATOM     38  C   UNL A   1      38.346  28.837  28.414  1.00  0.00     0.029 A 
ATOM     39  N   UNL A   1      39.977  30.071  29.308  1.00  0.00    -0.354 N 
ATOM     40  C   UNL A   1      43.942  28.578  29.887  1.00  0.00     0.074 A 
ATOM     41  C   UNL A   1      44.141  27.347  29.154  1.00  0.00     0.031 C 
ATOM     42  C   UNL A   1      37.845  30.061  28.639  1.00  0.00     0.029 A 
ATOM     43  C   UNL A   1      38.863  30.878  29.289  1.00  0.00     0.049 A 
ATOM     44  H   UNL A   1      40.848  30.364  29.662  1.00  0.00     0.167 HD
ATOM     45  C   UNL A   1      44.916  29.217  30.581  1.00  0.00     0.031 A 
ATOM     46  C   UNL A   1      38.649  32.115  29.780  1.00  0.00     0.031 A 
ATOM     47  C   UNL A   1      44.752  30.491  31.235  1.00  0.00     0.049 A 
ATOM     48  C   UNL A   1      39.740  32.814  30.536  1.00  0.00     0.074 A 
ATOM     49  C   UNL A   1      45.686  31.216  31.954  1.00  0.00     0.029 A 
ATOM     50  N   UNL A   1      43.591  31.246  31.219  1.00  0.00    -0.354 N 
ATOM     51  N   UNL A   1      40.964  32.411  30.775  1.00  0.00    -0.248 NA
ATOM     52  C   UNL A   1      39.410  34.124  31.117  1.00  0.00     0.031 C 
ATOM     53  C   UNL A   1      45.083  32.398  32.397  1.00  0.00     0.029 A 
ATOM     54  C   UNL A   1      43.785  32.429  31.913  1.00  0.00     0.049 A 
ATOM     55  H   UNL A   1      42.751  30.981  30.777  1.00  0.00     0.167 HD
ATOM     56  C   UNL A   1      41.548  33.415  31.539  1.00  0.00     0.074 A 
ATOM     57  C   UNL A   1      40.556  34.457  31.695  1.00  0.00     0.031 C 
ATOM     58  C   UNL A   1      42.794  33.460  32.072  1.00  0.00     0.031 A 
BRANCH  45  59
ATOM     59  C   UNL A   1      46.250  28.530  30.719  1.00  0.00    -0.014 A 
ATOM     60  C   UNL A   1      47.313  28.781  29.834  1.00  0.00     0.010 A 
ATOM     61  C   UNL A   1      46.458  27.655  31.804  1.00  0.00     0.010 A 
ATOM     62  C   UNL A   1      48.546  28.143  30.012  1.00  0.00     0.020 A 
ATOM     63  C   UNL A   1      47.695  27.037  32.000  1.00  0.00     0.020 A 
ATOM     64  C   UNL A   1      48.728  27.271  31.091  1.00  0.00     0.054 A 
BRANCH  64  65
ATOM     65  S   UNL A   1      50.344  26.477  31.318  1.00  0.00     0.124 S 
ATOM     66  O   UNL A   1      50.535  26.596  32.761  1.00  0.00    -0.237 OA
ATOM     67  O   UNL A   1      50.110  25.122  30.825  1.00  0.00    -0.237 OA
ATOM     68  O   UNL A   1      51.245  27.285  30.500  1.00  0.00    -0.744 OA
ENDBRANCH  64  65
ENDBRANCH  45  59
BRANCH  46  69
ATOM     69  C   UNL A   1      37.309  32.745  29.624  1.00  0.00    -0.014 A 
ATOM     70  C   UNL A   1      36.374  32.709  30.673  1.00  0.00     0.010 A 
ATOM     71  C   UNL A   1      36.978  33.422  28.434  1.00  0.00     0.010 A 
ATOM     72  C   UNL A   1      35.136  33.343  30.538  1.00  0.00     0.020 A 
ATOM     73  C   UNL A   1      35.756  34.083  28.309  1.00  0.00     0.020 A 
ATOM     74  C   UNL A   1      34.838  34.034  29.359  1.00  0.00     0.054 A 
BRANCH  74  75
ATOM     75  S   UNL A   1      33.268  34.935  29.236  1.00  0.00     0.124 S 
ATOM     76  O   UNL A   1      32.549  34.154  28.236  1.00  0.00    -0.237 OA
ATOM     77  O   UNL A   1      32.746  34.857  30.598  1.00  0.00    -0.237 OA
ATOM     78  O   UNL A   1      33.680  36.272  28.813  1.00  0.00    -0.744 OA
ENDBRANCH  74  75
ENDBRANCH  46  69
BRANCH  58  79
ATOM     79  C   UNL A   1      43.164  34.689  32.854  1.00  0.00    -0.014 A 
ATOM     80  C   UNL A   1      42.908  34.774  34.234  1.00  0.00     0.010 A 
ATOM     81  C   UNL A   1      43.806  35.760  32.206  1.00  0.00     0.010 A 
ATOM     82  C   UNL A   1      43.256  35.925  34.946  1.00  0.00     0.020 A 
ATOM     83  C   UNL A   1      44.173  36.903  32.919  1.00  0.00     0.020 A 
ATOM     84  C   UNL A   1      43.880  36.985  34.282  1.00  0.00     0.054 A 
BRANCH  84  85
ATOM     85  S   UNL A   1      44.345  38.461  35.230  1.00  0.00     0.124 S 
ATOM     86  O   UNL A   1      43.594  39.509  34.544  1.00  0.00    -0.237 OA
ATOM     87  O   UNL A   1      43.886  38.138  36.578  1.00  0.00    -0.237 OA
ATOM     88  O   UNL A   1      45.797  38.530  35.073  1.00  0.00    -0.744 OA
ENDBRANCH  84  85
ENDBRANCH  58  79
ENDBRANCH  32  33
ENDBRANCH  25  27
ENDBRANCH  24  25
ENDBRANCH   1  24
TORSDOF 17
ENDMDL
