MODEL 1
REMARK VINA RESULT:      -9.4      0.000      0.000
REMARK SMILES CC[N@@H+](C[C@@H](C)C(=O)OCCOC(=O)c1ccc(-c2c3nc(c(-c4ccc(S(=O)(=O)[O-])cc4)c4ccc([nH]4)c(-c4ccc(S(=O)(=O)[O-])cc4)c4nc(c(-c5ccc(S(=O)(=O)[O-])cc5)c5ccc2[nH]5)C=C4)C=C3)cc1)[C@@H]1CCC[C@H](S(C)(=O)=O)C1
REMARK SMILES IDX 10 1 9 2 7 3 8 4 5 5 6 6 4 7 3 8 2 10 1 11 75 12 76 13 84 14
REMARK SMILES IDX 77 15 79 16 78 17 80 18 81 19 82 20 83 21 11 22 12 23 13 24
REMARK SMILES IDX 14 25 15 26 16 27 74 28 17 29 73 30 18 31 19 32 20 33 67 34
REMARK SMILES IDX 21 35 72 36 66 37 68 38 22 39 71 40 65 41 64 42 23 44 53 45
REMARK SMILES IDX 34 46 52 47 35 48 38 49 51 50 69 51 36 52 37 53 50 55 70 56
REMARK SMILES IDX 39 57 24 58 25 59 33 60 26 61 32 62 27 63 28 64 29 65 30 66
REMARK SMILES IDX 31 67 54 68 55 69 63 70 56 71 62 72 57 73 58 74 59 75 60 76
REMARK SMILES IDX 61 77 40 78 41 79 49 80 42 81 48 82 43 83 44 84 45 85 46 86
REMARK SMILES IDX 47 87
REMARK H PARENT 3 9 68 43 38 54
REMARK Flexibility Score: inf
ROOT
ATOM      1  C   UNL A   1      32.457  29.286  25.383  1.00  0.00     0.274 C 
ENDROOT
BRANCH   1   2
ATOM      2  O   UNL A   1      31.313  28.559  25.873  1.00  0.00    -0.462 OA
BRANCH   2   3
ATOM      3  C   UNL A   1      31.209  27.281  25.421  1.00  0.00     0.314 C 
ATOM      4  O   UNL A   1      31.621  26.297  26.026  1.00  0.00    -0.252 OA
BRANCH   3   5
ATOM      5  C   UNL A   1      30.662  27.188  24.009  1.00  0.00     0.151 C 
ATOM      6  C   UNL A   1      29.276  26.553  24.148  1.00  0.00     0.026 C 
BRANCH   5   7
ATOM      7  C   UNL A   1      31.611  26.469  23.020  1.00  0.00     0.277 C 
BRANCH   7   8
ATOM      8  N   UNL A   1      32.929  25.956  23.509  1.00  0.00    -0.332 N 
ATOM      9  H   UNL A   1      32.942  26.017  24.527  1.00  0.00     0.348 HD
BRANCH   8  10
ATOM     10  C   UNL A   1      34.034  26.836  23.085  1.00  0.00     0.259 C 
ATOM     11  C   UNL A   1      33.656  27.998  22.171  1.00  0.00     0.071 C 
ENDBRANCH   8  10
BRANCH   8  12
ATOM     12  C   UNL A   1      33.109  24.508  23.324  1.00  0.00     0.185 C 
ATOM     13  C   UNL A   1      31.779  23.729  23.282  1.00  0.00     0.065 C 
ATOM     14  C   UNL A   1      34.064  23.830  24.320  1.00  0.00     0.084 C 
ATOM     15  C   UNL A   1      32.026  22.262  22.906  1.00  0.00     0.007 C 
ATOM     16  C   UNL A   1      34.354  22.387  23.897  1.00  0.00     0.114 C 
ATOM     17  C   UNL A   1      33.057  21.584  23.815  1.00  0.00     0.020 C 
BRANCH  16  18
ATOM     18  S   UNL A   1      35.563  21.680  25.025  1.00  0.00     0.150 S 
ATOM     19  C   UNL A   1      37.132  22.092  24.309  1.00  0.00     0.158 C 
ATOM     20  O   UNL A   1      35.474  22.419  26.269  1.00  0.00    -0.229 OA
ATOM     21  O   UNL A   1      35.428  20.238  24.997  1.00  0.00    -0.229 OA
ENDBRANCH  16  18
ENDBRANCH   8  12
ENDBRANCH   7   8
ENDBRANCH   5   7
ENDBRANCH   3   5
ENDBRANCH   2   3
ENDBRANCH   1   2
BRANCH   1  22
ATOM     22  C   UNL A   1      33.693  29.148  26.280  1.00  0.00     0.275 C 
BRANCH  22  23
ATOM     23  O   UNL A   1      33.513  29.768  27.566  1.00  0.00    -0.458 OA
BRANCH  23  24
ATOM     24  C   UNL A   1      34.425  30.727  27.854  1.00  0.00     0.338 C 
ATOM     25  O   UNL A   1      34.201  31.911  28.045  1.00  0.00    -0.246 OA
BRANCH  24  26
ATOM     26  C   UNL A   1      35.756  30.132  28.067  1.00  0.00     0.060 A 
ATOM     27  C   UNL A   1      36.023  29.595  29.329  1.00  0.00     0.016 A 
ATOM     28  C   UNL A   1      36.757  30.183  27.098  1.00  0.00     0.016 A 
ATOM     29  C   UNL A   1      37.297  29.141  29.647  1.00  0.00     0.010 A 
ATOM     30  C   UNL A   1      38.041  29.723  27.415  1.00  0.00     0.010 A 
ATOM     31  C   UNL A   1      38.324  29.224  28.700  1.00  0.00    -0.014 A 
BRANCH  31  32
ATOM     32  C   UNL A   1      39.704  28.858  29.099  1.00  0.00     0.031 A 
ATOM     33  C   UNL A   1      40.526  29.825  29.905  1.00  0.00     0.074 A 
ATOM     34  C   UNL A   1      40.195  27.644  28.792  1.00  0.00     0.049 A 
ATOM     35  N   UNL A   1      41.744  29.691  30.363  1.00  0.00    -0.248 NA
ATOM     36  C   UNL A   1      39.893  31.110  30.243  1.00  0.00     0.031 C 
ATOM     37  C   UNL A   1      39.475  26.603  28.056  1.00  0.00     0.029 A 
ATOM     38  N   UNL A   1      41.411  27.077  29.073  1.00  0.00    -0.354 N 
ATOM     39  C   UNL A   1      42.030  30.875  31.034  1.00  0.00     0.074 A 
ATOM     40  C   UNL A   1      40.865  31.724  30.904  1.00  0.00     0.031 C 
ATOM     41  C   UNL A   1      40.263  25.519  27.952  1.00  0.00     0.029 A 
ATOM     42  C   UNL A   1      41.548  25.799  28.585  1.00  0.00     0.049 A 
ATOM     43  H   UNL A   1      42.119  27.540  29.577  1.00  0.00     0.167 HD
ATOM     44  C   UNL A   1      43.156  31.222  31.702  1.00  0.00     0.031 A 
ATOM     45  C   UNL A   1      42.597  24.954  28.633  1.00  0.00     0.031 A 
ATOM     46  C   UNL A   1      44.316  30.378  31.825  1.00  0.00     0.049 A 
ATOM     47  C   UNL A   1      43.855  25.381  29.338  1.00  0.00     0.074 A 
ATOM     48  C   UNL A   1      45.508  30.641  32.479  1.00  0.00     0.029 A 
ATOM     49  N   UNL A   1      44.432  29.107  31.282  1.00  0.00    -0.354 N 
ATOM     50  N   UNL A   1      44.108  26.507  29.964  1.00  0.00    -0.248 NA
ATOM     51  C   UNL A   1      44.966  24.420  29.350  1.00  0.00     0.031 C 
ATOM     52  C   UNL A   1      46.360  29.545  32.297  1.00  0.00     0.029 A 
ATOM     53  C   UNL A   1      45.680  28.580  31.571  1.00  0.00     0.049 A 
ATOM     54  H   UNL A   1      43.730  28.647  30.768  1.00  0.00     0.167 HD
ATOM     55  C   UNL A   1      45.401  26.380  30.461  1.00  0.00     0.074 A 
ATOM     56  C   UNL A   1      45.869  25.063  30.076  1.00  0.00     0.031 C 
ATOM     57  C   UNL A   1      46.134  27.272  31.173  1.00  0.00     0.031 A 
BRANCH  44  58
ATOM     58  C   UNL A   1      43.197  32.593  32.320  1.00  0.00    -0.014 A 
ATOM     59  C   UNL A   1      42.728  32.817  33.627  1.00  0.00     0.010 A 
ATOM     60  C   UNL A   1      43.735  33.668  31.591  1.00  0.00     0.010 A 
ATOM     61  C   UNL A   1      42.758  34.101  34.178  1.00  0.00     0.020 A 
ATOM     62  C   UNL A   1      43.789  34.950  32.147  1.00  0.00     0.020 A 
ATOM     63  C   UNL A   1      43.283  35.161  33.431  1.00  0.00     0.054 A 
BRANCH  63  64
ATOM     64  S   UNL A   1      43.321  36.818  34.171  1.00  0.00     0.124 S 
ATOM     65  O   UNL A   1      42.045  36.860  34.880  1.00  0.00    -0.237 OA
ATOM     66  O   UNL A   1      44.508  36.765  35.021  1.00  0.00    -0.237 OA
ATOM     67  O   UNL A   1      43.425  37.710  33.018  1.00  0.00    -0.744 OA
ENDBRANCH  63  64
ENDBRANCH  44  58
BRANCH  45  68
ATOM     68  C   UNL A   1      42.503  23.621  27.981  1.00  0.00    -0.014 A 
ATOM     69  C   UNL A   1      43.025  23.412  26.693  1.00  0.00     0.010 A 
ATOM     70  C   UNL A   1      41.892  22.547  28.654  1.00  0.00     0.010 A 
ATOM     71  C   UNL A   1      42.923  22.158  26.082  1.00  0.00     0.020 A 
ATOM     72  C   UNL A   1      41.811  21.286  28.058  1.00  0.00     0.020 A 
ATOM     73  C   UNL A   1      42.316  21.102  26.769  1.00  0.00     0.054 A 
BRANCH  73  74
ATOM     74  S   UNL A   1      42.236  19.469  25.982  1.00  0.00     0.124 S 
ATOM     75  O   UNL A   1      43.123  19.641  24.836  1.00  0.00    -0.237 OA
ATOM     76  O   UNL A   1      42.727  18.582  27.034  1.00  0.00    -0.237 OA
ATOM     77  O   UNL A   1      40.819  19.315  25.661  1.00  0.00    -0.744 OA
ENDBRANCH  73  74
ENDBRANCH  45  68
BRANCH  57  78
ATOM     78  C   UNL A   1      47.510  26.839  31.602  1.00  0.00    -0.014 A 
ATOM     79  C   UNL A   1      47.704  26.090  32.776  1.00  0.00     0.010 A 
ATOM     80  C   UNL A   1      48.622  27.165  30.805  1.00  0.00     0.010 A 
ATOM     81  C   UNL A   1      48.992  25.715  33.171  1.00  0.00     0.020 A 
ATOM     82  C   UNL A   1      49.908  26.772  31.183  1.00  0.00     0.020 A 
ATOM     83  C   UNL A   1      50.087  26.065  32.375  1.00  0.00     0.054 A 
BRANCH  83  84
ATOM     84  S   UNL A   1      51.749  25.556  32.893  1.00  0.00     0.124 S 
ATOM     85  O   UNL A   1      52.383  25.243  31.616  1.00  0.00    -0.237 OA
ATOM     86  O   UNL A   1      52.257  26.747  33.570  1.00  0.00    -0.237 OA
ATOM     87  O   UNL A   1      51.502  24.410  33.765  1.00  0.00    -0.744 OA
ENDBRANCH  83  84
ENDBRANCH  57  78
ENDBRANCH  31  32
ENDBRANCH  24  26
ENDBRANCH  23  24
ENDBRANCH  22  23
ENDBRANCH   1  22
TORSDOF 19
ENDMDL
MODEL 2
REMARK VINA RESULT:      -9.3      1.378      8.509
REMARK SMILES CC[N@@H+](C[C@@H](C)C(=O)OCCOC(=O)c1ccc(-c2c3nc(c(-c4ccc(S(=O)(=O)[O-])cc4)c4ccc([nH]4)c(-c4ccc(S(=O)(=O)[O-])cc4)c4nc(c(-c5ccc(S(=O)(=O)[O-])cc5)c5ccc2[nH]5)C=C4)C=C3)cc1)[C@@H]1CCC[C@H](S(C)(=O)=O)C1
REMARK SMILES IDX 10 1 9 2 7 3 8 4 5 5 6 6 4 7 3 8 2 10 1 11 75 12 76 13 84 14
REMARK SMILES IDX 77 15 79 16 78 17 80 18 81 19 82 20 83 21 11 22 12 23 13 24
REMARK SMILES IDX 14 25 15 26 16 27 74 28 17 29 73 30 18 31 19 32 20 33 67 34
REMARK SMILES IDX 21 35 72 36 66 37 68 38 22 39 71 40 65 41 64 42 23 44 53 45
REMARK SMILES IDX 34 46 52 47 35 48 38 49 51 50 69 51 36 52 37 53 50 55 70 56
REMARK SMILES IDX 39 57 24 58 25 59 33 60 26 61 32 62 27 63 28 64 29 65 30 66
REMARK SMILES IDX 31 67 54 68 55 69 63 70 56 71 62 72 57 73 58 74 59 75 60 76
REMARK SMILES IDX 61 77 40 78 41 79 49 80 42 81 48 82 43 83 44 84 45 85 46 86
REMARK SMILES IDX 47 87
REMARK H PARENT 3 9 68 43 38 54
REMARK Flexibility Score: inf
ROOT
ATOM      1  C   UNL A   1      32.387  29.625  25.375  1.00  0.00     0.274 C 
ENDROOT
BRANCH   1   2
ATOM      2  O   UNL A   1      33.353  28.640  24.957  1.00  0.00    -0.462 OA
BRANCH   2   3
ATOM      3  C   UNL A   1      32.841  27.599  24.248  1.00  0.00     0.314 C 
ATOM      4  O   UNL A   1      31.736  27.600  23.718  1.00  0.00    -0.252 OA
BRANCH   3   5
ATOM      5  C   UNL A   1      33.711  26.357  24.298  1.00  0.00     0.151 C 
ATOM      6  C   UNL A   1      33.382  25.576  23.023  1.00  0.00     0.026 C 
BRANCH   5   7
ATOM      7  C   UNL A   1      33.569  25.549  25.611  1.00  0.00     0.277 C 
BRANCH   7   8
ATOM      8  N   UNL A   1      32.764  24.288  25.612  1.00  0.00    -0.332 N 
ATOM      9  H   UNL A   1      32.376  24.151  24.679  1.00  0.00     0.348 HD
BRANCH   8  10
ATOM     10  C   UNL A   1      31.576  24.416  26.477  1.00  0.00     0.259 C 
ATOM     11  C   UNL A   1      30.454  25.307  25.952  1.00  0.00     0.071 C 
ENDBRANCH   8  10
BRANCH   8  12
ATOM     12  C   UNL A   1      33.572  23.066  25.750  1.00  0.00     0.185 C 
ATOM     13  C   UNL A   1      35.045  23.262  25.339  1.00  0.00     0.065 C 
ATOM     14  C   UNL A   1      33.009  21.821  25.047  1.00  0.00     0.084 C 
ATOM     15  C   UNL A   1      35.868  22.011  25.678  1.00  0.00     0.007 C 
ATOM     16  C   UNL A   1      33.797  20.571  25.445  1.00  0.00     0.114 C 
ATOM     17  C   UNL A   1      35.273  20.732  25.081  1.00  0.00     0.020 C 
BRANCH  16  18
ATOM     18  S   UNL A   1      33.029  19.131  24.690  1.00  0.00     0.150 S 
ATOM     19  C   UNL A   1      34.386  18.058  24.298  1.00  0.00     0.158 C 
ATOM     20  O   UNL A   1      32.263  18.461  25.722  1.00  0.00    -0.229 OA
ATOM     21  O   UNL A   1      32.414  19.539  23.443  1.00  0.00    -0.229 OA
ENDBRANCH  16  18
ENDBRANCH   8  12
ENDBRANCH   7   8
ENDBRANCH   5   7
ENDBRANCH   3   5
ENDBRANCH   2   3
ENDBRANCH   1   2
BRANCH   1  22
ATOM     22  C   UNL A   1      32.697  30.235  26.747  1.00  0.00     0.275 C 
BRANCH  22  23
ATOM     23  O   UNL A   1      33.864  29.655  27.358  1.00  0.00    -0.458 OA
BRANCH  23  24
ATOM     24  C   UNL A   1      34.602  30.526  28.087  1.00  0.00     0.338 C 
ATOM     25  O   UNL A   1      34.201  31.540  28.633  1.00  0.00    -0.246 OA
BRANCH  24  26
ATOM     26  C   UNL A   1      35.970  30.014  28.280  1.00  0.00     0.060 A 
ATOM     27  C   UNL A   1      36.319  29.586  29.563  1.00  0.00     0.016 A 
ATOM     28  C   UNL A   1      36.924  30.041  27.263  1.00  0.00     0.016 A 
ATOM     29  C   UNL A   1      37.628  29.220  29.853  1.00  0.00     0.010 A 
ATOM     30  C   UNL A   1      38.243  29.670  27.552  1.00  0.00     0.010 A 
ATOM     31  C   UNL A   1      38.607  29.282  28.855  1.00  0.00    -0.014 A 
BRANCH  31  32
ATOM     32  C   UNL A   1      40.020  29.016  29.214  1.00  0.00     0.031 A 
ATOM     33  C   UNL A   1      40.640  27.691  28.866  1.00  0.00     0.074 A 
ATOM     34  C   UNL A   1      40.761  29.978  29.794  1.00  0.00     0.049 A 
ATOM     35  N   UNL A   1      41.859  27.268  29.080  1.00  0.00    -0.248 NA
ATOM     36  C   UNL A   1      39.773  26.715  28.184  1.00  0.00     0.031 C 
ATOM     37  C   UNL A   1      40.285  31.319  30.136  1.00  0.00     0.029 A 
ATOM     38  N   UNL A   1      42.075  29.977  30.186  1.00  0.00    -0.354 N 
ATOM     39  C   UNL A   1      41.906  25.975  28.570  1.00  0.00     0.074 A 
ATOM     40  C   UNL A   1      40.586  25.675  28.057  1.00  0.00     0.031 C 
ATOM     41  C   UNL A   1      41.298  32.015  30.680  1.00  0.00     0.029 A 
ATOM     42  C   UNL A   1      42.481  31.162  30.751  1.00  0.00     0.049 A 
ATOM     43  H   UNL A   1      42.671  29.202  30.072  1.00  0.00     0.167 HD
ATOM     44  C   UNL A   1      42.954  25.117  28.529  1.00  0.00     0.031 A 
ATOM     45  C   UNL A   1      43.670  31.516  31.278  1.00  0.00     0.031 A 
ATOM     46  C   UNL A   1      44.264  25.414  29.046  1.00  0.00     0.049 A 
ATOM     47  C   UNL A   1      44.804  30.528  31.264  1.00  0.00     0.074 A 
ATOM     48  C   UNL A   1      45.391  24.609  29.053  1.00  0.00     0.029 A 
ATOM     49  N   UNL A   1      44.625  26.610  29.648  1.00  0.00    -0.354 N 
ATOM     50  N   UNL A   1      44.829  29.307  30.782  1.00  0.00    -0.248 NA
ATOM     51  C   UNL A   1      46.072  30.969  31.861  1.00  0.00     0.031 C 
ATOM     52  C   UNL A   1      46.422  25.304  29.697  1.00  0.00     0.029 A 
ATOM     53  C   UNL A   1      45.951  26.560  30.046  1.00  0.00     0.049 A 
ATOM     54  H   UNL A   1      44.027  27.382  29.773  1.00  0.00     0.167 HD
ATOM     55  C   UNL A   1      46.123  28.843  30.999  1.00  0.00     0.074 A 
ATOM     56  C   UNL A   1      46.851  29.919  31.640  1.00  0.00     0.031 C 
ATOM     57  C   UNL A   1      46.659  27.635  30.693  1.00  0.00     0.031 A 
BRANCH  44  58
ATOM     58  C   UNL A   1      42.709  23.757  27.933  1.00  0.00    -0.014 A 
ATOM     59  C   UNL A   1      42.223  22.695  28.716  1.00  0.00     0.010 A 
ATOM     60  C   UNL A   1      42.946  23.547  26.562  1.00  0.00     0.010 A 
ATOM     61  C   UNL A   1      42.018  21.434  28.148  1.00  0.00     0.020 A 
ATOM     62  C   UNL A   1      42.720  22.293  25.985  1.00  0.00     0.020 A 
ATOM     63  C   UNL A   1      42.275  21.240  26.786  1.00  0.00     0.054 A 
BRANCH  63  64
ATOM     64  S   UNL A   1      41.992  19.598  26.069  1.00  0.00     0.124 S 
ATOM     65  O   UNL A   1      42.830  19.643  24.874  1.00  0.00    -0.237 OA
ATOM     66  O   UNL A   1      42.454  18.700  27.124  1.00  0.00    -0.237 OA
ATOM     67  O   UNL A   1      40.552  19.571  25.821  1.00  0.00    -0.744 OA
ENDBRANCH  63  64
ENDBRANCH  44  58
BRANCH  45  68
ATOM     68  C   UNL A   1      43.842  32.867  31.875  1.00  0.00    -0.014 A 
ATOM     69  C   UNL A   1      43.567  33.093  33.234  1.00  0.00     0.010 A 
ATOM     70  C   UNL A   1      44.290  33.938  31.080  1.00  0.00     0.010 A 
ATOM     71  C   UNL A   1      43.721  34.369  33.785  1.00  0.00     0.020 A 
ATOM     72  C   UNL A   1      44.470  35.209  31.632  1.00  0.00     0.020 A 
ATOM     73  C   UNL A   1      44.172  35.420  32.980  1.00  0.00     0.054 A 
BRANCH  73  74
ATOM     74  S   UNL A   1      44.414  37.058  33.721  1.00  0.00     0.124 S 
ATOM     75  O   UNL A   1      45.264  37.715  32.733  1.00  0.00    -0.237 OA
ATOM     76  O   UNL A   1      43.049  37.570  33.820  1.00  0.00    -0.237 OA
ATOM     77  O   UNL A   1      45.054  36.762  35.001  1.00  0.00    -0.744 OA
ENDBRANCH  73  74
ENDBRANCH  45  68
BRANCH  57  78
ATOM     78  C   UNL A   1      48.111  27.427  31.027  1.00  0.00    -0.014 A 
ATOM     79  C   UNL A   1      49.125  27.767  30.113  1.00  0.00     0.010 A 
ATOM     80  C   UNL A   1      48.468  26.907  32.284  1.00  0.00     0.010 A 
ATOM     81  C   UNL A   1      50.467  27.546  30.433  1.00  0.00     0.020 A 
ATOM     82  C   UNL A   1      49.810  26.708  32.617  1.00  0.00     0.020 A 
ATOM     83  C   UNL A   1      50.801  27.011  31.681  1.00  0.00     0.054 A 
BRANCH  83  84
ATOM     84  S   UNL A   1      52.550  26.747  32.084  1.00  0.00     0.124 S 
ATOM     85  O   UNL A   1      52.510  26.623  33.539  1.00  0.00    -0.237 OA
ATOM     86  O   UNL A   1      52.869  25.519  31.359  1.00  0.00    -0.237 OA
ATOM     87  O   UNL A   1      53.206  27.949  31.578  1.00  0.00    -0.744 OA
ENDBRANCH  83  84
ENDBRANCH  57  78
ENDBRANCH  31  32
ENDBRANCH  24  26
ENDBRANCH  23  24
ENDBRANCH  22  23
ENDBRANCH   1  22
TORSDOF 19
ENDMDL
MODEL 3
REMARK VINA RESULT:      -9.3      2.391      8.444
REMARK SMILES CC[N@@H+](C[C@@H](C)C(=O)OCCOC(=O)c1ccc(-c2c3nc(c(-c4ccc(S(=O)(=O)[O-])cc4)c4ccc([nH]4)c(-c4ccc(S(=O)(=O)[O-])cc4)c4nc(c(-c5ccc(S(=O)(=O)[O-])cc5)c5ccc2[nH]5)C=C4)C=C3)cc1)[C@@H]1CCC[C@H](S(C)(=O)=O)C1
REMARK SMILES IDX 10 1 9 2 7 3 8 4 5 5 6 6 4 7 3 8 2 10 1 11 75 12 76 13 84 14
REMARK SMILES IDX 77 15 79 16 78 17 80 18 81 19 82 20 83 21 11 22 12 23 13 24
REMARK SMILES IDX 14 25 15 26 16 27 74 28 17 29 73 30 18 31 19 32 20 33 67 34
REMARK SMILES IDX 21 35 72 36 66 37 68 38 22 39 71 40 65 41 64 42 23 44 53 45
REMARK SMILES IDX 34 46 52 47 35 48 38 49 51 50 69 51 36 52 37 53 50 55 70 56
REMARK SMILES IDX 39 57 24 58 25 59 33 60 26 61 32 62 27 63 28 64 29 65 30 66
REMARK SMILES IDX 31 67 54 68 55 69 63 70 56 71 62 72 57 73 58 74 59 75 60 76
REMARK SMILES IDX 61 77 40 78 41 79 49 80 42 81 48 82 43 83 44 84 45 85 46 86
REMARK SMILES IDX 47 87
REMARK H PARENT 3 9 68 43 38 54
REMARK Flexibility Score: inf
ROOT
ATOM      1  C   UNL A   1      31.854  29.619  25.601  1.00  0.00     0.274 C 
ENDROOT
BRANCH   1   2
ATOM      2  O   UNL A   1      32.909  28.733  25.180  1.00  0.00    -0.462 OA
BRANCH   2   3
ATOM      3  C   UNL A   1      32.746  27.432  25.543  1.00  0.00     0.314 C 
ATOM      4  O   UNL A   1      33.599  26.761  26.113  1.00  0.00    -0.252 OA
BRANCH   3   5
ATOM      5  C   UNL A   1      31.448  26.830  25.041  1.00  0.00     0.151 C 
ATOM      6  C   UNL A   1      30.929  25.960  26.189  1.00  0.00     0.026 C 
BRANCH   5   7
ATOM      7  C   UNL A   1      31.585  26.099  23.683  1.00  0.00     0.277 C 
BRANCH   7   8
ATOM      8  N   UNL A   1      32.942  25.690  23.203  1.00  0.00    -0.332 N 
ATOM      9  H   UNL A   1      33.635  26.025  23.873  1.00  0.00     0.348 HD
BRANCH   8  10
ATOM     10  C   UNL A   1      33.295  26.381  21.949  1.00  0.00     0.259 C 
ATOM     11  C   UNL A   1      32.638  25.848  20.679  1.00  0.00     0.071 C 
ENDBRANCH   8  10
BRANCH   8  12
ATOM     12  C   UNL A   1      33.185  24.241  23.268  1.00  0.00     0.185 C 
ATOM     13  C   UNL A   1      31.889  23.406  23.234  1.00  0.00     0.065 C 
ATOM     14  C   UNL A   1      34.062  23.770  24.438  1.00  0.00     0.084 C 
ATOM     15  C   UNL A   1      32.216  21.911  23.118  1.00  0.00     0.007 C 
ATOM     16  C   UNL A   1      34.437  22.295  24.276  1.00  0.00     0.114 C 
ATOM     17  C   UNL A   1      33.178  21.429  24.210  1.00  0.00     0.020 C 
BRANCH  16  18
ATOM     18  S   UNL A   1      35.556  21.827  25.604  1.00  0.00     0.150 S 
ATOM     19  C   UNL A   1      34.503  21.610  27.015  1.00  0.00     0.158 C 
ATOM     20  O   UNL A   1      36.082  20.515  25.281  1.00  0.00    -0.229 OA
ATOM     21  O   UNL A   1      36.437  22.944  25.876  1.00  0.00    -0.229 OA
ENDBRANCH  16  18
ENDBRANCH   8  12
ENDBRANCH   7   8
ENDBRANCH   5   7
ENDBRANCH   3   5
ENDBRANCH   2   3
ENDBRANCH   1   2
BRANCH   1  22
ATOM     22  C   UNL A   1      32.245  30.507  26.788  1.00  0.00     0.275 C 
BRANCH  22  23
ATOM     23  O   UNL A   1      33.569  30.226  27.275  1.00  0.00    -0.458 OA
BRANCH  23  24
ATOM     24  C   UNL A   1      34.262  31.321  27.668  1.00  0.00     0.338 C 
ATOM     25  O   UNL A   1      33.844  32.466  27.723  1.00  0.00    -0.246 OA
BRANCH  24  26
ATOM     26  C   UNL A   1      35.587  30.940  28.187  1.00  0.00     0.060 A 
ATOM     27  C   UNL A   1      35.706  29.679  28.776  1.00  0.00     0.016 A 
ATOM     28  C   UNL A   1      36.666  31.824  28.191  1.00  0.00     0.016 A 
ATOM     29  C   UNL A   1      36.886  29.304  29.408  1.00  0.00     0.010 A 
ATOM     30  C   UNL A   1      37.857  31.447  28.824  1.00  0.00     0.010 A 
ATOM     31  C   UNL A   1      37.964  30.195  29.458  1.00  0.00    -0.014 A 
BRANCH  31  32
ATOM     32  C   UNL A   1      39.164  29.831  30.248  1.00  0.00     0.031 A 
ATOM     33  C   UNL A   1      40.066  28.729  29.766  1.00  0.00     0.074 A 
ATOM     34  C   UNL A   1      39.476  30.524  31.358  1.00  0.00     0.049 A 
ATOM     35  N   UNL A   1      41.168  28.270  30.302  1.00  0.00    -0.248 NA
ATOM     36  C   UNL A   1      39.680  28.058  28.514  1.00  0.00     0.031 C 
ATOM     37  C   UNL A   1      38.705  31.645  31.898  1.00  0.00     0.029 A 
ATOM     38  N   UNL A   1      40.533  30.395  32.223  1.00  0.00    -0.354 N 
ATOM     39  C   UNL A   1      41.602  27.250  29.462  1.00  0.00     0.074 A 
ATOM     40  C   UNL A   1      40.632  27.144  28.393  1.00  0.00     0.031 C 
ATOM     41  C   UNL A   1      39.321  32.107  33.000  1.00  0.00     0.029 A 
ATOM     42  C   UNL A   1      40.509  31.298  33.259  1.00  0.00     0.049 A 
ATOM     43  H   UNL A   1      41.240  29.720  32.112  1.00  0.00     0.167 HD
ATOM     44  C   UNL A   1      42.708  26.476  29.569  1.00  0.00     0.031 A 
ATOM     45  C   UNL A   1      41.345  31.448  34.305  1.00  0.00     0.031 A 
ATOM     46  C   UNL A   1      43.668  26.578  30.637  1.00  0.00     0.049 A 
ATOM     47  C   UNL A   1      42.541  30.545  34.427  1.00  0.00     0.074 A 
ATOM     48  C   UNL A   1      44.821  25.838  30.834  1.00  0.00     0.029 A 
ATOM     49  N   UNL A   1      43.588  27.479  31.689  1.00  0.00    -0.354 N 
ATOM     50  N   UNL A   1      42.933  29.583  33.625  1.00  0.00    -0.248 NA
ATOM     51  C   UNL A   1      43.410  30.752  35.593  1.00  0.00     0.031 C 
ATOM     52  C   UNL A   1      45.416  26.262  32.028  1.00  0.00     0.029 A 
ATOM     53  C   UNL A   1      44.660  27.301  32.548  1.00  0.00     0.049 A 
ATOM     54  H   UNL A   1      42.875  28.146  31.808  1.00  0.00     0.167 HD
ATOM     55  C   UNL A   1      44.108  29.084  34.180  1.00  0.00     0.074 A 
ATOM     56  C   UNL A   1      44.368  29.861  35.375  1.00  0.00     0.031 C 
ATOM     57  C   UNL A   1      44.900  28.075  33.739  1.00  0.00     0.031 A 
BRANCH  44  58
ATOM     58  C   UNL A   1      42.918  25.423  28.514  1.00  0.00    -0.014 A 
ATOM     59  C   UNL A   1      43.668  25.690  27.356  1.00  0.00     0.010 A 
ATOM     60  C   UNL A   1      42.374  24.138  28.699  1.00  0.00     0.010 A 
ATOM     61  C   UNL A   1      43.837  24.704  26.380  1.00  0.00     0.020 A 
ATOM     62  C   UNL A   1      42.561  23.142  27.736  1.00  0.00     0.020 A 
ATOM     63  C   UNL A   1      43.276  23.437  26.574  1.00  0.00     0.054 A 
BRANCH  63  64
ATOM     64  S   UNL A   1      43.517  22.170  25.297  1.00  0.00     0.124 S 
ATOM     65  O   UNL A   1      42.403  21.262  25.561  1.00  0.00    -0.237 OA
ATOM     66  O   UNL A   1      43.420  22.937  24.058  1.00  0.00    -0.237 OA
ATOM     67  O   UNL A   1      44.843  21.632  25.589  1.00  0.00    -0.744 OA
ENDBRANCH  63  64
ENDBRANCH  44  58
BRANCH  45  68
ATOM     68  C   UNL A   1      41.070  32.493  35.327  1.00  0.00    -0.014 A 
ATOM     69  C   UNL A   1      41.579  33.795  35.179  1.00  0.00     0.010 A 
ATOM     70  C   UNL A   1      40.289  32.188  36.457  1.00  0.00     0.010 A 
ATOM     71  C   UNL A   1      41.325  34.769  36.151  1.00  0.00     0.020 A 
ATOM     72  C   UNL A   1      40.012  33.165  37.417  1.00  0.00     0.020 A 
ATOM     73  C   UNL A   1      40.543  34.447  37.264  1.00  0.00     0.054 A 
BRANCH  73  74
ATOM     74  S   UNL A   1      40.182  35.735  38.490  1.00  0.00     0.124 S 
ATOM     75  O   UNL A   1      39.670  36.815  37.653  1.00  0.00    -0.237 OA
ATOM     76  O   UNL A   1      39.201  35.088  39.356  1.00  0.00    -0.237 OA
ATOM     77  O   UNL A   1      41.480  35.986  39.112  1.00  0.00    -0.744 OA
ENDBRANCH  73  74
ENDBRANCH  45  68
BRANCH  57  78
ATOM     78  C   UNL A   1      46.136  27.775  34.542  1.00  0.00    -0.014 A 
ATOM     79  C   UNL A   1      46.117  26.830  35.583  1.00  0.00     0.010 A 
ATOM     80  C   UNL A   1      47.341  28.433  34.235  1.00  0.00     0.010 A 
ATOM     81  C   UNL A   1      47.270  26.581  36.333  1.00  0.00     0.020 A 
ATOM     82  C   UNL A   1      48.502  28.169  34.966  1.00  0.00     0.020 A 
ATOM     83  C   UNL A   1      48.454  27.258  36.025  1.00  0.00     0.054 A 
BRANCH  83  84
ATOM     84  S   UNL A   1      49.944  26.910  36.998  1.00  0.00     0.124 S 
ATOM     85  O   UNL A   1      50.233  25.527  36.626  1.00  0.00    -0.237 OA
ATOM     86  O   UNL A   1      50.895  27.904  36.504  1.00  0.00    -0.237 OA
ATOM     87  O   UNL A   1      49.509  27.107  38.378  1.00  0.00    -0.744 OA
ENDBRANCH  83  84
ENDBRANCH  57  78
ENDBRANCH  31  32
ENDBRANCH  24  26
ENDBRANCH  23  24
ENDBRANCH  22  23
ENDBRANCH   1  22
TORSDOF 19
ENDMDL
