MODEL 1
REMARK VINA RESULT:     -10.4      0.000      0.000
REMARK SMILES O=C(OCCOC(=O)[C@H]1CC[C@@H](C[NH2+][C@H]2CCC[C@H](C3CC3)C2)CC1)c1ccc(-c2c3nc(c(-c4ccc(S(=O)(=O)[O-])cc4)c4ccc([nH]4)c(-c4ccc(S(=O)(=O)[O-])cc4)c4nc(c(-c5ccc(S(=O)(=O)[O-])cc5)c5ccc2[nH]5)C=C4)C=C3)cc1
REMARK SMILES IDX 5 1 4 2 3 3 2 4 1 5 26 6 27 7 85 8 28 9 84 10 29 11 30 12
REMARK SMILES IDX 31 13 78 14 32 15 83 16 77 17 79 18 33 19 82 20 76 21 75 22
REMARK SMILES IDX 34 24 64 25 45 26 63 27 46 28 49 29 62 30 80 31 47 32 48 33
REMARK SMILES IDX 61 35 81 36 50 37 35 38 36 39 44 40 37 41 43 42 38 43 39 44
REMARK SMILES IDX 40 45 41 46 42 47 65 48 66 49 74 50 67 51 73 52 68 53 69 54
REMARK SMILES IDX 70 55 71 56 72 57 51 58 52 59 60 60 53 61 59 62 54 63 55 64
REMARK SMILES IDX 56 65 57 66 58 67 6 68 7 69 8 70 9 71 25 72 10 73 24 74
REMARK SMILES IDX 11 75 12 76 13 77 14 78 15 81 16 82 23 83 17 84 19 85 18 86
REMARK SMILES IDX 20 87 21 88 22 89
REMARK H PARENT 79 23 49 34 14 79 14 80
REMARK Flexibility Score: inf
ROOT
ATOM      1  C   UNL A   1      37.609  23.646  25.232  1.00  0.00     0.274 C 
ENDROOT
BRANCH   1   2
ATOM      2  C   UNL A   1      38.150  23.824  26.653  1.00  0.00     0.275 C 
BRANCH   2   3
ATOM      3  O   UNL A   1      38.508  25.177  26.991  1.00  0.00    -0.458 OA
BRANCH   3   4
ATOM      4  C   UNL A   1      39.719  25.711  27.292  1.00  0.00     0.338 C 
ATOM      5  O   UNL A   1      40.705  25.300  26.682  1.00  0.00    -0.246 OA
BRANCH   4   6
ATOM      6  C   UNL A   1      39.954  26.643  28.444  1.00  0.00     0.060 A 
ATOM      7  C   UNL A   1      40.945  27.627  28.527  1.00  0.00     0.016 A 
ATOM      8  C   UNL A   1      39.044  26.544  29.515  1.00  0.00     0.016 A 
ATOM      9  C   UNL A   1      40.956  28.567  29.569  1.00  0.00     0.010 A 
ATOM     10  C   UNL A   1      39.041  27.489  30.547  1.00  0.00     0.010 A 
ATOM     11  C   UNL A   1      39.990  28.525  30.572  1.00  0.00    -0.014 A 
BRANCH  11  12
ATOM     12  C   UNL A   1      40.047  29.437  31.740  1.00  0.00     0.031 A 
ATOM     13  C   UNL A   1      40.961  29.056  32.864  1.00  0.00     0.074 A 
ATOM     14  C   UNL A   1      39.305  30.562  31.830  1.00  0.00     0.049 A 
ATOM     15  N   UNL A   1      41.159  29.671  33.997  1.00  0.00    -0.248 NA
ATOM     16  C   UNL A   1      41.811  27.867  32.662  1.00  0.00     0.031 C 
ATOM     17  C   UNL A   1      38.512  31.164  30.763  1.00  0.00     0.029 A 
ATOM     18  N   UNL A   1      39.041  31.373  32.909  1.00  0.00    -0.354 N 
ATOM     19  C   UNL A   1      42.207  28.996  34.601  1.00  0.00     0.074 A 
ATOM     20  C   UNL A   1      42.539  27.864  33.768  1.00  0.00     0.031 C 
ATOM     21  C   UNL A   1      37.699  32.103  31.277  1.00  0.00     0.029 A 
ATOM     22  C   UNL A   1      37.981  32.231  32.697  1.00  0.00     0.049 A 
ATOM     23  H   UNL A   1      39.555  31.345  33.747  1.00  0.00     0.167 HD
ATOM     24  C   UNL A   1      42.876  29.338  35.723  1.00  0.00     0.031 A 
ATOM     25  C   UNL A   1      37.313  33.028  33.556  1.00  0.00     0.031 A 
ATOM     26  C   UNL A   1      42.512  30.449  36.555  1.00  0.00     0.049 A 
ATOM     27  C   UNL A   1      37.907  33.221  34.923  1.00  0.00     0.074 A 
ATOM     28  C   UNL A   1      43.143  30.913  37.692  1.00  0.00     0.029 A 
ATOM     29  N   UNL A   1      41.395  31.245  36.354  1.00  0.00    -0.354 N 
ATOM     30  N   UNL A   1      38.978  32.659  35.431  1.00  0.00    -0.248 NA
ATOM     31  C   UNL A   1      37.273  34.217  35.795  1.00  0.00     0.031 C 
ATOM     32  C   UNL A   1      42.363  31.946  38.223  1.00  0.00     0.029 A 
ATOM     33  C   UNL A   1      41.281  32.162  37.382  1.00  0.00     0.049 A 
ATOM     34  H   UNL A   1      40.775  31.170  35.592  1.00  0.00     0.167 HD
ATOM     35  C   UNL A   1      39.197  33.296  36.643  1.00  0.00     0.074 A 
ATOM     36  C   UNL A   1      38.131  34.265  36.805  1.00  0.00     0.031 C 
ATOM     37  C   UNL A   1      40.212  33.118  37.524  1.00  0.00     0.031 A 
BRANCH  24  38
ATOM     38  C   UNL A   1      44.064  28.504  36.094  1.00  0.00    -0.014 A 
ATOM     39  C   UNL A   1      43.912  27.352  36.889  1.00  0.00     0.010 A 
ATOM     40  C   UNL A   1      45.338  28.852  35.618  1.00  0.00     0.010 A 
ATOM     41  C   UNL A   1      45.020  26.567  37.211  1.00  0.00     0.020 A 
ATOM     42  C   UNL A   1      46.446  28.058  35.922  1.00  0.00     0.020 A 
ATOM     43  C   UNL A   1      46.280  26.924  36.720  1.00  0.00     0.054 A 
BRANCH  43  44
ATOM     44  S   UNL A   1      47.691  25.851  37.103  1.00  0.00     0.124 S 
ATOM     45  O   UNL A   1      48.120  25.431  35.771  1.00  0.00    -0.237 OA
ATOM     46  O   UNL A   1      48.601  26.758  37.798  1.00  0.00    -0.237 OA
ATOM     47  O   UNL A   1      47.110  24.798  37.932  1.00  0.00    -0.744 OA
ENDBRANCH  43  44
ENDBRANCH  24  38
BRANCH  25  48
ATOM     48  C   UNL A   1      36.055  33.722  33.158  1.00  0.00    -0.014 A 
ATOM     49  C   UNL A   1      36.067  35.045  32.684  1.00  0.00     0.010 A 
ATOM     50  C   UNL A   1      34.816  33.072  33.317  1.00  0.00     0.010 A 
ATOM     51  C   UNL A   1      34.867  35.721  32.428  1.00  0.00     0.020 A 
ATOM     52  C   UNL A   1      33.613  33.737  33.045  1.00  0.00     0.020 A 
ATOM     53  C   UNL A   1      33.647  35.065  32.620  1.00  0.00     0.054 A 
BRANCH  53  54
ATOM     54  S   UNL A   1      32.108  35.979  32.305  1.00  0.00     0.124 S 
ATOM     55  O   UNL A   1      32.248  36.335  30.897  1.00  0.00    -0.237 OA
ATOM     56  O   UNL A   1      31.086  34.980  32.607  1.00  0.00    -0.237 OA
ATOM     57  O   UNL A   1      32.173  37.097  33.243  1.00  0.00    -0.744 OA
ENDBRANCH  53  54
ENDBRANCH  25  48
BRANCH  37  58
ATOM     58  C   UNL A   1      40.242  34.017  38.725  1.00  0.00    -0.014 A 
ATOM     59  C   UNL A   1      40.899  35.257  38.685  1.00  0.00     0.010 A 
ATOM     60  C   UNL A   1      39.544  33.639  39.887  1.00  0.00     0.010 A 
ATOM     61  C   UNL A   1      40.879  36.097  39.798  1.00  0.00     0.020 A 
ATOM     62  C   UNL A   1      39.492  34.492  40.989  1.00  0.00     0.020 A 
ATOM     63  C   UNL A   1      40.171  35.711  40.942  1.00  0.00     0.054 A 
BRANCH  63  64
ATOM     64  S   UNL A   1      40.104  36.851  42.348  1.00  0.00     0.124 S 
ATOM     65  O   UNL A   1      39.136  36.195  43.223  1.00  0.00    -0.237 OA
ATOM     66  O   UNL A   1      41.484  36.851  42.826  1.00  0.00    -0.237 OA
ATOM     67  O   UNL A   1      39.656  38.108  41.754  1.00  0.00    -0.744 OA
ENDBRANCH  63  64
ENDBRANCH  37  58
ENDBRANCH  11  12
ENDBRANCH   4   6
ENDBRANCH   3   4
ENDBRANCH   2   3
ENDBRANCH   1   2
BRANCH   1  68
ATOM     68  O   UNL A   1      36.183  23.520  25.221  1.00  0.00    -0.462 OA
BRANCH  68  69
ATOM     69  C   UNL A   1      35.689  22.255  25.064  1.00  0.00     0.309 C 
ATOM     70  O   UNL A   1      35.991  21.299  25.759  1.00  0.00    -0.252 OA
BRANCH  69  71
ATOM     71  C   UNL A   1      34.624  22.244  23.972  1.00  0.00     0.099 C 
ATOM     72  C   UNL A   1      33.420  21.397  24.363  1.00  0.00     0.016 C 
ATOM     73  C   UNL A   1      34.244  23.648  23.537  1.00  0.00     0.016 C 
ATOM     74  C   UNL A   1      32.253  21.483  23.365  1.00  0.00     0.010 C 
ATOM     75  C   UNL A   1      33.095  23.658  22.537  1.00  0.00     0.010 C 
ATOM     76  C   UNL A   1      31.842  22.929  23.052  1.00  0.00     0.044 C 
BRANCH  76  77
ATOM     77  C   UNL A   1      31.121  23.517  24.298  1.00  0.00     0.264 C 
BRANCH  77  78
ATOM     78  N   UNL A   1      30.199  24.605  24.024  1.00  0.00    -0.344 N 
ATOM     79  H   UNL A   1      29.257  24.215  24.013  1.00  0.00     0.346 HD
ATOM     80  H   UNL A   1      30.511  25.001  23.137  1.00  0.00     0.346 HD
BRANCH  78  81
ATOM     81  C   UNL A   1      30.203  25.738  24.972  1.00  0.00     0.182 C 
ATOM     82  C   UNL A   1      30.991  25.609  26.294  1.00  0.00     0.065 C 
ATOM     83  C   UNL A   1      30.729  26.991  24.227  1.00  0.00     0.069 C 
ATOM     84  C   UNL A   1      32.507  25.574  26.109  1.00  0.00     0.006 C 
ATOM     85  C   UNL A   1      32.246  26.910  23.956  1.00  0.00    -0.002 C 
ATOM     86  C   UNL A   1      33.017  26.744  25.275  1.00  0.00     0.004 C 
BRANCH  85  87
ATOM     87  C   UNL A   1      32.733  28.030  23.068  1.00  0.00    -0.008 C 
ATOM     88  C   UNL A   1      34.091  28.677  23.159  1.00  0.00     0.004 C 
ATOM     89  C   UNL A   1      33.804  27.710  22.047  1.00  0.00     0.004 C 
ENDBRANCH  85  87
ENDBRANCH  78  81
ENDBRANCH  77  78
ENDBRANCH  76  77
ENDBRANCH  69  71
ENDBRANCH  68  69
ENDBRANCH   1  68
TORSDOF 18
ENDMDL
MODEL 2
REMARK VINA RESULT:     -10.3      7.750     13.190
REMARK SMILES O=C(OCCOC(=O)[C@H]1CC[C@@H](C[NH2+][C@H]2CCC[C@H](C3CC3)C2)CC1)c1ccc(-c2c3nc(c(-c4ccc(S(=O)(=O)[O-])cc4)c4ccc([nH]4)c(-c4ccc(S(=O)(=O)[O-])cc4)c4nc(c(-c5ccc(S(=O)(=O)[O-])cc5)c5ccc2[nH]5)C=C4)C=C3)cc1
REMARK SMILES IDX 5 1 4 2 3 3 2 4 1 5 26 6 27 7 85 8 28 9 84 10 29 11 30 12
REMARK SMILES IDX 31 13 78 14 32 15 83 16 77 17 79 18 33 19 82 20 76 21 75 22
REMARK SMILES IDX 34 24 64 25 45 26 63 27 46 28 49 29 62 30 80 31 47 32 48 33
REMARK SMILES IDX 61 35 81 36 50 37 35 38 36 39 44 40 37 41 43 42 38 43 39 44
REMARK SMILES IDX 40 45 41 46 42 47 65 48 66 49 74 50 67 51 73 52 68 53 69 54
REMARK SMILES IDX 70 55 71 56 72 57 51 58 52 59 60 60 53 61 59 62 54 63 55 64
REMARK SMILES IDX 56 65 57 66 58 67 6 68 7 69 8 70 9 71 25 72 10 73 24 74
REMARK SMILES IDX 11 75 12 76 13 77 14 78 15 81 16 82 23 83 17 84 19 85 18 86
REMARK SMILES IDX 20 87 21 88 22 89
REMARK H PARENT 79 23 49 34 14 79 14 80
REMARK Flexibility Score: inf
ROOT
ATOM      1  C   UNL A   1      33.838  30.019  26.838  1.00  0.00     0.274 C 
ENDROOT
BRANCH   1   2
ATOM      2  C   UNL A   1      34.749  29.461  27.934  1.00  0.00     0.275 C 
BRANCH   2   3
ATOM      3  O   UNL A   1      36.150  29.740  27.747  1.00  0.00    -0.458 OA
BRANCH   3   4
ATOM      4  C   UNL A   1      37.173  29.709  28.638  1.00  0.00     0.338 C 
ATOM      5  O   UNL A   1      36.974  30.149  29.770  1.00  0.00    -0.246 OA
BRANCH   4   6
ATOM      6  C   UNL A   1      38.580  29.334  28.277  1.00  0.00     0.060 A 
ATOM      7  C   UNL A   1      39.067  29.082  26.990  1.00  0.00     0.016 A 
ATOM      8  C   UNL A   1      39.501  29.292  29.341  1.00  0.00     0.016 A 
ATOM      9  C   UNL A   1      40.440  28.925  26.747  1.00  0.00     0.010 A 
ATOM     10  C   UNL A   1      40.873  29.152  29.102  1.00  0.00     0.010 A 
ATOM     11  C   UNL A   1      41.357  28.986  27.794  1.00  0.00    -0.014 A 
BRANCH  11  12
ATOM     12  C   UNL A   1      42.799  28.713  27.577  1.00  0.00     0.031 A 
ATOM     13  C   UNL A   1      43.720  29.894  27.518  1.00  0.00     0.074 A 
ATOM     14  C   UNL A   1      43.295  27.467  27.417  1.00  0.00     0.049 A 
ATOM     15  N   UNL A   1      45.007  29.913  27.309  1.00  0.00    -0.248 NA
ATOM     16  C   UNL A   1      43.129  31.218  27.794  1.00  0.00     0.031 C 
ATOM     17  C   UNL A   1      42.574  26.215  27.624  1.00  0.00     0.029 A 
ATOM     18  N   UNL A   1      44.524  27.046  26.967  1.00  0.00    -0.354 N 
ATOM     19  C   UNL A   1      45.390  31.229  27.509  1.00  0.00     0.074 A 
ATOM     20  C   UNL A   1      44.194  32.002  27.753  1.00  0.00     0.031 C 
ATOM     21  C   UNL A   1      43.282  25.194  27.112  1.00  0.00     0.029 A 
ATOM     22  C   UNL A   1      44.549  25.710  26.622  1.00  0.00     0.049 A 
ATOM     23  H   UNL A   1      45.308  27.638  26.898  1.00  0.00     0.167 HD
ATOM     24  C   UNL A   1      46.643  31.730  27.553  1.00  0.00     0.031 A 
ATOM     25  C   UNL A   1      45.490  24.988  25.981  1.00  0.00     0.031 A 
ATOM     26  C   UNL A   1      47.816  30.953  27.277  1.00  0.00     0.049 A 
ATOM     27  C   UNL A   1      46.834  25.628  25.779  1.00  0.00     0.074 A 
ATOM     28  C   UNL A   1      49.139  31.345  27.332  1.00  0.00     0.029 A 
ATOM     29  N   UNL A   1      47.801  29.631  26.859  1.00  0.00    -0.354 N 
ATOM     30  N   UNL A   1      47.210  26.846  26.092  1.00  0.00    -0.248 NA
ATOM     31  C   UNL A   1      47.905  24.784  25.234  1.00  0.00     0.031 C 
ATOM     32  C   UNL A   1      49.922  30.281  26.872  1.00  0.00     0.029 A 
ATOM     33  C   UNL A   1      49.089  29.208  26.591  1.00  0.00     0.049 A 
ATOM     34  H   UNL A   1      46.993  29.075  26.768  1.00  0.00     0.167 HD
ATOM     35  C   UNL A   1      48.577  26.887  25.866  1.00  0.00     0.074 A 
ATOM     36  C   UNL A   1      48.957  25.581  25.362  1.00  0.00     0.031 C 
ATOM     37  C   UNL A   1      49.445  27.904  26.090  1.00  0.00     0.031 A 
BRANCH  24  38
ATOM     38  C   UNL A   1      46.791  33.175  27.918  1.00  0.00    -0.014 A 
ATOM     39  C   UNL A   1      47.140  33.552  29.229  1.00  0.00     0.010 A 
ATOM     40  C   UNL A   1      46.616  34.165  26.938  1.00  0.00     0.010 A 
ATOM     41  C   UNL A   1      47.299  34.900  29.556  1.00  0.00     0.020 A 
ATOM     42  C   UNL A   1      46.794  35.513  27.257  1.00  0.00     0.020 A 
ATOM     43  C   UNL A   1      47.129  35.871  28.564  1.00  0.00     0.054 A 
BRANCH  43  44
ATOM     44  S   UNL A   1      47.404  37.609  29.003  1.00  0.00     0.124 S 
ATOM     45  O   UNL A   1      47.710  37.516  30.428  1.00  0.00    -0.237 OA
ATOM     46  O   UNL A   1      48.523  37.982  28.143  1.00  0.00    -0.237 OA
ATOM     47  O   UNL A   1      46.132  38.252  28.680  1.00  0.00    -0.744 OA
ENDBRANCH  43  44
ENDBRANCH  24  38
BRANCH  25  48
ATOM     48  C   UNL A   1      45.224  23.595  25.521  1.00  0.00    -0.014 A 
ATOM     49  C   UNL A   1      45.580  22.485  26.305  1.00  0.00     0.010 A 
ATOM     50  C   UNL A   1      44.665  23.371  24.247  1.00  0.00     0.010 A 
ATOM     51  C   UNL A   1      45.433  21.183  25.807  1.00  0.00     0.020 A 
ATOM     52  C   UNL A   1      44.498  22.072  23.751  1.00  0.00     0.020 A 
ATOM     53  C   UNL A   1      44.902  20.986  24.529  1.00  0.00     0.054 A 
BRANCH  53  54
ATOM     54  S   UNL A   1      44.749  19.287  23.901  1.00  0.00     0.124 S 
ATOM     55  O   UNL A   1      46.029  18.703  24.289  1.00  0.00    -0.237 OA
ATOM     56  O   UNL A   1      43.582  18.792  24.627  1.00  0.00    -0.237 OA
ATOM     57  O   UNL A   1      44.552  19.467  22.465  1.00  0.00    -0.744 OA
ENDBRANCH  53  54
ENDBRANCH  25  48
BRANCH  37  58
ATOM     58  C   UNL A   1      50.898  27.635  25.832  1.00  0.00    -0.014 A 
ATOM     59  C   UNL A   1      51.491  27.974  24.605  1.00  0.00     0.010 A 
ATOM     60  C   UNL A   1      51.693  27.096  26.861  1.00  0.00     0.010 A 
ATOM     61  C   UNL A   1      52.853  27.755  24.402  1.00  0.00     0.020 A 
ATOM     62  C   UNL A   1      53.062  26.908  26.673  1.00  0.00     0.020 A 
ATOM     63  C   UNL A   1      53.631  27.228  25.438  1.00  0.00     0.054 A 
BRANCH  63  64
ATOM     64  S   UNL A   1      55.410  27.018  25.169  1.00  0.00     0.124 S 
ATOM     65  O   UNL A   1      55.660  27.942  24.067  1.00  0.00    -0.237 OA
ATOM     66  O   UNL A   1      55.977  27.408  26.458  1.00  0.00    -0.237 OA
ATOM     67  O   UNL A   1      55.546  25.602  24.839  1.00  0.00    -0.744 OA
ENDBRANCH  63  64
ENDBRANCH  37  58
ENDBRANCH  11  12
ENDBRANCH   4   6
ENDBRANCH   3   4
ENDBRANCH   2   3
ENDBRANCH   1   2
BRANCH   1  68
ATOM     68  O   UNL A   1      32.455  29.792  27.132  1.00  0.00    -0.462 OA
BRANCH  68  69
ATOM     69  C   UNL A   1      32.044  28.488  27.132  1.00  0.00     0.309 C 
ATOM     70  O   UNL A   1      31.403  27.960  28.028  1.00  0.00    -0.252 OA
BRANCH  69  71
ATOM     71  C   UNL A   1      32.403  27.828  25.805  1.00  0.00     0.099 C 
ATOM     72  C   UNL A   1      33.282  26.600  26.002  1.00  0.00     0.016 C 
ATOM     73  C   UNL A   1      31.174  27.548  24.961  1.00  0.00     0.016 C 
ATOM     74  C   UNL A   1      33.539  25.809  24.708  1.00  0.00     0.010 C 
ATOM     75  C   UNL A   1      31.502  26.779  23.689  1.00  0.00     0.010 C 
ATOM     76  C   UNL A   1      32.246  25.459  23.957  1.00  0.00     0.044 C 
BRANCH  76  77
ATOM     77  C   UNL A   1      31.497  24.354  24.755  1.00  0.00     0.264 C 
BRANCH  77  78
ATOM     78  N   UNL A   1      31.769  22.992  24.331  1.00  0.00    -0.344 N 
ATOM     79  H   UNL A   1      32.605  23.012  23.748  1.00  0.00     0.346 HD
ATOM     80  H   UNL A   1      30.920  22.688  23.854  1.00  0.00     0.346 HD
BRANCH  78  81
ATOM     81  C   UNL A   1      31.989  21.991  25.395  1.00  0.00     0.182 C 
ATOM     82  C   UNL A   1      32.153  20.505  25.006  1.00  0.00     0.065 C 
ATOM     83  C   UNL A   1      33.243  22.411  26.203  1.00  0.00     0.069 C 
ATOM     84  C   UNL A   1      33.449  20.203  24.255  1.00  0.00     0.006 C 
ATOM     85  C   UNL A   1      34.546  22.193  25.405  1.00  0.00    -0.002 C 
ATOM     86  C   UNL A   1      34.680  20.719  24.991  1.00  0.00     0.004 C 
BRANCH  85  87
ATOM     87  C   UNL A   1      35.754  22.772  26.104  1.00  0.00    -0.008 C 
ATOM     88  C   UNL A   1      37.186  22.520  25.707  1.00  0.00     0.004 C 
ATOM     89  C   UNL A   1      36.547  23.839  25.381  1.00  0.00     0.004 C 
ENDBRANCH  85  87
ENDBRANCH  78  81
ENDBRANCH  77  78
ENDBRANCH  76  77
ENDBRANCH  69  71
ENDBRANCH  68  69
ENDBRANCH   1  68
TORSDOF 18
ENDMDL
MODEL 3
REMARK VINA RESULT:     -10.2      3.518      9.825
REMARK SMILES O=C(OCCOC(=O)[C@H]1CC[C@@H](C[NH2+][C@H]2CCC[C@H](C3CC3)C2)CC1)c1ccc(-c2c3nc(c(-c4ccc(S(=O)(=O)[O-])cc4)c4ccc([nH]4)c(-c4ccc(S(=O)(=O)[O-])cc4)c4nc(c(-c5ccc(S(=O)(=O)[O-])cc5)c5ccc2[nH]5)C=C4)C=C3)cc1
REMARK SMILES IDX 5 1 4 2 3 3 2 4 1 5 26 6 27 7 85 8 28 9 84 10 29 11 30 12
REMARK SMILES IDX 31 13 78 14 32 15 83 16 77 17 79 18 33 19 82 20 76 21 75 22
REMARK SMILES IDX 34 24 64 25 45 26 63 27 46 28 49 29 62 30 80 31 47 32 48 33
REMARK SMILES IDX 61 35 81 36 50 37 35 38 36 39 44 40 37 41 43 42 38 43 39 44
REMARK SMILES IDX 40 45 41 46 42 47 65 48 66 49 74 50 67 51 73 52 68 53 69 54
REMARK SMILES IDX 70 55 71 56 72 57 51 58 52 59 60 60 53 61 59 62 54 63 55 64
REMARK SMILES IDX 56 65 57 66 58 67 6 68 7 69 8 70 9 71 25 72 10 73 24 74
REMARK SMILES IDX 11 75 12 76 13 77 14 78 15 81 16 82 23 83 17 84 19 85 18 86
REMARK SMILES IDX 20 87 21 88 22 89
REMARK H PARENT 79 23 49 34 14 79 14 80
REMARK Flexibility Score: inf
ROOT
ATOM      1  C   UNL A   1      32.281  28.572  25.092  1.00  0.00     0.274 C 
ENDROOT
BRANCH   1   2
ATOM      2  C   UNL A   1      33.176  28.829  26.306  1.00  0.00     0.275 C 
BRANCH   2   3
ATOM      3  O   UNL A   1      33.689  30.172  26.398  1.00  0.00    -0.458 OA
BRANCH   3   4
ATOM      4  C   UNL A   1      34.394  30.772  27.390  1.00  0.00     0.338 C 
ATOM      5  O   UNL A   1      34.023  31.878  27.782  1.00  0.00    -0.246 OA
BRANCH   4   6
ATOM      6  C   UNL A   1      35.699  30.251  27.916  1.00  0.00     0.060 A 
ATOM      7  C   UNL A   1      36.934  30.292  27.261  1.00  0.00     0.016 A 
ATOM      8  C   UNL A   1      35.672  29.722  29.222  1.00  0.00     0.016 A 
ATOM      9  C   UNL A   1      38.123  29.948  27.922  1.00  0.00     0.010 A 
ATOM     10  C   UNL A   1      36.857  29.393  29.890  1.00  0.00     0.010 A 
ATOM     11  C   UNL A   1      38.100  29.522  29.248  1.00  0.00    -0.014 A 
BRANCH  11  12
ATOM     12  C   UNL A   1      39.328  29.047  29.931  1.00  0.00     0.031 A 
ATOM     13  C   UNL A   1      39.882  29.910  31.024  1.00  0.00     0.074 A 
ATOM     14  C   UNL A   1      39.959  27.902  29.595  1.00  0.00     0.049 A 
ATOM     15  N   UNL A   1      40.954  29.725  31.743  1.00  0.00    -0.248 NA
ATOM     16  C   UNL A   1      39.094  31.098  31.404  1.00  0.00     0.031 C 
ATOM     17  C   UNL A   1      39.459  26.872  28.691  1.00  0.00     0.029 A 
ATOM     18  N   UNL A   1      41.210  27.440  29.931  1.00  0.00    -0.354 N 
ATOM     19  C   UNL A   1      40.925  30.720  32.706  1.00  0.00     0.074 A 
ATOM     20  C   UNL A   1      39.791  31.570  32.425  1.00  0.00     0.031 C 
ATOM     21  C   UNL A   1      40.453  26.021  28.379  1.00  0.00     0.029 A 
ATOM     22  C   UNL A   1      41.636  26.396  29.135  1.00  0.00     0.049 A 
ATOM     23  H   UNL A   1      41.748  27.816  30.665  1.00  0.00     0.167 HD
ATOM     24  C   UNL A   1      41.739  30.864  33.773  1.00  0.00     0.031 A 
ATOM     25  C   UNL A   1      42.846  25.811  29.031  1.00  0.00     0.031 A 
ATOM     26  C   UNL A   1      42.878  30.028  34.019  1.00  0.00     0.049 A 
ATOM     27  C   UNL A   1      43.874  26.159  30.070  1.00  0.00     0.074 A 
ATOM     28  C   UNL A   1      43.751  30.057  35.090  1.00  0.00     0.029 A 
ATOM     29  N   UNL A   1      43.323  29.035  33.159  1.00  0.00    -0.354 N 
ATOM     30  N   UNL A   1      43.777  27.022  31.053  1.00  0.00    -0.248 NA
ATOM     31  C   UNL A   1      45.130  25.398  30.053  1.00  0.00     0.031 C 
ATOM     32  C   UNL A   1      44.768  29.130  34.839  1.00  0.00     0.029 A 
ATOM     33  C   UNL A   1      44.494  28.484  33.642  1.00  0.00     0.049 A 
ATOM     34  H   UNL A   1      42.870  28.762  32.328  1.00  0.00     0.167 HD
ATOM     35  C   UNL A   1      44.916  26.846  31.823  1.00  0.00     0.074 A 
ATOM     36  C   UNL A   1      45.702  25.814  31.175  1.00  0.00     0.031 C 
ATOM     37  C   UNL A   1      45.261  27.458  32.982  1.00  0.00     0.031 A 
BRANCH  24  38
ATOM     38  C   UNL A   1      41.411  31.958  34.743  1.00  0.00    -0.014 A 
ATOM     39  C   UNL A   1      41.965  33.243  34.591  1.00  0.00     0.010 A 
ATOM     40  C   UNL A   1      40.514  31.712  35.795  1.00  0.00     0.010 A 
ATOM     41  C   UNL A   1      41.636  34.263  35.485  1.00  0.00     0.020 A 
ATOM     42  C   UNL A   1      40.167  32.736  36.680  1.00  0.00     0.020 A 
ATOM     43  C   UNL A   1      40.734  34.002  36.522  1.00  0.00     0.054 A 
BRANCH  43  44
ATOM     44  S   UNL A   1      40.277  35.362  37.631  1.00  0.00     0.124 S 
ATOM     45  O   UNL A   1      39.137  34.796  38.348  1.00  0.00    -0.237 OA
ATOM     46  O   UNL A   1      41.489  35.547  38.425  1.00  0.00    -0.237 OA
ATOM     47  O   UNL A   1      39.959  36.459  36.720  1.00  0.00    -0.744 OA
ENDBRANCH  43  44
ENDBRANCH  24  38
BRANCH  25  48
ATOM     48  C   UNL A   1      43.146  24.828  27.950  1.00  0.00    -0.014 A 
ATOM     49  C   UNL A   1      42.762  23.481  28.059  1.00  0.00     0.010 A 
ATOM     50  C   UNL A   1      43.887  25.231  26.822  1.00  0.00     0.010 A 
ATOM     51  C   UNL A   1      43.156  22.547  27.091  1.00  0.00     0.020 A 
ATOM     52  C   UNL A   1      44.267  24.306  25.842  1.00  0.00     0.020 A 
ATOM     53  C   UNL A   1      43.915  22.964  25.994  1.00  0.00     0.054 A 
BRANCH  53  54
ATOM     54  S   UNL A   1      44.433  21.724  24.770  1.00  0.00     0.124 S 
ATOM     55  O   UNL A   1      44.155  22.406  23.509  1.00  0.00    -0.237 OA
ATOM     56  O   UNL A   1      45.845  21.540  25.092  1.00  0.00    -0.237 OA
ATOM     57  O   UNL A   1      43.578  20.576  25.062  1.00  0.00    -0.744 OA
ENDBRANCH  53  54
ENDBRANCH  25  48
BRANCH  37  58
ATOM     58  C   UNL A   1      46.525  27.002  33.648  1.00  0.00    -0.014 A 
ATOM     59  C   UNL A   1      47.755  27.619  33.369  1.00  0.00     0.010 A 
ATOM     60  C   UNL A   1      46.464  25.984  34.618  1.00  0.00     0.010 A 
ATOM     61  C   UNL A   1      48.911  27.208  34.033  1.00  0.00     0.020 A 
ATOM     62  C   UNL A   1      47.612  25.595  35.308  1.00  0.00     0.020 A 
ATOM     63  C   UNL A   1      48.831  26.202  35.001  1.00  0.00     0.054 A 
BRANCH  63  64
ATOM     64  S   UNL A   1      50.336  25.735  35.895  1.00  0.00     0.124 S 
ATOM     65  O   UNL A   1      50.686  24.469  35.258  1.00  0.00    -0.237 OA
ATOM     66  O   UNL A   1      51.235  26.852  35.613  1.00  0.00    -0.237 OA
ATOM     67  O   UNL A   1      49.896  25.633  37.285  1.00  0.00    -0.744 OA
ENDBRANCH  63  64
ENDBRANCH  37  58
ENDBRANCH  11  12
ENDBRANCH   4   6
ENDBRANCH   3   4
ENDBRANCH   2   3
ENDBRANCH   1   2
BRANCH   1  68
ATOM     68  O   UNL A   1      32.919  27.717  24.136  1.00  0.00    -0.462 OA
BRANCH  68  69
ATOM     69  C   UNL A   1      32.273  26.547  23.846  1.00  0.00     0.309 C 
ATOM     70  O   UNL A   1      32.161  26.074  22.726  1.00  0.00    -0.252 OA
BRANCH  69  71
ATOM     71  C   UNL A   1      31.817  25.870  25.134  1.00  0.00     0.099 C 
ATOM     72  C   UNL A   1      30.422  25.276  24.999  1.00  0.00     0.016 C 
ATOM     73  C   UNL A   1      32.840  24.870  25.641  1.00  0.00     0.016 C 
ATOM     74  C   UNL A   1      29.982  24.446  26.216  1.00  0.00     0.010 C 
ATOM     75  C   UNL A   1      32.348  24.096  26.856  1.00  0.00     0.010 C 
ATOM     76  C   UNL A   1      31.011  23.376  26.611  1.00  0.00     0.044 C 
BRANCH  76  77
ATOM     77  C   UNL A   1      30.981  22.247  25.541  1.00  0.00     0.264 C 
BRANCH  77  78
ATOM     78  N   UNL A   1      31.929  21.168  25.753  1.00  0.00    -0.344 N 
ATOM     79  H   UNL A   1      31.448  20.431  26.266  1.00  0.00     0.346 HD
ATOM     80  H   UNL A   1      32.712  21.596  26.248  1.00  0.00     0.346 HD
BRANCH  78  81
ATOM     81  C   UNL A   1      32.527  20.557  24.548  1.00  0.00     0.182 C 
ATOM     82  C   UNL A   1      32.153  21.118  23.157  1.00  0.00     0.065 C 
ATOM     83  C   UNL A   1      34.069  20.620  24.686  1.00  0.00     0.069 C 
ATOM     84  C   UNL A   1      32.698  22.520  22.891  1.00  0.00     0.006 C 
ATOM     85  C   UNL A   1      34.609  22.055  24.510  1.00  0.00    -0.002 C 
ATOM     86  C   UNL A   1      34.199  22.616  23.140  1.00  0.00     0.004 C 
BRANCH  85  87
ATOM     87  C   UNL A   1      36.081  22.160  24.830  1.00  0.00    -0.008 C 
ATOM     88  C   UNL A   1      37.026  23.169  24.229  1.00  0.00     0.004 C 
ATOM     89  C   UNL A   1      36.547  23.349  25.641  1.00  0.00     0.004 C 
ENDBRANCH  85  87
ENDBRANCH  78  81
ENDBRANCH  77  78
ENDBRANCH  76  77
ENDBRANCH  69  71
ENDBRANCH  68  69
ENDBRANCH   1  68
TORSDOF 18
ENDMDL
