MODEL 1
REMARK VINA RESULT:      -9.5      0.000      0.000
REMARK SMILES COc1ccc2c(c1)C=C(C(=O)OCCOC(=O)c1ccc(-c3c4nc(c(-c5ccc(S(=O)(=O)[O-])cc5)c5ccc([nH]5)c(-c5ccc(S(=O)(=O)[O-])cc5)c5nc(c(-c6ccc(S(=O)(=O)[O-])cc6)c6ccc3[nH]6)C=C5)C=C4)cc1)[C@H](C(F)(F)F)O2
REMARK SMILES IDX 15 1 14 2 13 3 11 4 12 5 10 6 3 7 4 8 8 9 5 10 7 11 6 12
REMARK SMILES IDX 9 13 84 14 79 15 2 16 1 17 80 18 81 19 82 20 83 21 16 22
REMARK SMILES IDX 17 23 18 24 19 25 20 26 78 27 21 28 77 29 22 30 23 31 24 32
REMARK SMILES IDX 71 33 25 34 76 35 70 36 72 37 26 38 75 39 69 40 68 41 27 43
REMARK SMILES IDX 57 44 38 45 56 46 39 47 42 48 55 49 73 50 40 51 41 52 54 54
REMARK SMILES IDX 74 55 43 56 28 57 29 58 37 59 30 60 36 61 31 62 32 63 33 64
REMARK SMILES IDX 34 65 35 66 58 67 59 68 67 69 60 70 66 71 61 72 62 73 63 74
REMARK SMILES IDX 64 75 65 76 44 77 45 78 53 79 46 80 52 81 47 82 48 83 49 84
REMARK SMILES IDX 50 85 51 86
REMARK H PARENT 72 42 42 53
REMARK Flexibility Score: inf
ROOT
ATOM      1  C   UNL A   1      33.365  33.617  28.018  1.00  0.00     0.275 C 
ENDROOT
BRANCH   1   2
ATOM      2  C   UNL A   1      33.644  34.564  29.189  1.00  0.00     0.275 C 
BRANCH   2   3
ATOM      3  O   UNL A   1      34.965  34.368  29.734  1.00  0.00    -0.459 OA
BRANCH   3   4
ATOM      4  C   UNL A   1      35.048  33.540  30.810  1.00  0.00     0.338 C 
ATOM      5  O   UNL A   1      34.255  32.659  31.076  1.00  0.00    -0.246 OA
BRANCH   4   6
ATOM      6  C   UNL A   1      36.254  33.818  31.629  1.00  0.00     0.087 C 
ATOM      7  C   UNL A   1      41.001  34.532  32.193  1.00  0.00     0.119 A 
ATOM      8  C   UNL A   1      40.791  34.811  33.544  1.00  0.00     0.050 A 
ATOM      9  C   UNL A   1      39.907  34.276  31.357  1.00  0.00     0.058 A 
ATOM     10  C   UNL A   1      39.492  34.838  34.055  1.00  0.00     0.051 A 
ATOM     11  C   UNL A   1      38.605  34.271  31.869  1.00  0.00     0.021 A 
ATOM     12  C   UNL A   1      38.411  34.569  33.219  1.00  0.00     0.128 A 
ATOM     13  C   UNL A   1      37.442  34.008  31.025  1.00  0.00     0.027 C 
ATOM     14  O   UNL A   1      37.165  34.692  33.764  1.00  0.00    -0.475 OA
ATOM     15  C   UNL A   1      36.129  33.879  33.144  1.00  0.00     0.316 C 
BRANCH   7  16
ATOM     16  O   UNL A   1      42.221  34.554  31.574  1.00  0.00    -0.497 OA
ATOM     17  C   UNL A   1      42.349  33.701  30.440  1.00  0.00     0.278 C 
ENDBRANCH   7  16
BRANCH  15  18
ATOM     18  C   UNL A   1      34.784  34.310  33.762  1.00  0.00     0.430 C 
ATOM     19  F   UNL A   1      33.915  33.278  33.855  1.00  0.00    -0.167 F 
ATOM     20  F   UNL A   1      34.974  34.745  35.036  1.00  0.00    -0.167 F 
ATOM     21  F   UNL A   1      34.201  35.320  33.081  1.00  0.00    -0.167 F 
ENDBRANCH  15  18
ENDBRANCH   4   6
ENDBRANCH   3   4
ENDBRANCH   2   3
ENDBRANCH   1   2
BRANCH   1  22
ATOM     22  O   UNL A   1      34.568  32.981  27.555  1.00  0.00    -0.458 OA
BRANCH  22  23
ATOM     23  C   UNL A   1      34.546  31.627  27.597  1.00  0.00     0.338 C 
ATOM     24  O   UNL A   1      33.728  30.893  27.063  1.00  0.00    -0.246 OA
BRANCH  23  25
ATOM     25  C   UNL A   1      35.784  31.123  28.223  1.00  0.00     0.060 A 
ATOM     26  C   UNL A   1      35.688  29.914  28.918  1.00  0.00     0.016 A 
ATOM     27  C   UNL A   1      37.004  31.798  28.151  1.00  0.00     0.016 A 
ATOM     28  C   UNL A   1      36.821  29.334  29.482  1.00  0.00     0.010 A 
ATOM     29  C   UNL A   1      38.134  31.242  28.766  1.00  0.00     0.010 A 
ATOM     30  C   UNL A   1      38.051  30.001  29.424  1.00  0.00    -0.014 A 
BRANCH  30  31
ATOM     31  C   UNL A   1      39.212  29.443  30.153  1.00  0.00     0.031 A 
ATOM     32  C   UNL A   1      39.459  29.871  31.571  1.00  0.00     0.074 A 
ATOM     33  C   UNL A   1      40.011  28.525  29.578  1.00  0.00     0.049 A 
ATOM     34  N   UNL A   1      40.398  29.492  32.398  1.00  0.00    -0.248 NA
ATOM     35  C   UNL A   1      38.509  30.843  32.133  1.00  0.00     0.031 C 
ATOM     36  C   UNL A   1      39.825  27.960  28.243  1.00  0.00     0.029 A 
ATOM     37  N   UNL A   1      41.136  27.902  30.057  1.00  0.00    -0.354 N 
ATOM     38  C   UNL A   1      40.151  30.175  33.582  1.00  0.00     0.074 A 
ATOM     39  C   UNL A   1      38.986  31.005  33.357  1.00  0.00     0.031 C 
ATOM     40  C   UNL A   1      40.810  27.074  28.007  1.00  0.00     0.029 A 
ATOM     41  C   UNL A   1      41.711  27.036  29.158  1.00  0.00     0.049 A 
ATOM     42  H   UNL A   1      41.499  28.061  30.959  1.00  0.00     0.167 HD
ATOM     43  C   UNL A   1      40.835  30.122  34.751  1.00  0.00     0.031 A 
ATOM     44  C   UNL A   1      42.843  26.309  29.247  1.00  0.00     0.031 A 
ATOM     45  C   UNL A   1      42.030  29.346  34.955  1.00  0.00     0.049 A 
ATOM     46  C   UNL A   1      43.667  26.374  30.509  1.00  0.00     0.074 A 
ATOM     47  C   UNL A   1      42.807  29.245  36.096  1.00  0.00     0.029 A 
ATOM     48  N   UNL A   1      42.636  28.556  33.988  1.00  0.00    -0.354 N 
ATOM     49  N   UNL A   1      43.418  27.015  31.626  1.00  0.00    -0.248 NA
ATOM     50  C   UNL A   1      44.926  25.614  30.519  1.00  0.00     0.031 C 
ATOM     51  C   UNL A   1      43.920  28.451  35.797  1.00  0.00     0.029 A 
ATOM     52  C   UNL A   1      43.799  27.997  34.493  1.00  0.00     0.049 A 
ATOM     53  H   UNL A   1      42.290  28.415  33.077  1.00  0.00     0.167 HD
ATOM     54  C   UNL A   1      44.474  26.712  32.482  1.00  0.00     0.074 A 
ATOM     55  C   UNL A   1      45.360  25.825  31.754  1.00  0.00     0.031 C 
ATOM     56  C   UNL A   1      44.683  27.124  33.758  1.00  0.00     0.031 A 
BRANCH  43  57
ATOM     57  C   UNL A   1      40.336  30.999  35.869  1.00  0.00    -0.014 A 
ATOM     58  C   UNL A   1      39.049  30.830  36.413  1.00  0.00     0.010 A 
ATOM     59  C   UNL A   1      41.159  32.026  36.363  1.00  0.00     0.010 A 
ATOM     60  C   UNL A   1      38.570  31.717  37.380  1.00  0.00     0.020 A 
ATOM     61  C   UNL A   1      40.696  32.897  37.351  1.00  0.00     0.020 A 
ATOM     62  C   UNL A   1      39.393  32.754  37.833  1.00  0.00     0.054 A 
BRANCH  62  63
ATOM     63  S   UNL A   1      38.733  33.919  39.057  1.00  0.00     0.124 S 
ATOM     64  O   UNL A   1      37.349  33.470  39.183  1.00  0.00    -0.237 OA
ATOM     65  O   UNL A   1      39.580  33.674  40.222  1.00  0.00    -0.237 OA
ATOM     66  O   UNL A   1      38.910  35.224  38.424  1.00  0.00    -0.744 OA
ENDBRANCH  62  63
ENDBRANCH  43  57
BRANCH  44  67
ATOM     67  C   UNL A   1      43.274  25.462  28.100  1.00  0.00    -0.014 A 
ATOM     68  C   UNL A   1      44.106  25.987  27.096  1.00  0.00     0.010 A 
ATOM     69  C   UNL A   1      42.860  24.120  28.013  1.00  0.00     0.010 A 
ATOM     70  C   UNL A   1      44.515  25.186  26.025  1.00  0.00     0.020 A 
ATOM     71  C   UNL A   1      43.289  23.309  26.957  1.00  0.00     0.020 A 
ATOM     72  C   UNL A   1      44.110  23.849  25.966  1.00  0.00     0.054 A 
BRANCH  72  73
ATOM     73  S   UNL A   1      44.710  22.813  24.603  1.00  0.00     0.124 S 
ATOM     74  O   UNL A   1      45.736  23.659  24.004  1.00  0.00    -0.237 OA
ATOM     75  O   UNL A   1      45.197  21.625  25.302  1.00  0.00    -0.237 OA
ATOM     76  O   UNL A   1      43.519  22.599  23.783  1.00  0.00    -0.744 OA
ENDBRANCH  72  73
ENDBRANCH  44  67
BRANCH  56  77
ATOM     77  C   UNL A   1      45.903  26.599  34.473  1.00  0.00    -0.014 A 
ATOM     78  C   UNL A   1      47.118  27.306  34.470  1.00  0.00     0.010 A 
ATOM     79  C   UNL A   1      45.810  25.407  35.217  1.00  0.00     0.010 A 
ATOM     80  C   UNL A   1      48.224  26.817  35.174  1.00  0.00     0.020 A 
ATOM     81  C   UNL A   1      46.903  24.931  35.946  1.00  0.00     0.020 A 
ATOM     82  C   UNL A   1      48.109  25.634  35.910  1.00  0.00     0.054 A 
BRANCH  82  83
ATOM     83  S   UNL A   1      49.541  25.049  36.858  1.00  0.00     0.124 S 
ATOM     84  O   UNL A   1      49.873  26.221  37.663  1.00  0.00    -0.237 OA
ATOM     85  O   UNL A   1      48.994  23.914  37.598  1.00  0.00    -0.237 OA
ATOM     86  O   UNL A   1      50.520  24.701  35.831  1.00  0.00    -0.744 OA
ENDBRANCH  82  83
ENDBRANCH  56  77
ENDBRANCH  30  31
ENDBRANCH  23  25
ENDBRANCH  22  23
ENDBRANCH   1  22
TORSDOF 16
ENDMDL
MODEL 2
REMARK VINA RESULT:      -9.4      4.988     10.998
REMARK SMILES COc1ccc2c(c1)C=C(C(=O)OCCOC(=O)c1ccc(-c3c4nc(c(-c5ccc(S(=O)(=O)[O-])cc5)c5ccc([nH]5)c(-c5ccc(S(=O)(=O)[O-])cc5)c5nc(c(-c6ccc(S(=O)(=O)[O-])cc6)c6ccc3[nH]6)C=C5)C=C4)cc1)[C@H](C(F)(F)F)O2
REMARK SMILES IDX 15 1 14 2 13 3 11 4 12 5 10 6 3 7 4 8 8 9 5 10 7 11 6 12
REMARK SMILES IDX 9 13 84 14 79 15 2 16 1 17 80 18 81 19 82 20 83 21 16 22
REMARK SMILES IDX 17 23 18 24 19 25 20 26 78 27 21 28 77 29 22 30 23 31 24 32
REMARK SMILES IDX 71 33 25 34 76 35 70 36 72 37 26 38 75 39 69 40 68 41 27 43
REMARK SMILES IDX 57 44 38 45 56 46 39 47 42 48 55 49 73 50 40 51 41 52 54 54
REMARK SMILES IDX 74 55 43 56 28 57 29 58 37 59 30 60 36 61 31 62 32 63 33 64
REMARK SMILES IDX 34 65 35 66 58 67 59 68 67 69 60 70 66 71 61 72 62 73 63 74
REMARK SMILES IDX 64 75 65 76 44 77 45 78 53 79 46 80 52 81 47 82 48 83 49 84
REMARK SMILES IDX 50 85 51 86
REMARK H PARENT 72 42 42 53
REMARK Flexibility Score: inf
ROOT
ATOM      1  C   UNL A   1      36.892  21.928  25.700  1.00  0.00     0.275 C 
ENDROOT
BRANCH   1   2
ATOM      2  C   UNL A   1      35.830  21.882  24.597  1.00  0.00     0.275 C 
BRANCH   2   3
ATOM      3  O   UNL A   1      34.552  22.361  25.063  1.00  0.00    -0.459 OA
BRANCH   3   4
ATOM      4  C   UNL A   1      33.941  23.286  24.276  1.00  0.00     0.338 C 
ATOM      5  O   UNL A   1      33.819  23.206  23.070  1.00  0.00    -0.246 OA
BRANCH   4   6
ATOM      6  C   UNL A   1      33.405  24.419  25.071  1.00  0.00     0.087 C 
ATOM      7  C   UNL A   1      33.544  28.953  26.739  1.00  0.00     0.119 A 
ATOM      8  C   UNL A   1      32.303  28.759  27.348  1.00  0.00     0.050 A 
ATOM      9  C   UNL A   1      34.103  27.933  25.959  1.00  0.00     0.058 A 
ATOM     10  C   UNL A   1      31.624  27.552  27.174  1.00  0.00     0.051 A 
ATOM     11  C   UNL A   1      33.442  26.710  25.806  1.00  0.00     0.021 A 
ATOM     12  C   UNL A   1      32.194  26.538  26.408  1.00  0.00     0.128 A 
ATOM     13  C   UNL A   1      33.997  25.625  25.000  1.00  0.00     0.027 C 
ATOM     14  O   UNL A   1      31.440  25.417  26.212  1.00  0.00    -0.475 OA
ATOM     15  C   UNL A   1      32.192  24.195  25.964  1.00  0.00     0.316 C 
BRANCH   7  16
ATOM     16  O   UNL A   1      34.259  30.119  26.781  1.00  0.00    -0.497 OA
ATOM     17  C   UNL A   1      33.807  31.082  27.728  1.00  0.00     0.278 C 
ENDBRANCH   7  16
BRANCH  15  18
ATOM     18  C   UNL A   1      31.173  23.107  25.573  1.00  0.00     0.430 C 
ATOM     19  F   UNL A   1      31.583  21.872  25.942  1.00  0.00    -0.167 F 
ATOM     20  F   UNL A   1      29.998  23.312  26.226  1.00  0.00    -0.167 F 
ATOM     21  F   UNL A   1      30.897  23.106  24.251  1.00  0.00    -0.167 F 
ENDBRANCH  15  18
ENDBRANCH   4   6
ENDBRANCH   3   4
ENDBRANCH   2   3
ENDBRANCH   1   2
BRANCH   1  22
ATOM     22  O   UNL A   1      37.769  23.056  25.541  1.00  0.00    -0.458 OA
BRANCH  22  23
ATOM     23  C   UNL A   1      38.966  22.936  26.164  1.00  0.00     0.338 C 
ATOM     24  O   UNL A   1      39.768  22.023  26.036  1.00  0.00    -0.246 OA
BRANCH  23  25
ATOM     25  C   UNL A   1      39.282  24.181  26.890  1.00  0.00     0.060 A 
ATOM     26  C   UNL A   1      40.056  25.125  26.210  1.00  0.00     0.016 A 
ATOM     27  C   UNL A   1      38.851  24.434  28.195  1.00  0.00     0.016 A 
ATOM     28  C   UNL A   1      40.345  26.355  26.797  1.00  0.00     0.010 A 
ATOM     29  C   UNL A   1      39.188  25.649  28.806  1.00  0.00     0.010 A 
ATOM     30  C   UNL A   1      39.926  26.620  28.106  1.00  0.00    -0.014 A 
BRANCH  30  31
ATOM     31  C   UNL A   1      40.364  27.871  28.767  1.00  0.00     0.031 A 
ATOM     32  C   UNL A   1      41.770  27.970  29.282  1.00  0.00     0.074 A 
ATOM     33  C   UNL A   1      39.536  28.927  28.861  1.00  0.00     0.049 A 
ATOM     34  N   UNL A   1      42.368  28.974  29.870  1.00  0.00    -0.248 NA
ATOM     35  C   UNL A   1      42.618  26.783  29.094  1.00  0.00     0.031 C 
ATOM     36  C   UNL A   1      38.180  28.989  28.321  1.00  0.00     0.029 A 
ATOM     37  N   UNL A   1      39.727  30.155  29.444  1.00  0.00    -0.354 N 
ATOM     38  C   UNL A   1      43.665  28.543  30.119  1.00  0.00     0.074 A 
ATOM     39  C   UNL A   1      43.759  27.181  29.636  1.00  0.00     0.031 C 
ATOM     40  C   UNL A   1      37.657  30.197  28.602  1.00  0.00     0.029 A 
ATOM     41  C   UNL A   1      38.626  30.977  29.370  1.00  0.00     0.049 A 
ATOM     42  H   UNL A   1      40.571  30.424  29.874  1.00  0.00     0.167 HD
ATOM     43  C   UNL A   1      44.685  29.218  30.702  1.00  0.00     0.031 A 
ATOM     44  C   UNL A   1      38.421  32.208  29.879  1.00  0.00     0.031 A 
ATOM     45  C   UNL A   1      44.574  30.549  31.239  1.00  0.00     0.049 A 
ATOM     46  C   UNL A   1      39.526  32.885  30.649  1.00  0.00     0.074 A 
ATOM     47  C   UNL A   1      45.544  31.307  31.870  1.00  0.00     0.029 A 
ATOM     48  N   UNL A   1      43.414  31.310  31.232  1.00  0.00    -0.354 N 
ATOM     49  N   UNL A   1      40.753  32.473  30.869  1.00  0.00    -0.248 NA
ATOM     50  C   UNL A   1      39.218  34.196  31.239  1.00  0.00     0.031 C 
ATOM     51  C   UNL A   1      44.953  32.498  32.306  1.00  0.00     0.029 A 
ATOM     52  C   UNL A   1      43.633  32.514  31.883  1.00  0.00     0.049 A 
ATOM     53  H   UNL A   1      42.561  31.036  30.825  1.00  0.00     0.167 HD
ATOM     54  C   UNL A   1      41.370  33.487  31.596  1.00  0.00     0.074 A 
ATOM     55  C   UNL A   1      40.384  34.534  31.773  1.00  0.00     0.031 C 
ATOM     56  C   UNL A   1      42.642  33.548  32.065  1.00  0.00     0.031 A 
BRANCH  43  57
ATOM     57  C   UNL A   1      45.988  28.478  30.854  1.00  0.00    -0.014 A 
ATOM     58  C   UNL A   1      46.265  27.710  32.000  1.00  0.00     0.010 A 
ATOM     59  C   UNL A   1      46.962  28.577  29.844  1.00  0.00     0.010 A 
ATOM     60  C   UNL A   1      47.518  27.113  32.164  1.00  0.00     0.020 A 
ATOM     61  C   UNL A   1      48.205  27.958  29.990  1.00  0.00     0.020 A 
ATOM     62  C   UNL A   1      48.484  27.253  31.163  1.00  0.00     0.054 A 
BRANCH  62  63
ATOM     63  S   UNL A   1      50.118  26.507  31.418  1.00  0.00     0.124 S 
ATOM     64  O   UNL A   1      50.381  26.832  32.818  1.00  0.00    -0.237 OA
ATOM     65  O   UNL A   1      49.872  25.094  31.138  1.00  0.00    -0.237 OA
ATOM     66  O   UNL A   1      50.969  27.192  30.448  1.00  0.00    -0.744 OA
ENDBRANCH  62  63
ENDBRANCH  43  57
BRANCH  44  67
ATOM     67  C   UNL A   1      37.105  32.879  29.687  1.00  0.00    -0.014 A 
ATOM     68  C   UNL A   1      36.096  32.768  30.660  1.00  0.00     0.010 A 
ATOM     69  C   UNL A   1      36.860  33.644  28.532  1.00  0.00     0.010 A 
ATOM     70  C   UNL A   1      34.865  33.407  30.480  1.00  0.00     0.020 A 
ATOM     71  C   UNL A   1      35.639  34.307  28.361  1.00  0.00     0.020 A 
ATOM     72  C   UNL A   1      34.647  34.179  29.335  1.00  0.00     0.054 A 
BRANCH  72  73
ATOM     73  S   UNL A   1      33.068  35.054  29.158  1.00  0.00     0.124 S 
ATOM     74  O   UNL A   1      32.517  34.966  30.506  1.00  0.00    -0.237 OA
ATOM     75  O   UNL A   1      33.491  36.386  28.733  1.00  0.00    -0.237 OA
ATOM     76  O   UNL A   1      32.358  34.280  28.141  1.00  0.00    -0.744 OA
ENDBRANCH  72  73
ENDBRANCH  44  67
BRANCH  56  77
ATOM     77  C   UNL A   1      43.062  34.801  32.792  1.00  0.00    -0.014 A 
ATOM     78  C   UNL A   1      42.945  34.916  34.189  1.00  0.00     0.010 A 
ATOM     79  C   UNL A   1      43.647  35.858  32.068  1.00  0.00     0.010 A 
ATOM     80  C   UNL A   1      43.379  36.073  34.844  1.00  0.00     0.020 A 
ATOM     81  C   UNL A   1      44.109  37.004  32.722  1.00  0.00     0.020 A 
ATOM     82  C   UNL A   1      43.960  37.109  34.107  1.00  0.00     0.054 A 
BRANCH  82  83
ATOM     83  S   UNL A   1      44.564  38.577  34.985  1.00  0.00     0.124 S 
ATOM     84  O   UNL A   1      43.685  39.623  34.471  1.00  0.00    -0.237 OA
ATOM     85  O   UNL A   1      44.361  38.219  36.386  1.00  0.00    -0.237 OA
ATOM     86  O   UNL A   1      45.962  38.680  34.572  1.00  0.00    -0.744 OA
ENDBRANCH  82  83
ENDBRANCH  56  77
ENDBRANCH  30  31
ENDBRANCH  23  25
ENDBRANCH  22  23
ENDBRANCH   1  22
TORSDOF 16
ENDMDL
MODEL 3
REMARK VINA RESULT:      -9.4      4.422      7.090
REMARK SMILES COc1ccc2c(c1)C=C(C(=O)OCCOC(=O)c1ccc(-c3c4nc(c(-c5ccc(S(=O)(=O)[O-])cc5)c5ccc([nH]5)c(-c5ccc(S(=O)(=O)[O-])cc5)c5nc(c(-c6ccc(S(=O)(=O)[O-])cc6)c6ccc3[nH]6)C=C5)C=C4)cc1)[C@H](C(F)(F)F)O2
REMARK SMILES IDX 15 1 14 2 13 3 11 4 12 5 10 6 3 7 4 8 8 9 5 10 7 11 6 12
REMARK SMILES IDX 9 13 84 14 79 15 2 16 1 17 80 18 81 19 82 20 83 21 16 22
REMARK SMILES IDX 17 23 18 24 19 25 20 26 78 27 21 28 77 29 22 30 23 31 24 32
REMARK SMILES IDX 71 33 25 34 76 35 70 36 72 37 26 38 75 39 69 40 68 41 27 43
REMARK SMILES IDX 57 44 38 45 56 46 39 47 42 48 55 49 73 50 40 51 41 52 54 54
REMARK SMILES IDX 74 55 43 56 28 57 29 58 37 59 30 60 36 61 31 62 32 63 33 64
REMARK SMILES IDX 34 65 35 66 58 67 59 68 67 69 60 70 66 71 61 72 62 73 63 74
REMARK SMILES IDX 64 75 65 76 44 77 45 78 53 79 46 80 52 81 47 82 48 83 49 84
REMARK SMILES IDX 50 85 51 86
REMARK H PARENT 72 42 42 53
REMARK Flexibility Score: inf
ROOT
ATOM      1  C   UNL A   1      32.560  30.135  26.730  1.00  0.00     0.275 C 
ENDROOT
BRANCH   1   2
ATOM      2  C   UNL A   1      32.085  29.590  25.381  1.00  0.00     0.275 C 
BRANCH   2   3
ATOM      3  O   UNL A   1      33.021  28.644  24.824  1.00  0.00    -0.459 OA
BRANCH   3   4
ATOM      4  C   UNL A   1      32.479  27.607  24.132  1.00  0.00     0.338 C 
ATOM      5  O   UNL A   1      31.817  27.713  23.119  1.00  0.00    -0.246 OA
BRANCH   4   6
ATOM      6  C   UNL A   1      32.812  26.299  24.749  1.00  0.00     0.087 C 
ATOM      7  C   UNL A   1      35.880  22.759  25.938  1.00  0.00     0.119 A 
ATOM      8  C   UNL A   1      34.856  22.114  26.632  1.00  0.00     0.050 A 
ATOM      9  C   UNL A   1      35.642  24.006  25.344  1.00  0.00     0.058 A 
ATOM     10  C   UNL A   1      33.600  22.716  26.736  1.00  0.00     0.051 A 
ATOM     11  C   UNL A   1      34.378  24.598  25.418  1.00  0.00     0.021 A 
ATOM     12  C   UNL A   1      33.369  23.948  26.131  1.00  0.00     0.128 A 
ATOM     13  C   UNL A   1      34.095  25.897  24.811  1.00  0.00     0.027 C 
ATOM     14  O   UNL A   1      32.145  24.516  26.340  1.00  0.00    -0.475 OA
ATOM     15  C   UNL A   1      31.692  25.426  25.297  1.00  0.00     0.316 C 
BRANCH   7  16
ATOM     16  O   UNL A   1      37.165  22.298  25.840  1.00  0.00    -0.497 OA
ATOM     17  C   UNL A   1      37.369  21.248  24.899  1.00  0.00     0.278 C 
ENDBRANCH   7  16
BRANCH  15  18
ATOM     18  C   UNL A   1      30.408  26.104  25.813  1.00  0.00     0.430 C 
ATOM     19  F   UNL A   1      30.677  27.114  26.671  1.00  0.00    -0.167 F 
ATOM     20  F   UNL A   1      29.733  26.673  24.779  1.00  0.00    -0.167 F 
ATOM     21  F   UNL A   1      29.564  25.233  26.406  1.00  0.00    -0.167 F 
ENDBRANCH  15  18
ENDBRANCH   4   6
ENDBRANCH   3   4
ENDBRANCH   2   3
ENDBRANCH   1   2
BRANCH   1  22
ATOM     22  O   UNL A   1      33.947  29.836  26.961  1.00  0.00    -0.458 OA
BRANCH  22  23
ATOM     23  C   UNL A   1      34.550  30.621  27.887  1.00  0.00     0.338 C 
ATOM     24  O   UNL A   1      34.018  31.480  28.574  1.00  0.00    -0.246 OA
BRANCH  23  25
ATOM     25  C   UNL A   1      35.934  30.160  28.112  1.00  0.00     0.060 A 
ATOM     26  C   UNL A   1      36.232  29.669  29.386  1.00  0.00     0.016 A 
ATOM     27  C   UNL A   1      36.923  30.205  27.127  1.00  0.00     0.016 A 
ATOM     28  C   UNL A   1      37.495  29.153  29.665  1.00  0.00     0.010 A 
ATOM     29  C   UNL A   1      38.210  29.737  27.423  1.00  0.00     0.010 A 
ATOM     30  C   UNL A   1      38.498  29.197  28.689  1.00  0.00    -0.014 A 
BRANCH  30  31
ATOM     31  C   UNL A   1      39.874  28.778  29.047  1.00  0.00     0.031 A 
ATOM     32  C   UNL A   1      40.752  29.730  29.806  1.00  0.00     0.074 A 
ATOM     33  C   UNL A   1      40.319  27.545  28.745  1.00  0.00     0.049 A 
ATOM     34  N   UNL A   1      41.975  29.563  30.239  1.00  0.00    -0.248 NA
ATOM     35  C   UNL A   1      40.165  31.039  30.133  1.00  0.00     0.031 C 
ATOM     36  C   UNL A   1      39.535  26.499  28.093  1.00  0.00     0.029 A 
ATOM     37  N   UNL A   1      41.546  26.967  28.960  1.00  0.00    -0.354 N 
ATOM     38  C   UNL A   1      42.304  30.742  30.895  1.00  0.00     0.074 A 
ATOM     39  C   UNL A   1      41.160  31.622  30.784  1.00  0.00     0.031 C 
ATOM     40  C   UNL A   1      40.304  25.403  27.956  1.00  0.00     0.029 A 
ATOM     41  C   UNL A   1      41.642  25.683  28.478  1.00  0.00     0.049 A 
ATOM     42  H   UNL A   1      42.287  27.428  29.416  1.00  0.00     0.167 HD
ATOM     43  C   UNL A   1      43.458  31.066  31.528  1.00  0.00     0.031 A 
ATOM     44  C   UNL A   1      42.692  24.838  28.447  1.00  0.00     0.031 A 
ATOM     45  C   UNL A   1      44.618  30.216  31.583  1.00  0.00     0.049 A 
ATOM     46  C   UNL A   1      44.011  25.275  29.033  1.00  0.00     0.074 A 
ATOM     47  C   UNL A   1      45.841  30.466  32.179  1.00  0.00     0.029 A 
ATOM     48  N   UNL A   1      44.708  28.961  30.997  1.00  0.00    -0.354 N 
ATOM     49  N   UNL A   1      44.308  26.389  29.660  1.00  0.00    -0.248 NA
ATOM     50  C   UNL A   1      45.136  24.338  28.906  1.00  0.00     0.031 C 
ATOM     51  C   UNL A   1      46.693  29.392  31.896  1.00  0.00     0.029 A 
ATOM     52  C   UNL A   1      45.979  28.441  31.185  1.00  0.00     0.049 A 
ATOM     53  H   UNL A   1      43.977  28.507  30.520  1.00  0.00     0.167 HD
ATOM     54  C   UNL A   1      45.646  26.273  30.029  1.00  0.00     0.074 A 
ATOM     55  C   UNL A   1      46.097  24.978  29.559  1.00  0.00     0.031 C 
ATOM     56  C   UNL A   1      46.425  27.155  30.704  1.00  0.00     0.031 A 
BRANCH  43  57
ATOM     57  C   UNL A   1      43.532  32.441  32.140  1.00  0.00    -0.014 A 
ATOM     58  C   UNL A   1      43.993  33.547  31.402  1.00  0.00     0.010 A 
ATOM     59  C   UNL A   1      43.160  32.620  33.484  1.00  0.00     0.010 A 
ATOM     60  C   UNL A   1      44.146  34.791  32.018  1.00  0.00     0.020 A 
ATOM     61  C   UNL A   1      43.283  33.869  34.096  1.00  0.00     0.020 A 
ATOM     62  C   UNL A   1      43.803  34.940  33.366  1.00  0.00     0.054 A 
BRANCH  62  63
ATOM     63  S   UNL A   1      44.053  36.554  34.156  1.00  0.00     0.124 S 
ATOM     64  O   UNL A   1      44.776  36.185  35.371  1.00  0.00    -0.237 OA
ATOM     65  O   UNL A   1      44.834  37.282  33.159  1.00  0.00    -0.237 OA
ATOM     66  O   UNL A   1      42.696  37.052  34.366  1.00  0.00    -0.744 OA
ENDBRANCH  62  63
ENDBRANCH  43  57
BRANCH  44  67
ATOM     67  C   UNL A   1      42.543  23.493  27.826  1.00  0.00    -0.014 A 
ATOM     68  C   UNL A   1      42.877  23.287  26.476  1.00  0.00     0.010 A 
ATOM     69  C   UNL A   1      42.076  22.407  28.588  1.00  0.00     0.010 A 
ATOM     70  C   UNL A   1      42.745  22.020  25.899  1.00  0.00     0.020 A 
ATOM     71  C   UNL A   1      41.966  21.132  28.021  1.00  0.00     0.020 A 
ATOM     72  C   UNL A   1      42.297  20.948  26.678  1.00  0.00     0.054 A 
BRANCH  72  73
ATOM     73  S   UNL A   1      42.200  19.300  25.924  1.00  0.00     0.124 S 
ATOM     74  O   UNL A   1      42.741  18.449  26.978  1.00  0.00    -0.237 OA
ATOM     75  O   UNL A   1      40.769  19.156  25.666  1.00  0.00    -0.237 OA
ATOM     76  O   UNL A   1      43.032  19.420  24.728  1.00  0.00    -0.744 OA
ENDBRANCH  72  73
ENDBRANCH  44  67
BRANCH  56  77
ATOM     77  C   UNL A   1      47.844  26.746  31.010  1.00  0.00    -0.014 A 
ATOM     78  C   UNL A   1      48.901  27.047  30.133  1.00  0.00     0.010 A 
ATOM     79  C   UNL A   1      48.132  26.107  32.231  1.00  0.00     0.010 A 
ATOM     80  C   UNL A   1      50.215  26.692  30.458  1.00  0.00     0.020 A 
ATOM     81  C   UNL A   1      49.447  25.777  32.573  1.00  0.00     0.020 A 
ATOM     82  C   UNL A   1      50.480  26.061  31.678  1.00  0.00     0.054 A 
BRANCH  82  83
ATOM     83  S   UNL A   1      52.198  25.659  32.101  1.00  0.00     0.124 S 
ATOM     84  O   UNL A   1      52.921  26.134  30.925  1.00  0.00    -0.237 OA
ATOM     85  O   UNL A   1      52.415  26.427  33.324  1.00  0.00    -0.237 OA
ATOM     86  O   UNL A   1      52.182  24.209  32.279  1.00  0.00    -0.744 OA
ENDBRANCH  82  83
ENDBRANCH  56  77
ENDBRANCH  30  31
ENDBRANCH  23  25
ENDBRANCH  22  23
ENDBRANCH   1  22
TORSDOF 16
ENDMDL
