MODEL 1
REMARK VINA RESULT:     -11.0      0.000      0.000
REMARK SMILES O=C(OCCOC(=O)c1ccc(-c2c3nc(c(-c4ccc(S(=O)(=O)[O-])cc4)c4ccc([nH]4)c(-c4ccc(S(=O)(=O)[O-])cc4)c4nc(c(-c5ccc(S(=O)(=O)[O-])cc5)c5ccc2[nH]5)C=C4)C=C3)cc1)c1ccc(C[C@H]2SC(=O)N(c3ccccc3)C2=O)cc1
REMARK SMILES IDX 4 1 3 2 2 3 1 4 69 5 70 6 88 7 71 8 87 9 72 10 73 11 74 12
REMARK SMILES IDX 75 13 85 14 76 15 78 16 86 17 77 18 79 19 80 20 84 21 81 22
REMARK SMILES IDX 83 23 82 24 5 25 6 26 7 27 8 28 9 29 10 30 68 31 11 32 67 33
REMARK SMILES IDX 12 34 13 35 14 36 61 37 15 38 66 39 60 40 62 41 16 42 65 43
REMARK SMILES IDX 59 44 58 45 17 47 47 48 28 49 46 50 29 51 32 52 45 53 63 54
REMARK SMILES IDX 30 55 31 56 44 58 64 59 33 60 18 61 19 62 27 63 20 64 26 65
REMARK SMILES IDX 21 66 22 67 23 68 24 69 25 70 48 71 49 72 57 73 50 74 56 75
REMARK SMILES IDX 51 76 52 77 53 78 54 79 55 80 34 81 35 82 43 83 36 84 42 85
REMARK SMILES IDX 37 86 38 87 39 88 40 89 41 90
REMARK H PARENT 62 46 32 57
REMARK Flexibility Score: inf
ROOT
ATOM      1  C   UNL A   1      31.655  30.018  26.681  1.00  0.00     0.275 C 
ENDROOT
BRANCH   1   2
ATOM      2  O   UNL A   1      31.704  29.818  25.254  1.00  0.00    -0.458 OA
BRANCH   2   3
ATOM      3  C   UNL A   1      31.784  28.671  24.534  1.00  0.00     0.338 C 
ATOM      4  O   UNL A   1      31.878  28.761  23.310  1.00  0.00    -0.246 OA
BRANCH   3   5
ATOM      5  C   UNL A   1      31.675  27.293  25.125  1.00  0.00     0.060 A 
ATOM      6  C   UNL A   1      30.559  26.471  25.047  1.00  0.00     0.016 A 
ATOM      7  C   UNL A   1      32.816  26.752  25.750  1.00  0.00     0.016 A 
ATOM      8  C   UNL A   1      30.584  25.157  25.496  1.00  0.00     0.004 A 
ATOM      9  C   UNL A   1      32.811  25.457  26.301  1.00  0.00     0.004 A 
ATOM     10  C   UNL A   1      31.677  24.654  26.193  1.00  0.00    -0.046 A 
BRANCH  10  11
ATOM     11  C   UNL A   1      31.558  23.295  26.842  1.00  0.00     0.060 C 
BRANCH  11  12
ATOM     12  C   UNL A   1      32.109  22.151  25.960  1.00  0.00     0.151 C 
ATOM     13  S   UNL A   1      32.189  22.505  24.172  1.00  0.00    -0.050 SA
ATOM     14  C   UNL A   1      33.555  21.881  26.323  1.00  0.00     0.248 C 
ATOM     15  C   UNL A   1      33.869  22.971  24.262  1.00  0.00     0.293 C 
ATOM     16  N   UNL A   1      34.432  22.413  25.386  1.00  0.00    -0.240 N 
ATOM     17  O   UNL A   1      33.852  21.319  27.374  1.00  0.00    -0.273 OA
ATOM     18  O   UNL A   1      34.378  23.633  23.377  1.00  0.00    -0.261 OA
BRANCH  16  19
ATOM     19  C   UNL A   1      35.843  22.331  25.536  1.00  0.00     0.053 A 
ATOM     20  C   UNL A   1      36.516  21.159  25.165  1.00  0.00     0.027 A 
ATOM     21  C   UNL A   1      36.596  23.419  25.998  1.00  0.00     0.027 A 
ATOM     22  C   UNL A   1      37.907  21.077  25.244  1.00  0.00     0.002 A 
ATOM     23  C   UNL A   1      37.986  23.325  26.109  1.00  0.00     0.002 A 
ATOM     24  C   UNL A   1      38.640  22.158  25.724  1.00  0.00     0.000 A 
ENDBRANCH  16  19
ENDBRANCH  11  12
ENDBRANCH  10  11
ENDBRANCH   3   5
ENDBRANCH   2   3
ENDBRANCH   1   2
BRANCH   1  25
ATOM     25  C   UNL A   1      32.551  31.177  27.157  1.00  0.00     0.275 C 
BRANCH  25  26
ATOM     26  O   UNL A   1      33.953  30.841  27.145  1.00  0.00    -0.458 OA
BRANCH  26  27
ATOM     27  C   UNL A   1      34.649  31.221  28.248  1.00  0.00     0.338 C 
ATOM     28  O   UNL A   1      34.239  31.969  29.121  1.00  0.00    -0.246 OA
BRANCH  27  29
ATOM     29  C   UNL A   1      35.939  30.484  28.347  1.00  0.00     0.060 A 
ATOM     30  C   UNL A   1      36.321  30.023  29.614  1.00  0.00     0.016 A 
ATOM     31  C   UNL A   1      36.772  30.238  27.251  1.00  0.00     0.016 A 
ATOM     32  C   UNL A   1      37.554  29.389  29.799  1.00  0.00     0.010 A 
ATOM     33  C   UNL A   1      37.997  29.573  27.433  1.00  0.00     0.010 A 
ATOM     34  C   UNL A   1      38.424  29.193  28.719  1.00  0.00    -0.014 A 
BRANCH  34  35
ATOM     35  C   UNL A   1      39.834  28.774  28.981  1.00  0.00     0.031 A 
ATOM     36  C   UNL A   1      40.743  29.706  29.747  1.00  0.00     0.074 A 
ATOM     37  C   UNL A   1      40.303  27.563  28.620  1.00  0.00     0.049 A 
ATOM     38  N   UNL A   1      41.954  29.498  30.202  1.00  0.00    -0.248 NA
ATOM     39  C   UNL A   1      40.219  31.051  30.036  1.00  0.00     0.031 C 
ATOM     40  C   UNL A   1      39.554  26.542  27.890  1.00  0.00     0.029 A 
ATOM     41  N   UNL A   1      41.532  26.982  28.841  1.00  0.00    -0.354 N 
ATOM     42  C   UNL A   1      42.330  30.679  30.833  1.00  0.00     0.074 A 
ATOM     43  C   UNL A   1      41.245  31.617  30.650  1.00  0.00     0.031 C 
ATOM     44  C   UNL A   1      40.332  25.453  27.741  1.00  0.00     0.029 A 
ATOM     45  C   UNL A   1      41.637  25.699  28.356  1.00  0.00     0.049 A 
ATOM     46  H   UNL A   1      42.268  27.443  29.304  1.00  0.00     0.167 HD
ATOM     47  C   UNL A   1      43.460  30.961  31.525  1.00  0.00     0.031 A 
ATOM     48  C   UNL A   1      42.655  24.814  28.415  1.00  0.00     0.031 A 
ATOM     49  C   UNL A   1      44.554  30.048  31.717  1.00  0.00     0.049 A 
ATOM     50  C   UNL A   1      43.929  25.167  29.146  1.00  0.00     0.074 A 
ATOM     51  C   UNL A   1      45.719  30.243  32.442  1.00  0.00     0.029 A 
ATOM     52  N   UNL A   1      44.631  28.777  31.175  1.00  0.00    -0.354 N 
ATOM     53  N   UNL A   1      44.231  26.260  29.803  1.00  0.00    -0.248 NA
ATOM     54  C   UNL A   1      44.988  24.145  29.163  1.00  0.00     0.031 C 
ATOM     55  C   UNL A   1      46.525  29.110  32.290  1.00  0.00     0.029 A 
ATOM     56  C   UNL A   1      45.834  28.185  31.524  1.00  0.00     0.049 A 
ATOM     57  H   UNL A   1      43.933  28.355  30.623  1.00  0.00     0.167 HD
ATOM     58  C   UNL A   1      45.492  26.037  30.354  1.00  0.00     0.074 A 
ATOM     59  C   UNL A   1      45.896  24.707  29.952  1.00  0.00     0.031 C 
ATOM     60  C   UNL A   1      46.238  26.857  31.136  1.00  0.00     0.031 A 
BRANCH  47  61
ATOM     61  C   UNL A   1      43.573  32.343  32.114  1.00  0.00    -0.014 A 
ATOM     62  C   UNL A   1      44.158  33.397  31.389  1.00  0.00     0.010 A 
ATOM     63  C   UNL A   1      43.082  32.589  33.408  1.00  0.00     0.010 A 
ATOM     64  C   UNL A   1      44.303  34.658  31.971  1.00  0.00     0.020 A 
ATOM     65  C   UNL A   1      43.197  33.856  33.982  1.00  0.00     0.020 A 
ATOM     66  C   UNL A   1      43.829  34.877  33.269  1.00  0.00     0.054 A 
BRANCH  66  67
ATOM     67  S   UNL A   1      44.041  36.519  34.007  1.00  0.00     0.124 S 
ATOM     68  O   UNL A   1      44.729  36.200  35.256  1.00  0.00    -0.237 OA
ATOM     69  O   UNL A   1      44.843  37.221  33.009  1.00  0.00    -0.237 OA
ATOM     70  O   UNL A   1      42.673  37.009  34.158  1.00  0.00    -0.744 OA
ENDBRANCH  66  67
ENDBRANCH  47  61
BRANCH  48  71
ATOM     71  C   UNL A   1      42.511  23.467  27.792  1.00  0.00    -0.014 A 
ATOM     72  C   UNL A   1      41.994  22.389  28.532  1.00  0.00     0.010 A 
ATOM     73  C   UNL A   1      42.924  23.250  26.464  1.00  0.00     0.010 A 
ATOM     74  C   UNL A   1      41.912  21.114  27.964  1.00  0.00     0.020 A 
ATOM     75  C   UNL A   1      42.819  21.981  25.886  1.00  0.00     0.020 A 
ATOM     76  C   UNL A   1      42.324  20.918  26.644  1.00  0.00     0.054 A 
BRANCH  76  77
ATOM     77  S   UNL A   1      42.167  19.263  25.914  1.00  0.00     0.124 S 
ATOM     78  O   UNL A   1      40.734  19.182  25.652  1.00  0.00    -0.237 OA
ATOM     79  O   UNL A   1      43.023  19.358  24.734  1.00  0.00    -0.237 OA
ATOM     80  O   UNL A   1      42.665  18.378  26.964  1.00  0.00    -0.744 OA
ENDBRANCH  76  77
ENDBRANCH  48  71
BRANCH  60  81
ATOM     81  C   UNL A   1      47.546  26.331  31.674  1.00  0.00    -0.014 A 
ATOM     82  C   UNL A   1      48.724  26.345  30.906  1.00  0.00     0.010 A 
ATOM     83  C   UNL A   1      47.605  25.862  33.000  1.00  0.00     0.010 A 
ATOM     84  C   UNL A   1      49.924  25.863  31.440  1.00  0.00     0.020 A 
ATOM     85  C   UNL A   1      48.808  25.407  33.548  1.00  0.00     0.020 A 
ATOM     86  C   UNL A   1      49.958  25.393  32.757  1.00  0.00     0.054 A 
BRANCH  86  87
ATOM     87  S   UNL A   1      51.533  24.801  33.439  1.00  0.00     0.124 S 
ATOM     88  O   UNL A   1      51.434  25.215  34.836  1.00  0.00    -0.237 OA
ATOM     89  O   UNL A   1      51.466  23.361  33.203  1.00  0.00    -0.237 OA
ATOM     90  O   UNL A   1      52.539  25.508  32.649  1.00  0.00    -0.744 OA
ENDBRANCH  86  87
ENDBRANCH  60  81
ENDBRANCH  34  35
ENDBRANCH  27  29
ENDBRANCH  26  27
ENDBRANCH  25  26
ENDBRANCH   1  25
TORSDOF 17
ENDMDL
MODEL 2
REMARK VINA RESULT:     -10.9      2.723      3.514
REMARK SMILES O=C(OCCOC(=O)c1ccc(-c2c3nc(c(-c4ccc(S(=O)(=O)[O-])cc4)c4ccc([nH]4)c(-c4ccc(S(=O)(=O)[O-])cc4)c4nc(c(-c5ccc(S(=O)(=O)[O-])cc5)c5ccc2[nH]5)C=C4)C=C3)cc1)c1ccc(C[C@H]2SC(=O)N(c3ccccc3)C2=O)cc1
REMARK SMILES IDX 4 1 3 2 2 3 1 4 69 5 70 6 88 7 71 8 87 9 72 10 73 11 74 12
REMARK SMILES IDX 75 13 85 14 76 15 78 16 86 17 77 18 79 19 80 20 84 21 81 22
REMARK SMILES IDX 83 23 82 24 5 25 6 26 7 27 8 28 9 29 10 30 68 31 11 32 67 33
REMARK SMILES IDX 12 34 13 35 14 36 61 37 15 38 66 39 60 40 62 41 16 42 65 43
REMARK SMILES IDX 59 44 58 45 17 47 47 48 28 49 46 50 29 51 32 52 45 53 63 54
REMARK SMILES IDX 30 55 31 56 44 58 64 59 33 60 18 61 19 62 27 63 20 64 26 65
REMARK SMILES IDX 21 66 22 67 23 68 24 69 25 70 48 71 49 72 57 73 50 74 56 75
REMARK SMILES IDX 51 76 52 77 53 78 54 79 55 80 34 81 35 82 43 83 36 84 42 85
REMARK SMILES IDX 37 86 38 87 39 88 40 89 41 90
REMARK H PARENT 62 46 32 57
REMARK Flexibility Score: inf
ROOT
ATOM      1  C   UNL A   1      32.346  29.790  25.395  1.00  0.00     0.275 C 
ENDROOT
BRANCH   1   2
ATOM      2  O   UNL A   1      31.043  29.681  24.787  1.00  0.00    -0.458 OA
BRANCH   2   3
ATOM      3  C   UNL A   1      30.600  28.848  23.811  1.00  0.00     0.338 C 
ATOM      4  O   UNL A   1      29.945  29.333  22.889  1.00  0.00    -0.246 OA
BRANCH   3   5
ATOM      5  C   UNL A   1      30.780  27.356  23.828  1.00  0.00     0.060 A 
ATOM      6  C   UNL A   1      31.267  26.593  22.775  1.00  0.00     0.016 A 
ATOM      7  C   UNL A   1      30.502  26.672  25.029  1.00  0.00     0.016 A 
ATOM      8  C   UNL A   1      31.537  25.237  22.917  1.00  0.00     0.004 A 
ATOM      9  C   UNL A   1      30.675  25.280  25.142  1.00  0.00     0.004 A 
ATOM     10  C   UNL A   1      31.179  24.547  24.068  1.00  0.00    -0.046 A 
BRANCH  10  11
ATOM     11  C   UNL A   1      31.299  23.041  24.077  1.00  0.00     0.060 C 
BRANCH  11  12
ATOM     12  C   UNL A   1      32.665  22.538  23.557  1.00  0.00     0.151 C 
ATOM     13  S   UNL A   1      34.103  22.940  24.607  1.00  0.00    -0.050 SA
ATOM     14  C   UNL A   1      32.672  21.024  23.527  1.00  0.00     0.248 C 
ATOM     15  C   UNL A   1      34.058  21.382  25.394  1.00  0.00     0.293 C 
ATOM     16  N   UNL A   1      33.391  20.488  24.589  1.00  0.00    -0.240 N 
ATOM     17  O   UNL A   1      32.033  20.402  22.683  1.00  0.00    -0.273 OA
ATOM     18  O   UNL A   1      34.622  21.209  26.459  1.00  0.00    -0.261 OA
BRANCH  16  19
ATOM     19  C   UNL A   1      33.498  19.088  24.802  1.00  0.00     0.053 A 
ATOM     20  C   UNL A   1      34.582  18.381  24.264  1.00  0.00     0.027 A 
ATOM     21  C   UNL A   1      32.569  18.393  25.589  1.00  0.00     0.027 A 
ATOM     22  C   UNL A   1      34.742  17.017  24.513  1.00  0.00     0.002 A 
ATOM     23  C   UNL A   1      32.711  17.020  25.810  1.00  0.00     0.002 A 
ATOM     24  C   UNL A   1      33.801  16.336  25.280  1.00  0.00     0.000 A 
ENDBRANCH  16  19
ENDBRANCH  11  12
ENDBRANCH  10  11
ENDBRANCH   3   5
ENDBRANCH   2   3
ENDBRANCH   1   2
BRANCH   1  25
ATOM     25  C   UNL A   1      32.324  30.558  26.730  1.00  0.00     0.275 C 
BRANCH  25  26
ATOM     26  O   UNL A   1      33.479  30.287  27.549  1.00  0.00    -0.458 OA
BRANCH  26  27
ATOM     27  C   UNL A   1      34.236  31.373  27.859  1.00  0.00     0.338 C 
ATOM     28  O   UNL A   1      33.823  32.516  27.965  1.00  0.00    -0.246 OA
BRANCH  27  29
ATOM     29  C   UNL A   1      35.627  30.973  28.209  1.00  0.00     0.060 A 
ATOM     30  C   UNL A   1      35.877  29.607  28.393  1.00  0.00     0.016 A 
ATOM     31  C   UNL A   1      36.675  31.887  28.362  1.00  0.00     0.016 A 
ATOM     32  C   UNL A   1      37.140  29.163  28.797  1.00  0.00     0.010 A 
ATOM     33  C   UNL A   1      37.952  31.436  28.738  1.00  0.00     0.010 A 
ATOM     34  C   UNL A   1      38.181  30.075  29.013  1.00  0.00    -0.014 A 
BRANCH  34  35
ATOM     35  C   UNL A   1      39.424  29.617  29.705  1.00  0.00     0.031 A 
ATOM     36  C   UNL A   1      39.803  30.252  31.023  1.00  0.00     0.074 A 
ATOM     37  C   UNL A   1      40.180  28.607  29.231  1.00  0.00     0.049 A 
ATOM     38  N   UNL A   1      40.757  29.924  31.859  1.00  0.00    -0.248 NA
ATOM     39  C   UNL A   1      39.004  31.410  31.452  1.00  0.00     0.031 C 
ATOM     40  C   UNL A   1      39.945  27.879  27.985  1.00  0.00     0.029 A 
ATOM     41  N   UNL A   1      41.299  28.007  29.763  1.00  0.00    -0.354 N 
ATOM     42  C   UNL A   1      40.667  30.829  32.911  1.00  0.00     0.074 A 
ATOM     43  C   UNL A   1      39.607  31.755  32.579  1.00  0.00     0.031 C 
ATOM     44  C   UNL A   1      40.880  26.918  27.858  1.00  0.00     0.029 A 
ATOM     45  C   UNL A   1      41.786  26.965  29.008  1.00  0.00     0.049 A 
ATOM     46  H   UNL A   1      41.714  28.298  30.607  1.00  0.00     0.167 HD
ATOM     47  C   UNL A   1      41.377  30.881  34.063  1.00  0.00     0.031 A 
ATOM     48  C   UNL A   1      42.825  26.130  29.221  1.00  0.00     0.031 A 
ATOM     49  C   UNL A   1      42.438  29.976  34.414  1.00  0.00     0.049 A 
ATOM     50  C   UNL A   1      43.639  26.238  30.488  1.00  0.00     0.074 A 
ATOM     51  C   UNL A   1      43.181  29.935  35.583  1.00  0.00     0.029 A 
ATOM     52  N   UNL A   1      42.919  28.964  33.602  1.00  0.00    -0.354 N 
ATOM     53  N   UNL A   1      43.486  27.051  31.505  1.00  0.00    -0.248 NA
ATOM     54  C   UNL A   1      44.754  25.289  30.643  1.00  0.00     0.031 C 
ATOM     55  C   UNL A   1      44.149  28.934  35.452  1.00  0.00     0.029 A 
ATOM     56  C   UNL A   1      43.966  28.310  34.230  1.00  0.00     0.049 A 
ATOM     57  H   UNL A   1      42.567  28.741  32.709  1.00  0.00     0.167 HD
ATOM     58  C   UNL A   1      44.450  26.676  32.440  1.00  0.00     0.074 A 
ATOM     59  C   UNL A   1      45.182  25.567  31.868  1.00  0.00     0.031 C 
ATOM     60  C   UNL A   1      44.692  27.198  33.670  1.00  0.00     0.031 A 
BRANCH  47  61
ATOM     61  C   UNL A   1      41.034  31.985  35.028  1.00  0.00    -0.014 A 
ATOM     62  C   UNL A   1      40.138  31.770  36.091  1.00  0.00     0.010 A 
ATOM     63  C   UNL A   1      41.620  33.253  34.870  1.00  0.00     0.010 A 
ATOM     64  C   UNL A   1      39.790  32.820  36.944  1.00  0.00     0.020 A 
ATOM     65  C   UNL A   1      41.299  34.297  35.740  1.00  0.00     0.020 A 
ATOM     66  C   UNL A   1      40.366  34.080  36.756  1.00  0.00     0.054 A 
BRANCH  66  67
ATOM     67  S   UNL A   1      39.888  35.429  37.868  1.00  0.00     0.124 S 
ATOM     68  O   UNL A   1      39.752  36.549  36.939  1.00  0.00    -0.237 OA
ATOM     69  O   UNL A   1      38.641  34.941  38.450  1.00  0.00    -0.237 OA
ATOM     70  O   UNL A   1      41.011  35.525  38.798  1.00  0.00    -0.744 OA
ENDBRANCH  66  67
ENDBRANCH  47  61
BRANCH  48  71
ATOM     71  C   UNL A   1      43.149  25.070  28.224  1.00  0.00    -0.014 A 
ATOM     72  C   UNL A   1      44.202  25.248  27.309  1.00  0.00     0.010 A 
ATOM     73  C   UNL A   1      42.383  23.892  28.164  1.00  0.00     0.010 A 
ATOM     74  C   UNL A   1      44.470  24.278  26.338  1.00  0.00     0.020 A 
ATOM     75  C   UNL A   1      42.665  22.908  27.210  1.00  0.00     0.020 A 
ATOM     76  C   UNL A   1      43.700  23.113  26.295  1.00  0.00     0.054 A 
BRANCH  76  77
ATOM     77  S   UNL A   1      44.093  21.848  25.054  1.00  0.00     0.124 S 
ATOM     78  O   UNL A   1      43.189  20.765  25.429  1.00  0.00    -0.237 OA
ATOM     79  O   UNL A   1      43.781  22.529  23.801  1.00  0.00    -0.237 OA
ATOM     80  O   UNL A   1      45.512  21.584  25.274  1.00  0.00    -0.744 OA
ENDBRANCH  76  77
ENDBRANCH  48  71
BRANCH  60  81
ATOM     81  C   UNL A   1      45.752  26.544  34.522  1.00  0.00    -0.014 A 
ATOM     82  C   UNL A   1      47.070  27.034  34.575  1.00  0.00     0.010 A 
ATOM     83  C   UNL A   1      45.402  25.446  35.331  1.00  0.00     0.010 A 
ATOM     84  C   UNL A   1      48.024  26.412  35.388  1.00  0.00     0.020 A 
ATOM     85  C   UNL A   1      46.345  24.840  36.167  1.00  0.00     0.020 A 
ATOM     86  C   UNL A   1      47.657  25.317  36.177  1.00  0.00     0.054 A 
BRANCH  86  87
ATOM     87  S   UNL A   1      48.905  24.547  37.247  1.00  0.00     0.124 S 
ATOM     88  O   UNL A   1      48.088  24.023  38.338  1.00  0.00    -0.237 OA
ATOM     89  O   UNL A   1      49.505  23.543  36.372  1.00  0.00    -0.237 OA
ATOM     90  O   UNL A   1      49.785  25.657  37.606  1.00  0.00    -0.744 OA
ENDBRANCH  86  87
ENDBRANCH  60  81
ENDBRANCH  34  35
ENDBRANCH  27  29
ENDBRANCH  26  27
ENDBRANCH  25  26
ENDBRANCH   1  25
TORSDOF 17
ENDMDL
MODEL 3
REMARK VINA RESULT:     -10.8      3.874      4.841
REMARK SMILES O=C(OCCOC(=O)c1ccc(-c2c3nc(c(-c4ccc(S(=O)(=O)[O-])cc4)c4ccc([nH]4)c(-c4ccc(S(=O)(=O)[O-])cc4)c4nc(c(-c5ccc(S(=O)(=O)[O-])cc5)c5ccc2[nH]5)C=C4)C=C3)cc1)c1ccc(C[C@H]2SC(=O)N(c3ccccc3)C2=O)cc1
REMARK SMILES IDX 4 1 3 2 2 3 1 4 69 5 70 6 88 7 71 8 87 9 72 10 73 11 74 12
REMARK SMILES IDX 75 13 85 14 76 15 78 16 86 17 77 18 79 19 80 20 84 21 81 22
REMARK SMILES IDX 83 23 82 24 5 25 6 26 7 27 8 28 9 29 10 30 68 31 11 32 67 33
REMARK SMILES IDX 12 34 13 35 14 36 61 37 15 38 66 39 60 40 62 41 16 42 65 43
REMARK SMILES IDX 59 44 58 45 17 47 47 48 28 49 46 50 29 51 32 52 45 53 63 54
REMARK SMILES IDX 30 55 31 56 44 58 64 59 33 60 18 61 19 62 27 63 20 64 26 65
REMARK SMILES IDX 21 66 22 67 23 68 24 69 25 70 48 71 49 72 57 73 50 74 56 75
REMARK SMILES IDX 51 76 52 77 53 78 54 79 55 80 34 81 35 82 43 83 36 84 42 85
REMARK SMILES IDX 37 86 38 87 39 88 40 89 41 90
REMARK H PARENT 62 46 32 57
REMARK Flexibility Score: inf
ROOT
ATOM      1  C   UNL A   1      35.392  31.716  28.004  1.00  0.00     0.275 C 
ENDROOT
BRANCH   1   2
ATOM      2  O   UNL A   1      34.349  30.820  27.571  1.00  0.00    -0.458 OA
BRANCH   2   3
ATOM      3  C   UNL A   1      34.427  29.544  27.114  1.00  0.00     0.338 C 
ATOM      4  O   UNL A   1      35.490  28.941  27.258  1.00  0.00    -0.246 OA
BRANCH   3   5
ATOM      5  C   UNL A   1      33.328  28.849  26.359  1.00  0.00     0.060 A 
ATOM      6  C   UNL A   1      32.795  29.268  25.148  1.00  0.00     0.016 A 
ATOM      7  C   UNL A   1      32.840  27.633  26.877  1.00  0.00     0.016 A 
ATOM      8  C   UNL A   1      31.880  28.495  24.443  1.00  0.00     0.004 A 
ATOM      9  C   UNL A   1      31.836  26.900  26.219  1.00  0.00     0.004 A 
ATOM     10  C   UNL A   1      31.332  27.344  24.996  1.00  0.00    -0.046 A 
BRANCH  10  11
ATOM     11  C   UNL A   1      30.187  26.670  24.278  1.00  0.00     0.060 C 
BRANCH  11  12
ATOM     12  C   UNL A   1      30.655  25.619  23.245  1.00  0.00     0.151 C 
ATOM     13  S   UNL A   1      31.494  26.285  21.768  1.00  0.00    -0.050 SA
ATOM     14  C   UNL A   1      31.709  24.727  23.868  1.00  0.00     0.248 C 
ATOM     15  C   UNL A   1      33.077  26.017  22.454  1.00  0.00     0.293 C 
ATOM     16  N   UNL A   1      32.987  25.055  23.434  1.00  0.00    -0.240 N 
ATOM     17  O   UNL A   1      31.411  23.883  24.709  1.00  0.00    -0.273 OA
ATOM     18  O   UNL A   1      34.051  26.596  22.012  1.00  0.00    -0.261 OA
BRANCH  16  19
ATOM     19  C   UNL A   1      34.146  24.391  23.919  1.00  0.00     0.053 A 
ATOM     20  C   UNL A   1      34.732  23.368  23.160  1.00  0.00     0.027 A 
ATOM     21  C   UNL A   1      34.760  24.770  25.120  1.00  0.00     0.027 A 
ATOM     22  C   UNL A   1      35.906  22.745  23.585  1.00  0.00     0.002 A 
ATOM     23  C   UNL A   1      35.917  24.122  25.562  1.00  0.00     0.002 A 
ATOM     24  C   UNL A   1      36.493  23.117  24.790  1.00  0.00     0.000 A 
ENDBRANCH  16  19
ENDBRANCH  11  12
ENDBRANCH  10  11
ENDBRANCH   3   5
ENDBRANCH   2   3
ENDBRANCH   1   2
BRANCH   1  25
ATOM     25  C   UNL A   1      35.723  31.576  29.501  1.00  0.00     0.275 C 
BRANCH  25  26
ATOM     26  O   UNL A   1      37.100  31.223  29.739  1.00  0.00    -0.458 OA
BRANCH  26  27
ATOM     27  C   UNL A   1      37.327  29.905  29.982  1.00  0.00     0.338 C 
ATOM     28  O   UNL A   1      36.555  29.147  30.547  1.00  0.00    -0.246 OA
BRANCH  27  29
ATOM     29  C   UNL A   1      38.587  29.450  29.333  1.00  0.00     0.060 A 
ATOM     30  C   UNL A   1      39.605  28.972  30.169  1.00  0.00     0.016 A 
ATOM     31  C   UNL A   1      38.796  29.481  27.950  1.00  0.00     0.016 A 
ATOM     32  C   UNL A   1      40.844  28.597  29.639  1.00  0.00     0.010 A 
ATOM     33  C   UNL A   1      40.032  29.075  27.416  1.00  0.00     0.010 A 
ATOM     34  C   UNL A   1      41.086  28.683  28.262  1.00  0.00    -0.014 A 
BRANCH  34  35
ATOM     35  C   UNL A   1      42.485  28.549  27.754  1.00  0.00     0.031 A 
ATOM     36  C   UNL A   1      43.436  29.711  27.916  1.00  0.00     0.074 A 
ATOM     37  C   UNL A   1      42.949  27.400  27.221  1.00  0.00     0.049 A 
ATOM     38  N   UNL A   1      44.722  29.772  27.674  1.00  0.00    -0.248 NA
ATOM     39  C   UNL A   1      42.861  30.970  28.415  1.00  0.00     0.031 C 
ATOM     40  C   UNL A   1      42.169  26.183  27.008  1.00  0.00     0.029 A 
ATOM     41  N   UNL A   1      44.210  27.072  26.777  1.00  0.00    -0.354 N 
ATOM     42  C   UNL A   1      45.107  31.069  27.995  1.00  0.00     0.074 A 
ATOM     43  C   UNL A   1      43.910  31.777  28.391  1.00  0.00     0.031 C 
ATOM     44  C   UNL A   1      42.972  25.234  26.491  1.00  0.00     0.029 A 
ATOM     45  C   UNL A   1      44.322  25.775  26.329  1.00  0.00     0.049 A 
ATOM     46  H   UNL A   1      44.963  27.706  26.778  1.00  0.00     0.167 HD
ATOM     47  C   UNL A   1      46.343  31.625  27.989  1.00  0.00     0.031 A 
ATOM     48  C   UNL A   1      45.389  25.093  25.861  1.00  0.00     0.031 A 
ATOM     49  C   UNL A   1      47.547  30.945  27.596  1.00  0.00     0.049 A 
ATOM     50  C   UNL A   1      46.749  25.748  25.812  1.00  0.00     0.074 A 
ATOM     51  C   UNL A   1      48.846  31.426  27.601  1.00  0.00     0.029 A 
ATOM     52  N   UNL A   1      47.604  29.648  27.114  1.00  0.00    -0.354 N 
ATOM     53  N   UNL A   1      47.105  26.950  26.195  1.00  0.00    -0.248 NA
ATOM     54  C   UNL A   1      47.859  24.933  25.289  1.00  0.00     0.031 C 
ATOM     55  C   UNL A   1      49.681  30.438  27.068  1.00  0.00     0.029 A 
ATOM     56  C   UNL A   1      48.911  29.320  26.792  1.00  0.00     0.049 A 
ATOM     57  H   UNL A   1      46.830  29.048  27.016  1.00  0.00     0.167 HD
ATOM     58  C   UNL A   1      48.485  27.016  26.009  1.00  0.00     0.074 A 
ATOM     59  C   UNL A   1      48.899  25.736  25.477  1.00  0.00     0.031 C 
ATOM     60  C   UNL A   1      49.331  28.044  26.272  1.00  0.00     0.031 A 
BRANCH  47  61
ATOM     61  C   UNL A   1      46.444  33.068  28.409  1.00  0.00    -0.014 A 
ATOM     62  C   UNL A   1      46.648  33.422  29.755  1.00  0.00     0.010 A 
ATOM     63  C   UNL A   1      46.339  34.082  27.440  1.00  0.00     0.010 A 
ATOM     64  C   UNL A   1      46.686  34.766  30.133  1.00  0.00     0.020 A 
ATOM     65  C   UNL A   1      46.408  35.427  27.809  1.00  0.00     0.020 A 
ATOM     66  C   UNL A   1      46.555  35.761  29.158  1.00  0.00     0.054 A 
BRANCH  66  67
ATOM     67  S   UNL A   1      46.595  37.497  29.676  1.00  0.00     0.124 S 
ATOM     68  O   UNL A   1      45.172  37.818  29.756  1.00  0.00    -0.237 OA
ATOM     69  O   UNL A   1      47.298  37.437  30.954  1.00  0.00    -0.237 OA
ATOM     70  O   UNL A   1      47.323  38.163  28.598  1.00  0.00    -0.744 OA
ENDBRANCH  66  67
ENDBRANCH  47  61
BRANCH  48  71
ATOM     71  C   UNL A   1      45.237  23.675  25.427  1.00  0.00    -0.014 A 
ATOM     72  C   UNL A   1      44.913  23.366  24.094  1.00  0.00     0.010 A 
ATOM     73  C   UNL A   1      45.383  22.627  26.355  1.00  0.00     0.010 A 
ATOM     74  C   UNL A   1      44.716  22.039  23.701  1.00  0.00     0.020 A 
ATOM     75  C   UNL A   1      45.212  21.297  25.959  1.00  0.00     0.020 A 
ATOM     76  C   UNL A   1      44.867  21.012  24.636  1.00  0.00     0.054 A 
BRANCH  76  77
ATOM     77  S   UNL A   1      44.650  19.294  24.093  1.00  0.00     0.124 S 
ATOM     78  O   UNL A   1      45.862  18.659  24.602  1.00  0.00    -0.237 OA
ATOM     79  O   UNL A   1      43.407  18.909  24.756  1.00  0.00    -0.237 OA
ATOM     80  O   UNL A   1      44.562  19.403  22.639  1.00  0.00    -0.744 OA
ENDBRANCH  76  77
ENDBRANCH  48  71
BRANCH  60  81
ATOM     81  C   UNL A   1      50.808  27.821  26.055  1.00  0.00    -0.014 A 
ATOM     82  C   UNL A   1      51.639  27.306  27.066  1.00  0.00     0.010 A 
ATOM     83  C   UNL A   1      51.363  28.083  24.787  1.00  0.00     0.010 A 
ATOM     84  C   UNL A   1      53.002  27.098  26.826  1.00  0.00     0.020 A 
ATOM     85  C   UNL A   1      52.718  27.849  24.535  1.00  0.00     0.020 A 
ATOM     86  C   UNL A   1      53.534  27.374  25.562  1.00  0.00     0.054 A 
BRANCH  86  87
ATOM     87  S   UNL A   1      55.298  27.066  25.265  1.00  0.00     0.124 S 
ATOM     88  O   UNL A   1      55.284  25.708  24.729  1.00  0.00    -0.237 OA
ATOM     89  O   UNL A   1      55.652  28.115  24.311  1.00  0.00    -0.237 OA
ATOM     90  O   UNL A   1      55.902  27.208  26.588  1.00  0.00    -0.744 OA
ENDBRANCH  86  87
ENDBRANCH  60  81
ENDBRANCH  34  35
ENDBRANCH  27  29
ENDBRANCH  26  27
ENDBRANCH  25  26
ENDBRANCH   1  25
TORSDOF 17
ENDMDL
