MODEL 1
REMARK VINA RESULT:     -11.1      0.000      0.000
REMARK SMILES O=C(OCCOC(=O)c1ccc(F)c(NS(=O)(=O)c2cc(Cl)sc2Cl)c1)c1ccc(-c2c3nc(c(-c4ccc(S(=O)(=O)[O-])cc4)c4ccc([nH]4)c(-c4ccc(S(=O)(=O)[O-])cc4)c4nc(c(-c5ccc(S(=O)(=O)[O-])cc5)c5ccc2[nH]5)C=C4)C=C3)cc1
REMARK SMILES IDX 4 1 3 2 2 3 1 4 27 5 28 6 86 7 29 8 85 9 30 10 31 11 32 12
REMARK SMILES IDX 79 13 33 14 84 15 78 16 80 17 34 18 83 19 77 20 76 21 35 23
REMARK SMILES IDX 65 24 46 25 64 26 47 27 50 28 63 29 81 30 48 31 49 32 62 34
REMARK SMILES IDX 82 35 51 36 36 37 37 38 45 39 38 40 44 41 39 42 40 43 41 44
REMARK SMILES IDX 42 45 43 46 66 47 67 48 75 49 68 50 74 51 69 52 70 53 71 54
REMARK SMILES IDX 72 55 73 56 52 57 53 58 61 59 54 60 60 61 55 62 56 63 57 64
REMARK SMILES IDX 58 65 59 66 5 67 6 68 7 69 8 70 9 71 10 72 26 73 11 74 14 75
REMARK SMILES IDX 12 76 13 77 15 78 16 80 17 81 18 82 19 83 20 84 24 85 21 86
REMARK SMILES IDX 23 87 25 88 22 89
REMARK H PARENT 80 22 50 33 15 79
REMARK Flexibility Score: inf
ROOT
ATOM      1  C   UNL A   1      32.352  29.924  26.425  1.00  0.00     0.275 C 
ENDROOT
BRANCH   1   2
ATOM      2  O   UNL A   1      33.703  29.733  26.901  1.00  0.00    -0.458 OA
BRANCH   2   3
ATOM      3  C   UNL A   1      34.413  30.444  27.810  1.00  0.00     0.338 C 
ATOM      4  O   UNL A   1      33.924  31.483  28.255  1.00  0.00    -0.246 OA
BRANCH   3   5
ATOM      5  C   UNL A   1      35.794  30.081  28.251  1.00  0.00     0.060 A 
ATOM      6  C   UNL A   1      36.159  29.681  29.537  1.00  0.00     0.016 A 
ATOM      7  C   UNL A   1      36.805  30.160  27.278  1.00  0.00     0.016 A 
ATOM      8  C   UNL A   1      37.451  29.215  29.805  1.00  0.00     0.010 A 
ATOM      9  C   UNL A   1      38.097  29.700  27.539  1.00  0.00     0.010 A 
ATOM     10  C   UNL A   1      38.420  29.197  28.801  1.00  0.00    -0.014 A 
BRANCH  10  11
ATOM     11  C   UNL A   1      39.805  28.778  29.100  1.00  0.00     0.031 A 
ATOM     12  C   UNL A   1      40.753  29.796  29.661  1.00  0.00     0.074 A 
ATOM     13  C   UNL A   1      40.203  27.511  28.874  1.00  0.00     0.049 A 
ATOM     14  N   UNL A   1      41.983  29.634  30.063  1.00  0.00    -0.248 NA
ATOM     15  C   UNL A   1      40.243  31.171  29.809  1.00  0.00     0.031 C 
ATOM     16  C   UNL A   1      39.360  26.436  28.352  1.00  0.00     0.029 A 
ATOM     17  N   UNL A   1      41.430  26.917  29.034  1.00  0.00    -0.354 N 
ATOM     18  C   UNL A   1      42.375  30.869  30.560  1.00  0.00     0.074 A 
ATOM     19  C   UNL A   1      41.287  31.791  30.336  1.00  0.00     0.031 C 
ATOM     20  C   UNL A   1      40.108  25.332  28.173  1.00  0.00     0.029 A 
ATOM     21  C   UNL A   1      41.479  25.617  28.583  1.00  0.00     0.049 A 
ATOM     22  H   UNL A   1      42.203  27.378  29.433  1.00  0.00     0.167 HD
ATOM     23  C   UNL A   1      43.526  31.191  31.193  1.00  0.00     0.031 A 
ATOM     24  C   UNL A   1      42.518  24.763  28.505  1.00  0.00     0.031 A 
ATOM     25  C   UNL A   1      44.613  30.274  31.379  1.00  0.00     0.049 A 
ATOM     26  C   UNL A   1      43.845  25.195  29.077  1.00  0.00     0.074 A 
ATOM     27  C   UNL A   1      45.806  30.475  32.047  1.00  0.00     0.029 A 
ATOM     28  N   UNL A   1      44.645  28.984  30.870  1.00  0.00    -0.354 N 
ATOM     29  N   UNL A   1      44.153  26.327  29.664  1.00  0.00    -0.248 NA
ATOM     30  C   UNL A   1      44.947  24.226  29.014  1.00  0.00     0.031 C 
ATOM     31  C   UNL A   1      46.585  29.324  31.892  1.00  0.00     0.029 A 
ATOM     32  C   UNL A   1      45.857  28.390  31.169  1.00  0.00     0.049 A 
ATOM     33  H   UNL A   1      43.914  28.556  30.370  1.00  0.00     0.167 HD
ATOM     34  C   UNL A   1      45.470  26.187  30.086  1.00  0.00     0.074 A 
ATOM     35  C   UNL A   1      45.900  24.863  29.681  1.00  0.00     0.031 C 
ATOM     36  C   UNL A   1      46.250  27.066  30.762  1.00  0.00     0.031 A 
BRANCH  23  37
ATOM     37  C   UNL A   1      43.643  32.586  31.734  1.00  0.00    -0.014 A 
ATOM     38  C   UNL A   1      43.132  32.901  33.006  1.00  0.00     0.010 A 
ATOM     39  C   UNL A   1      44.280  33.586  30.980  1.00  0.00     0.010 A 
ATOM     40  C   UNL A   1      43.230  34.200  33.505  1.00  0.00     0.020 A 
ATOM     41  C   UNL A   1      44.398  34.884  31.485  1.00  0.00     0.020 A 
ATOM     42  C   UNL A   1      43.861  35.185  32.740  1.00  0.00     0.054 A 
BRANCH  42  43
ATOM     43  S   UNL A   1      44.002  36.857  33.428  1.00  0.00     0.124 S 
ATOM     44  O   UNL A   1      42.716  37.013  34.103  1.00  0.00    -0.237 OA
ATOM     45  O   UNL A   1      45.163  36.745  34.307  1.00  0.00    -0.237 OA
ATOM     46  O   UNL A   1      44.193  37.702  32.251  1.00  0.00    -0.744 OA
ENDBRANCH  42  43
ENDBRANCH  23  37
BRANCH  24  47
ATOM     47  C   UNL A   1      42.367  23.432  27.852  1.00  0.00    -0.014 A 
ATOM     48  C   UNL A   1      41.865  22.324  28.558  1.00  0.00     0.010 A 
ATOM     49  C   UNL A   1      42.780  23.259  26.518  1.00  0.00     0.010 A 
ATOM     50  C   UNL A   1      41.820  21.061  27.955  1.00  0.00     0.020 A 
ATOM     51  C   UNL A   1      42.715  22.003  25.905  1.00  0.00     0.020 A 
ATOM     52  C   UNL A   1      42.252  20.908  26.635  1.00  0.00     0.054 A 
BRANCH  52  53
ATOM     53  S   UNL A   1      42.190  19.259  25.876  1.00  0.00     0.124 S 
ATOM     54  O   UNL A   1      42.761  18.420  26.925  1.00  0.00    -0.237 OA
ATOM     55  O   UNL A   1      40.761  19.082  25.630  1.00  0.00    -0.237 OA
ATOM     56  O   UNL A   1      43.007  19.407  24.674  1.00  0.00    -0.744 OA
ENDBRANCH  52  53
ENDBRANCH  24  47
BRANCH  36  57
ATOM     57  C   UNL A   1      47.629  26.610  31.146  1.00  0.00    -0.014 A 
ATOM     58  C   UNL A   1      48.718  26.787  30.278  1.00  0.00     0.010 A 
ATOM     59  C   UNL A   1      47.843  26.066  32.425  1.00  0.00     0.010 A 
ATOM     60  C   UNL A   1      50.002  26.409  30.677  1.00  0.00     0.020 A 
ATOM     61  C   UNL A   1      49.128  25.713  32.838  1.00  0.00     0.020 A 
ATOM     62  C   UNL A   1      50.199  25.876  31.957  1.00  0.00     0.054 A 
BRANCH  62  63
ATOM     63  S   UNL A   1      51.883  25.456  32.479  1.00  0.00     0.124 S 
ATOM     64  O   UNL A   1      52.683  25.997  31.383  1.00  0.00    -0.237 OA
ATOM     65  O   UNL A   1      52.009  26.157  33.755  1.00  0.00    -0.237 OA
ATOM     66  O   UNL A   1      51.861  23.999  32.575  1.00  0.00    -0.744 OA
ENDBRANCH  62  63
ENDBRANCH  36  57
ENDBRANCH  10  11
ENDBRANCH   3   5
ENDBRANCH   2   3
ENDBRANCH   1   2
BRANCH   1  67
ATOM     67  C   UNL A   1      32.163  29.620  24.941  1.00  0.00     0.275 C 
BRANCH  67  68
ATOM     68  O   UNL A   1      30.788  29.370  24.627  1.00  0.00    -0.458 OA
BRANCH  68  69
ATOM     69  C   UNL A   1      30.567  28.975  23.349  1.00  0.00     0.338 C 
ATOM     70  O   UNL A   1      30.181  29.660  22.420  1.00  0.00    -0.246 OA
BRANCH  69  71
ATOM     71  C   UNL A   1      30.861  27.536  23.242  1.00  0.00     0.062 A 
ATOM     72  C   UNL A   1      31.481  27.045  22.092  1.00  0.00     0.019 A 
ATOM     73  C   UNL A   1      30.511  26.679  24.293  1.00  0.00     0.045 A 
ATOM     74  C   UNL A   1      31.721  25.674  21.977  1.00  0.00     0.042 A 
ATOM     75  C   UNL A   1      30.745  25.309  24.176  1.00  0.00     0.085 A 
ATOM     76  C   UNL A   1      31.347  24.819  23.012  1.00  0.00     0.147 A 
ATOM     77  F   UNL A   1      31.533  23.498  22.875  1.00  0.00    -0.205 F 
BRANCH  75  78
ATOM     78  N   UNL A   1      30.289  24.381  25.180  1.00  0.00    -0.277 N 
ATOM     79  H   UNL A   1      29.435  23.903  25.075  1.00  0.00     0.180 HD
BRANCH  78  80
ATOM     80  S   UNL A   1      31.260  24.135  26.543  1.00  0.00     0.264 S 
ATOM     81  O   UNL A   1      31.564  25.438  27.088  1.00  0.00    -0.201 OA
ATOM     82  O   UNL A   1      30.660  23.106  27.362  1.00  0.00    -0.201 OA
BRANCH  80  83
ATOM     83  C   UNL A   1      32.780  23.463  26.066  1.00  0.00     0.118 A 
ATOM     84  C   UNL A   1      34.008  24.196  26.213  1.00  0.00     0.056 A 
ATOM     85  C   UNL A   1      33.010  22.217  25.534  1.00  0.00     0.115 A 
ATOM     86  C   UNL A   1      35.086  23.443  25.828  1.00  0.00     0.096 A 
ATOM     87  S   UNL A   1      34.661  21.928  25.213  1.00  0.00    -0.110 S 
ATOM     88  Cl  UNL A   1      31.912  20.946  25.160  1.00  0.00    -0.071 Cl
ATOM     89  Cl  UNL A   1      36.735  23.905  25.921  1.00  0.00    -0.072 Cl
ENDBRANCH  80  83
ENDBRANCH  78  80
ENDBRANCH  75  78
ENDBRANCH  69  71
ENDBRANCH  68  69
ENDBRANCH  67  68
ENDBRANCH   1  67
TORSDOF 17
ENDMDL
MODEL 2
REMARK VINA RESULT:     -11.0      2.977      9.357
REMARK SMILES O=C(OCCOC(=O)c1ccc(F)c(NS(=O)(=O)c2cc(Cl)sc2Cl)c1)c1ccc(-c2c3nc(c(-c4ccc(S(=O)(=O)[O-])cc4)c4ccc([nH]4)c(-c4ccc(S(=O)(=O)[O-])cc4)c4nc(c(-c5ccc(S(=O)(=O)[O-])cc5)c5ccc2[nH]5)C=C4)C=C3)cc1
REMARK SMILES IDX 4 1 3 2 2 3 1 4 27 5 28 6 86 7 29 8 85 9 30 10 31 11 32 12
REMARK SMILES IDX 79 13 33 14 84 15 78 16 80 17 34 18 83 19 77 20 76 21 35 23
REMARK SMILES IDX 65 24 46 25 64 26 47 27 50 28 63 29 81 30 48 31 49 32 62 34
REMARK SMILES IDX 82 35 51 36 36 37 37 38 45 39 38 40 44 41 39 42 40 43 41 44
REMARK SMILES IDX 42 45 43 46 66 47 67 48 75 49 68 50 74 51 69 52 70 53 71 54
REMARK SMILES IDX 72 55 73 56 52 57 53 58 61 59 54 60 60 61 55 62 56 63 57 64
REMARK SMILES IDX 58 65 59 66 5 67 6 68 7 69 8 70 9 71 10 72 26 73 11 74 14 75
REMARK SMILES IDX 12 76 13 77 15 78 16 80 17 81 18 82 19 83 20 84 24 85 21 86
REMARK SMILES IDX 23 87 25 88 22 89
REMARK H PARENT 80 22 50 33 15 79
REMARK Flexibility Score: inf
ROOT
ATOM      1  C   UNL A   1      36.950  21.958  24.598  1.00  0.00     0.275 C 
ENDROOT
BRANCH   1   2
ATOM      2  O   UNL A   1      37.483  22.758  25.677  1.00  0.00    -0.458 OA
BRANCH   2   3
ATOM      3  C   UNL A   1      38.756  22.883  26.119  1.00  0.00     0.338 C 
ATOM      4  O   UNL A   1      39.494  21.899  26.074  1.00  0.00    -0.246 OA
BRANCH   3   5
ATOM      5  C   UNL A   1      39.303  24.133  26.731  1.00  0.00     0.060 A 
ATOM      6  C   UNL A   1      40.156  25.042  26.104  1.00  0.00     0.016 A 
ATOM      7  C   UNL A   1      38.921  24.401  28.057  1.00  0.00     0.016 A 
ATOM      8  C   UNL A   1      40.485  26.257  26.714  1.00  0.00     0.010 A 
ATOM      9  C   UNL A   1      39.247  25.610  28.673  1.00  0.00     0.010 A 
ATOM     10  C   UNL A   1      40.011  26.561  27.991  1.00  0.00    -0.014 A 
BRANCH  10  11
ATOM     11  C   UNL A   1      40.418  27.810  28.668  1.00  0.00     0.031 A 
ATOM     12  C   UNL A   1      41.755  27.849  29.346  1.00  0.00     0.074 A 
ATOM     13  C   UNL A   1      39.606  28.884  28.674  1.00  0.00     0.049 A 
ATOM     14  N   UNL A   1      42.344  28.854  29.933  1.00  0.00    -0.248 NA
ATOM     15  C   UNL A   1      42.541  26.603  29.343  1.00  0.00     0.031 C 
ATOM     16  C   UNL A   1      38.294  28.961  28.030  1.00  0.00     0.029 A 
ATOM     17  N   UNL A   1      39.753  30.114  29.263  1.00  0.00    -0.354 N 
ATOM     18  C   UNL A   1      43.589  28.378  30.321  1.00  0.00     0.074 A 
ATOM     19  C   UNL A   1      43.642  26.976  29.978  1.00  0.00     0.031 C 
ATOM     20  C   UNL A   1      37.730  30.149  28.312  1.00  0.00     0.029 A 
ATOM     21  C   UNL A   1      38.646  30.922  29.143  1.00  0.00     0.049 A 
ATOM     22  H   UNL A   1      40.575  30.392  29.729  1.00  0.00     0.167 HD
ATOM     23  C   UNL A   1      44.615  29.065  30.870  1.00  0.00     0.031 A 
ATOM     24  C   UNL A   1      38.402  32.145  29.657  1.00  0.00     0.031 A 
ATOM     25  C   UNL A   1      44.538  30.449  31.236  1.00  0.00     0.049 A 
ATOM     26  C   UNL A   1      39.510  32.840  30.406  1.00  0.00     0.074 A 
ATOM     27  C   UNL A   1      45.529  31.261  31.755  1.00  0.00     0.029 A 
ATOM     28  N   UNL A   1      43.389  31.221  31.144  1.00  0.00    -0.354 N 
ATOM     29  N   UNL A   1      40.729  32.416  30.645  1.00  0.00    -0.248 NA
ATOM     30  C   UNL A   1      39.227  34.187  30.919  1.00  0.00     0.031 C 
ATOM     31  C   UNL A   1      44.963  32.510  32.030  1.00  0.00     0.029 A 
ATOM     32  C   UNL A   1      43.633  32.489  31.638  1.00  0.00     0.049 A 
ATOM     33  H   UNL A   1      42.529  30.911  30.780  1.00  0.00     0.167 HD
ATOM     34  C   UNL A   1      41.374  33.465  31.290  1.00  0.00     0.074 A 
ATOM     35  C   UNL A   1      40.408  34.540  31.409  1.00  0.00     0.031 C 
ATOM     36  C   UNL A   1      42.654  33.541  31.731  1.00  0.00     0.031 A 
BRANCH  23  37
ATOM     37  C   UNL A   1      45.900  28.320  31.086  1.00  0.00    -0.014 A 
ATOM     38  C   UNL A   1      46.148  27.669  32.309  1.00  0.00     0.010 A 
ATOM     39  C   UNL A   1      46.862  28.255  30.064  1.00  0.00     0.010 A 
ATOM     40  C   UNL A   1      47.347  26.986  32.515  1.00  0.00     0.020 A 
ATOM     41  C   UNL A   1      48.055  27.555  30.261  1.00  0.00     0.020 A 
ATOM     42  C   UNL A   1      48.295  26.936  31.490  1.00  0.00     0.054 A 
BRANCH  42  43
ATOM     43  S   UNL A   1      49.831  26.014  31.776  1.00  0.00     0.124 S 
ATOM     44  O   UNL A   1      50.654  27.009  32.460  1.00  0.00    -0.237 OA
ATOM     45  O   UNL A   1      49.384  24.895  32.601  1.00  0.00    -0.237 OA
ATOM     46  O   UNL A   1      50.276  25.656  30.432  1.00  0.00    -0.744 OA
ENDBRANCH  42  43
ENDBRANCH  23  37
BRANCH  24  47
ATOM     47  C   UNL A   1      37.065  32.784  29.506  1.00  0.00    -0.014 A 
ATOM     48  C   UNL A   1      36.554  33.119  28.240  1.00  0.00     0.010 A 
ATOM     49  C   UNL A   1      36.315  33.112  30.651  1.00  0.00     0.010 A 
ATOM     50  C   UNL A   1      35.338  33.805  28.124  1.00  0.00     0.020 A 
ATOM     51  C   UNL A   1      35.090  33.777  30.539  1.00  0.00     0.020 A 
ATOM     52  C   UNL A   1      34.619  34.136  29.275  1.00  0.00     0.054 A 
BRANCH  52  53
ATOM     53  S   UNL A   1      33.048  35.032  29.102  1.00  0.00     0.124 S 
ATOM     54  O   UNL A   1      32.369  34.257  28.069  1.00  0.00    -0.237 OA
ATOM     55  O   UNL A   1      32.482  34.932  30.445  1.00  0.00    -0.237 OA
ATOM     56  O   UNL A   1      33.465  36.376  28.708  1.00  0.00    -0.744 OA
ENDBRANCH  52  53
ENDBRANCH  24  47
BRANCH  36  57
ATOM     57  C   UNL A   1      43.097  34.841  32.339  1.00  0.00    -0.014 A 
ATOM     58  C   UNL A   1      43.710  35.834  31.559  1.00  0.00     0.010 A 
ATOM     59  C   UNL A   1      42.823  35.095  33.695  1.00  0.00     0.010 A 
ATOM     60  C   UNL A   1      44.062  37.058  32.131  1.00  0.00     0.020 A 
ATOM     61  C   UNL A   1      43.148  36.328  34.263  1.00  0.00     0.020 A 
ATOM     62  C   UNL A   1      43.776  37.298  33.480  1.00  0.00     0.054 A 
BRANCH  62  63
ATOM     63  S   UNL A   1      44.179  38.919  34.184  1.00  0.00     0.124 S 
ATOM     64  O   UNL A   1      44.270  38.615  35.610  1.00  0.00    -0.237 OA
ATOM     65  O   UNL A   1      45.442  39.250  33.529  1.00  0.00    -0.237 OA
ATOM     66  O   UNL A   1      43.046  39.755  33.796  1.00  0.00    -0.744 OA
ENDBRANCH  62  63
ENDBRANCH  36  57
ENDBRANCH  10  11
ENDBRANCH   3   5
ENDBRANCH   2   3
ENDBRANCH   1   2
BRANCH   1  67
ATOM     67  C   UNL A   1      35.991  20.859  25.048  1.00  0.00     0.275 C 
BRANCH  67  68
ATOM     68  O   UNL A   1      34.625  21.278  24.944  1.00  0.00    -0.458 OA
BRANCH  68  69
ATOM     69  C   UNL A   1      34.092  21.745  26.100  1.00  0.00     0.338 C 
ATOM     70  O   UNL A   1      34.422  21.459  27.235  1.00  0.00    -0.246 OA
BRANCH  69  71
ATOM     71  C   UNL A   1      33.001  22.680  25.773  1.00  0.00     0.062 A 
ATOM     72  C   UNL A   1      32.140  23.112  26.784  1.00  0.00     0.019 A 
ATOM     73  C   UNL A   1      32.840  23.119  24.454  1.00  0.00     0.045 A 
ATOM     74  C   UNL A   1      31.083  23.966  26.462  1.00  0.00     0.042 A 
ATOM     75  C   UNL A   1      31.781  23.967  24.131  1.00  0.00     0.085 A 
ATOM     76  C   UNL A   1      30.908  24.381  25.143  1.00  0.00     0.147 A 
ATOM     77  F   UNL A   1      29.861  25.159  24.831  1.00  0.00    -0.205 F 
BRANCH  75  78
ATOM     78  N   UNL A   1      31.508  24.343  22.766  1.00  0.00    -0.277 N 
ATOM     79  H   UNL A   1      30.887  23.816  22.212  1.00  0.00     0.180 HD
BRANCH  78  80
ATOM     80  S   UNL A   1      32.282  25.711  22.141  1.00  0.00     0.264 S 
ATOM     81  O   UNL A   1      33.674  25.366  21.965  1.00  0.00    -0.201 OA
ATOM     82  O   UNL A   1      31.498  26.229  21.044  1.00  0.00    -0.201 OA
BRANCH  80  83
ATOM     83  C   UNL A   1      32.262  26.982  23.313  1.00  0.00     0.118 A 
ATOM     84  C   UNL A   1      33.360  27.192  24.218  1.00  0.00     0.056 A 
ATOM     85  C   UNL A   1      31.272  27.912  23.516  1.00  0.00     0.115 A 
ATOM     86  C   UNL A   1      33.149  28.289  25.010  1.00  0.00     0.096 A 
ATOM     87  S   UNL A   1      31.643  29.014  24.764  1.00  0.00    -0.110 S 
ATOM     88  Cl  UNL A   1      29.763  28.124  22.717  1.00  0.00    -0.071 Cl
ATOM     89  Cl  UNL A   1      34.241  28.937  26.163  1.00  0.00    -0.072 Cl
ENDBRANCH  80  83
ENDBRANCH  78  80
ENDBRANCH  75  78
ENDBRANCH  69  71
ENDBRANCH  68  69
ENDBRANCH  67  68
ENDBRANCH   1  67
TORSDOF 17
ENDMDL
MODEL 3
REMARK VINA RESULT:     -10.9      4.975     11.481
REMARK SMILES O=C(OCCOC(=O)c1ccc(F)c(NS(=O)(=O)c2cc(Cl)sc2Cl)c1)c1ccc(-c2c3nc(c(-c4ccc(S(=O)(=O)[O-])cc4)c4ccc([nH]4)c(-c4ccc(S(=O)(=O)[O-])cc4)c4nc(c(-c5ccc(S(=O)(=O)[O-])cc5)c5ccc2[nH]5)C=C4)C=C3)cc1
REMARK SMILES IDX 4 1 3 2 2 3 1 4 27 5 28 6 86 7 29 8 85 9 30 10 31 11 32 12
REMARK SMILES IDX 79 13 33 14 84 15 78 16 80 17 34 18 83 19 77 20 76 21 35 23
REMARK SMILES IDX 65 24 46 25 64 26 47 27 50 28 63 29 81 30 48 31 49 32 62 34
REMARK SMILES IDX 82 35 51 36 36 37 37 38 45 39 38 40 44 41 39 42 40 43 41 44
REMARK SMILES IDX 42 45 43 46 66 47 67 48 75 49 68 50 74 51 69 52 70 53 71 54
REMARK SMILES IDX 72 55 73 56 52 57 53 58 61 59 54 60 60 61 55 62 56 63 57 64
REMARK SMILES IDX 58 65 59 66 5 67 6 68 7 69 8 70 9 71 10 72 26 73 11 74 14 75
REMARK SMILES IDX 12 76 13 77 15 78 16 80 17 81 18 82 19 83 20 84 24 85 21 86
REMARK SMILES IDX 23 87 25 88 22 89
REMARK H PARENT 80 22 50 33 15 79
REMARK Flexibility Score: inf
ROOT
ATOM      1  C   UNL A   1      40.382  20.979  26.760  1.00  0.00     0.275 C 
ENDROOT
BRANCH   1   2
ATOM      2  O   UNL A   1      39.712  21.898  25.870  1.00  0.00    -0.458 OA
BRANCH   2   3
ATOM      3  C   UNL A   1      38.935  22.971  26.152  1.00  0.00     0.338 C 
ATOM      4  O   UNL A   1      37.750  22.940  25.822  1.00  0.00    -0.246 OA
BRANCH   3   5
ATOM      5  C   UNL A   1      39.450  24.227  26.777  1.00  0.00     0.060 A 
ATOM      6  C   UNL A   1      40.230  25.193  26.140  1.00  0.00     0.016 A 
ATOM      7  C   UNL A   1      39.119  24.438  28.126  1.00  0.00     0.016 A 
ATOM      8  C   UNL A   1      40.530  26.406  26.771  1.00  0.00     0.010 A 
ATOM      9  C   UNL A   1      39.417  25.644  28.764  1.00  0.00     0.010 A 
ATOM     10  C   UNL A   1      40.103  26.649  28.077  1.00  0.00    -0.014 A 
BRANCH  10  11
ATOM     11  C   UNL A   1      40.482  27.896  28.773  1.00  0.00     0.031 A 
ATOM     12  C   UNL A   1      41.799  27.940  29.489  1.00  0.00     0.074 A 
ATOM     13  C   UNL A   1      39.664  28.966  28.762  1.00  0.00     0.049 A 
ATOM     14  N   UNL A   1      42.365  28.945  30.100  1.00  0.00    -0.248 NA
ATOM     15  C   UNL A   1      42.593  26.698  29.502  1.00  0.00     0.031 C 
ATOM     16  C   UNL A   1      38.371  29.039  28.080  1.00  0.00     0.029 A 
ATOM     17  N   UNL A   1      39.787  30.193  29.362  1.00  0.00    -0.354 N 
ATOM     18  C   UNL A   1      43.601  28.474  30.520  1.00  0.00     0.074 A 
ATOM     19  C   UNL A   1      43.672  27.074  30.171  1.00  0.00     0.031 C 
ATOM     20  C   UNL A   1      37.792  30.222  28.353  1.00  0.00     0.029 A 
ATOM     21  C   UNL A   1      38.678  30.995  29.215  1.00  0.00     0.049 A 
ATOM     22  H   UNL A   1      40.593  30.473  29.853  1.00  0.00     0.167 HD
ATOM     23  C   UNL A   1      44.607  29.163  31.103  1.00  0.00     0.031 A 
ATOM     24  C   UNL A   1      38.413  32.213  29.729  1.00  0.00     0.031 A 
ATOM     25  C   UNL A   1      44.511  30.545  31.475  1.00  0.00     0.049 A 
ATOM     26  C   UNL A   1      39.494  32.911  30.514  1.00  0.00     0.074 A 
ATOM     27  C   UNL A   1      45.481  31.359  32.028  1.00  0.00     0.029 A 
ATOM     28  N   UNL A   1      43.360  31.311  31.354  1.00  0.00    -0.354 N 
ATOM     29  N   UNL A   1      40.708  32.493  30.786  1.00  0.00    -0.248 NA
ATOM     30  C   UNL A   1      39.188  34.253  31.026  1.00  0.00     0.031 C 
ATOM     31  C   UNL A   1      44.900  32.603  32.294  1.00  0.00     0.029 A 
ATOM     32  C   UNL A   1      43.582  32.577  31.862  1.00  0.00     0.049 A 
ATOM     33  H   UNL A   1      42.513  30.998  30.964  1.00  0.00     0.167 HD
ATOM     34  C   UNL A   1      41.327  33.541  31.456  1.00  0.00     0.074 A 
ATOM     35  C   UNL A   1      40.352  34.610  31.553  1.00  0.00     0.031 C 
ATOM     36  C   UNL A   1      42.593  33.622  31.933  1.00  0.00     0.031 A 
BRANCH  23  37
ATOM     37  C   UNL A   1      45.889  28.425  31.353  1.00  0.00    -0.014 A 
ATOM     38  C   UNL A   1      46.887  28.378  30.361  1.00  0.00     0.010 A 
ATOM     39  C   UNL A   1      46.112  27.788  32.585  1.00  0.00     0.010 A 
ATOM     40  C   UNL A   1      48.075  27.682  30.587  1.00  0.00     0.020 A 
ATOM     41  C   UNL A   1      47.309  27.106  32.822  1.00  0.00     0.020 A 
ATOM     42  C   UNL A   1      48.278  27.048  31.816  1.00  0.00     0.054 A 
BRANCH  42  43
ATOM     43  S   UNL A   1      49.844  26.178  32.093  1.00  0.00     0.124 S 
ATOM     44  O   UNL A   1      50.540  27.093  32.995  1.00  0.00    -0.237 OA
ATOM     45  O   UNL A   1      49.410  24.918  32.690  1.00  0.00    -0.237 OA
ATOM     46  O   UNL A   1      50.421  26.065  30.756  1.00  0.00    -0.744 OA
ENDBRANCH  42  43
ENDBRANCH  23  37
BRANCH  24  47
ATOM     47  C   UNL A   1      37.076  32.846  29.543  1.00  0.00    -0.014 A 
ATOM     48  C   UNL A   1      36.754  33.540  28.363  1.00  0.00     0.010 A 
ATOM     49  C   UNL A   1      36.131  32.798  30.585  1.00  0.00     0.010 A 
ATOM     50  C   UNL A   1      35.529  34.208  28.246  1.00  0.00     0.020 A 
ATOM     51  C   UNL A   1      34.897  33.446  30.462  1.00  0.00     0.020 A 
ATOM     52  C   UNL A   1      34.612  34.162  29.299  1.00  0.00     0.054 A 
BRANCH  52  53
ATOM     53  S   UNL A   1      33.032  35.042  29.127  1.00  0.00     0.124 S 
ATOM     54  O   UNL A   1      32.493  34.963  30.481  1.00  0.00    -0.237 OA
ATOM     55  O   UNL A   1      33.459  36.369  28.690  1.00  0.00    -0.237 OA
ATOM     56  O   UNL A   1      32.317  34.262  28.120  1.00  0.00    -0.744 OA
ENDBRANCH  52  53
ENDBRANCH  24  47
BRANCH  36  57
ATOM     57  C   UNL A   1      43.011  34.921  32.562  1.00  0.00    -0.014 A 
ATOM     58  C   UNL A   1      43.647  35.919  31.808  1.00  0.00     0.010 A 
ATOM     59  C   UNL A   1      42.689  35.169  33.909  1.00  0.00     0.010 A 
ATOM     60  C   UNL A   1      43.975  37.142  32.397  1.00  0.00     0.020 A 
ATOM     61  C   UNL A   1      42.990  36.400  34.493  1.00  0.00     0.020 A 
ATOM     62  C   UNL A   1      43.641  37.376  33.735  1.00  0.00     0.054 A 
BRANCH  62  63
ATOM     63  S   UNL A   1      44.014  38.995  34.460  1.00  0.00     0.124 S 
ATOM     64  O   UNL A   1      42.924  39.817  33.939  1.00  0.00    -0.237 OA
ATOM     65  O   UNL A   1      43.967  38.724  35.895  1.00  0.00    -0.237 OA
ATOM     66  O   UNL A   1      45.340  39.311  33.935  1.00  0.00    -0.744 OA
ENDBRANCH  62  63
ENDBRANCH  36  57
ENDBRANCH  10  11
ENDBRANCH   3   5
ENDBRANCH   2   3
ENDBRANCH   1   2
BRANCH   1  67
ATOM     67  C   UNL A   1      40.302  19.517  26.327  1.00  0.00     0.275 C 
BRANCH  67  68
ATOM     68  O   UNL A   1      41.454  19.131  25.567  1.00  0.00    -0.458 OA
BRANCH  68  69
ATOM     69  C   UNL A   1      42.540  18.816  26.316  1.00  0.00     0.338 C 
ATOM     70  O   UNL A   1      42.569  18.144  27.329  1.00  0.00    -0.246 OA
BRANCH  69  71
ATOM     71  C   UNL A   1      43.728  19.438  25.709  1.00  0.00     0.062 A 
ATOM     72  C   UNL A   1      44.532  18.690  24.847  1.00  0.00     0.019 A 
ATOM     73  C   UNL A   1      44.039  20.770  26.007  1.00  0.00     0.045 A 
ATOM     74  C   UNL A   1      45.681  19.271  24.305  1.00  0.00     0.042 A 
ATOM     75  C   UNL A   1      45.189  21.350  25.471  1.00  0.00     0.085 A 
ATOM     76  C   UNL A   1      46.003  20.589  24.625  1.00  0.00     0.147 A 
ATOM     77  F   UNL A   1      47.134  21.125  24.143  1.00  0.00    -0.205 F 
BRANCH  75  78
ATOM     78  N   UNL A   1      45.609  22.675  25.850  1.00  0.00    -0.277 N 
ATOM     79  H   UNL A   1      46.050  22.837  26.715  1.00  0.00     0.180 HD
BRANCH  78  80
ATOM     80  S   UNL A   1      45.324  23.946  24.771  1.00  0.00     0.264 S 
ATOM     81  O   UNL A   1      46.449  23.993  23.865  1.00  0.00    -0.201 OA
ATOM     82  O   UNL A   1      43.971  23.840  24.273  1.00  0.00    -0.201 OA
BRANCH  80  83
ATOM     83  C   UNL A   1      45.345  25.452  25.619  1.00  0.00     0.118 A 
ATOM     84  C   UNL A   1      44.260  26.390  25.521  1.00  0.00     0.056 A 
ATOM     85  C   UNL A   1      46.327  25.920  26.460  1.00  0.00     0.115 A 
ATOM     86  C   UNL A   1      44.469  27.479  26.325  1.00  0.00     0.096 A 
ATOM     87  S   UNL A   1      45.960  27.452  27.117  1.00  0.00    -0.110 S 
ATOM     88  Cl  UNL A   1      47.820  25.209  26.933  1.00  0.00    -0.071 Cl
ATOM     89  Cl  UNL A   1      43.386  28.787  26.567  1.00  0.00    -0.072 Cl
ENDBRANCH  80  83
ENDBRANCH  78  80
ENDBRANCH  75  78
ENDBRANCH  69  71
ENDBRANCH  68  69
ENDBRANCH  67  68
ENDBRANCH   1  67
TORSDOF 17
ENDMDL
