MODEL 1
REMARK VINA RESULT:     -11.1      0.000      0.000
REMARK SMILES O=C(OCCOC(=O)[C@H]1[C@@H]2CC[C@@H](C2)[C@@H]1C(=O)Nc1ccc([N+](=O)[O-])cc1)c1ccc(-c2c3nc(c(-c4ccc(S(=O)(=O)[O-])cc4)c4ccc([nH]4)c(-c4ccc(S(=O)(=O)[O-])cc4)c4nc(c(-c5ccc(S(=O)(=O)[O-])cc5)c5ccc2[nH]5)C=C4)C=C3)cc1
REMARK SMILES IDX 4 1 3 2 2 3 1 4 28 5 29 6 87 7 30 8 86 9 31 10 32 11 33 12
REMARK SMILES IDX 80 13 34 14 85 15 79 16 81 17 35 18 84 19 78 20 77 21 36 23
REMARK SMILES IDX 66 24 47 25 65 26 48 27 51 28 64 29 82 30 49 31 50 32 63 34
REMARK SMILES IDX 83 35 52 36 37 37 38 38 46 39 39 40 45 41 40 42 41 43 42 44
REMARK SMILES IDX 43 45 44 46 67 47 68 48 76 49 69 50 75 51 70 52 71 53 72 54
REMARK SMILES IDX 73 55 74 56 53 57 54 58 62 59 55 60 61 61 56 62 57 63 58 64
REMARK SMILES IDX 59 65 60 66 5 67 6 68 7 69 8 70 9 71 10 72 15 73 11 74 14 75
REMARK SMILES IDX 13 76 12 77 16 78 17 79 18 80 19 82 20 83 27 84 21 85 26 86
REMARK SMILES IDX 22 87 23 88 24 89 25 90
REMARK H PARENT 81 22 51 33 18 81
REMARK Flexibility Score: inf
ROOT
ATOM      1  C   UNL A   1      39.565  23.754  26.666  1.00  0.00     0.275 C 
ENDROOT
BRANCH   1   2
ATOM      2  O   UNL A   1      39.180  25.021  27.219  1.00  0.00    -0.458 OA
BRANCH   2   3
ATOM      3  C   UNL A   1      39.913  26.160  27.286  1.00  0.00     0.338 C 
ATOM      4  O   UNL A   1      40.582  26.480  26.305  1.00  0.00    -0.246 OA
BRANCH   3   5
ATOM      5  C   UNL A   1      40.117  26.926  28.562  1.00  0.00     0.060 A 
ATOM      6  C   UNL A   1      41.075  27.921  28.812  1.00  0.00     0.016 A 
ATOM      7  C   UNL A   1      39.185  26.654  29.575  1.00  0.00     0.016 A 
ATOM      8  C   UNL A   1      41.036  28.712  29.978  1.00  0.00     0.010 A 
ATOM      9  C   UNL A   1      39.124  27.458  30.718  1.00  0.00     0.010 A 
ATOM     10  C   UNL A   1      40.047  28.505  30.933  1.00  0.00    -0.014 A 
BRANCH  10  11
ATOM     11  C   UNL A   1      40.038  29.152  32.276  1.00  0.00     0.031 A 
ATOM     12  C   UNL A   1      39.182  30.377  32.389  1.00  0.00     0.074 A 
ATOM     13  C   UNL A   1      40.824  28.792  33.315  1.00  0.00     0.049 A 
ATOM     14  N   UNL A   1      39.137  31.262  33.343  1.00  0.00    -0.248 NA
ATOM     15  C   UNL A   1      38.237  30.620  31.282  1.00  0.00     0.031 C 
ATOM     16  C   UNL A   1      41.579  27.555  33.461  1.00  0.00     0.029 A 
ATOM     17  N   UNL A   1      41.227  29.528  34.408  1.00  0.00    -0.354 N 
ATOM     18  C   UNL A   1      38.101  32.109  32.988  1.00  0.00     0.074 A 
ATOM     19  C   UNL A   1      37.687  31.762  31.649  1.00  0.00     0.031 C 
ATOM     20  C   UNL A   1      42.542  27.720  34.389  1.00  0.00     0.029 A 
ATOM     21  C   UNL A   1      42.373  29.028  35.002  1.00  0.00     0.049 A 
ATOM     22  H   UNL A   1      40.750  30.325  34.734  1.00  0.00     0.167 HD
ATOM     23  C   UNL A   1      37.458  33.004  33.766  1.00  0.00     0.031 A 
ATOM     24  C   UNL A   1      43.185  29.568  35.933  1.00  0.00     0.031 A 
ATOM     25  C   UNL A   1      37.899  33.344  35.083  1.00  0.00     0.049 A 
ATOM     26  C   UNL A   1      42.658  30.768  36.673  1.00  0.00     0.074 A 
ATOM     27  C   UNL A   1      37.329  34.206  35.996  1.00  0.00     0.029 A 
ATOM     28  N   UNL A   1      39.058  32.840  35.658  1.00  0.00    -0.354 N 
ATOM     29  N   UNL A   1      41.587  31.478  36.409  1.00  0.00    -0.248 NA
ATOM     30  C   UNL A   1      43.353  31.155  37.908  1.00  0.00     0.031 C 
ATOM     31  C   UNL A   1      38.178  34.266  37.107  1.00  0.00     0.029 A 
ATOM     32  C   UNL A   1      39.246  33.400  36.905  1.00  0.00     0.049 A 
ATOM     33  H   UNL A   1      39.656  32.180  35.240  1.00  0.00     0.167 HD
ATOM     34  C   UNL A   1      41.398  32.298  37.512  1.00  0.00     0.074 A 
ATOM     35  C   UNL A   1      42.515  32.058  38.405  1.00  0.00     0.031 C 
ATOM     36  C   UNL A   1      40.355  33.118  37.785  1.00  0.00     0.031 A 
BRANCH  23  37
ATOM     37  C   UNL A   1      36.213  33.592  33.173  1.00  0.00    -0.014 A 
ATOM     38  C   UNL A   1      36.281  34.814  32.468  1.00  0.00     0.010 A 
ATOM     39  C   UNL A   1      34.961  33.030  33.458  1.00  0.00     0.010 A 
ATOM     40  C   UNL A   1      35.118  35.517  32.161  1.00  0.00     0.020 A 
ATOM     41  C   UNL A   1      33.792  33.718  33.122  1.00  0.00     0.020 A 
ATOM     42  C   UNL A   1      33.880  34.974  32.514  1.00  0.00     0.054 A 
BRANCH  42  43
ATOM     43  S   UNL A   1      32.387  35.953  32.206  1.00  0.00     0.124 S 
ATOM     44  O   UNL A   1      32.576  37.081  33.116  1.00  0.00    -0.237 OA
ATOM     45  O   UNL A   1      32.497  36.271  30.784  1.00  0.00    -0.237 OA
ATOM     46  O   UNL A   1      31.299  35.044  32.557  1.00  0.00    -0.744 OA
ENDBRANCH  42  43
ENDBRANCH  23  37
BRANCH  24  47
ATOM     47  C   UNL A   1      44.475  28.921  36.319  1.00  0.00    -0.014 A 
ATOM     48  C   UNL A   1      44.531  27.994  37.375  1.00  0.00     0.010 A 
ATOM     49  C   UNL A   1      45.667  29.239  35.638  1.00  0.00     0.010 A 
ATOM     50  C   UNL A   1      45.747  27.412  37.753  1.00  0.00     0.020 A 
ATOM     51  C   UNL A   1      46.887  28.651  36.008  1.00  0.00     0.020 A 
ATOM     52  C   UNL A   1      46.920  27.742  37.066  1.00  0.00     0.054 A 
BRANCH  52  53
ATOM     53  S   UNL A   1      48.475  26.946  37.573  1.00  0.00     0.124 S 
ATOM     54  O   UNL A   1      49.362  28.090  37.755  1.00  0.00    -0.237 OA
ATOM     55  O   UNL A   1      48.083  26.253  38.798  1.00  0.00    -0.237 OA
ATOM     56  O   UNL A   1      48.804  26.076  36.447  1.00  0.00    -0.744 OA
ENDBRANCH  52  53
ENDBRANCH  24  47
BRANCH  36  57
ATOM     57  C   UNL A   1      40.301  33.758  39.140  1.00  0.00    -0.014 A 
ATOM     58  C   UNL A   1      40.855  35.026  39.370  1.00  0.00     0.010 A 
ATOM     59  C   UNL A   1      39.531  33.139  40.143  1.00  0.00     0.010 A 
ATOM     60  C   UNL A   1      40.615  35.679  40.580  1.00  0.00     0.020 A 
ATOM     61  C   UNL A   1      39.268  33.801  41.341  1.00  0.00     0.020 A 
ATOM     62  C   UNL A   1      39.808  35.071  41.548  1.00  0.00     0.054 A 
BRANCH  62  63
ATOM     63  S   UNL A   1      39.383  36.009  43.040  1.00  0.00     0.124 S 
ATOM     64  O   UNL A   1      37.981  35.653  43.233  1.00  0.00    -0.237 OA
ATOM     65  O   UNL A   1      40.313  35.470  44.031  1.00  0.00    -0.237 OA
ATOM     66  O   UNL A   1      39.627  37.397  42.658  1.00  0.00    -0.744 OA
ENDBRANCH  62  63
ENDBRANCH  36  57
ENDBRANCH  10  11
ENDBRANCH   3   5
ENDBRANCH   2   3
ENDBRANCH   1   2
BRANCH   1  67
ATOM     67  C   UNL A   1      38.466  23.055  25.865  1.00  0.00     0.274 C 
BRANCH  67  68
ATOM     68  O   UNL A   1      37.161  23.533  26.230  1.00  0.00    -0.462 OA
BRANCH  68  69
ATOM     69  C   UNL A   1      36.111  22.694  26.009  1.00  0.00     0.310 C 
ATOM     70  O   UNL A   1      36.156  21.505  26.246  1.00  0.00    -0.252 OA
BRANCH  69  71
ATOM     71  C   UNL A   1      34.875  23.406  25.417  1.00  0.00     0.115 C 
ATOM     72  C   UNL A   1      35.235  24.325  24.258  1.00  0.00     0.004 C 
ATOM     73  C   UNL A   1      33.925  22.386  24.749  1.00  0.00     0.096 C 
ATOM     74  C   UNL A   1      34.034  25.150  23.770  1.00  0.00     0.005 C 
ATOM     75  C   UNL A   1      35.409  23.329  23.137  1.00  0.00     0.009 C 
ATOM     76  C   UNL A   1      33.985  22.810  23.246  1.00  0.00     0.003 C 
ATOM     77  C   UNL A   1      33.232  24.126  22.962  1.00  0.00     0.005 C 
BRANCH  73  78
ATOM     78  C   UNL A   1      32.483  22.287  25.254  1.00  0.00     0.228 C 
ATOM     79  O   UNL A   1      31.826  23.300  25.509  1.00  0.00    -0.274 OA
ATOM     80  N   UNL A   1      31.810  21.102  25.335  1.00  0.00    -0.326 N 
ATOM     81  H   UNL A   1      30.908  21.147  25.728  1.00  0.00     0.169 HD
BRANCH  80  82
ATOM     82  C   UNL A   1      32.235  19.841  24.935  1.00  0.00     0.041 A 
ATOM     83  C   UNL A   1      32.251  19.513  23.581  1.00  0.00     0.033 A 
ATOM     84  C   UNL A   1      32.653  18.922  25.904  1.00  0.00     0.033 A 
ATOM     85  C   UNL A   1      32.815  18.300  23.177  1.00  0.00     0.088 A 
ATOM     86  C   UNL A   1      33.252  17.727  25.510  1.00  0.00     0.088 A 
ATOM     87  C   UNL A   1      33.360  17.440  24.143  1.00  0.00     0.269 A 
BRANCH  87  88
ATOM     88  N   UNL A   1      34.132  16.273  23.713  1.00  0.00     0.062 N 
ATOM     89  O   UNL A   1      34.533  15.493  24.589  1.00  0.00    -0.258 OA
ATOM     90  O   UNL A   1      34.339  16.135  22.498  1.00  0.00    -0.258 OA
ENDBRANCH  87  88
ENDBRANCH  80  82
ENDBRANCH  73  78
ENDBRANCH  69  71
ENDBRANCH  68  69
ENDBRANCH  67  68
ENDBRANCH   1  67
TORSDOF 17
ENDMDL
MODEL 2
REMARK VINA RESULT:     -10.9      7.860     12.501
REMARK SMILES O=C(OCCOC(=O)[C@H]1[C@@H]2CC[C@@H](C2)[C@@H]1C(=O)Nc1ccc([N+](=O)[O-])cc1)c1ccc(-c2c3nc(c(-c4ccc(S(=O)(=O)[O-])cc4)c4ccc([nH]4)c(-c4ccc(S(=O)(=O)[O-])cc4)c4nc(c(-c5ccc(S(=O)(=O)[O-])cc5)c5ccc2[nH]5)C=C4)C=C3)cc1
REMARK SMILES IDX 4 1 3 2 2 3 1 4 28 5 29 6 87 7 30 8 86 9 31 10 32 11 33 12
REMARK SMILES IDX 80 13 34 14 85 15 79 16 81 17 35 18 84 19 78 20 77 21 36 23
REMARK SMILES IDX 66 24 47 25 65 26 48 27 51 28 64 29 82 30 49 31 50 32 63 34
REMARK SMILES IDX 83 35 52 36 37 37 38 38 46 39 39 40 45 41 40 42 41 43 42 44
REMARK SMILES IDX 43 45 44 46 67 47 68 48 76 49 69 50 75 51 70 52 71 53 72 54
REMARK SMILES IDX 73 55 74 56 53 57 54 58 62 59 55 60 61 61 56 62 57 63 58 64
REMARK SMILES IDX 59 65 60 66 5 67 6 68 7 69 8 70 9 71 10 72 15 73 11 74 14 75
REMARK SMILES IDX 13 76 12 77 16 78 17 79 18 80 19 82 20 83 27 84 21 85 26 86
REMARK SMILES IDX 22 87 23 88 24 89 25 90
REMARK H PARENT 81 22 51 33 18 81
REMARK Flexibility Score: inf
ROOT
ATOM      1  C   UNL A   1      35.600  29.715  27.191  1.00  0.00     0.275 C 
ENDROOT
BRANCH   1   2
ATOM      2  O   UNL A   1      36.507  30.160  28.210  1.00  0.00    -0.458 OA
BRANCH   2   3
ATOM      3  C   UNL A   1      37.343  29.410  28.969  1.00  0.00     0.338 C 
ATOM      4  O   UNL A   1      36.987  29.114  30.109  1.00  0.00    -0.246 OA
BRANCH   3   5
ATOM      5  C   UNL A   1      38.759  29.108  28.570  1.00  0.00     0.060 A 
ATOM      6  C   UNL A   1      39.266  28.981  27.267  1.00  0.00     0.016 A 
ATOM      7  C   UNL A   1      39.673  29.025  29.632  1.00  0.00     0.016 A 
ATOM      8  C   UNL A   1      40.651  28.901  27.014  1.00  0.00     0.010 A 
ATOM      9  C   UNL A   1      41.048  28.977  29.384  1.00  0.00     0.010 A 
ATOM     10  C   UNL A   1      41.558  28.921  28.068  1.00  0.00    -0.014 A 
BRANCH  10  11
ATOM     11  C   UNL A   1      43.015  28.647  27.916  1.00  0.00     0.031 A 
ATOM     12  C   UNL A   1      43.884  29.861  27.787  1.00  0.00     0.074 A 
ATOM     13  C   UNL A   1      43.562  27.420  27.762  1.00  0.00     0.049 A 
ATOM     14  N   UNL A   1      45.135  29.944  27.435  1.00  0.00    -0.248 NA
ATOM     15  C   UNL A   1      43.255  31.154  28.121  1.00  0.00     0.031 C 
ATOM     16  C   UNL A   1      42.928  26.135  28.024  1.00  0.00     0.029 A 
ATOM     17  N   UNL A   1      44.767  27.059  27.200  1.00  0.00    -0.354 N 
ATOM     18  C   UNL A   1      45.457  31.281  27.593  1.00  0.00     0.074 A 
ATOM     19  C   UNL A   1      44.236  32.000  27.867  1.00  0.00     0.031 C 
ATOM     20  C   UNL A   1      43.600  25.160  27.381  1.00  0.00     0.029 A 
ATOM     21  C   UNL A   1      44.794  25.739  26.784  1.00  0.00     0.049 A 
ATOM     22  H   UNL A   1      45.530  27.674  27.106  1.00  0.00     0.167 HD
ATOM     23  C   UNL A   1      46.686  31.837  27.645  1.00  0.00     0.031 A 
ATOM     24  C   UNL A   1      45.683  25.081  26.012  1.00  0.00     0.031 A 
ATOM     25  C   UNL A   1      47.879  31.107  27.351  1.00  0.00     0.049 A 
ATOM     26  C   UNL A   1      47.004  25.763  25.775  1.00  0.00     0.074 A 
ATOM     27  C   UNL A   1      49.191  31.530  27.396  1.00  0.00     0.029 A 
ATOM     28  N   UNL A   1      47.886  29.786  26.925  1.00  0.00    -0.354 N 
ATOM     29  N   UNL A   1      47.344  26.996  26.065  1.00  0.00    -0.248 NA
ATOM     30  C   UNL A   1      48.100  24.939  25.247  1.00  0.00     0.031 C 
ATOM     31  C   UNL A   1      49.991  30.476  26.940  1.00  0.00     0.029 A 
ATOM     32  C   UNL A   1      49.179  29.382  26.664  1.00  0.00     0.049 A 
ATOM     33  H   UNL A   1      47.087  29.220  26.823  1.00  0.00     0.167 HD
ATOM     34  C   UNL A   1      48.719  27.057  25.890  1.00  0.00     0.074 A 
ATOM     35  C   UNL A   1      49.133  25.762  25.385  1.00  0.00     0.031 C 
ATOM     36  C   UNL A   1      49.563  28.074  26.190  1.00  0.00     0.031 A 
BRANCH  23  37
ATOM     37  C   UNL A   1      46.722  33.271  28.079  1.00  0.00    -0.014 A 
ATOM     38  C   UNL A   1      46.737  34.297  27.109  1.00  0.00     0.010 A 
ATOM     39  C   UNL A   1      46.914  33.596  29.428  1.00  0.00     0.010 A 
ATOM     40  C   UNL A   1      47.058  35.605  27.469  1.00  0.00     0.020 A 
ATOM     41  C   UNL A   1      47.203  34.913  29.797  1.00  0.00     0.020 A 
ATOM     42  C   UNL A   1      47.314  35.898  28.811  1.00  0.00     0.054 A 
BRANCH  42  43
ATOM     43  S   UNL A   1      47.836  37.579  29.244  1.00  0.00     0.124 S 
ATOM     44  O   UNL A   1      46.637  38.106  29.891  1.00  0.00    -0.237 OA
ATOM     45  O   UNL A   1      48.975  37.345  30.128  1.00  0.00    -0.237 OA
ATOM     46  O   UNL A   1      48.164  38.181  27.955  1.00  0.00    -0.744 OA
ENDBRANCH  42  43
ENDBRANCH  23  37
BRANCH  24  47
ATOM     47  C   UNL A   1      45.433  23.686  25.543  1.00  0.00    -0.014 A 
ATOM     48  C   UNL A   1      45.020  23.430  24.224  1.00  0.00     0.010 A 
ATOM     49  C   UNL A   1      45.594  22.596  26.422  1.00  0.00     0.010 A 
ATOM     50  C   UNL A   1      44.757  22.121  23.797  1.00  0.00     0.020 A 
ATOM     51  C   UNL A   1      45.341  21.282  25.995  1.00  0.00     0.020 A 
ATOM     52  C   UNL A   1      44.920  21.053  24.685  1.00  0.00     0.054 A 
BRANCH  52  53
ATOM     53  S   UNL A   1      44.592  19.369  24.084  1.00  0.00     0.124 S 
ATOM     54  O   UNL A   1      43.343  19.037  24.761  1.00  0.00    -0.237 OA
ATOM     55  O   UNL A   1      44.492  19.569  22.640  1.00  0.00    -0.237 OA
ATOM     56  O   UNL A   1      45.759  18.608  24.523  1.00  0.00    -0.744 OA
ENDBRANCH  52  53
ENDBRANCH  24  47
BRANCH  36  57
ATOM     57  C   UNL A   1      51.037  27.819  26.079  1.00  0.00    -0.014 A 
ATOM     58  C   UNL A   1      51.761  27.252  27.138  1.00  0.00     0.010 A 
ATOM     59  C   UNL A   1      51.655  28.000  24.827  1.00  0.00     0.010 A 
ATOM     60  C   UNL A   1      53.080  26.844  26.937  1.00  0.00     0.020 A 
ATOM     61  C   UNL A   1      52.963  27.568  24.616  1.00  0.00     0.020 A 
ATOM     62  C   UNL A   1      53.665  26.986  25.673  1.00  0.00     0.054 A 
BRANCH  62  63
ATOM     63  S   UNL A   1      55.321  26.301  25.399  1.00  0.00     0.124 S 
ATOM     64  O   UNL A   1      55.845  27.181  24.359  1.00  0.00    -0.237 OA
ATOM     65  O   UNL A   1      55.944  26.439  26.714  1.00  0.00    -0.237 OA
ATOM     66  O   UNL A   1      55.062  24.926  24.981  1.00  0.00    -0.744 OA
ENDBRANCH  62  63
ENDBRANCH  36  57
ENDBRANCH  10  11
ENDBRANCH   3   5
ENDBRANCH   2   3
ENDBRANCH   1   2
BRANCH   1  67
ATOM     67  C   UNL A   1      34.148  29.583  27.653  1.00  0.00     0.274 C 
BRANCH  67  68
ATOM     68  O   UNL A   1      33.346  28.891  26.682  1.00  0.00    -0.462 OA
BRANCH  68  69
ATOM     69  C   UNL A   1      32.245  29.543  26.213  1.00  0.00     0.310 C 
ATOM     70  O   UNL A   1      32.082  30.738  26.344  1.00  0.00    -0.252 OA
BRANCH  69  71
ATOM     71  C   UNL A   1      31.233  28.607  25.517  1.00  0.00     0.115 C 
ATOM     72  C   UNL A   1      30.862  29.089  24.122  1.00  0.00     0.004 C 
ATOM     73  C   UNL A   1      31.871  27.228  25.233  1.00  0.00     0.096 C 
ATOM     74  C   UNL A   1      29.743  28.248  23.489  1.00  0.00     0.005 C 
ATOM     75  C   UNL A   1      32.070  28.651  23.329  1.00  0.00     0.009 C 
ATOM     76  C   UNL A   1      31.884  27.182  23.671  1.00  0.00     0.003 C 
ATOM     77  C   UNL A   1      30.481  26.976  23.064  1.00  0.00     0.005 C 
BRANCH  73  78
ATOM     78  C   UNL A   1      31.216  25.980  25.832  1.00  0.00     0.228 C 
ATOM     79  O   UNL A   1      30.073  26.020  26.296  1.00  0.00    -0.274 OA
ATOM     80  N   UNL A   1      31.798  24.746  25.782  1.00  0.00    -0.326 N 
ATOM     81  H   UNL A   1      31.317  24.025  26.249  1.00  0.00     0.169 HD
BRANCH  80  82
ATOM     82  C   UNL A   1      32.982  24.377  25.156  1.00  0.00     0.041 A 
ATOM     83  C   UNL A   1      34.195  24.527  25.825  1.00  0.00     0.033 A 
ATOM     84  C   UNL A   1      32.935  23.848  23.861  1.00  0.00     0.033 A 
ATOM     85  C   UNL A   1      35.364  24.020  25.248  1.00  0.00     0.088 A 
ATOM     86  C   UNL A   1      34.086  23.305  23.293  1.00  0.00     0.088 A 
ATOM     87  C   UNL A   1      35.289  23.365  24.009  1.00  0.00     0.269 A 
BRANCH  87  88
ATOM     88  N   UNL A   1      36.463  22.656  23.500  1.00  0.00     0.062 N 
ATOM     89  O   UNL A   1      36.824  22.898  22.338  1.00  0.00    -0.258 OA
ATOM     90  O   UNL A   1      37.027  21.855  24.259  1.00  0.00    -0.258 OA
ENDBRANCH  87  88
ENDBRANCH  80  82
ENDBRANCH  73  78
ENDBRANCH  69  71
ENDBRANCH  68  69
ENDBRANCH  67  68
ENDBRANCH   1  67
TORSDOF 17
ENDMDL
MODEL 3
REMARK VINA RESULT:     -10.8      8.226     13.129
REMARK SMILES O=C(OCCOC(=O)[C@H]1[C@@H]2CC[C@@H](C2)[C@@H]1C(=O)Nc1ccc([N+](=O)[O-])cc1)c1ccc(-c2c3nc(c(-c4ccc(S(=O)(=O)[O-])cc4)c4ccc([nH]4)c(-c4ccc(S(=O)(=O)[O-])cc4)c4nc(c(-c5ccc(S(=O)(=O)[O-])cc5)c5ccc2[nH]5)C=C4)C=C3)cc1
REMARK SMILES IDX 4 1 3 2 2 3 1 4 28 5 29 6 87 7 30 8 86 9 31 10 32 11 33 12
REMARK SMILES IDX 80 13 34 14 85 15 79 16 81 17 35 18 84 19 78 20 77 21 36 23
REMARK SMILES IDX 66 24 47 25 65 26 48 27 51 28 64 29 82 30 49 31 50 32 63 34
REMARK SMILES IDX 83 35 52 36 37 37 38 38 46 39 39 40 45 41 40 42 41 43 42 44
REMARK SMILES IDX 43 45 44 46 67 47 68 48 76 49 69 50 75 51 70 52 71 53 72 54
REMARK SMILES IDX 73 55 74 56 53 57 54 58 62 59 55 60 61 61 56 62 57 63 58 64
REMARK SMILES IDX 59 65 60 66 5 67 6 68 7 69 8 70 9 71 10 72 15 73 11 74 14 75
REMARK SMILES IDX 13 76 12 77 16 78 17 79 18 80 19 82 20 83 27 84 21 85 26 86
REMARK SMILES IDX 22 87 23 88 24 89 25 90
REMARK H PARENT 81 22 51 33 18 81
REMARK Flexibility Score: inf
ROOT
ATOM      1  C   UNL A   1      35.166  30.486  27.938  1.00  0.00     0.275 C 
ENDROOT
BRANCH   1   2
ATOM      2  O   UNL A   1      36.450  29.899  27.682  1.00  0.00    -0.458 OA
BRANCH   2   3
ATOM      3  C   UNL A   1      37.350  29.435  28.583  1.00  0.00     0.338 C 
ATOM      4  O   UNL A   1      37.042  29.449  29.774  1.00  0.00    -0.246 OA
BRANCH   3   5
ATOM      5  C   UNL A   1      38.772  29.110  28.224  1.00  0.00     0.060 A 
ATOM      6  C   UNL A   1      39.305  28.933  26.938  1.00  0.00     0.016 A 
ATOM      7  C   UNL A   1      39.663  29.059  29.307  1.00  0.00     0.016 A 
ATOM      8  C   UNL A   1      40.694  28.835  26.717  1.00  0.00     0.010 A 
ATOM      9  C   UNL A   1      41.043  28.993  29.090  1.00  0.00     0.010 A 
ATOM     10  C   UNL A   1      41.579  28.887  27.789  1.00  0.00    -0.014 A 
BRANCH  10  11
ATOM     11  C   UNL A   1      43.037  28.599  27.677  1.00  0.00     0.031 A 
ATOM     12  C   UNL A   1      43.920  29.804  27.563  1.00  0.00     0.074 A 
ATOM     13  C   UNL A   1      43.576  27.366  27.546  1.00  0.00     0.049 A 
ATOM     14  N   UNL A   1      45.181  29.872  27.243  1.00  0.00    -0.248 NA
ATOM     15  C   UNL A   1      43.296  31.105  27.871  1.00  0.00     0.031 C 
ATOM     16  C   UNL A   1      42.924  26.088  27.799  1.00  0.00     0.029 A 
ATOM     17  N   UNL A   1      44.793  26.989  27.018  1.00  0.00    -0.354 N 
ATOM     18  C   UNL A   1      45.512  31.207  27.401  1.00  0.00     0.074 A 
ATOM     19  C   UNL A   1      44.291  31.940  27.637  1.00  0.00     0.031 C 
ATOM     20  C   UNL A   1      43.604  25.103  27.181  1.00  0.00     0.029 A 
ATOM     21  C   UNL A   1      44.818  25.667  26.612  1.00  0.00     0.049 A 
ATOM     22  H   UNL A   1      45.563  27.597  26.940  1.00  0.00     0.167 HD
ATOM     23  C   UNL A   1      46.744  31.752  27.481  1.00  0.00     0.031 A 
ATOM     24  C   UNL A   1      45.721  24.995  25.869  1.00  0.00     0.031 A 
ATOM     25  C   UNL A   1      47.938  31.010  27.224  1.00  0.00     0.049 A 
ATOM     26  C   UNL A   1      47.054  25.662  25.662  1.00  0.00     0.074 A 
ATOM     27  C   UNL A   1      49.251  31.421  27.300  1.00  0.00     0.029 A 
ATOM     28  N   UNL A   1      47.943  29.686  26.807  1.00  0.00    -0.354 N 
ATOM     29  N   UNL A   1      47.398  26.895  25.952  1.00  0.00    -0.248 NA
ATOM     30  C   UNL A   1      48.155  24.825  25.168  1.00  0.00     0.031 C 
ATOM     31  C   UNL A   1      50.053  30.356  26.873  1.00  0.00     0.029 A 
ATOM     32  C   UNL A   1      49.239  29.268  26.583  1.00  0.00     0.049 A 
ATOM     33  H   UNL A   1      47.142  29.126  26.688  1.00  0.00     0.167 HD
ATOM     34  C   UNL A   1      48.777  26.942  25.813  1.00  0.00     0.074 A 
ATOM     35  C   UNL A   1      49.192  25.640  25.328  1.00  0.00     0.031 C 
ATOM     36  C   UNL A   1      49.623  27.953  26.128  1.00  0.00     0.031 A 
BRANCH  23  37
ATOM     37  C   UNL A   1      46.782  33.189  27.906  1.00  0.00    -0.014 A 
ATOM     38  C   UNL A   1      46.989  34.200  26.942  1.00  0.00     0.010 A 
ATOM     39  C   UNL A   1      46.786  33.524  29.267  1.00  0.00     0.010 A 
ATOM     40  C   UNL A   1      47.314  35.497  27.338  1.00  0.00     0.020 A 
ATOM     41  C   UNL A   1      47.078  34.831  29.665  1.00  0.00     0.020 A 
ATOM     42  C   UNL A   1      47.380  35.797  28.700  1.00  0.00     0.054 A 
BRANCH  42  43
ATOM     43  S   UNL A   1      47.910  37.458  29.195  1.00  0.00     0.124 S 
ATOM     44  O   UNL A   1      48.889  37.779  28.159  1.00  0.00    -0.237 OA
ATOM     45  O   UNL A   1      46.667  38.222  29.141  1.00  0.00    -0.237 OA
ATOM     46  O   UNL A   1      48.461  37.260  30.533  1.00  0.00    -0.744 OA
ENDBRANCH  42  43
ENDBRANCH  23  37
BRANCH  24  47
ATOM     47  C   UNL A   1      45.470  23.599  25.403  1.00  0.00    -0.014 A 
ATOM     48  C   UNL A   1      44.787  23.350  24.200  1.00  0.00     0.010 A 
ATOM     49  C   UNL A   1      45.903  22.499  26.171  1.00  0.00     0.010 A 
ATOM     50  C   UNL A   1      44.527  22.038  23.781  1.00  0.00     0.020 A 
ATOM     51  C   UNL A   1      45.653  21.183  25.751  1.00  0.00     0.020 A 
ATOM     52  C   UNL A   1      44.963  20.961  24.559  1.00  0.00     0.054 A 
BRANCH  52  53
ATOM     53  S   UNL A   1      44.627  19.274  23.969  1.00  0.00     0.124 S 
ATOM     54  O   UNL A   1      45.803  18.544  24.432  1.00  0.00    -0.237 OA
ATOM     55  O   UNL A   1      43.376  18.950  24.652  1.00  0.00    -0.237 OA
ATOM     56  O   UNL A   1      44.519  19.426  22.520  1.00  0.00    -0.744 OA
ENDBRANCH  52  53
ENDBRANCH  24  47
BRANCH  36  57
ATOM     57  C   UNL A   1      51.096  27.684  26.058  1.00  0.00    -0.014 A 
ATOM     58  C   UNL A   1      51.782  27.092  27.129  1.00  0.00     0.010 A 
ATOM     59  C   UNL A   1      51.755  27.878  24.828  1.00  0.00     0.010 A 
ATOM     60  C   UNL A   1      53.102  26.673  26.962  1.00  0.00     0.020 A 
ATOM     61  C   UNL A   1      53.064  27.435  24.651  1.00  0.00     0.020 A 
ATOM     62  C   UNL A   1      53.727  26.828  25.719  1.00  0.00     0.054 A 
BRANCH  62  63
ATOM     63  S   UNL A   1      55.383  26.130  25.484  1.00  0.00     0.124 S 
ATOM     64  O   UNL A   1      55.751  26.655  24.173  1.00  0.00    -0.237 OA
ATOM     65  O   UNL A   1      56.126  26.683  26.615  1.00  0.00    -0.237 OA
ATOM     66  O   UNL A   1      55.162  24.687  25.539  1.00  0.00    -0.744 OA
ENDBRANCH  62  63
ENDBRANCH  36  57
ENDBRANCH  10  11
ENDBRANCH   3   5
ENDBRANCH   2   3
ENDBRANCH   1   2
BRANCH   1  67
ATOM     67  C   UNL A   1      33.982  29.653  27.442  1.00  0.00     0.274 C 
BRANCH  67  68
ATOM     68  O   UNL A   1      34.245  29.076  26.153  1.00  0.00    -0.462 OA
BRANCH  68  69
ATOM     69  C   UNL A   1      33.168  28.642  25.440  1.00  0.00     0.310 C 
ATOM     70  O   UNL A   1      32.119  29.250  25.396  1.00  0.00    -0.252 OA
BRANCH  69  71
ATOM     71  C   UNL A   1      33.418  27.305  24.711  1.00  0.00     0.115 C 
ATOM     72  C   UNL A   1      34.008  26.244  25.631  1.00  0.00     0.004 C 
ATOM     73  C   UNL A   1      32.080  26.661  24.278  1.00  0.00     0.096 C 
ATOM     74  C   UNL A   1      34.400  24.965  24.876  1.00  0.00     0.005 C 
ATOM     75  C   UNL A   1      32.781  25.798  26.389  1.00  0.00     0.009 C 
ATOM     76  C   UNL A   1      32.048  25.354  25.135  1.00  0.00     0.003 C 
ATOM     77  C   UNL A   1      33.047  24.287  24.642  1.00  0.00     0.005 C 
BRANCH  73  78
ATOM     78  C   UNL A   1      31.854  26.372  22.792  1.00  0.00     0.228 C 
ATOM     79  O   UNL A   1      32.305  25.351  22.264  1.00  0.00    -0.274 OA
ATOM     80  N   UNL A   1      31.054  27.148  22.003  1.00  0.00    -0.326 N 
ATOM     81  H   UNL A   1      31.025  26.905  21.050  1.00  0.00     0.169 HD
BRANCH  80  82
ATOM     82  C   UNL A   1      30.276  28.238  22.375  1.00  0.00     0.041 A 
ATOM     83  C   UNL A   1      30.759  29.531  22.187  1.00  0.00     0.033 A 
ATOM     84  C   UNL A   1      29.008  28.016  22.923  1.00  0.00     0.033 A 
ATOM     85  C   UNL A   1      29.916  30.620  22.426  1.00  0.00     0.088 A 
ATOM     86  C   UNL A   1      28.145  29.092  23.129  1.00  0.00     0.088 A 
ATOM     87  C   UNL A   1      28.597  30.387  22.845  1.00  0.00     0.269 A 
BRANCH  87  88
ATOM     88  N   UNL A   1      27.653  31.504  22.897  1.00  0.00     0.062 N 
ATOM     89  O   UNL A   1      27.660  32.309  21.954  1.00  0.00    -0.258 OA
ATOM     90  O   UNL A   1      26.903  31.580  23.881  1.00  0.00    -0.258 OA
ENDBRANCH  87  88
ENDBRANCH  80  82
ENDBRANCH  73  78
ENDBRANCH  69  71
ENDBRANCH  68  69
ENDBRANCH  67  68
ENDBRANCH   1  67
TORSDOF 17
ENDMDL
