MODEL 1
REMARK VINA RESULT:      -9.9      0.000      0.000
REMARK SMILES CC[C@H](C)C[C@@H](CC)[N@@H+]1CCO[C@H](CC(=O)OCCOC(=O)c2ccc(-c3c4nc(c(-c5ccc(S(=O)(=O)[O-])cc5)c5ccc([nH]5)c(-c5ccc(S(=O)(=O)[O-])cc5)c5nc(c(-c6ccc(S(=O)(=O)[O-])cc6)c6ccc3[nH]6)C=C5)C=C4)cc2)C1
REMARK SMILES IDX 18 1 17 2 15 3 16 4 14 5 13 6 9 7 10 8 83 9 11 11 12 12 6 13
REMARK SMILES IDX 5 14 3 15 4 16 2 17 1 18 7 19 8 20 19 21 20 22 21 23 22 24
REMARK SMILES IDX 23 25 24 26 82 27 25 28 81 29 26 30 27 31 28 32 75 33 29 34
REMARK SMILES IDX 80 35 74 36 76 37 30 38 79 39 73 40 72 41 31 43 61 44 42 45
REMARK SMILES IDX 60 46 43 47 46 48 59 49 77 50 44 51 45 52 58 54 78 55 47 56
REMARK SMILES IDX 32 57 33 58 41 59 34 60 40 61 35 62 36 63 37 64 38 65 39 66
REMARK SMILES IDX 62 67 63 68 71 69 64 70 70 71 65 72 66 73 67 74 68 75 69 76
REMARK SMILES IDX 48 77 49 78 57 79 50 80 56 81 51 82 52 83 53 84 54 85 55 86
REMARK H PARENT 9 10 76 42 46 53
REMARK Flexibility Score: inf
ROOT
ATOM      1  C   UNL A   1      33.994  31.283  27.800  1.00  0.00     0.274 C 
ENDROOT
BRANCH   1   2
ATOM      2  O   UNL A   1      33.599  29.909  27.576  1.00  0.00    -0.462 OA
BRANCH   2   3
ATOM      3  C   UNL A   1      32.484  29.739  26.816  1.00  0.00     0.308 C 
ATOM      4  O   UNL A   1      32.149  30.498  25.913  1.00  0.00    -0.252 OA
BRANCH   3   5
ATOM      5  C   UNL A   1      31.653  28.535  27.227  1.00  0.00     0.160 C 
BRANCH   5   6
ATOM      6  C   UNL A   1      32.119  27.161  26.724  1.00  0.00     0.184 C 
ATOM      7  N   UNL A   1      32.021  26.825  24.160  1.00  0.00    -0.328 N 
ATOM      8  C   UNL A   1      31.078  25.748  24.414  1.00  0.00     0.291 C 
ATOM      9  C   UNL A   1      32.839  27.063  25.351  1.00  0.00     0.295 C 
ATOM     10  H   UNL A   1      32.598  26.449  23.408  1.00  0.00     0.348 HD
ATOM     11  C   UNL A   1      30.268  25.942  25.699  1.00  0.00     0.222 C 
ATOM     12  O   UNL A   1      31.067  26.177  26.868  1.00  0.00    -0.366 OA
BRANCH   7  13
ATOM     13  C   UNL A   1      31.674  27.990  23.334  1.00  0.00     0.184 C 
BRANCH  13  14
ATOM     14  C   UNL A   1      30.424  28.773  23.834  1.00  0.00     0.068 C 
BRANCH  14  15
ATOM     15  C   UNL A   1      29.215  28.828  22.850  1.00  0.00    -0.009 C 
ATOM     16  C   UNL A   1      28.005  27.951  23.215  1.00  0.00     0.008 C 
BRANCH  15  17
ATOM     17  C   UNL A   1      28.775  30.288  22.623  1.00  0.00    -0.000 C 
ATOM     18  C   UNL A   1      28.154  30.505  21.246  1.00  0.00     0.004 C 
ENDBRANCH  15  17
ENDBRANCH  14  15
ENDBRANCH  13  14
BRANCH  13  19
ATOM     19  C   UNL A   1      32.802  28.906  22.830  1.00  0.00     0.061 C 
ATOM     20  C   UNL A   1      34.012  28.269  22.182  1.00  0.00     0.010 C 
ENDBRANCH  13  19
ENDBRANCH   7  13
ENDBRANCH   5   6
ENDBRANCH   3   5
ENDBRANCH   2   3
ENDBRANCH   1   2
BRANCH   1  21
ATOM     21  C   UNL A   1      35.324  31.316  28.563  1.00  0.00     0.275 C 
BRANCH  21  22
ATOM     22  O   UNL A   1      35.787  29.966  28.766  1.00  0.00    -0.458 OA
BRANCH  22  23
ATOM     23  C   UNL A   1      36.498  29.730  29.899  1.00  0.00     0.338 C 
ATOM     24  O   UNL A   1      36.025  29.650  31.030  1.00  0.00    -0.246 OA
BRANCH  23  25
ATOM     25  C   UNL A   1      37.949  29.576  29.587  1.00  0.00     0.060 A 
ATOM     26  C   UNL A   1      38.398  29.680  28.276  1.00  0.00     0.016 A 
ATOM     27  C   UNL A   1      38.890  29.286  30.586  1.00  0.00     0.016 A 
ATOM     28  C   UNL A   1      39.728  29.410  27.957  1.00  0.00     0.010 A 
ATOM     29  C   UNL A   1      40.255  29.103  30.264  1.00  0.00     0.010 A 
ATOM     30  C   UNL A   1      40.692  29.145  28.932  1.00  0.00    -0.014 A 
BRANCH  30  31
ATOM     31  C   UNL A   1      42.092  28.840  28.488  1.00  0.00     0.031 A 
ATOM     32  C   UNL A   1      42.422  27.490  27.908  1.00  0.00     0.074 A 
ATOM     33  C   UNL A   1      43.048  29.795  28.436  1.00  0.00     0.049 A 
ATOM     34  N   UNL A   1      43.591  26.995  27.585  1.00  0.00    -0.248 NA
ATOM     35  C   UNL A   1      41.293  26.584  27.646  1.00  0.00     0.031 C 
ATOM     36  C   UNL A   1      42.868  31.199  28.809  1.00  0.00     0.029 A 
ATOM     37  N   UNL A   1      44.344  29.752  27.970  1.00  0.00    -0.354 N 
ATOM     38  C   UNL A   1      43.351  25.688  27.182  1.00  0.00     0.074 A 
ATOM     39  C   UNL A   1      41.918  25.488  27.238  1.00  0.00     0.031 C 
ATOM     40  C   UNL A   1      43.950  31.900  28.435  1.00  0.00     0.029 A 
ATOM     41  C   UNL A   1      44.964  30.983  27.921  1.00  0.00     0.049 A 
ATOM     42  H   UNL A   1      44.789  28.917  27.697  1.00  0.00     0.167 HD
ATOM     43  C   UNL A   1      44.247  24.728  26.847  1.00  0.00     0.031 A 
ATOM     44  C   UNL A   1      46.211  31.336  27.541  1.00  0.00     0.031 A 
ATOM     45  C   UNL A   1      45.669  24.935  26.757  1.00  0.00     0.049 A 
ATOM     46  C   UNL A   1      47.205  30.256  27.203  1.00  0.00     0.074 A 
ATOM     47  C   UNL A   1      46.669  23.998  26.560  1.00  0.00     0.029 A 
ATOM     48  N   UNL A   1      46.290  26.171  26.828  1.00  0.00    -0.354 N 
ATOM     49  N   UNL A   1      47.005  28.970  27.044  1.00  0.00    -0.248 NA
ATOM     50  C   UNL A   1      48.612  30.667  27.065  1.00  0.00     0.031 C 
ATOM     51  C   UNL A   1      47.900  24.665  26.552  1.00  0.00     0.029 A 
ATOM     52  C   UNL A   1      47.660  26.022  26.692  1.00  0.00     0.049 A 
ATOM     53  H   UNL A   1      45.826  27.029  26.957  1.00  0.00     0.167 HD
ATOM     54  C   UNL A   1      48.264  28.415  26.831  1.00  0.00     0.074 A 
ATOM     55  C   UNL A   1      49.210  29.510  26.814  1.00  0.00     0.031 C 
ATOM     56  C   UNL A   1      48.604  27.110  26.699  1.00  0.00     0.031 A 
BRANCH  43  57
ATOM     57  C   UNL A   1      43.717  23.329  26.711  1.00  0.00    -0.014 A 
ATOM     58  C   UNL A   1      43.156  22.624  27.789  1.00  0.00     0.010 A 
ATOM     59  C   UNL A   1      43.807  22.706  25.452  1.00  0.00     0.010 A 
ATOM     60  C   UNL A   1      42.740  21.299  27.617  1.00  0.00     0.020 A 
ATOM     61  C   UNL A   1      43.372  21.393  25.271  1.00  0.00     0.020 A 
ATOM     62  C   UNL A   1      42.863  20.690  26.362  1.00  0.00     0.054 A 
BRANCH  62  63
ATOM     63  S   UNL A   1      42.342  18.964  26.165  1.00  0.00     0.124 S 
ATOM     64  O   UNL A   1      40.967  19.118  25.696  1.00  0.00    -0.237 OA
ATOM     65  O   UNL A   1      43.289  18.451  25.179  1.00  0.00    -0.237 OA
ATOM     66  O   UNL A   1      42.482  18.405  27.508  1.00  0.00    -0.744 OA
ENDBRANCH  62  63
ENDBRANCH  43  57
BRANCH  44  67
ATOM     67  C   UNL A   1      46.638  32.768  27.542  1.00  0.00    -0.014 A 
ATOM     68  C   UNL A   1      47.100  33.373  28.725  1.00  0.00     0.010 A 
ATOM     69  C   UNL A   1      46.562  33.542  26.370  1.00  0.00     0.010 A 
ATOM     70  C   UNL A   1      47.476  34.722  28.735  1.00  0.00     0.020 A 
ATOM     71  C   UNL A   1      46.970  34.879  26.367  1.00  0.00     0.020 A 
ATOM     72  C   UNL A   1      47.414  35.465  27.554  1.00  0.00     0.054 A 
BRANCH  72  73
ATOM     73  S   UNL A   1      47.970  37.193  27.555  1.00  0.00     0.124 S 
ATOM     74  O   UNL A   1      47.249  37.744  26.412  1.00  0.00    -0.237 OA
ATOM     75  O   UNL A   1      47.540  37.670  28.867  1.00  0.00    -0.237 OA
ATOM     76  O   UNL A   1      49.418  37.078  27.389  1.00  0.00    -0.744 OA
ENDBRANCH  72  73
ENDBRANCH  44  67
BRANCH  56  77
ATOM     77  C   UNL A   1      50.067  26.782  26.562  1.00  0.00    -0.014 A 
ATOM     78  C   UNL A   1      50.856  26.543  27.702  1.00  0.00     0.010 A 
ATOM     79  C   UNL A   1      50.648  26.651  25.288  1.00  0.00     0.010 A 
ATOM     80  C   UNL A   1      52.206  26.202  27.572  1.00  0.00     0.020 A 
ATOM     81  C   UNL A   1      51.993  26.291  25.153  1.00  0.00     0.020 A 
ATOM     82  C   UNL A   1      52.767  26.080  26.298  1.00  0.00     0.054 A 
BRANCH  82  83
ATOM     83  S   UNL A   1      54.508  25.592  26.152  1.00  0.00     0.124 S 
ATOM     84  O   UNL A   1      54.789  25.066  27.486  1.00  0.00    -0.237 OA
ATOM     85  O   UNL A   1      54.477  24.600  25.080  1.00  0.00    -0.237 OA
ATOM     86  O   UNL A   1      55.191  26.839  25.818  1.00  0.00    -0.744 OA
ENDBRANCH  82  83
ENDBRANCH  56  77
ENDBRANCH  30  31
ENDBRANCH  23  25
ENDBRANCH  22  23
ENDBRANCH  21  22
ENDBRANCH   1  21
TORSDOF 20
ENDMDL
MODEL 2
REMARK VINA RESULT:      -9.7      6.882     11.585
REMARK SMILES CC[C@H](C)C[C@@H](CC)[N@@H+]1CCO[C@H](CC(=O)OCCOC(=O)c2ccc(-c3c4nc(c(-c5ccc(S(=O)(=O)[O-])cc5)c5ccc([nH]5)c(-c5ccc(S(=O)(=O)[O-])cc5)c5nc(c(-c6ccc(S(=O)(=O)[O-])cc6)c6ccc3[nH]6)C=C5)C=C4)cc2)C1
REMARK SMILES IDX 18 1 17 2 15 3 16 4 14 5 13 6 9 7 10 8 83 9 11 11 12 12 6 13
REMARK SMILES IDX 5 14 3 15 4 16 2 17 1 18 7 19 8 20 19 21 20 22 21 23 22 24
REMARK SMILES IDX 23 25 24 26 82 27 25 28 81 29 26 30 27 31 28 32 75 33 29 34
REMARK SMILES IDX 80 35 74 36 76 37 30 38 79 39 73 40 72 41 31 43 61 44 42 45
REMARK SMILES IDX 60 46 43 47 46 48 59 49 77 50 44 51 45 52 58 54 78 55 47 56
REMARK SMILES IDX 32 57 33 58 41 59 34 60 40 61 35 62 36 63 37 64 38 65 39 66
REMARK SMILES IDX 62 67 63 68 71 69 64 70 70 71 65 72 66 73 67 74 68 75 69 76
REMARK SMILES IDX 48 77 49 78 57 79 50 80 56 81 51 82 52 83 53 84 54 85 55 86
REMARK H PARENT 9 10 76 42 46 53
REMARK Flexibility Score: inf
ROOT
ATOM      1  C   UNL A   1      37.925  21.802  25.308  1.00  0.00     0.274 C 
ENDROOT
BRANCH   1   2
ATOM      2  O   UNL A   1      37.081  22.956  25.089  1.00  0.00    -0.462 OA
BRANCH   2   3
ATOM      3  C   UNL A   1      35.779  22.803  25.448  1.00  0.00     0.308 C 
ATOM      4  O   UNL A   1      35.399  22.059  26.347  1.00  0.00    -0.252 OA
BRANCH   3   5
ATOM      5  C   UNL A   1      34.818  23.607  24.589  1.00  0.00     0.160 C 
BRANCH   5   6
ATOM      6  C   UNL A   1      33.786  22.819  23.770  1.00  0.00     0.184 C 
ATOM      7  N   UNL A   1      31.996  24.249  22.568  1.00  0.00    -0.328 N 
ATOM      8  C   UNL A   1      31.007  23.549  23.372  1.00  0.00     0.291 C 
ATOM      9  C   UNL A   1      33.216  23.446  22.467  1.00  0.00     0.295 C 
ATOM     10  H   UNL A   1      31.542  24.313  21.656  1.00  0.00     0.348 HD
ATOM     11  C   UNL A   1      31.551  23.071  24.721  1.00  0.00     0.222 C 
ATOM     12  O   UNL A   1      32.748  22.286  24.627  1.00  0.00    -0.366 OA
BRANCH   7  13
ATOM     13  C   UNL A   1      32.149  25.710  22.612  1.00  0.00     0.184 C 
BRANCH  13  14
ATOM     14  C   UNL A   1      31.327  26.399  23.742  1.00  0.00     0.068 C 
BRANCH  14  15
ATOM     15  C   UNL A   1      30.023  27.126  23.290  1.00  0.00    -0.009 C 
ATOM     16  C   UNL A   1      28.711  26.603  23.899  1.00  0.00     0.008 C 
BRANCH  15  17
ATOM     17  C   UNL A   1      30.153  28.647  23.513  1.00  0.00    -0.000 C 
ATOM     18  C   UNL A   1      30.229  29.425  22.203  1.00  0.00     0.004 C 
ENDBRANCH  15  17
ENDBRANCH  14  15
ENDBRANCH  13  14
BRANCH  13  19
ATOM     19  C   UNL A   1      33.550  26.316  22.424  1.00  0.00     0.061 C 
ATOM     20  C   UNL A   1      33.667  27.812  22.227  1.00  0.00     0.010 C 
ENDBRANCH  13  19
ENDBRANCH   7  13
ENDBRANCH   5   6
ENDBRANCH   3   5
ENDBRANCH   2   3
ENDBRANCH   1   2
BRANCH   1  21
ATOM     21  C   UNL A   1      39.171  22.221  26.099  1.00  0.00     0.275 C 
BRANCH  21  22
ATOM     22  O   UNL A   1      39.081  23.624  26.417  1.00  0.00    -0.458 OA
BRANCH  22  23
ATOM     23  C   UNL A   1      40.250  24.268  26.671  1.00  0.00     0.338 C 
ATOM     24  O   UNL A   1      41.330  24.012  26.146  1.00  0.00    -0.246 OA
BRANCH  23  25
ATOM     25  C   UNL A   1      40.047  25.345  27.684  1.00  0.00     0.060 A 
ATOM     26  C   UNL A   1      40.811  26.506  27.633  1.00  0.00     0.016 A 
ATOM     27  C   UNL A   1      39.121  25.210  28.728  1.00  0.00     0.016 A 
ATOM     28  C   UNL A   1      40.721  27.459  28.647  1.00  0.00     0.010 A 
ATOM     29  C   UNL A   1      38.974  26.224  29.702  1.00  0.00     0.010 A 
ATOM     30  C   UNL A   1      39.791  27.364  29.683  1.00  0.00    -0.014 A 
BRANCH  30  31
ATOM     31  C   UNL A   1      39.790  28.426  30.742  1.00  0.00     0.031 A 
ATOM     32  C   UNL A   1      40.935  28.522  31.716  1.00  0.00     0.074 A 
ATOM     33  C   UNL A   1      38.869  29.417  30.757  1.00  0.00     0.049 A 
ATOM     34  N   UNL A   1      41.056  29.287  32.773  1.00  0.00    -0.248 NA
ATOM     35  C   UNL A   1      42.098  27.657  31.464  1.00  0.00     0.031 C 
ATOM     36  C   UNL A   1      37.777  29.576  29.797  1.00  0.00     0.029 A 
ATOM     37  N   UNL A   1      38.751  30.529  31.563  1.00  0.00    -0.354 N 
ATOM     38  C   UNL A   1      42.256  28.922  33.369  1.00  0.00     0.074 A 
ATOM     39  C   UNL A   1      42.857  27.915  32.519  1.00  0.00     0.031 C 
ATOM     40  C   UNL A   1      37.194  30.771  29.983  1.00  0.00     0.029 A 
ATOM     41  C   UNL A   1      37.771  31.411  31.162  1.00  0.00     0.049 A 
ATOM     42  H   UNL A   1      39.315  30.680  32.356  1.00  0.00     0.167 HD
ATOM     43  C   UNL A   1      42.782  29.350  34.542  1.00  0.00     0.031 A 
ATOM     44  C   UNL A   1      37.357  32.582  31.692  1.00  0.00     0.031 A 
ATOM     45  C   UNL A   1      42.204  30.376  35.369  1.00  0.00     0.049 A 
ATOM     46  C   UNL A   1      37.927  33.028  33.014  1.00  0.00     0.074 A 
ATOM     47  C   UNL A   1      42.585  30.783  36.637  1.00  0.00     0.029 A 
ATOM     48  N   UNL A   1      41.139  31.179  34.997  1.00  0.00    -0.354 N 
ATOM     49  N   UNL A   1      38.935  32.529  33.688  1.00  0.00    -0.248 NA
ATOM     50  C   UNL A   1      37.255  34.154  33.681  1.00  0.00     0.031 C 
ATOM     51  C   UNL A   1      41.722  31.807  37.047  1.00  0.00     0.029 A 
ATOM     52  C   UNL A   1      40.839  32.071  36.013  1.00  0.00     0.049 A 
ATOM     53  H   UNL A   1      40.664  31.124  34.137  1.00  0.00     0.167 HD
ATOM     54  C   UNL A   1      38.988  33.251  34.877  1.00  0.00     0.074 A 
ATOM     55  C   UNL A   1      37.957  34.265  34.801  1.00  0.00     0.031 C 
ATOM     56  C   UNL A   1      39.797  33.064  35.948  1.00  0.00     0.031 A 
BRANCH  43  57
ATOM     57  C   UNL A   1      43.964  28.586  35.069  1.00  0.00    -0.014 A 
ATOM     58  C   UNL A   1      45.289  28.994  34.844  1.00  0.00     0.010 A 
ATOM     59  C   UNL A   1      43.719  27.410  35.801  1.00  0.00     0.010 A 
ATOM     60  C   UNL A   1      46.350  28.206  35.303  1.00  0.00     0.020 A 
ATOM     61  C   UNL A   1      44.775  26.634  36.280  1.00  0.00     0.020 A 
ATOM     62  C   UNL A   1      46.085  27.025  36.007  1.00  0.00     0.054 A 
BRANCH  62  63
ATOM     63  S   UNL A   1      47.473  26.004  36.572  1.00  0.00     0.124 S 
ATOM     64  O   UNL A   1      47.694  26.518  37.921  1.00  0.00    -0.237 OA
ATOM     65  O   UNL A   1      46.930  24.650  36.496  1.00  0.00    -0.237 OA
ATOM     66  O   UNL A   1      48.534  26.301  35.612  1.00  0.00    -0.744 OA
ENDBRANCH  62  63
ENDBRANCH  43  57
BRANCH  44  67
ATOM     67  C   UNL A   1      36.282  33.386  31.036  1.00  0.00    -0.014 A 
ATOM     68  C   UNL A   1      35.076  33.648  31.710  1.00  0.00     0.010 A 
ATOM     69  C   UNL A   1      36.445  33.872  29.726  1.00  0.00     0.010 A 
ATOM     70  C   UNL A   1      34.056  34.379  31.088  1.00  0.00     0.020 A 
ATOM     71  C   UNL A   1      35.444  34.632  29.114  1.00  0.00     0.020 A 
ATOM     72  C   UNL A   1      34.249  34.871  29.795  1.00  0.00     0.054 A 
BRANCH  72  73
ATOM     73  S   UNL A   1      32.954  35.878  29.019  1.00  0.00     0.124 S 
ATOM     74  O   UNL A   1      33.729  36.961  28.422  1.00  0.00    -0.237 OA
ATOM     75  O   UNL A   1      32.339  34.945  28.079  1.00  0.00    -0.237 OA
ATOM     76  O   UNL A   1      32.106  36.260  30.148  1.00  0.00    -0.744 OA
ENDBRANCH  72  73
ENDBRANCH  44  67
BRANCH  56  77
ATOM     77  C   UNL A   1      39.581  33.947  37.148  1.00  0.00    -0.014 A 
ATOM     78  C   UNL A   1      38.883  33.467  38.272  1.00  0.00     0.010 A 
ATOM     79  C   UNL A   1      40.127  35.242  37.183  1.00  0.00     0.010 A 
ATOM     80  C   UNL A   1      38.714  34.275  39.400  1.00  0.00     0.020 A 
ATOM     81  C   UNL A   1      39.978  36.047  38.317  1.00  0.00     0.020 A 
ATOM     82  C   UNL A   1      39.261  35.562  39.415  1.00  0.00     0.054 A 
BRANCH  82  83
ATOM     83  S   UNL A   1      39.070  36.575  40.907  1.00  0.00     0.124 S 
ATOM     84  O   UNL A   1      38.655  37.861  40.352  1.00  0.00    -0.237 OA
ATOM     85  O   UNL A   1      38.044  35.855  41.658  1.00  0.00    -0.237 OA
ATOM     86  O   UNL A   1      40.400  36.558  41.511  1.00  0.00    -0.744 OA
ENDBRANCH  82  83
ENDBRANCH  56  77
ENDBRANCH  30  31
ENDBRANCH  23  25
ENDBRANCH  22  23
ENDBRANCH  21  22
ENDBRANCH   1  21
TORSDOF 20
ENDMDL
MODEL 3
REMARK VINA RESULT:      -9.6      3.619      8.814
REMARK SMILES CC[C@H](C)C[C@@H](CC)[N@@H+]1CCO[C@H](CC(=O)OCCOC(=O)c2ccc(-c3c4nc(c(-c5ccc(S(=O)(=O)[O-])cc5)c5ccc([nH]5)c(-c5ccc(S(=O)(=O)[O-])cc5)c5nc(c(-c6ccc(S(=O)(=O)[O-])cc6)c6ccc3[nH]6)C=C5)C=C4)cc2)C1
REMARK SMILES IDX 18 1 17 2 15 3 16 4 14 5 13 6 9 7 10 8 83 9 11 11 12 12 6 13
REMARK SMILES IDX 5 14 3 15 4 16 2 17 1 18 7 19 8 20 19 21 20 22 21 23 22 24
REMARK SMILES IDX 23 25 24 26 82 27 25 28 81 29 26 30 27 31 28 32 75 33 29 34
REMARK SMILES IDX 80 35 74 36 76 37 30 38 79 39 73 40 72 41 31 43 61 44 42 45
REMARK SMILES IDX 60 46 43 47 46 48 59 49 77 50 44 51 45 52 58 54 78 55 47 56
REMARK SMILES IDX 32 57 33 58 41 59 34 60 40 61 35 62 36 63 37 64 38 65 39 66
REMARK SMILES IDX 62 67 63 68 71 69 64 70 70 71 65 72 66 73 67 74 68 75 69 76
REMARK SMILES IDX 48 77 49 78 57 79 50 80 56 81 51 82 52 83 53 84 54 85 55 86
REMARK H PARENT 9 10 76 42 46 53
REMARK Flexibility Score: inf
ROOT
ATOM      1  C   UNL A   1      35.773  21.216  25.077  1.00  0.00     0.274 C 
ENDROOT
BRANCH   1   2
ATOM      2  O   UNL A   1      35.075  19.975  24.819  1.00  0.00    -0.462 OA
BRANCH   2   3
ATOM      3  C   UNL A   1      33.725  20.080  24.697  1.00  0.00     0.308 C 
ATOM      4  O   UNL A   1      32.948  19.144  24.861  1.00  0.00    -0.252 OA
BRANCH   3   5
ATOM      5  C   UNL A   1      33.262  21.466  24.283  1.00  0.00     0.160 C 
BRANCH   5   6
ATOM      6  C   UNL A   1      31.920  21.952  24.849  1.00  0.00     0.184 C 
ATOM      7  N   UNL A   1      31.645  24.521  24.999  1.00  0.00    -0.328 N 
ATOM      8  C   UNL A   1      31.506  24.345  26.436  1.00  0.00     0.291 C 
ATOM      9  C   UNL A   1      31.307  23.274  24.309  1.00  0.00     0.295 C 
ATOM     10  H   UNL A   1      30.949  25.237  24.791  1.00  0.00     0.348 HD
ATOM     11  C   UNL A   1      32.247  23.116  26.970  1.00  0.00     0.222 C 
ATOM     12  O   UNL A   1      31.920  21.893  26.295  1.00  0.00    -0.366 OA
BRANCH   7  13
ATOM     13  C   UNL A   1      32.703  25.355  24.412  1.00  0.00     0.184 C 
BRANCH  13  14
ATOM     14  C   UNL A   1      32.173  26.559  23.579  1.00  0.00     0.068 C 
BRANCH  14  15
ATOM     15  C   UNL A   1      30.999  27.365  24.216  1.00  0.00    -0.009 C 
ATOM     16  C   UNL A   1      31.398  28.571  25.083  1.00  0.00     0.008 C 
BRANCH  15  17
ATOM     17  C   UNL A   1      29.990  27.791  23.131  1.00  0.00    -0.000 C 
ATOM     18  C   UNL A   1      29.626  29.269  23.218  1.00  0.00     0.004 C 
ENDBRANCH  15  17
ENDBRANCH  14  15
ENDBRANCH  13  14
BRANCH  13  19
ATOM     19  C   UNL A   1      33.934  25.702  25.266  1.00  0.00     0.061 C 
ATOM     20  C   UNL A   1      35.116  24.757  25.244  1.00  0.00     0.010 C 
ENDBRANCH  13  19
ENDBRANCH   7  13
ENDBRANCH   5   6
ENDBRANCH   3   5
ENDBRANCH   2   3
ENDBRANCH   1   2
BRANCH   1  21
ATOM     21  C   UNL A   1      37.285  20.988  24.952  1.00  0.00     0.275 C 
BRANCH  21  22
ATOM     22  O   UNL A   1      37.982  22.107  25.537  1.00  0.00    -0.458 OA
BRANCH  22  23
ATOM     23  C   UNL A   1      39.180  21.841  26.120  1.00  0.00     0.338 C 
ATOM     24  O   UNL A   1      39.740  20.748  26.125  1.00  0.00    -0.246 OA
BRANCH  23  25
ATOM     25  C   UNL A   1      39.737  23.068  26.761  1.00  0.00     0.060 A 
ATOM     26  C   UNL A   1      39.284  24.325  26.377  1.00  0.00     0.016 A 
ATOM     27  C   UNL A   1      40.748  22.998  27.730  1.00  0.00     0.016 A 
ATOM     28  C   UNL A   1      39.888  25.479  26.875  1.00  0.00     0.010 A 
ATOM     29  C   UNL A   1      41.291  24.175  28.295  1.00  0.00     0.010 A 
ATOM     30  C   UNL A   1      40.877  25.441  27.858  1.00  0.00    -0.014 A 
BRANCH  30  31
ATOM     31  C   UNL A   1      41.485  26.736  28.310  1.00  0.00     0.031 A 
ATOM     32  C   UNL A   1      42.922  27.049  27.986  1.00  0.00     0.074 A 
ATOM     33  C   UNL A   1      40.739  27.719  28.865  1.00  0.00     0.049 A 
ATOM     34  N   UNL A   1      43.660  28.052  28.393  1.00  0.00    -0.248 NA
ATOM     35  C   UNL A   1      43.617  26.123  27.078  1.00  0.00     0.031 C 
ATOM     36  C   UNL A   1      39.298  27.655  29.112  1.00  0.00     0.029 A 
ATOM     37  N   UNL A   1      41.073  29.000  29.248  1.00  0.00    -0.354 N 
ATOM     38  C   UNL A   1      44.929  27.823  27.879  1.00  0.00     0.074 A 
ATOM     39  C   UNL A   1      44.845  26.621  27.075  1.00  0.00     0.031 C 
ATOM     40  C   UNL A   1      38.856  28.871  29.471  1.00  0.00     0.029 A 
ATOM     41  C   UNL A   1      39.994  29.774  29.617  1.00  0.00     0.049 A 
ATOM     42  H   UNL A   1      42.000  29.333  29.258  1.00  0.00     0.167 HD
ATOM     43  C   UNL A   1      46.070  28.520  28.099  1.00  0.00     0.031 A 
ATOM     44  C   UNL A   1      39.923  31.050  30.055  1.00  0.00     0.031 A 
ATOM     45  C   UNL A   1      46.147  29.734  28.869  1.00  0.00     0.049 A 
ATOM     46  C   UNL A   1      41.200  31.801  30.327  1.00  0.00     0.074 A 
ATOM     47  C   UNL A   1      47.272  30.438  29.263  1.00  0.00     0.029 A 
ATOM     48  N   UNL A   1      45.052  30.441  29.336  1.00  0.00    -0.354 N 
ATOM     49  N   UNL A   1      42.433  31.466  30.033  1.00  0.00    -0.248 NA
ATOM     50  C   UNL A   1      41.080  33.074  31.056  1.00  0.00     0.031 C 
ATOM     51  C   UNL A   1      46.857  31.552  30.004  1.00  0.00     0.029 A 
ATOM     52  C   UNL A   1      45.472  31.567  30.025  1.00  0.00     0.049 A 
ATOM     53  H   UNL A   1      44.112  30.182  29.199  1.00  0.00     0.167 HD
ATOM     54  C   UNL A   1      43.236  32.463  30.580  1.00  0.00     0.074 A 
ATOM     55  C   UNL A   1      42.348  33.447  31.162  1.00  0.00     0.031 C 
ATOM     56  C   UNL A   1      44.589  32.534  30.625  1.00  0.00     0.031 A 
BRANCH  43  57
ATOM     57  C   UNL A   1      47.348  27.888  27.627  1.00  0.00    -0.014 A 
ATOM     58  C   UNL A   1      48.059  26.953  28.396  1.00  0.00     0.010 A 
ATOM     59  C   UNL A   1      47.850  28.271  26.368  1.00  0.00     0.010 A 
ATOM     60  C   UNL A   1      49.279  26.449  27.931  1.00  0.00     0.020 A 
ATOM     61  C   UNL A   1      49.054  27.753  25.892  1.00  0.00     0.020 A 
ATOM     62  C   UNL A   1      49.773  26.862  26.688  1.00  0.00     0.054 A 
BRANCH  62  63
ATOM     63  S   UNL A   1      51.369  26.217  26.115  1.00  0.00     0.124 S 
ATOM     64  O   UNL A   1      51.343  24.852  26.633  1.00  0.00    -0.237 OA
ATOM     65  O   UNL A   1      51.264  26.341  24.663  1.00  0.00    -0.237 OA
ATOM     66  O   UNL A   1      52.346  27.103  26.743  1.00  0.00    -0.744 OA
ENDBRANCH  62  63
ENDBRANCH  43  57
BRANCH  44  67
ATOM     67  C   UNL A   1      38.606  31.686  30.359  1.00  0.00    -0.014 A 
ATOM     68  C   UNL A   1      38.002  31.508  31.617  1.00  0.00     0.010 A 
ATOM     69  C   UNL A   1      37.934  32.450  29.387  1.00  0.00     0.010 A 
ATOM     70  C   UNL A   1      36.755  32.081  31.896  1.00  0.00     0.020 A 
ATOM     71  C   UNL A   1      36.707  33.054  29.673  1.00  0.00     0.020 A 
ATOM     72  C   UNL A   1      36.118  32.855  30.923  1.00  0.00     0.054 A 
BRANCH  72  73
ATOM     73  S   UNL A   1      34.536  33.656  31.313  1.00  0.00     0.124 S 
ATOM     74  O   UNL A   1      34.972  34.909  31.923  1.00  0.00    -0.237 OA
ATOM     75  O   UNL A   1      33.903  33.776  30.002  1.00  0.00    -0.237 OA
ATOM     76  O   UNL A   1      33.894  32.705  32.220  1.00  0.00    -0.744 OA
ENDBRANCH  72  73
ENDBRANCH  44  67
BRANCH  56  77
ATOM     77  C   UNL A   1      45.202  33.695  31.362  1.00  0.00    -0.014 A 
ATOM     78  C   UNL A   1      45.468  34.905  30.694  1.00  0.00     0.010 A 
ATOM     79  C   UNL A   1      45.460  33.603  32.740  1.00  0.00     0.010 A 
ATOM     80  C   UNL A   1      46.004  35.994  31.387  1.00  0.00     0.020 A 
ATOM     81  C   UNL A   1      45.977  34.697  33.442  1.00  0.00     0.020 A 
ATOM     82  C   UNL A   1      46.257  35.883  32.757  1.00  0.00     0.054 A 
BRANCH  82  83
ATOM     83  S   UNL A   1      46.908  37.325  33.645  1.00  0.00     0.124 S 
ATOM     84  O   UNL A   1      47.116  38.282  32.561  1.00  0.00    -0.237 OA
ATOM     85  O   UNL A   1      45.826  37.651  34.571  1.00  0.00    -0.237 OA
ATOM     86  O   UNL A   1      48.127  36.823  34.275  1.00  0.00    -0.744 OA
ENDBRANCH  82  83
ENDBRANCH  56  77
ENDBRANCH  30  31
ENDBRANCH  23  25
ENDBRANCH  22  23
ENDBRANCH  21  22
ENDBRANCH   1  21
TORSDOF 20
ENDMDL
