MODEL 1
REMARK VINA RESULT:     -10.6      0.000      0.000
REMARK SMILES Cc1cc(F)ccc1CCNc1ccc(Cl)c(C(=O)OCCOC(=O)c2ccc(-c3c4nc(c(-c5ccc(S(=O)(=O)[O-])cc5)c5ccc([nH]5)c(-c5ccc(S(=O)(=O)[O-])cc5)c5nc(c(-c6ccc(S(=O)(=O)[O-])cc6)c6ccc3[nH]6)C=C5)C=C4)cc2)n1
REMARK SMILES IDX 21 1 20 2 18 3 19 4 17 5 12 6 13 7 86 8 14 9 15 10 16 11
REMARK SMILES IDX 11 12 10 14 9 15 8 16 1 17 2 18 3 19 4 20 7 21 5 22 6 23
REMARK SMILES IDX 22 24 23 25 24 26 25 27 26 28 27 29 85 30 28 31 84 32 29 33
REMARK SMILES IDX 30 34 31 35 78 36 32 37 83 38 77 39 79 40 33 41 82 42 76 43
REMARK SMILES IDX 75 44 34 46 64 47 45 48 63 49 46 50 49 51 62 52 80 53 47 54
REMARK SMILES IDX 48 55 61 57 81 58 50 59 35 60 36 61 44 62 37 63 43 64 38 65
REMARK SMILES IDX 39 66 40 67 41 68 42 69 65 70 66 71 74 72 67 73 73 74 68 75
REMARK SMILES IDX 69 76 70 77 71 78 72 79 51 80 52 81 60 82 53 83 59 84 54 85
REMARK SMILES IDX 55 86 56 87 57 88 58 89
REMARK H PARENT 11 13 79 45 49 56
REMARK Flexibility Score: inf
ROOT
ATOM      1  C   UNL A   1      32.064  30.193  25.585  1.00  0.00     0.275 C 
ENDROOT
BRANCH   1   2
ATOM      2  O   UNL A   1      32.811  29.183  24.877  1.00  0.00    -0.457 OA
BRANCH   2   3
ATOM      3  C   UNL A   1      32.365  28.857  23.636  1.00  0.00     0.358 C 
ATOM      4  O   UNL A   1      32.961  29.074  22.591  1.00  0.00    -0.244 OA
BRANCH   3   5
ATOM      5  C   UNL A   1      31.082  28.095  23.707  1.00  0.00     0.169 A 
ATOM      6  C   UNL A   1      30.116  26.107  24.485  1.00  0.00     0.127 A 
ATOM      7  C   UNL A   1      28.885  26.498  23.979  1.00  0.00     0.048 A 
ATOM      8  N   UNL A   1      31.193  26.897  24.358  1.00  0.00    -0.222 NA
ATOM      9  C   UNL A   1      28.775  27.709  23.291  1.00  0.00     0.027 A 
ATOM     10  C   UNL A   1      29.892  28.532  23.142  1.00  0.00     0.074 A 
ATOM     11  Cl  UNL A   1      29.713  29.978  22.222  1.00  0.00    -0.082 Cl
BRANCH   6  12
ATOM     12  N   UNL A   1      30.262  24.999  25.287  1.00  0.00    -0.370 N 
ATOM     13  H   UNL A   1      29.931  25.037  26.213  1.00  0.00     0.162 HD
BRANCH  12  14
ATOM     14  C   UNL A   1      30.888  23.771  24.811  1.00  0.00     0.119 C 
BRANCH  14  15
ATOM     15  C   UNL A   1      31.847  23.172  25.862  1.00  0.00     0.057 C 
BRANCH  15  16
ATOM     16  C   UNL A   1      33.318  23.092  25.477  1.00  0.00    -0.043 A 
ATOM     17  C   UNL A   1      33.124  20.891  24.121  1.00  0.00     0.045 C 
ATOM     18  C   UNL A   1      33.872  22.079  24.658  1.00  0.00    -0.045 A 
ATOM     19  C   UNL A   1      35.225  22.172  24.265  1.00  0.00     0.043 A 
ATOM     20  C   UNL A   1      36.024  23.222  24.689  1.00  0.00     0.123 A 
ATOM     21  C   UNL A   1      34.164  24.143  25.884  1.00  0.00     0.007 A 
ATOM     22  F   UNL A   1      37.303  23.282  24.306  1.00  0.00    -0.207 F 
ATOM     23  C   UNL A   1      35.506  24.200  25.511  1.00  0.00     0.039 A 
ENDBRANCH  15  16
ENDBRANCH  14  15
ENDBRANCH  12  14
ENDBRANCH   6  12
ENDBRANCH   3   5
ENDBRANCH   2   3
ENDBRANCH   1   2
BRANCH   1  24
ATOM     24  C   UNL A   1      32.199  30.006  27.098  1.00  0.00     0.275 C 
BRANCH  24  25
ATOM     25  O   UNL A   1      33.520  29.561  27.453  1.00  0.00    -0.458 OA
BRANCH  25  26
ATOM     26  C   UNL A   1      34.332  30.521  27.952  1.00  0.00     0.338 C 
ATOM     27  O   UNL A   1      34.017  31.635  28.334  1.00  0.00    -0.246 OA
BRANCH  26  28
ATOM     28  C   UNL A   1      35.692  29.982  28.080  1.00  0.00     0.060 A 
ATOM     29  C   UNL A   1      36.080  29.504  29.327  1.00  0.00     0.016 A 
ATOM     30  C   UNL A   1      36.604  30.021  27.024  1.00  0.00     0.016 A 
ATOM     31  C   UNL A   1      37.396  29.114  29.540  1.00  0.00     0.010 A 
ATOM     32  C   UNL A   1      37.926  29.599  27.237  1.00  0.00     0.010 A 
ATOM     33  C   UNL A   1      38.344  29.172  28.509  1.00  0.00    -0.014 A 
BRANCH  33  34
ATOM     34  C   UNL A   1      39.768  28.847  28.811  1.00  0.00     0.031 A 
ATOM     35  C   UNL A   1      40.617  29.811  29.603  1.00  0.00     0.074 A 
ATOM     36  C   UNL A   1      40.271  27.636  28.493  1.00  0.00     0.049 A 
ATOM     37  N   UNL A   1      41.868  29.697  29.974  1.00  0.00    -0.248 NA
ATOM     38  C   UNL A   1      39.968  31.048  30.071  1.00  0.00     0.031 C 
ATOM     39  C   UNL A   1      39.535  26.568  27.814  1.00  0.00     0.029 A 
ATOM     40  N   UNL A   1      41.503  27.082  28.742  1.00  0.00    -0.354 N 
ATOM     41  C   UNL A   1      42.167  30.855  30.684  1.00  0.00     0.074 A 
ATOM     42  C   UNL A   1      40.966  31.663  30.691  1.00  0.00     0.031 C 
ATOM     43  C   UNL A   1      40.308  25.474  27.750  1.00  0.00     0.029 A 
ATOM     44  C   UNL A   1      41.620  25.780  28.310  1.00  0.00     0.049 A 
ATOM     45  H   UNL A   1      42.234  27.569  29.186  1.00  0.00     0.167 HD
ATOM     46  C   UNL A   1      43.331  31.215  31.276  1.00  0.00     0.031 A 
ATOM     47  C   UNL A   1      42.668  24.932  28.333  1.00  0.00     0.031 A 
ATOM     48  C   UNL A   1      44.526  30.410  31.288  1.00  0.00     0.049 A 
ATOM     49  C   UNL A   1      43.977  25.392  28.911  1.00  0.00     0.074 A 
ATOM     50  C   UNL A   1      45.768  30.721  31.817  1.00  0.00     0.029 A 
ATOM     51  N   UNL A   1      44.626  29.132  30.760  1.00  0.00    -0.354 N 
ATOM     52  N   UNL A   1      44.262  26.526  29.505  1.00  0.00    -0.248 NA
ATOM     53  C   UNL A   1      45.113  24.465  28.804  1.00  0.00     0.031 C 
ATOM     54  C   UNL A   1      46.635  29.656  31.556  1.00  0.00     0.029 A 
ATOM     55  C   UNL A   1      45.920  28.658  30.915  1.00  0.00     0.049 A 
ATOM     56  H   UNL A   1      43.889  28.635  30.338  1.00  0.00     0.167 HD
ATOM     57  C   UNL A   1      45.605  26.442  29.855  1.00  0.00     0.074 A 
ATOM     58  C   UNL A   1      46.072  25.141  29.423  1.00  0.00     0.031 C 
ATOM     59  C   UNL A   1      46.381  27.365  30.475  1.00  0.00     0.031 A 
BRANCH  46  60
ATOM     60  C   UNL A   1      43.395  32.581  31.907  1.00  0.00    -0.014 A 
ATOM     61  C   UNL A   1      43.194  32.768  33.286  1.00  0.00     0.010 A 
ATOM     62  C   UNL A   1      43.694  33.696  31.101  1.00  0.00     0.010 A 
ATOM     63  C   UNL A   1      43.253  34.052  33.839  1.00  0.00     0.020 A 
ATOM     64  C   UNL A   1      43.778  34.976  31.654  1.00  0.00     0.020 A 
ATOM     65  C   UNL A   1      43.538  35.148  33.019  1.00  0.00     0.054 A 
BRANCH  65  66
ATOM     66  S   UNL A   1      43.615  36.802  33.761  1.00  0.00     0.124 S 
ATOM     67  O   UNL A   1      44.750  36.671  34.671  1.00  0.00    -0.237 OA
ATOM     68  O   UNL A   1      43.837  37.665  32.603  1.00  0.00    -0.237 OA
ATOM     69  O   UNL A   1      42.314  36.955  34.407  1.00  0.00    -0.744 OA
ENDBRANCH  65  66
ENDBRANCH  46  60
BRANCH  47  70
ATOM     70  C   UNL A   1      42.535  23.574  27.734  1.00  0.00    -0.014 A 
ATOM     71  C   UNL A   1      42.895  23.333  26.397  1.00  0.00     0.010 A 
ATOM     72  C   UNL A   1      42.049  22.506  28.511  1.00  0.00     0.010 A 
ATOM     73  C   UNL A   1      42.764  22.053  25.848  1.00  0.00     0.020 A 
ATOM     74  C   UNL A   1      41.947  21.220  27.977  1.00  0.00     0.020 A 
ATOM     75  C   UNL A   1      42.294  21.004  26.643  1.00  0.00     0.054 A 
BRANCH  75  76
ATOM     76  S   UNL A   1      42.189  19.337  25.934  1.00  0.00     0.124 S 
ATOM     77  O   UNL A   1      43.039  19.455  24.754  1.00  0.00    -0.237 OA
ATOM     78  O   UNL A   1      42.714  18.498  27.010  1.00  0.00    -0.237 OA
ATOM     79  O   UNL A   1      40.762  19.169  25.666  1.00  0.00    -0.744 OA
ENDBRANCH  75  76
ENDBRANCH  47  70
BRANCH  59  80
ATOM     80  C   UNL A   1      47.819  27.003  30.735  1.00  0.00    -0.014 A 
ATOM     81  C   UNL A   1      48.833  27.362  29.830  1.00  0.00     0.010 A 
ATOM     82  C   UNL A   1      48.166  26.342  31.927  1.00  0.00     0.010 A 
ATOM     83  C   UNL A   1      50.167  27.041  30.098  1.00  0.00     0.020 A 
ATOM     84  C   UNL A   1      49.502  26.041  32.210  1.00  0.00     0.020 A 
ATOM     85  C   UNL A   1      50.492  26.380  31.286  1.00  0.00     0.054 A 
BRANCH  85  86
ATOM     86  S   UNL A   1      52.235  26.012  31.634  1.00  0.00     0.124 S 
ATOM     87  O   UNL A   1      52.570  27.032  32.623  1.00  0.00    -0.237 OA
ATOM     88  O   UNL A   1      52.181  24.642  32.138  1.00  0.00    -0.237 OA
ATOM     89  O   UNL A   1      52.888  26.163  30.335  1.00  0.00    -0.744 OA
ENDBRANCH  85  86
ENDBRANCH  59  80
ENDBRANCH  33  34
ENDBRANCH  26  28
ENDBRANCH  25  26
ENDBRANCH  24  25
ENDBRANCH   1  24
TORSDOF 18
ENDMDL
MODEL 2
REMARK VINA RESULT:     -10.5      4.140     10.298
REMARK SMILES Cc1cc(F)ccc1CCNc1ccc(Cl)c(C(=O)OCCOC(=O)c2ccc(-c3c4nc(c(-c5ccc(S(=O)(=O)[O-])cc5)c5ccc([nH]5)c(-c5ccc(S(=O)(=O)[O-])cc5)c5nc(c(-c6ccc(S(=O)(=O)[O-])cc6)c6ccc3[nH]6)C=C5)C=C4)cc2)n1
REMARK SMILES IDX 21 1 20 2 18 3 19 4 17 5 12 6 13 7 86 8 14 9 15 10 16 11
REMARK SMILES IDX 11 12 10 14 9 15 8 16 1 17 2 18 3 19 4 20 7 21 5 22 6 23
REMARK SMILES IDX 22 24 23 25 24 26 25 27 26 28 27 29 85 30 28 31 84 32 29 33
REMARK SMILES IDX 30 34 31 35 78 36 32 37 83 38 77 39 79 40 33 41 82 42 76 43
REMARK SMILES IDX 75 44 34 46 64 47 45 48 63 49 46 50 49 51 62 52 80 53 47 54
REMARK SMILES IDX 48 55 61 57 81 58 50 59 35 60 36 61 44 62 37 63 43 64 38 65
REMARK SMILES IDX 39 66 40 67 41 68 42 69 65 70 66 71 74 72 67 73 73 74 68 75
REMARK SMILES IDX 69 76 70 77 71 78 72 79 51 80 52 81 60 82 53 83 59 84 54 85
REMARK SMILES IDX 55 86 56 87 57 88 58 89
REMARK H PARENT 11 13 79 45 49 56
REMARK Flexibility Score: inf
ROOT
ATOM      1  C   UNL A   1      34.164  33.220  27.965  1.00  0.00     0.275 C 
ENDROOT
BRANCH   1   2
ATOM      2  O   UNL A   1      34.228  33.409  29.393  1.00  0.00    -0.457 OA
BRANCH   2   3
ATOM      3  C   UNL A   1      33.621  34.521  29.885  1.00  0.00     0.358 C 
ATOM      4  O   UNL A   1      32.766  35.174  29.306  1.00  0.00    -0.244 OA
BRANCH   3   5
ATOM      5  C   UNL A   1      34.055  34.796  31.288  1.00  0.00     0.169 A 
ATOM      6  C   UNL A   1      34.976  33.804  33.200  1.00  0.00     0.127 A 
ATOM      7  C   UNL A   1      34.923  35.020  33.867  1.00  0.00     0.048 A 
ATOM      8  N   UNL A   1      34.556  33.698  31.930  1.00  0.00    -0.222 NA
ATOM      9  C   UNL A   1      34.386  36.137  33.220  1.00  0.00     0.027 A 
ATOM     10  C   UNL A   1      33.936  36.033  31.904  1.00  0.00     0.074 A 
ATOM     11  Cl  UNL A   1      33.219  37.425  31.184  1.00  0.00    -0.082 Cl
BRANCH   6  12
ATOM     12  N   UNL A   1      35.614  32.706  33.728  1.00  0.00    -0.370 N 
ATOM     13  H   UNL A   1      35.155  31.835  33.706  1.00  0.00     0.162 HD
BRANCH  12  14
ATOM     14  C   UNL A   1      36.945  32.788  34.318  1.00  0.00     0.119 C 
BRANCH  14  15
ATOM     15  C   UNL A   1      38.024  32.203  33.382  1.00  0.00     0.057 C 
BRANCH  15  16
ATOM     16  C   UNL A   1      38.320  32.987  32.109  1.00  0.00    -0.043 A 
ATOM     17  C   UNL A   1      40.198  34.457  33.126  1.00  0.00     0.045 C 
ATOM     18  C   UNL A   1      39.330  33.972  31.998  1.00  0.00    -0.045 A 
ATOM     19  C   UNL A   1      39.597  34.549  30.737  1.00  0.00     0.043 A 
ATOM     20  C   UNL A   1      38.870  34.185  29.615  1.00  0.00     0.123 A 
ATOM     21  C   UNL A   1      37.606  32.644  30.944  1.00  0.00     0.007 A 
ATOM     22  F   UNL A   1      39.141  34.750  28.434  1.00  0.00    -0.207 F 
ATOM     23  C   UNL A   1      37.864  33.247  29.713  1.00  0.00     0.039 A 
ENDBRANCH  15  16
ENDBRANCH  14  15
ENDBRANCH  12  14
ENDBRANCH   6  12
ENDBRANCH   3   5
ENDBRANCH   2   3
ENDBRANCH   1   2
BRANCH   1  24
ATOM     24  C   UNL A   1      33.889  31.755  27.623  1.00  0.00     0.275 C 
BRANCH  24  25
ATOM     25  O   UNL A   1      34.494  30.873  28.585  1.00  0.00    -0.458 OA
BRANCH  25  26
ATOM     26  C   UNL A   1      35.034  29.745  28.068  1.00  0.00     0.338 C 
ATOM     27  O   UNL A   1      34.506  28.953  27.305  1.00  0.00    -0.246 OA
BRANCH  26  28
ATOM     28  C   UNL A   1      36.440  29.651  28.479  1.00  0.00     0.060 A 
ATOM     29  C   UNL A   1      37.410  29.948  27.528  1.00  0.00     0.016 A 
ATOM     30  C   UNL A   1      36.810  29.196  29.746  1.00  0.00     0.016 A 
ATOM     31  C   UNL A   1      38.752  29.741  27.819  1.00  0.00     0.010 A 
ATOM     32  C   UNL A   1      38.169  29.015  30.045  1.00  0.00     0.010 A 
ATOM     33  C   UNL A   1      39.154  29.254  29.071  1.00  0.00    -0.014 A 
BRANCH  33  34
ATOM     34  C   UNL A   1      40.594  28.944  29.303  1.00  0.00     0.031 A 
ATOM     35  C   UNL A   1      41.162  27.610  28.884  1.00  0.00     0.074 A 
ATOM     36  C   UNL A   1      41.429  29.897  29.766  1.00  0.00     0.049 A 
ATOM     37  N   UNL A   1      42.389  27.165  28.992  1.00  0.00    -0.248 NA
ATOM     38  C   UNL A   1      40.242  26.665  28.229  1.00  0.00     0.031 C 
ATOM     39  C   UNL A   1      41.037  31.264  30.119  1.00  0.00     0.029 A 
ATOM     40  N   UNL A   1      42.787  29.879  29.975  1.00  0.00    -0.354 N 
ATOM     41  C   UNL A   1      42.383  25.883  28.453  1.00  0.00     0.074 A 
ATOM     42  C   UNL A   1      41.027  25.617  28.021  1.00  0.00     0.031 C 
ATOM     43  C   UNL A   1      42.133  31.965  30.445  1.00  0.00     0.029 A 
ATOM     44  C   UNL A   1      43.296  31.084  30.404  1.00  0.00     0.049 A 
ATOM     45  H   UNL A   1      43.343  29.080  29.832  1.00  0.00     0.167 HD
ATOM     46  C   UNL A   1      43.408  25.006  28.329  1.00  0.00     0.031 A 
ATOM     47  C   UNL A   1      44.549  31.440  30.752  1.00  0.00     0.031 A 
ATOM     48  C   UNL A   1      44.763  25.267  28.741  1.00  0.00     0.049 A 
ATOM     49  C   UNL A   1      45.649  30.418  30.694  1.00  0.00     0.074 A 
ATOM     50  C   UNL A   1      45.854  24.415  28.703  1.00  0.00     0.029 A 
ATOM     51  N   UNL A   1      45.217  26.473  29.254  1.00  0.00    -0.354 N 
ATOM     52  N   UNL A   1      45.604  29.182  30.258  1.00  0.00    -0.248 NA
ATOM     53  C   UNL A   1      46.968  30.832  31.194  1.00  0.00     0.031 C 
ATOM     54  C   UNL A   1      46.954  25.084  29.248  1.00  0.00     0.029 A 
ATOM     55  C   UNL A   1      46.563  26.373  29.573  1.00  0.00     0.049 A 
ATOM     56  H   UNL A   1      44.666  27.279  29.373  1.00  0.00     0.167 HD
ATOM     57  C   UNL A   1      46.889  28.677  30.418  1.00  0.00     0.074 A 
ATOM     58  C   UNL A   1      47.695  29.745  30.974  1.00  0.00     0.031 C 
ATOM     59  C   UNL A   1      47.357  27.436  30.134  1.00  0.00     0.031 A 
BRANCH  46  60
ATOM     60  C   UNL A   1      43.088  23.639  27.781  1.00  0.00    -0.014 A 
ATOM     61  C   UNL A   1      42.568  22.619  28.598  1.00  0.00     0.010 A 
ATOM     62  C   UNL A   1      43.285  23.385  26.410  1.00  0.00     0.010 A 
ATOM     63  C   UNL A   1      42.288  21.359  28.059  1.00  0.00     0.020 A 
ATOM     64  C   UNL A   1      42.984  22.136  25.864  1.00  0.00     0.020 A 
ATOM     65  C   UNL A   1      42.503  21.124  26.698  1.00  0.00     0.054 A 
BRANCH  65  66
ATOM     66  S   UNL A   1      42.127  19.483  26.022  1.00  0.00     0.124 S 
ATOM     67  O   UNL A   1      42.947  19.460  24.813  1.00  0.00    -0.237 OA
ATOM     68  O   UNL A   1      42.560  18.586  27.090  1.00  0.00    -0.237 OA
ATOM     69  O   UNL A   1      40.685  19.522  25.793  1.00  0.00    -0.744 OA
ENDBRANCH  65  66
ENDBRANCH  46  60
BRANCH  47  70
ATOM     70  C   UNL A   1      44.816  32.821  31.245  1.00  0.00    -0.014 A 
ATOM     71  C   UNL A   1      45.233  33.836  30.368  1.00  0.00     0.010 A 
ATOM     72  C   UNL A   1      44.646  33.126  32.609  1.00  0.00     0.010 A 
ATOM     73  C   UNL A   1      45.482  35.127  30.846  1.00  0.00     0.020 A 
ATOM     74  C   UNL A   1      44.863  34.421  33.085  1.00  0.00     0.020 A 
ATOM     75  C   UNL A   1      45.292  35.411  32.202  1.00  0.00     0.054 A 
BRANCH  75  76
ATOM     76  S   UNL A   1      45.559  37.106  32.795  1.00  0.00     0.124 S 
ATOM     77  O   UNL A   1      45.724  37.842  31.545  1.00  0.00    -0.237 OA
ATOM     78  O   UNL A   1      44.330  37.383  33.534  1.00  0.00    -0.237 OA
ATOM     79  O   UNL A   1      46.759  36.993  33.620  1.00  0.00    -0.744 OA
ENDBRANCH  75  76
ENDBRANCH  47  70
BRANCH  59  80
ATOM     80  C   UNL A   1      48.811  27.162  30.409  1.00  0.00    -0.014 A 
ATOM     81  C   UNL A   1      49.250  26.795  31.694  1.00  0.00     0.010 A 
ATOM     82  C   UNL A   1      49.743  27.219  29.356  1.00  0.00     0.010 A 
ATOM     83  C   UNL A   1      50.600  26.518  31.927  1.00  0.00     0.020 A 
ATOM     84  C   UNL A   1      51.089  26.918  29.581  1.00  0.00     0.020 A 
ATOM     85  C   UNL A   1      51.512  26.584  30.869  1.00  0.00     0.054 A 
BRANCH  85  86
ATOM     86  S   UNL A   1      53.252  26.177  31.187  1.00  0.00     0.124 S 
ATOM     87  O   UNL A   1      53.149  24.857  31.802  1.00  0.00    -0.237 OA
ATOM     88  O   UNL A   1      53.838  26.203  29.849  1.00  0.00    -0.237 OA
ATOM     89  O   UNL A   1      53.702  27.246  32.076  1.00  0.00    -0.744 OA
ENDBRANCH  85  86
ENDBRANCH  59  80
ENDBRANCH  33  34
ENDBRANCH  26  28
ENDBRANCH  25  26
ENDBRANCH  24  25
ENDBRANCH   1  24
TORSDOF 18
ENDMDL
MODEL 3
REMARK VINA RESULT:     -10.3      4.809     10.046
REMARK SMILES Cc1cc(F)ccc1CCNc1ccc(Cl)c(C(=O)OCCOC(=O)c2ccc(-c3c4nc(c(-c5ccc(S(=O)(=O)[O-])cc5)c5ccc([nH]5)c(-c5ccc(S(=O)(=O)[O-])cc5)c5nc(c(-c6ccc(S(=O)(=O)[O-])cc6)c6ccc3[nH]6)C=C5)C=C4)cc2)n1
REMARK SMILES IDX 21 1 20 2 18 3 19 4 17 5 12 6 13 7 86 8 14 9 15 10 16 11
REMARK SMILES IDX 11 12 10 14 9 15 8 16 1 17 2 18 3 19 4 20 7 21 5 22 6 23
REMARK SMILES IDX 22 24 23 25 24 26 25 27 26 28 27 29 85 30 28 31 84 32 29 33
REMARK SMILES IDX 30 34 31 35 78 36 32 37 83 38 77 39 79 40 33 41 82 42 76 43
REMARK SMILES IDX 75 44 34 46 64 47 45 48 63 49 46 50 49 51 62 52 80 53 47 54
REMARK SMILES IDX 48 55 61 57 81 58 50 59 35 60 36 61 44 62 37 63 43 64 38 65
REMARK SMILES IDX 39 66 40 67 41 68 42 69 65 70 66 71 74 72 67 73 73 74 68 75
REMARK SMILES IDX 69 76 70 77 71 78 72 79 51 80 52 81 60 82 53 83 59 84 54 85
REMARK SMILES IDX 55 86 56 87 57 88 58 89
REMARK H PARENT 11 13 79 45 49 56
REMARK Flexibility Score: inf
ROOT
ATOM      1  C   UNL A   1      41.880  18.915  25.763  1.00  0.00     0.275 C 
ENDROOT
BRANCH   1   2
ATOM      2  O   UNL A   1      41.488  20.291  25.936  1.00  0.00    -0.457 OA
BRANCH   2   3
ATOM      3  C   UNL A   1      40.780  20.583  27.059  1.00  0.00     0.358 C 
ATOM      4  O   UNL A   1      40.780  19.922  28.087  1.00  0.00    -0.244 OA
BRANCH   3   5
ATOM      5  C   UNL A   1      40.067  21.889  26.922  1.00  0.00     0.169 A 
ATOM      6  C   UNL A   1      38.263  22.945  25.863  1.00  0.00     0.127 A 
ATOM      7  C   UNL A   1      38.583  24.140  26.492  1.00  0.00     0.048 A 
ATOM      8  N   UNL A   1      38.989  21.838  26.082  1.00  0.00    -0.222 NA
ATOM      9  C   UNL A   1      39.700  24.200  27.331  1.00  0.00     0.027 A 
ATOM     10  C   UNL A   1      40.467  23.057  27.555  1.00  0.00     0.074 A 
ATOM     11  Cl  UNL A   1      41.873  23.209  28.539  1.00  0.00    -0.082 Cl
BRANCH   6  12
ATOM     12  N   UNL A   1      37.105  22.784  25.139  1.00  0.00    -0.370 N 
ATOM     13  H   UNL A   1      36.569  23.580  24.919  1.00  0.00     0.162 HD
BRANCH  12  14
ATOM     14  C   UNL A   1      36.645  21.477  24.686  1.00  0.00     0.119 C 
BRANCH  14  15
ATOM     15  C   UNL A   1      35.444  20.973  25.514  1.00  0.00     0.057 C 
BRANCH  15  16
ATOM     16  C   UNL A   1      34.474  20.034  24.808  1.00  0.00    -0.043 A 
ATOM     17  C   UNL A   1      32.671  21.830  24.314  1.00  0.00     0.045 C 
ATOM     18  C   UNL A   1      33.246  20.443  24.237  1.00  0.00    -0.045 A 
ATOM     19  C   UNL A   1      32.482  19.511  23.500  1.00  0.00     0.043 A 
ATOM     20  C   UNL A   1      32.904  18.199  23.351  1.00  0.00     0.123 A 
ATOM     21  C   UNL A   1      34.867  18.692  24.631  1.00  0.00     0.007 A 
ATOM     22  F   UNL A   1      32.159  17.336  22.651  1.00  0.00    -0.207 F 
ATOM     23  C   UNL A   1      34.084  17.779  23.926  1.00  0.00     0.039 A 
ENDBRANCH  15  16
ENDBRANCH  14  15
ENDBRANCH  12  14
ENDBRANCH   6  12
ENDBRANCH   3   5
ENDBRANCH   2   3
ENDBRANCH   1   2
BRANCH   1  24
ATOM     24  C   UNL A   1      43.385  18.807  25.511  1.00  0.00     0.275 C 
BRANCH  24  25
ATOM     25  O   UNL A   1      43.771  19.547  24.338  1.00  0.00    -0.458 OA
BRANCH  25  26
ATOM     26  C   UNL A   1      45.060  19.956  24.318  1.00  0.00     0.338 C 
ATOM     27  O   UNL A   1      46.025  19.346  23.889  1.00  0.00    -0.246 OA
BRANCH  26  28
ATOM     28  C   UNL A   1      45.135  21.339  24.804  1.00  0.00     0.060 A 
ATOM     29  C   UNL A   1      44.937  22.359  23.879  1.00  0.00     0.016 A 
ATOM     30  C   UNL A   1      45.478  21.640  26.124  1.00  0.00     0.016 A 
ATOM     31  C   UNL A   1      45.134  23.681  24.254  1.00  0.00     0.010 A 
ATOM     32  C   UNL A   1      45.648  22.980  26.504  1.00  0.00     0.010 A 
ATOM     33  C   UNL A   1      45.511  24.015  25.563  1.00  0.00    -0.014 A 
BRANCH  33  34
ATOM     34  C   UNL A   1      45.817  25.436  25.892  1.00  0.00     0.031 A 
ATOM     35  C   UNL A   1      44.734  26.345  26.419  1.00  0.00     0.074 A 
ATOM     36  C   UNL A   1      47.088  25.886  25.847  1.00  0.00     0.049 A 
ATOM     37  N   UNL A   1      44.812  27.604  26.772  1.00  0.00    -0.248 NA
ATOM     38  C   UNL A   1      43.398  25.756  26.608  1.00  0.00     0.031 C 
ATOM     39  C   UNL A   1      48.252  25.090  25.450  1.00  0.00     0.029 A 
ATOM     40  N   UNL A   1      47.622  27.107  26.182  1.00  0.00    -0.354 N 
ATOM     41  C   UNL A   1      43.537  27.968  27.190  1.00  0.00     0.074 A 
ATOM     42  C   UNL A   1      42.699  26.796  27.044  1.00  0.00     0.031 C 
ATOM     43  C   UNL A   1      49.363  25.822  25.618  1.00  0.00     0.029 A 
ATOM     44  C   UNL A   1      48.992  27.163  26.057  1.00  0.00     0.049 A 
ATOM     45  H   UNL A   1      47.077  27.869  26.483  1.00  0.00     0.167 HD
ATOM     46  C   UNL A   1      43.099  29.164  27.652  1.00  0.00     0.031 A 
ATOM     47  C   UNL A   1      49.855  28.182  26.246  1.00  0.00     0.031 A 
ATOM     48  C   UNL A   1      43.929  30.330  27.816  1.00  0.00     0.049 A 
ATOM     49  C   UNL A   1      49.330  29.525  26.667  1.00  0.00     0.074 A 
ATOM     50  C   UNL A   1      43.558  31.599  28.226  1.00  0.00     0.029 A 
ATOM     51  N   UNL A   1      45.297  30.368  27.592  1.00  0.00    -0.354 N 
ATOM     52  N   UNL A   1      48.103  29.871  26.978  1.00  0.00    -0.248 NA
ATOM     53  C   UNL A   1      50.302  30.625  26.746  1.00  0.00     0.031 C 
ATOM     54  C   UNL A   1      44.688  32.421  28.193  1.00  0.00     0.029 A 
ATOM     55  C   UNL A   1      45.776  31.649  27.817  1.00  0.00     0.049 A 
ATOM     56  H   UNL A   1      45.845  29.599  27.315  1.00  0.00     0.167 HD
ATOM     57  C   UNL A   1      48.160  31.221  27.302  1.00  0.00     0.074 A 
ATOM     58  C   UNL A   1      49.544  31.628  27.167  1.00  0.00     0.031 C 
ATOM     59  C   UNL A   1      47.153  32.050  27.672  1.00  0.00     0.031 A 
BRANCH  46  60
ATOM     60  C   UNL A   1      41.629  29.296  27.951  1.00  0.00    -0.014 A 
ATOM     61  C   UNL A   1      40.657  29.183  26.941  1.00  0.00     0.010 A 
ATOM     62  C   UNL A   1      41.214  29.507  29.280  1.00  0.00     0.010 A 
ATOM     63  C   UNL A   1      39.299  29.317  27.251  1.00  0.00     0.020 A 
ATOM     64  C   UNL A   1      39.859  29.617  29.597  1.00  0.00     0.020 A 
ATOM     65  C   UNL A   1      38.910  29.540  28.576  1.00  0.00     0.054 A 
BRANCH  65  66
ATOM     66  S   UNL A   1      37.143  29.705  28.953  1.00  0.00     0.124 S 
ATOM     67  O   UNL A   1      37.029  28.947  30.197  1.00  0.00    -0.237 OA
ATOM     68  O   UNL A   1      36.974  31.150  29.082  1.00  0.00    -0.237 OA
ATOM     69  O   UNL A   1      36.482  29.104  27.798  1.00  0.00    -0.744 OA
ENDBRANCH  65  66
ENDBRANCH  46  60
BRANCH  47  70
ATOM     70  C   UNL A   1      51.307  27.982  25.977  1.00  0.00    -0.014 A 
ATOM     71  C   UNL A   1      52.179  27.552  26.992  1.00  0.00     0.010 A 
ATOM     72  C   UNL A   1      51.823  28.218  24.689  1.00  0.00     0.010 A 
ATOM     73  C   UNL A   1      53.540  27.370  26.725  1.00  0.00     0.020 A 
ATOM     74  C   UNL A   1      53.175  28.007  24.411  1.00  0.00     0.020 A 
ATOM     75  C   UNL A   1      54.029  27.596  25.434  1.00  0.00     0.054 A 
BRANCH  75  76
ATOM     76  S   UNL A   1      55.785  27.296  25.090  1.00  0.00     0.124 S 
ATOM     77  O   UNL A   1      56.346  27.202  26.434  1.00  0.00    -0.237 OA
ATOM     78  O   UNL A   1      55.753  26.048  24.331  1.00  0.00    -0.237 OA
ATOM     79  O   UNL A   1      56.188  28.471  24.322  1.00  0.00    -0.744 OA
ENDBRANCH  75  76
ENDBRANCH  47  70
BRANCH  59  80
ATOM     80  C   UNL A   1      47.506  33.483  27.970  1.00  0.00    -0.014 A 
ATOM     81  C   UNL A   1      47.214  34.507  27.052  1.00  0.00     0.010 A 
ATOM     82  C   UNL A   1      48.087  33.815  29.207  1.00  0.00     0.010 A 
ATOM     83  C   UNL A   1      47.525  35.837  27.354  1.00  0.00     0.020 A 
ATOM     84  C   UNL A   1      48.376  35.146  29.522  1.00  0.00     0.020 A 
ATOM     85  C   UNL A   1      48.106  36.147  28.587  1.00  0.00     0.054 A 
BRANCH  85  86
ATOM     86  S   UNL A   1      48.460  37.884  28.975  1.00  0.00     0.124 S 
ATOM     87  O   UNL A   1      49.122  37.778  30.273  1.00  0.00    -0.237 OA
ATOM     88  O   UNL A   1      49.318  38.294  27.865  1.00  0.00    -0.237 OA
ATOM     89  O   UNL A   1      47.141  38.512  28.997  1.00  0.00    -0.744 OA
ENDBRANCH  85  86
ENDBRANCH  59  80
ENDBRANCH  33  34
ENDBRANCH  26  28
ENDBRANCH  25  26
ENDBRANCH  24  25
ENDBRANCH   1  24
TORSDOF 18
ENDMDL
