MODEL 1
REMARK VINA RESULT:     -11.0      0.000      0.000
REMARK SMILES C[C@@H]1C[N@H+](Cc2ccccc2)CC[C@@H]1CC(=O)OCCOC(=O)c1ccc(-c2c3nc(c(-c4ccc(S(=O)(=O)[O-])cc4)c4ccc([nH]4)c(-c4ccc(S(=O)(=O)[O-])cc4)c4nc(c(-c5ccc(S(=O)(=O)[O-])cc5)c5ccc2[nH]5)C=C4)C=C3)cc1
REMARK SMILES IDX 19 1 18 2 16 3 17 4 15 5 14 6 1 7 2 8 3 9 4 10 13 11 12 12
REMARK SMILES IDX 5 14 6 15 7 16 11 17 8 18 10 19 9 20 20 21 21 22 22 23 23 24
REMARK SMILES IDX 24 25 25 26 83 27 26 28 82 29 27 30 28 31 29 32 76 33 30 34
REMARK SMILES IDX 81 35 75 36 77 37 31 38 80 39 74 40 73 41 32 43 62 44 43 45
REMARK SMILES IDX 61 46 44 47 47 48 60 49 78 50 45 51 46 52 59 54 79 55 48 56
REMARK SMILES IDX 33 57 34 58 42 59 35 60 41 61 36 62 37 63 38 64 39 65 40 66
REMARK SMILES IDX 63 67 64 68 72 69 65 70 71 71 66 72 67 73 68 74 69 75 70 76
REMARK SMILES IDX 49 77 50 78 58 79 51 80 57 81 52 82 53 83 54 84 55 85 56 86
REMARK H PARENT 4 13 77 42 47 53
REMARK Flexibility Score: inf
ROOT
ATOM      1  C   UNL A   1      32.510  28.405  27.021  1.00  0.00     0.274 C 
ENDROOT
BRANCH   1   2
ATOM      2  O   UNL A   1      31.428  27.916  26.196  1.00  0.00    -0.462 OA
BRANCH   2   3
ATOM      3  C   UNL A   1      31.683  27.733  24.876  1.00  0.00     0.306 C 
ATOM      4  O   UNL A   1      31.797  28.642  24.065  1.00  0.00    -0.252 OA
BRANCH   3   5
ATOM      5  C   UNL A   1      31.624  26.264  24.485  1.00  0.00     0.127 C 
BRANCH   5   6
ATOM      6  C   UNL A   1      31.870  25.066  25.453  1.00  0.00     0.014 C 
ATOM      7  C   UNL A   1      34.550  24.955  25.180  1.00  0.00     0.014 C 
ATOM      8  C   UNL A   1      33.291  24.682  25.994  1.00  0.00     0.045 C 
ATOM      9  C   UNL A   1      33.349  23.247  26.564  1.00  0.00     0.265 C 
ATOM     10  N   UNL A   1      32.679  22.226  25.777  1.00  0.00    -0.331 N 
ATOM     11  C   UNL A   1      30.908  23.886  25.122  1.00  0.00     0.066 C 
ATOM     12  C   UNL A   1      31.257  22.510  25.696  1.00  0.00     0.262 C 
ATOM     13  H   UNL A   1      32.746  21.348  26.291  1.00  0.00     0.348 HD
BRANCH  10  14
ATOM     14  C   UNL A   1      33.385  21.702  24.592  1.00  0.00     0.299 C 
BRANCH  14  15
ATOM     15  C   UNL A   1      33.253  20.215  24.336  1.00  0.00     0.006 A 
ATOM     16  C   UNL A   1      32.289  19.702  23.458  1.00  0.00     0.009 A 
ATOM     17  C   UNL A   1      34.215  19.343  24.836  1.00  0.00     0.009 A 
ATOM     18  C   UNL A   1      32.378  18.386  22.993  1.00  0.00     0.001 A 
ATOM     19  C   UNL A   1      34.370  18.082  24.280  1.00  0.00     0.001 A 
ATOM     20  C   UNL A   1      33.455  17.593  23.362  1.00  0.00     0.000 A 
ENDBRANCH  14  15
ENDBRANCH  10  14
ENDBRANCH   5   6
ENDBRANCH   3   5
ENDBRANCH   2   3
ENDBRANCH   1   2
BRANCH   1  21
ATOM     21  C   UNL A   1      32.490  29.934  27.168  1.00  0.00     0.275 C 
BRANCH  21  22
ATOM     22  O   UNL A   1      33.684  30.561  26.667  1.00  0.00    -0.458 OA
BRANCH  22  23
ATOM     23  C   UNL A   1      34.326  31.329  27.579  1.00  0.00     0.338 C 
ATOM     24  O   UNL A   1      33.929  32.390  28.042  1.00  0.00    -0.246 OA
BRANCH  23  25
ATOM     25  C   UNL A   1      35.645  30.757  27.893  1.00  0.00     0.060 A 
ATOM     26  C   UNL A   1      36.625  31.628  28.359  1.00  0.00     0.016 A 
ATOM     27  C   UNL A   1      35.901  29.384  27.817  1.00  0.00     0.016 A 
ATOM     28  C   UNL A   1      37.874  31.125  28.726  1.00  0.00     0.010 A 
ATOM     29  C   UNL A   1      37.116  28.871  28.311  1.00  0.00     0.010 A 
ATOM     30  C   UNL A   1      38.099  29.736  28.819  1.00  0.00    -0.014 A 
BRANCH  30  31
ATOM     31  C   UNL A   1      39.230  29.255  29.678  1.00  0.00     0.031 A 
ATOM     32  C   UNL A   1      40.351  28.373  29.190  1.00  0.00     0.074 A 
ATOM     33  C   UNL A   1      39.223  29.652  30.971  1.00  0.00     0.049 A 
ATOM     34  N   UNL A   1      41.343  27.859  29.881  1.00  0.00    -0.248 NA
ATOM     35  C   UNL A   1      40.368  28.010  27.767  1.00  0.00     0.031 C 
ATOM     36  C   UNL A   1      38.189  30.495  31.582  1.00  0.00     0.029 A 
ATOM     37  N   UNL A   1      40.116  29.453  31.994  1.00  0.00    -0.354 N 
ATOM     38  C   UNL A   1      42.082  27.085  28.992  1.00  0.00     0.074 A 
ATOM     39  C   UNL A   1      41.425  27.206  27.703  1.00  0.00     0.031 C 
ATOM     40  C   UNL A   1      38.573  30.857  32.808  1.00  0.00     0.029 A 
ATOM     41  C   UNL A   1      39.786  30.133  33.145  1.00  0.00     0.049 A 
ATOM     42  H   UNL A   1      40.914  28.882  31.913  1.00  0.00     0.167 HD
ATOM     43  C   UNL A   1      43.187  26.331  29.237  1.00  0.00     0.031 A 
ATOM     44  C   UNL A   1      40.344  30.143  34.369  1.00  0.00     0.031 A 
ATOM     45  C   UNL A   1      43.818  26.203  30.533  1.00  0.00     0.049 A 
ATOM     46  C   UNL A   1      41.519  29.257  34.625  1.00  0.00     0.074 A 
ATOM     47  C   UNL A   1      44.930  25.450  30.881  1.00  0.00     0.029 A 
ATOM     48  N   UNL A   1      43.395  26.835  31.695  1.00  0.00    -0.354 N 
ATOM     49  N   UNL A   1      42.167  28.496  33.778  1.00  0.00    -0.248 NA
ATOM     50  C   UNL A   1      42.010  29.199  36.005  1.00  0.00     0.031 C 
ATOM     51  C   UNL A   1      45.139  25.581  32.259  1.00  0.00     0.029 A 
ATOM     52  C   UNL A   1      44.201  26.466  32.763  1.00  0.00     0.049 A 
ATOM     53  H   UNL A   1      42.631  27.455  31.753  1.00  0.00     0.167 HD
ATOM     54  C   UNL A   1      43.143  27.855  34.526  1.00  0.00     0.074 A 
ATOM     55  C   UNL A   1      43.019  28.346  35.886  1.00  0.00     0.031 C 
ATOM     56  C   UNL A   1      44.052  26.936  34.119  1.00  0.00     0.031 A 
BRANCH  43  57
ATOM     57  C   UNL A   1      43.753  25.518  28.094  1.00  0.00    -0.014 A 
ATOM     58  C   UNL A   1      44.730  26.037  27.225  1.00  0.00     0.010 A 
ATOM     59  C   UNL A   1      43.328  24.187  27.915  1.00  0.00     0.010 A 
ATOM     60  C   UNL A   1      45.226  25.261  26.169  1.00  0.00     0.020 A 
ATOM     61  C   UNL A   1      43.841  23.400  26.877  1.00  0.00     0.020 A 
ATOM     62  C   UNL A   1      44.769  23.952  25.994  1.00  0.00     0.054 A 
BRANCH  62  63
ATOM     63  S   UNL A   1      45.406  22.978  24.600  1.00  0.00     0.124 S 
ATOM     64  O   UNL A   1      46.315  23.927  23.962  1.00  0.00    -0.237 OA
ATOM     65  O   UNL A   1      46.045  21.844  25.262  1.00  0.00    -0.237 OA
ATOM     66  O   UNL A   1      44.209  22.650  23.828  1.00  0.00    -0.744 OA
ENDBRANCH  62  63
ENDBRANCH  43  57
BRANCH  44  67
ATOM     67  C   UNL A   1      39.728  30.971  35.443  1.00  0.00    -0.014 A 
ATOM     68  C   UNL A   1      38.511  30.592  36.031  1.00  0.00     0.010 A 
ATOM     69  C   UNL A   1      40.416  32.090  35.954  1.00  0.00     0.010 A 
ATOM     70  C   UNL A   1      38.005  31.303  37.123  1.00  0.00     0.020 A 
ATOM     71  C   UNL A   1      39.935  32.776  37.070  1.00  0.00     0.020 A 
ATOM     72  C   UNL A   1      38.729  32.380  37.646  1.00  0.00     0.054 A 
BRANCH  72  73
ATOM     73  S   UNL A   1      38.113  33.214  39.135  1.00  0.00     0.124 S 
ATOM     74  O   UNL A   1      38.838  32.519  40.193  1.00  0.00    -0.237 OA
ATOM     75  O   UNL A   1      38.504  34.603  38.906  1.00  0.00    -0.237 OA
ATOM     76  O   UNL A   1      36.673  32.967  39.094  1.00  0.00    -0.744 OA
ENDBRANCH  72  73
ENDBRANCH  44  67
BRANCH  56  77
ATOM     77  C   UNL A   1      44.995  26.416  35.170  1.00  0.00    -0.014 A 
ATOM     78  C   UNL A   1      44.687  25.264  35.916  1.00  0.00     0.010 A 
ATOM     79  C   UNL A   1      46.204  27.091  35.415  1.00  0.00     0.010 A 
ATOM     80  C   UNL A   1      45.556  24.817  36.914  1.00  0.00     0.020 A 
ATOM     81  C   UNL A   1      47.087  26.632  36.396  1.00  0.00     0.020 A 
ATOM     82  C   UNL A   1      46.748  25.507  37.151  1.00  0.00     0.054 A 
BRANCH  82  83
ATOM     83  S   UNL A   1      47.872  24.895  38.437  1.00  0.00     0.124 S 
ATOM     84  O   UNL A   1      46.977  24.760  39.582  1.00  0.00    -0.237 OA
ATOM     85  O   UNL A   1      48.360  23.642  37.868  1.00  0.00    -0.237 OA
ATOM     86  O   UNL A   1      48.875  25.952  38.551  1.00  0.00    -0.744 OA
ENDBRANCH  82  83
ENDBRANCH  56  77
ENDBRANCH  30  31
ENDBRANCH  23  25
ENDBRANCH  22  23
ENDBRANCH  21  22
ENDBRANCH   1  21
TORSDOF 17
ENDMDL
MODEL 2
REMARK VINA RESULT:     -11.0      5.901     10.507
REMARK SMILES C[C@@H]1C[N@H+](Cc2ccccc2)CC[C@@H]1CC(=O)OCCOC(=O)c1ccc(-c2c3nc(c(-c4ccc(S(=O)(=O)[O-])cc4)c4ccc([nH]4)c(-c4ccc(S(=O)(=O)[O-])cc4)c4nc(c(-c5ccc(S(=O)(=O)[O-])cc5)c5ccc2[nH]5)C=C4)C=C3)cc1
REMARK SMILES IDX 19 1 18 2 16 3 17 4 15 5 14 6 1 7 2 8 3 9 4 10 13 11 12 12
REMARK SMILES IDX 5 14 6 15 7 16 11 17 8 18 10 19 9 20 20 21 21 22 22 23 23 24
REMARK SMILES IDX 24 25 25 26 83 27 26 28 82 29 27 30 28 31 29 32 76 33 30 34
REMARK SMILES IDX 81 35 75 36 77 37 31 38 80 39 74 40 73 41 32 43 62 44 43 45
REMARK SMILES IDX 61 46 44 47 47 48 60 49 78 50 45 51 46 52 59 54 79 55 48 56
REMARK SMILES IDX 33 57 34 58 42 59 35 60 41 61 36 62 37 63 38 64 39 65 40 66
REMARK SMILES IDX 63 67 64 68 72 69 65 70 71 71 66 72 67 73 68 74 69 75 70 76
REMARK SMILES IDX 49 77 50 78 58 79 51 80 57 81 52 82 53 83 54 84 55 85 56 86
REMARK H PARENT 4 13 77 42 47 53
REMARK Flexibility Score: inf
ROOT
ATOM      1  C   UNL A   1      34.011  31.233  27.733  1.00  0.00     0.274 C 
ENDROOT
BRANCH   1   2
ATOM      2  O   UNL A   1      33.451  29.924  27.477  1.00  0.00    -0.462 OA
BRANCH   2   3
ATOM      3  C   UNL A   1      32.384  29.854  26.643  1.00  0.00     0.306 C 
ATOM      4  O   UNL A   1      31.766  30.829  26.233  1.00  0.00    -0.252 OA
BRANCH   3   5
ATOM      5  C   UNL A   1      31.927  28.420  26.425  1.00  0.00     0.127 C 
BRANCH   5   6
ATOM      6  C   UNL A   1      31.904  27.683  25.050  1.00  0.00     0.014 C 
ATOM      7  C   UNL A   1      30.060  25.824  25.694  1.00  0.00     0.014 C 
ATOM      8  C   UNL A   1      30.785  26.661  24.647  1.00  0.00     0.045 C 
ATOM      9  C   UNL A   1      31.194  25.759  23.462  1.00  0.00     0.265 C 
ATOM     10  N   UNL A   1      32.544  25.225  23.510  1.00  0.00    -0.331 N 
ATOM     11  C   UNL A   1      33.352  27.351  24.581  1.00  0.00     0.066 C 
ATOM     12  C   UNL A   1      33.512  26.308  23.472  1.00  0.00     0.262 C 
ATOM     13  H   UNL A   1      32.698  24.701  22.649  1.00  0.00     0.348 HD
BRANCH  10  14
ATOM     14  C   UNL A   1      32.790  24.061  24.382  1.00  0.00     0.299 C 
BRANCH  14  15
ATOM     15  C   UNL A   1      34.227  23.597  24.493  1.00  0.00     0.006 A 
ATOM     16  C   UNL A   1      34.901  23.022  23.407  1.00  0.00     0.009 A 
ATOM     17  C   UNL A   1      34.963  23.903  25.635  1.00  0.00     0.009 A 
ATOM     18  C   UNL A   1      36.293  22.891  23.422  1.00  0.00     0.001 A 
ATOM     19  C   UNL A   1      36.349  23.885  25.596  1.00  0.00     0.001 A 
ATOM     20  C   UNL A   1      37.023  23.377  24.497  1.00  0.00     0.000 A 
ENDBRANCH  14  15
ENDBRANCH  10  14
ENDBRANCH   5   6
ENDBRANCH   3   5
ENDBRANCH   2   3
ENDBRANCH   1   2
BRANCH   1  21
ATOM     21  C   UNL A   1      35.539  31.197  27.883  1.00  0.00     0.275 C 
BRANCH  21  22
ATOM     22  O   UNL A   1      36.065  29.859  27.939  1.00  0.00    -0.458 OA
BRANCH  22  23
ATOM     23  C   UNL A   1      36.786  29.597  29.056  1.00  0.00     0.338 C 
ATOM     24  O   UNL A   1      36.451  29.839  30.208  1.00  0.00    -0.246 OA
BRANCH  23  25
ATOM     25  C   UNL A   1      38.102  29.046  28.699  1.00  0.00     0.060 A 
ATOM     26  C   UNL A   1      38.658  29.454  27.490  1.00  0.00     0.016 A 
ATOM     27  C   UNL A   1      38.824  28.214  29.561  1.00  0.00     0.016 A 
ATOM     28  C   UNL A   1      39.930  29.006  27.132  1.00  0.00     0.010 A 
ATOM     29  C   UNL A   1      40.155  27.873  29.252  1.00  0.00     0.010 A 
ATOM     30  C   UNL A   1      40.741  28.309  28.052  1.00  0.00    -0.014 A 
BRANCH  30  31
ATOM     31  C   UNL A   1      42.223  28.301  27.830  1.00  0.00     0.031 A 
ATOM     32  C   UNL A   1      43.144  29.436  28.199  1.00  0.00     0.074 A 
ATOM     33  C   UNL A   1      42.747  27.191  27.260  1.00  0.00     0.049 A 
ATOM     34  N   UNL A   1      44.437  29.538  27.988  1.00  0.00    -0.248 NA
ATOM     35  C   UNL A   1      42.558  30.602  28.874  1.00  0.00     0.031 C 
ATOM     36  C   UNL A   1      41.968  26.021  26.837  1.00  0.00     0.029 A 
ATOM     37  N   UNL A   1      44.041  26.830  26.978  1.00  0.00    -0.354 N 
ATOM     38  C   UNL A   1      44.816  30.788  28.469  1.00  0.00     0.074 A 
ATOM     39  C   UNL A   1      43.612  31.405  28.993  1.00  0.00     0.031 C 
ATOM     40  C   UNL A   1      42.796  25.032  26.493  1.00  0.00     0.029 A 
ATOM     41  C   UNL A   1      44.155  25.546  26.493  1.00  0.00     0.049 A 
ATOM     42  H   UNL A   1      44.810  27.429  27.109  1.00  0.00     0.167 HD
ATOM     43  C   UNL A   1      46.046  31.367  28.452  1.00  0.00     0.031 A 
ATOM     44  C   UNL A   1      45.214  24.855  26.034  1.00  0.00     0.031 A 
ATOM     45  C   UNL A   1      47.234  30.747  27.906  1.00  0.00     0.049 A 
ATOM     46  C   UNL A   1      46.539  25.539  25.970  1.00  0.00     0.074 A 
ATOM     47  C   UNL A   1      48.519  31.263  27.830  1.00  0.00     0.029 A 
ATOM     48  N   UNL A   1      47.286  29.481  27.338  1.00  0.00    -0.354 N 
ATOM     49  N   UNL A   1      46.860  26.740  26.385  1.00  0.00    -0.248 NA
ATOM     50  C   UNL A   1      47.634  24.794  25.339  1.00  0.00     0.031 C 
ATOM     51  C   UNL A   1      49.330  30.335  27.164  1.00  0.00     0.029 A 
ATOM     52  C   UNL A   1      48.570  29.212  26.883  1.00  0.00     0.049 A 
ATOM     53  H   UNL A   1      46.523  28.863  27.267  1.00  0.00     0.167 HD
ATOM     54  C   UNL A   1      48.197  26.903  26.056  1.00  0.00     0.074 A 
ATOM     55  C   UNL A   1      48.631  25.663  25.439  1.00  0.00     0.031 C 
ATOM     56  C   UNL A   1      48.987  27.988  26.243  1.00  0.00     0.031 A 
BRANCH  43  57
ATOM     57  C   UNL A   1      46.167  32.781  28.977  1.00  0.00    -0.014 A 
ATOM     58  C   UNL A   1      45.954  33.901  28.153  1.00  0.00     0.010 A 
ATOM     59  C   UNL A   1      46.456  32.990  30.340  1.00  0.00     0.010 A 
ATOM     60  C   UNL A   1      46.084  35.197  28.668  1.00  0.00     0.020 A 
ATOM     61  C   UNL A   1      46.562  34.283  30.864  1.00  0.00     0.020 A 
ATOM     62  C   UNL A   1      46.400  35.380  30.018  1.00  0.00     0.054 A 
BRANCH  62  63
ATOM     63  S   UNL A   1      46.592  37.070  30.653  1.00  0.00     0.124 S 
ATOM     64  O   UNL A   1      47.016  36.826  32.030  1.00  0.00    -0.237 OA
ATOM     65  O   UNL A   1      47.612  37.634  29.773  1.00  0.00    -0.237 OA
ATOM     66  O   UNL A   1      45.259  37.651  30.508  1.00  0.00    -0.744 OA
ENDBRANCH  62  63
ENDBRANCH  43  57
BRANCH  44  67
ATOM     67  C   UNL A   1      45.014  23.466  25.536  1.00  0.00    -0.014 A 
ATOM     68  C   UNL A   1      44.606  23.231  24.213  1.00  0.00     0.010 A 
ATOM     69  C   UNL A   1      45.337  22.368  26.357  1.00  0.00     0.010 A 
ATOM     70  C   UNL A   1      44.545  21.926  23.715  1.00  0.00     0.020 A 
ATOM     71  C   UNL A   1      45.317  21.067  25.852  1.00  0.00     0.020 A 
ATOM     72  C   UNL A   1      44.917  20.853  24.533  1.00  0.00     0.054 A 
BRANCH  72  73
ATOM     73  S   UNL A   1      44.944  19.180  23.833  1.00  0.00     0.124 S 
ATOM     74  O   UNL A   1      46.357  18.833  23.931  1.00  0.00    -0.237 OA
ATOM     75  O   UNL A   1      44.047  18.447  24.724  1.00  0.00    -0.237 OA
ATOM     76  O   UNL A   1      44.438  19.371  22.475  1.00  0.00    -0.744 OA
ENDBRANCH  72  73
ENDBRANCH  44  67
BRANCH  56  77
ATOM     77  C   UNL A   1      50.413  27.865  25.780  1.00  0.00    -0.014 A 
ATOM     78  C   UNL A   1      50.758  28.057  24.430  1.00  0.00     0.010 A 
ATOM     79  C   UNL A   1      51.420  27.552  26.710  1.00  0.00     0.010 A 
ATOM     80  C   UNL A   1      52.082  27.901  24.012  1.00  0.00     0.020 A 
ATOM     81  C   UNL A   1      52.749  27.420  26.299  1.00  0.00     0.020 A 
ATOM     82  C   UNL A   1      53.068  27.579  24.948  1.00  0.00     0.054 A 
BRANCH  82  83
ATOM     83  S   UNL A   1      54.784  27.404  24.386  1.00  0.00     0.124 S 
ATOM     84  O   UNL A   1      55.357  26.547  25.420  1.00  0.00    -0.237 OA
ATOM     85  O   UNL A   1      54.629  26.787  23.071  1.00  0.00    -0.237 OA
ATOM     86  O   UNL A   1      55.284  28.777  24.366  1.00  0.00    -0.744 OA
ENDBRANCH  82  83
ENDBRANCH  56  77
ENDBRANCH  30  31
ENDBRANCH  23  25
ENDBRANCH  22  23
ENDBRANCH  21  22
ENDBRANCH   1  21
TORSDOF 17
ENDMDL
MODEL 3
REMARK VINA RESULT:     -10.9      0.740      1.645
REMARK SMILES C[C@@H]1C[N@H+](Cc2ccccc2)CC[C@@H]1CC(=O)OCCOC(=O)c1ccc(-c2c3nc(c(-c4ccc(S(=O)(=O)[O-])cc4)c4ccc([nH]4)c(-c4ccc(S(=O)(=O)[O-])cc4)c4nc(c(-c5ccc(S(=O)(=O)[O-])cc5)c5ccc2[nH]5)C=C4)C=C3)cc1
REMARK SMILES IDX 19 1 18 2 16 3 17 4 15 5 14 6 1 7 2 8 3 9 4 10 13 11 12 12
REMARK SMILES IDX 5 14 6 15 7 16 11 17 8 18 10 19 9 20 20 21 21 22 22 23 23 24
REMARK SMILES IDX 24 25 25 26 83 27 26 28 82 29 27 30 28 31 29 32 76 33 30 34
REMARK SMILES IDX 81 35 75 36 77 37 31 38 80 39 74 40 73 41 32 43 62 44 43 45
REMARK SMILES IDX 61 46 44 47 47 48 60 49 78 50 45 51 46 52 59 54 79 55 48 56
REMARK SMILES IDX 33 57 34 58 42 59 35 60 41 61 36 62 37 63 38 64 39 65 40 66
REMARK SMILES IDX 63 67 64 68 72 69 65 70 71 71 66 72 67 73 68 74 69 75 70 76
REMARK SMILES IDX 49 77 50 78 58 79 51 80 57 81 52 82 53 83 54 84 55 85 56 86
REMARK H PARENT 4 13 77 42 47 53
REMARK Flexibility Score: inf
ROOT
ATOM      1  C   UNL A   1      31.762  29.391  26.227  1.00  0.00     0.274 C 
ENDROOT
BRANCH   1   2
ATOM      2  O   UNL A   1      31.293  29.510  24.864  1.00  0.00    -0.462 OA
BRANCH   2   3
ATOM      3  C   UNL A   1      30.971  28.364  24.212  1.00  0.00     0.306 C 
ATOM      4  O   UNL A   1      30.201  28.307  23.263  1.00  0.00    -0.252 OA
BRANCH   3   5
ATOM      5  C   UNL A   1      31.531  27.136  24.913  1.00  0.00     0.127 C 
BRANCH   5   6
ATOM      6  C   UNL A   1      32.710  26.261  24.388  1.00  0.00     0.014 C 
ATOM      7  C   UNL A   1      31.216  24.392  23.145  1.00  0.00     0.014 C 
ATOM      8  C   UNL A   1      32.530  25.150  23.296  1.00  0.00     0.045 C 
ATOM      9  C   UNL A   1      33.707  24.151  23.255  1.00  0.00     0.265 C 
ATOM     10  N   UNL A   1      34.191  23.691  24.545  1.00  0.00    -0.331 N 
ATOM     11  C   UNL A   1      33.718  25.953  25.535  1.00  0.00     0.066 C 
ATOM     12  C   UNL A   1      34.712  24.810  25.312  1.00  0.00     0.262 C 
ATOM     13  H   UNL A   1      34.996  23.089  24.375  1.00  0.00     0.348 HD
BRANCH  10  14
ATOM     14  C   UNL A   1      33.420  22.636  25.230  1.00  0.00     0.299 C 
BRANCH  14  15
ATOM     15  C   UNL A   1      33.583  21.230  24.693  1.00  0.00     0.006 A 
ATOM     16  C   UNL A   1      34.758  20.495  24.899  1.00  0.00     0.009 A 
ATOM     17  C   UNL A   1      32.489  20.575  24.136  1.00  0.00     0.009 A 
ATOM     18  C   UNL A   1      34.782  19.114  24.681  1.00  0.00     0.001 A 
ATOM     19  C   UNL A   1      32.479  19.191  24.039  1.00  0.00     0.001 A 
ATOM     20  C   UNL A   1      33.622  18.453  24.304  1.00  0.00     0.000 A 
ENDBRANCH  14  15
ENDBRANCH  10  14
ENDBRANCH   5   6
ENDBRANCH   3   5
ENDBRANCH   2   3
ENDBRANCH   1   2
BRANCH   1  21
ATOM     21  C   UNL A   1      32.243  30.732  26.800  1.00  0.00     0.275 C 
BRANCH  21  22
ATOM     22  O   UNL A   1      33.648  30.959  26.592  1.00  0.00    -0.458 OA
BRANCH  22  23
ATOM     23  C   UNL A   1      34.264  31.582  27.626  1.00  0.00     0.338 C 
ATOM     24  O   UNL A   1      33.867  32.579  28.212  1.00  0.00    -0.246 OA
BRANCH  23  25
ATOM     25  C   UNL A   1      35.556  30.939  27.914  1.00  0.00     0.060 A 
ATOM     26  C   UNL A   1      36.604  31.763  28.315  1.00  0.00     0.016 A 
ATOM     27  C   UNL A   1      35.727  29.552  27.878  1.00  0.00     0.016 A 
ATOM     28  C   UNL A   1      37.833  31.197  28.655  1.00  0.00     0.010 A 
ATOM     29  C   UNL A   1      36.925  28.982  28.346  1.00  0.00     0.010 A 
ATOM     30  C   UNL A   1      37.977  29.801  28.789  1.00  0.00    -0.014 A 
BRANCH  30  31
ATOM     31  C   UNL A   1      39.108  29.279  29.624  1.00  0.00     0.031 A 
ATOM     32  C   UNL A   1      40.182  28.351  29.116  1.00  0.00     0.074 A 
ATOM     33  C   UNL A   1      39.147  29.683  30.915  1.00  0.00     0.049 A 
ATOM     34  N   UNL A   1      41.168  27.802  29.787  1.00  0.00    -0.248 NA
ATOM     35  C   UNL A   1      40.150  27.980  27.695  1.00  0.00     0.031 C 
ATOM     36  C   UNL A   1      38.161  30.570  31.544  1.00  0.00     0.029 A 
ATOM     37  N   UNL A   1      40.055  29.454  31.918  1.00  0.00    -0.354 N 
ATOM     38  C   UNL A   1      41.855  26.994  28.886  1.00  0.00     0.074 A 
ATOM     39  C   UNL A   1      41.173  27.134  27.612  1.00  0.00     0.031 C 
ATOM     40  C   UNL A   1      38.588  30.922  32.759  1.00  0.00     0.029 A 
ATOM     41  C   UNL A   1      39.780  30.152  33.073  1.00  0.00     0.049 A 
ATOM     42  H   UNL A   1      40.827  28.852  31.822  1.00  0.00     0.167 HD
ATOM     43  C   UNL A   1      42.934  26.198  29.110  1.00  0.00     0.031 A 
ATOM     44  C   UNL A   1      40.366  30.147  34.283  1.00  0.00     0.031 A 
ATOM     45  C   UNL A   1      43.590  26.052  30.391  1.00  0.00     0.049 A 
ATOM     46  C   UNL A   1      41.510  29.216  34.517  1.00  0.00     0.074 A 
ATOM     47  C   UNL A   1      44.678  25.257  30.718  1.00  0.00     0.029 A 
ATOM     48  N   UNL A   1      43.219  26.706  31.559  1.00  0.00    -0.354 N 
ATOM     49  N   UNL A   1      42.108  28.425  33.660  1.00  0.00    -0.248 NA
ATOM     50  C   UNL A   1      42.031  29.145  35.886  1.00  0.00     0.031 C 
ATOM     51  C   UNL A   1      44.925  25.386  32.090  1.00  0.00     0.029 A 
ATOM     52  C   UNL A   1      44.035  26.311  32.610  1.00  0.00     0.049 A 
ATOM     53  H   UNL A   1      42.483  27.356  31.631  1.00  0.00     0.167 HD
ATOM     54  C   UNL A   1      43.075  27.750  34.389  1.00  0.00     0.074 A 
ATOM     55  C   UNL A   1      43.002  28.252  35.748  1.00  0.00     0.031 C 
ATOM     56  C   UNL A   1      43.937  26.793  33.967  1.00  0.00     0.031 A 
BRANCH  43  57
ATOM     57  C   UNL A   1      43.441  25.357  27.959  1.00  0.00    -0.014 A 
ATOM     58  C   UNL A   1      43.045  24.018  27.785  1.00  0.00     0.010 A 
ATOM     59  C   UNL A   1      44.300  25.937  27.004  1.00  0.00     0.010 A 
ATOM     60  C   UNL A   1      43.541  23.264  26.714  1.00  0.00     0.020 A 
ATOM     61  C   UNL A   1      44.778  25.194  25.919  1.00  0.00     0.020 A 
ATOM     62  C   UNL A   1      44.415  23.853  25.795  1.00  0.00     0.054 A 
BRANCH  62  63
ATOM     63  S   UNL A   1      45.068  22.845  24.433  1.00  0.00     0.124 S 
ATOM     64  O   UNL A   1      45.562  21.667  25.142  1.00  0.00    -0.237 OA
ATOM     65  O   UNL A   1      43.890  22.626  23.598  1.00  0.00    -0.237 OA
ATOM     66  O   UNL A   1      46.101  23.690  23.838  1.00  0.00    -0.744 OA
ENDBRANCH  62  63
ENDBRANCH  43  57
BRANCH  44  67
ATOM     67  C   UNL A   1      39.809  31.004  35.365  1.00  0.00    -0.014 A 
ATOM     68  C   UNL A   1      38.539  30.742  35.905  1.00  0.00     0.010 A 
ATOM     69  C   UNL A   1      40.597  32.025  35.934  1.00  0.00     0.010 A 
ATOM     70  C   UNL A   1      38.078  31.471  37.006  1.00  0.00     0.020 A 
ATOM     71  C   UNL A   1      40.157  32.726  37.058  1.00  0.00     0.020 A 
ATOM     72  C   UNL A   1      38.896  32.447  37.585  1.00  0.00     0.054 A 
BRANCH  72  73
ATOM     73  S   UNL A   1      38.327  33.297  39.083  1.00  0.00     0.124 S 
ATOM     74  O   UNL A   1      36.897  33.008  39.070  1.00  0.00    -0.237 OA
ATOM     75  O   UNL A   1      39.098  32.639  40.135  1.00  0.00    -0.237 OA
ATOM     76  O   UNL A   1      38.686  34.693  38.840  1.00  0.00    -0.744 OA
ENDBRANCH  72  73
ENDBRANCH  44  67
BRANCH  56  77
ATOM     77  C   UNL A   1      44.882  26.242  34.998  1.00  0.00    -0.014 A 
ATOM     78  C   UNL A   1      46.151  26.814  35.202  1.00  0.00     0.010 A 
ATOM     79  C   UNL A   1      44.496  25.134  35.773  1.00  0.00     0.010 A 
ATOM     80  C   UNL A   1      47.031  26.264  36.137  1.00  0.00     0.020 A 
ATOM     81  C   UNL A   1      45.364  24.597  36.727  1.00  0.00     0.020 A 
ATOM     82  C   UNL A   1      46.633  25.156  36.891  1.00  0.00     0.054 A 
BRANCH  82  83
ATOM     83  S   UNL A   1      47.784  24.474  38.116  1.00  0.00     0.124 S 
ATOM     84  O   UNL A   1      47.919  23.091  37.668  1.00  0.00    -0.237 OA
ATOM     85  O   UNL A   1      48.969  25.310  37.943  1.00  0.00    -0.237 OA
ATOM     86  O   UNL A   1      47.084  24.652  39.386  1.00  0.00    -0.744 OA
ENDBRANCH  82  83
ENDBRANCH  56  77
ENDBRANCH  30  31
ENDBRANCH  23  25
ENDBRANCH  22  23
ENDBRANCH  21  22
ENDBRANCH   1  21
TORSDOF 17
ENDMDL
