MODEL 1
REMARK VINA RESULT:     -10.4      0.000      0.000
REMARK SMILES CC[C@@H](NC(=O)N1C[C@H]2CCCC[N@@H+]2C[C@@H]1C)C(=O)OCCOC(=O)c1ccc(-c2c3nc(c(-c4ccc(S(=O)(=O)[O-])cc4)c4ccc([nH]4)c(-c4ccc(S(=O)(=O)[O-])cc4)c4nc(c(-c5ccc(S(=O)(=O)[O-])cc5)c5ccc2[nH]5)C=C4)C=C3)cc1
REMARK SMILES IDX 22 1 21 2 20 3 18 4 19 5 3 6 2 7 1 8 4 9 5 10 6 12 7 13 8 14
REMARK SMILES IDX 16 15 9 16 15 17 17 18 10 19 14 20 11 21 13 22 12 24 23 25
REMARK SMILES IDX 24 26 25 27 26 28 27 29 85 30 28 31 84 32 29 33 30 34 31 35
REMARK SMILES IDX 78 36 32 37 83 38 77 39 79 40 33 41 82 42 76 43 75 44 34 46
REMARK SMILES IDX 64 47 45 48 63 49 46 50 49 51 62 52 80 53 47 54 48 55 61 57
REMARK SMILES IDX 81 58 50 59 35 60 36 61 44 62 37 63 43 64 38 65 39 66 40 67
REMARK SMILES IDX 41 68 42 69 65 70 66 71 74 72 67 73 73 74 68 75 69 76 70 77
REMARK SMILES IDX 71 78 72 79 51 80 52 81 60 82 53 83 59 84 54 85 55 86 56 87
REMARK SMILES IDX 57 88 58 89
REMARK H PARENT 4 11 14 23 79 45 49 56
REMARK Flexibility Score: inf
ROOT
ATOM      1  C   UNL A   1      32.488  28.031  27.101  1.00  0.00     0.275 C 
ENDROOT
BRANCH   1   2
ATOM      2  C   UNL A   1      32.087  26.674  26.492  1.00  0.00     0.274 C 
BRANCH   2   3
ATOM      3  O   UNL A   1      33.116  25.699  26.284  1.00  0.00    -0.461 OA
BRANCH   3   4
ATOM      4  C   UNL A   1      32.955  24.847  25.239  1.00  0.00     0.328 C 
ATOM      5  O   UNL A   1      32.148  23.932  25.190  1.00  0.00    -0.250 OA
BRANCH   4   6
ATOM      6  C   UNL A   1      33.932  25.071  24.103  1.00  0.00     0.193 C 
BRANCH   6   7
ATOM      7  C   UNL A   1      35.212  24.252  24.374  1.00  0.00     0.033 C 
ATOM      8  C   UNL A   1      35.199  22.847  23.795  1.00  0.00     0.007 C 
ENDBRANCH   6   7
BRANCH   6   9
ATOM      9  N   UNL A   1      33.343  24.865  22.770  1.00  0.00    -0.324 N 
ATOM     10  C   UNL A   1      32.974  25.809  21.838  1.00  0.00     0.318 C 
ATOM     11  H   UNL A   1      33.194  23.926  22.510  1.00  0.00     0.166 HD
ATOM     12  O   UNL A   1      33.095  25.545  20.644  1.00  0.00    -0.249 OA
BRANCH  10  13
ATOM     13  N   UNL A   1      32.211  26.873  22.292  1.00  0.00    -0.310 N 
ATOM     14  C   UNL A   1      30.907  26.575  22.919  1.00  0.00     0.186 C 
ATOM     15  C   UNL A   1      32.919  27.928  23.034  1.00  0.00     0.139 C 
ATOM     16  C   UNL A   1      30.022  27.844  22.874  1.00  0.00     0.203 C 
ATOM     17  C   UNL A   1      32.017  29.167  23.369  1.00  0.00     0.287 C 
ATOM     18  C   UNL A   1      34.150  28.442  22.273  1.00  0.00     0.037 C 
ATOM     19  C   UNL A   1      28.548  27.606  23.209  1.00  0.00     0.067 C 
ATOM     20  N   UNL A   1      30.574  28.969  23.664  1.00  0.00    -0.329 N 
ATOM     21  C   UNL A   1      27.742  28.854  22.832  1.00  0.00     0.012 C 
ATOM     22  C   UNL A   1      29.839  30.213  23.344  1.00  0.00     0.262 C 
ATOM     23  H   UNL A   1      30.470  28.744  24.653  1.00  0.00     0.348 HD
ATOM     24  C   UNL A   1      28.318  30.104  23.490  1.00  0.00     0.062 C 
ENDBRANCH  10  13
ENDBRANCH   6   9
ENDBRANCH   4   6
ENDBRANCH   3   4
ENDBRANCH   2   3
ENDBRANCH   1   2
BRANCH   1  25
ATOM     25  O   UNL A   1      33.899  28.271  27.262  1.00  0.00    -0.458 OA
BRANCH  25  26
ATOM     26  C   UNL A   1      34.224  29.569  27.491  1.00  0.00     0.338 C 
ATOM     27  O   UNL A   1      33.454  30.521  27.414  1.00  0.00    -0.246 OA
BRANCH  26  28
ATOM     28  C   UNL A   1      35.593  29.720  28.035  1.00  0.00     0.060 A 
ATOM     29  C   UNL A   1      36.611  30.058  27.131  1.00  0.00     0.016 A 
ATOM     30  C   UNL A   1      35.911  29.420  29.360  1.00  0.00     0.016 A 
ATOM     31  C   UNL A   1      37.947  30.031  27.518  1.00  0.00     0.010 A 
ATOM     32  C   UNL A   1      37.260  29.369  29.746  1.00  0.00     0.010 A 
ATOM     33  C   UNL A   1      38.283  29.623  28.812  1.00  0.00    -0.014 A 
BRANCH  33  34
ATOM     34  C   UNL A   1      39.693  29.245  29.091  1.00  0.00     0.031 A 
ATOM     35  C   UNL A   1      40.583  30.254  29.772  1.00  0.00     0.074 A 
ATOM     36  C   UNL A   1      40.151  28.006  28.836  1.00  0.00     0.049 A 
ATOM     37  N   UNL A   1      41.846  30.163  30.096  1.00  0.00    -0.248 NA
ATOM     38  C   UNL A   1      39.959  31.536  30.141  1.00  0.00     0.031 C 
ATOM     39  C   UNL A   1      39.364  26.913  28.265  1.00  0.00     0.029 A 
ATOM     40  N   UNL A   1      41.394  27.458  29.033  1.00  0.00    -0.354 N 
ATOM     41  C   UNL A   1      42.173  31.378  30.691  1.00  0.00     0.074 A 
ATOM     42  C   UNL A   1      40.983  32.198  30.659  1.00  0.00     0.031 C 
ATOM     43  C   UNL A   1      40.148  25.826  28.151  1.00  0.00     0.029 A 
ATOM     44  C   UNL A   1      41.500  26.157  28.598  1.00  0.00     0.049 A 
ATOM     45  H   UNL A   1      42.141  27.950  29.447  1.00  0.00     0.167 HD
ATOM     46  C   UNL A   1      43.355  31.774  31.220  1.00  0.00     0.031 A 
ATOM     47  C   UNL A   1      42.570  25.339  28.541  1.00  0.00     0.031 A 
ATOM     48  C   UNL A   1      44.538  30.954  31.242  1.00  0.00     0.049 A 
ATOM     49  C   UNL A   1      43.901  25.833  29.047  1.00  0.00     0.074 A 
ATOM     50  C   UNL A   1      45.790  31.265  31.744  1.00  0.00     0.029 A 
ATOM     51  N   UNL A   1      44.618  29.665  30.737  1.00  0.00    -0.354 N 
ATOM     52  N   UNL A   1      44.198  26.990  29.594  1.00  0.00    -0.248 NA
ATOM     53  C   UNL A   1      45.040  24.911  28.935  1.00  0.00     0.031 C 
ATOM     54  C   UNL A   1      46.642  30.186  31.486  1.00  0.00     0.029 A 
ATOM     55  C   UNL A   1      45.903  29.176  30.890  1.00  0.00     0.049 A 
ATOM     56  H   UNL A   1      43.870  29.171  30.330  1.00  0.00     0.167 HD
ATOM     57  C   UNL A   1      45.551  26.922  29.915  1.00  0.00     0.074 A 
ATOM     58  C   UNL A   1      46.009  25.607  29.516  1.00  0.00     0.031 C 
ATOM     59  C   UNL A   1      46.343  27.863  30.488  1.00  0.00     0.031 A 
BRANCH  46  60
ATOM     60  C   UNL A   1      43.438  33.173  31.775  1.00  0.00    -0.014 A 
ATOM     61  C   UNL A   1      43.223  33.436  33.140  1.00  0.00     0.010 A 
ATOM     62  C   UNL A   1      43.769  34.239  30.919  1.00  0.00     0.010 A 
ATOM     63  C   UNL A   1      43.298  34.745  33.629  1.00  0.00     0.020 A 
ATOM     64  C   UNL A   1      43.875  35.543  31.409  1.00  0.00     0.020 A 
ATOM     65  C   UNL A   1      43.622  35.790  32.759  1.00  0.00     0.054 A 
BRANCH  65  66
ATOM     66  S   UNL A   1      43.733  37.474  33.425  1.00  0.00     0.124 S 
ATOM     67  O   UNL A   1      43.804  38.276  32.207  1.00  0.00    -0.237 OA
ATOM     68  O   UNL A   1      42.492  37.597  34.187  1.00  0.00    -0.237 OA
ATOM     69  O   UNL A   1      44.954  37.452  34.227  1.00  0.00    -0.744 OA
ENDBRANCH  65  66
ENDBRANCH  46  60
BRANCH  47  70
ATOM     70  C   UNL A   1      42.437  23.980  27.941  1.00  0.00    -0.014 A 
ATOM     71  C   UNL A   1      42.571  23.779  26.556  1.00  0.00     0.010 A 
ATOM     72  C   UNL A   1      42.167  22.871  28.766  1.00  0.00     0.010 A 
ATOM     73  C   UNL A   1      42.423  22.500  26.008  1.00  0.00     0.020 A 
ATOM     74  C   UNL A   1      42.050  21.588  28.227  1.00  0.00     0.020 A 
ATOM     75  C   UNL A   1      42.168  21.412  26.847  1.00  0.00     0.054 A 
BRANCH  75  76
ATOM     76  S   UNL A   1      42.028  19.755  26.120  1.00  0.00     0.124 S 
ATOM     77  O   UNL A   1      42.406  18.898  27.238  1.00  0.00    -0.237 OA
ATOM     78  O   UNL A   1      40.621  19.703  25.729  1.00  0.00    -0.237 OA
ATOM     79  O   UNL A   1      42.975  19.789  25.007  1.00  0.00    -0.744 OA
ENDBRANCH  75  76
ENDBRANCH  47  70
BRANCH  59  80
ATOM     80  C   UNL A   1      47.779  27.494  30.760  1.00  0.00    -0.014 A 
ATOM     81  C   UNL A   1      48.148  26.777  31.911  1.00  0.00     0.010 A 
ATOM     82  C   UNL A   1      48.768  27.820  29.812  1.00  0.00     0.010 A 
ATOM     83  C   UNL A   1      49.483  26.422  32.126  1.00  0.00     0.020 A 
ATOM     84  C   UNL A   1      50.098  27.439  30.007  1.00  0.00     0.020 A 
ATOM     85  C   UNL A   1      50.450  26.755  31.170  1.00  0.00     0.054 A 
BRANCH  85  86
ATOM     86  S   UNL A   1      52.167  26.243  31.453  1.00  0.00     0.124 S 
ATOM     87  O   UNL A   1      52.681  27.340  32.268  1.00  0.00    -0.237 OA
ATOM     88  O   UNL A   1      52.011  24.966  32.143  1.00  0.00    -0.237 OA
ATOM     89  O   UNL A   1      52.728  26.154  30.107  1.00  0.00    -0.744 OA
ENDBRANCH  85  86
ENDBRANCH  59  80
ENDBRANCH  33  34
ENDBRANCH  26  28
ENDBRANCH  25  26
ENDBRANCH   1  25
TORSDOF 17
ENDMDL
MODEL 2
REMARK VINA RESULT:     -10.3      1.032      3.289
REMARK SMILES CC[C@@H](NC(=O)N1C[C@H]2CCCC[N@@H+]2C[C@@H]1C)C(=O)OCCOC(=O)c1ccc(-c2c3nc(c(-c4ccc(S(=O)(=O)[O-])cc4)c4ccc([nH]4)c(-c4ccc(S(=O)(=O)[O-])cc4)c4nc(c(-c5ccc(S(=O)(=O)[O-])cc5)c5ccc2[nH]5)C=C4)C=C3)cc1
REMARK SMILES IDX 22 1 21 2 20 3 18 4 19 5 3 6 2 7 1 8 4 9 5 10 6 12 7 13 8 14
REMARK SMILES IDX 16 15 9 16 15 17 17 18 10 19 14 20 11 21 13 22 12 24 23 25
REMARK SMILES IDX 24 26 25 27 26 28 27 29 85 30 28 31 84 32 29 33 30 34 31 35
REMARK SMILES IDX 78 36 32 37 83 38 77 39 79 40 33 41 82 42 76 43 75 44 34 46
REMARK SMILES IDX 64 47 45 48 63 49 46 50 49 51 62 52 80 53 47 54 48 55 61 57
REMARK SMILES IDX 81 58 50 59 35 60 36 61 44 62 37 63 43 64 38 65 39 66 40 67
REMARK SMILES IDX 41 68 42 69 65 70 66 71 74 72 67 73 73 74 68 75 69 76 70 77
REMARK SMILES IDX 71 78 72 79 51 80 52 81 60 82 53 83 59 84 54 85 55 86 56 87
REMARK SMILES IDX 57 88 58 89
REMARK H PARENT 4 11 14 23 79 45 49 56
REMARK Flexibility Score: inf
ROOT
ATOM      1  C   UNL A   1      32.272  30.397  27.168  1.00  0.00     0.275 C 
ENDROOT
BRANCH   1   2
ATOM      2  C   UNL A   1      31.746  30.668  25.745  1.00  0.00     0.274 C 
BRANCH   2   3
ATOM      3  O   UNL A   1      31.297  29.551  24.969  1.00  0.00    -0.461 OA
BRANCH   3   4
ATOM      4  C   UNL A   1      32.188  29.006  24.100  1.00  0.00     0.328 C 
ATOM      5  O   UNL A   1      33.352  29.351  23.971  1.00  0.00    -0.250 OA
BRANCH   4   6
ATOM      6  C   UNL A   1      31.601  27.932  23.208  1.00  0.00     0.193 C 
BRANCH   6   7
ATOM      7  C   UNL A   1      30.328  28.484  22.530  1.00  0.00     0.033 C 
ATOM      8  C   UNL A   1      29.024  28.034  23.169  1.00  0.00     0.007 C 
ENDBRANCH   6   7
BRANCH   6   9
ATOM      9  N   UNL A   1      32.578  27.337  22.282  1.00  0.00    -0.324 N 
ATOM     10  C   UNL A   1      32.803  26.006  22.010  1.00  0.00     0.318 C 
ATOM     11  H   UNL A   1      33.146  27.975  21.792  1.00  0.00     0.166 HD
ATOM     12  O   UNL A   1      33.141  25.680  20.874  1.00  0.00    -0.249 OA
BRANCH  10  13
ATOM     13  N   UNL A   1      32.931  25.156  23.097  1.00  0.00    -0.310 N 
ATOM     14  C   UNL A   1      34.120  25.308  23.961  1.00  0.00     0.186 C 
ATOM     15  C   UNL A   1      31.723  24.927  23.906  1.00  0.00     0.139 C 
ATOM     16  C   UNL A   1      34.338  23.997  24.756  1.00  0.00     0.203 C 
ATOM     17  C   UNL A   1      31.913  23.833  25.015  1.00  0.00     0.287 C 
ATOM     18  C   UNL A   1      30.521  24.512  23.044  1.00  0.00     0.037 C 
ATOM     19  C   UNL A   1      35.694  23.895  25.459  1.00  0.00     0.067 C 
ATOM     20  N   UNL A   1      33.229  23.690  25.689  1.00  0.00    -0.329 N 
ATOM     21  C   UNL A   1      35.901  22.455  25.938  1.00  0.00     0.012 C 
ATOM     22  C   UNL A   1      33.367  22.303  26.190  1.00  0.00     0.262 C 
ATOM     23  H   UNL A   1      33.273  24.350  26.465  1.00  0.00     0.348 HD
ATOM     24  C   UNL A   1      34.735  21.986  26.802  1.00  0.00     0.062 C 
ENDBRANCH  10  13
ENDBRANCH   6   9
ENDBRANCH   4   6
ENDBRANCH   3   4
ENDBRANCH   2   3
ENDBRANCH   1   2
BRANCH   1  25
ATOM     25  O   UNL A   1      33.695  30.508  27.359  1.00  0.00    -0.458 OA
BRANCH  25  26
ATOM     26  C   UNL A   1      34.331  29.323  27.539  1.00  0.00     0.338 C 
ATOM     27  O   UNL A   1      33.899  28.224  27.203  1.00  0.00    -0.246 OA
BRANCH  26  28
ATOM     28  C   UNL A   1      35.718  29.496  28.030  1.00  0.00     0.060 A 
ATOM     29  C   UNL A   1      36.712  29.745  27.072  1.00  0.00     0.016 A 
ATOM     30  C   UNL A   1      36.071  29.299  29.365  1.00  0.00     0.016 A 
ATOM     31  C   UNL A   1      38.059  29.729  27.421  1.00  0.00     0.010 A 
ATOM     32  C   UNL A   1      37.431  29.258  29.714  1.00  0.00     0.010 A 
ATOM     33  C   UNL A   1      38.429  29.421  28.733  1.00  0.00    -0.014 A 
BRANCH  33  34
ATOM     34  C   UNL A   1      39.841  29.044  29.001  1.00  0.00     0.031 A 
ATOM     35  C   UNL A   1      40.740  30.062  29.656  1.00  0.00     0.074 A 
ATOM     36  C   UNL A   1      40.294  27.801  28.759  1.00  0.00     0.049 A 
ATOM     37  N   UNL A   1      42.007  29.974  29.967  1.00  0.00    -0.248 NA
ATOM     38  C   UNL A   1      40.123  31.350  30.015  1.00  0.00     0.031 C 
ATOM     39  C   UNL A   1      39.499  26.701  28.213  1.00  0.00     0.029 A 
ATOM     40  N   UNL A   1      41.539  27.254  28.949  1.00  0.00    -0.354 N 
ATOM     41  C   UNL A   1      42.343  31.197  30.540  1.00  0.00     0.074 A 
ATOM     42  C   UNL A   1      41.154  32.018  30.511  1.00  0.00     0.031 C 
ATOM     43  C   UNL A   1      40.280  25.612  28.105  1.00  0.00     0.029 A 
ATOM     44  C   UNL A   1      41.638  25.948  28.532  1.00  0.00     0.049 A 
ATOM     45  H   UNL A   1      42.292  27.751  29.346  1.00  0.00     0.167 HD
ATOM     46  C   UNL A   1      43.531  31.599  31.049  1.00  0.00     0.031 A 
ATOM     47  C   UNL A   1      42.706  25.127  28.474  1.00  0.00     0.031 A 
ATOM     48  C   UNL A   1      44.714  30.778  31.069  1.00  0.00     0.049 A 
ATOM     49  C   UNL A   1      44.044  25.627  28.957  1.00  0.00     0.074 A 
ATOM     50  C   UNL A   1      45.972  31.094  31.552  1.00  0.00     0.029 A 
ATOM     51  N   UNL A   1      44.785  29.482  30.582  1.00  0.00    -0.354 N 
ATOM     52  N   UNL A   1      44.349  26.790  29.483  1.00  0.00    -0.248 NA
ATOM     53  C   UNL A   1      45.181  24.701  28.844  1.00  0.00     0.031 C 
ATOM     54  C   UNL A   1      46.820  30.010  31.299  1.00  0.00     0.029 A 
ATOM     55  C   UNL A   1      46.072  28.992  30.726  1.00  0.00     0.049 A 
ATOM     56  H   UNL A   1      44.033  28.982  30.191  1.00  0.00     0.167 HD
ATOM     57  C   UNL A   1      45.706  26.725  29.788  1.00  0.00     0.074 A 
ATOM     58  C   UNL A   1      46.157  25.404  29.403  1.00  0.00     0.031 C 
ATOM     59  C   UNL A   1      46.506  27.673  30.338  1.00  0.00     0.031 A 
BRANCH  46  60
ATOM     60  C   UNL A   1      43.623  33.005  31.583  1.00  0.00    -0.014 A 
ATOM     61  C   UNL A   1      44.036  34.075  30.768  1.00  0.00     0.010 A 
ATOM     62  C   UNL A   1      43.260  33.266  32.917  1.00  0.00     0.010 A 
ATOM     63  C   UNL A   1      44.120  35.371  31.288  1.00  0.00     0.020 A 
ATOM     64  C   UNL A   1      43.314  34.563  33.433  1.00  0.00     0.020 A 
ATOM     65  C   UNL A   1      43.760  35.605  32.619  1.00  0.00     0.054 A 
BRANCH  65  66
ATOM     66  S   UNL A   1      43.860  37.298  33.262  1.00  0.00     0.124 S 
ATOM     67  O   UNL A   1      42.744  37.331  34.203  1.00  0.00    -0.237 OA
ATOM     68  O   UNL A   1      45.191  37.334  33.864  1.00  0.00    -0.237 OA
ATOM     69  O   UNL A   1      43.695  38.133  32.073  1.00  0.00    -0.744 OA
ENDBRANCH  65  66
ENDBRANCH  46  60
BRANCH  47  70
ATOM     70  C   UNL A   1      42.564  23.759  27.895  1.00  0.00    -0.014 A 
ATOM     71  C   UNL A   1      42.222  22.660  28.701  1.00  0.00     0.010 A 
ATOM     72  C   UNL A   1      42.781  23.552  26.519  1.00  0.00     0.010 A 
ATOM     73  C   UNL A   1      42.113  21.380  28.146  1.00  0.00     0.020 A 
ATOM     74  C   UNL A   1      42.643  22.282  25.955  1.00  0.00     0.020 A 
ATOM     75  C   UNL A   1      42.320  21.200  26.775  1.00  0.00     0.054 A 
BRANCH  75  76
ATOM     76  S   UNL A   1      42.126  19.540  26.068  1.00  0.00     0.124 S 
ATOM     77  O   UNL A   1      40.697  19.497  25.777  1.00  0.00    -0.237 OA
ATOM     78  O   UNL A   1      43.009  19.589  24.906  1.00  0.00    -0.237 OA
ATOM     79  O   UNL A   1      42.573  18.656  27.143  1.00  0.00    -0.744 OA
ENDBRANCH  75  76
ENDBRANCH  47  70
BRANCH  59  80
ATOM     80  C   UNL A   1      47.944  27.307  30.598  1.00  0.00    -0.014 A 
ATOM     81  C   UNL A   1      48.968  27.669  29.705  1.00  0.00     0.010 A 
ATOM     82  C   UNL A   1      48.283  26.641  31.792  1.00  0.00     0.010 A 
ATOM     83  C   UNL A   1      50.298  27.343  29.983  1.00  0.00     0.020 A 
ATOM     84  C   UNL A   1      49.615  26.341  32.090  1.00  0.00     0.020 A 
ATOM     85  C   UNL A   1      50.614  26.681  31.176  1.00  0.00     0.054 A 
BRANCH  85  86
ATOM     86  S   UNL A   1      52.352  26.310  31.533  1.00  0.00     0.124 S 
ATOM     87  O   UNL A   1      52.248  25.066  32.292  1.00  0.00    -0.237 OA
ATOM     88  O   UNL A   1      52.933  26.186  30.200  1.00  0.00    -0.237 OA
ATOM     89  O   UNL A   1      52.804  27.469  32.300  1.00  0.00    -0.744 OA
ENDBRANCH  85  86
ENDBRANCH  59  80
ENDBRANCH  33  34
ENDBRANCH  26  28
ENDBRANCH  25  26
ENDBRANCH   1  25
TORSDOF 17
ENDMDL
MODEL 3
REMARK VINA RESULT:     -10.2      2.623      8.927
REMARK SMILES CC[C@@H](NC(=O)N1C[C@H]2CCCC[N@@H+]2C[C@@H]1C)C(=O)OCCOC(=O)c1ccc(-c2c3nc(c(-c4ccc(S(=O)(=O)[O-])cc4)c4ccc([nH]4)c(-c4ccc(S(=O)(=O)[O-])cc4)c4nc(c(-c5ccc(S(=O)(=O)[O-])cc5)c5ccc2[nH]5)C=C4)C=C3)cc1
REMARK SMILES IDX 22 1 21 2 20 3 18 4 19 5 3 6 2 7 1 8 4 9 5 10 6 12 7 13 8 14
REMARK SMILES IDX 16 15 9 16 15 17 17 18 10 19 14 20 11 21 13 22 12 24 23 25
REMARK SMILES IDX 24 26 25 27 26 28 27 29 85 30 28 31 84 32 29 33 30 34 31 35
REMARK SMILES IDX 78 36 32 37 83 38 77 39 79 40 33 41 82 42 76 43 75 44 34 46
REMARK SMILES IDX 64 47 45 48 63 49 46 50 49 51 62 52 80 53 47 54 48 55 61 57
REMARK SMILES IDX 81 58 50 59 35 60 36 61 44 62 37 63 43 64 38 65 39 66 40 67
REMARK SMILES IDX 41 68 42 69 65 70 66 71 74 72 67 73 73 74 68 75 69 76 70 77
REMARK SMILES IDX 71 78 72 79 51 80 52 81 60 82 53 83 59 84 54 85 55 86 56 87
REMARK SMILES IDX 57 88 58 89
REMARK H PARENT 4 11 14 23 79 45 49 56
REMARK Flexibility Score: inf
ROOT
ATOM      1  C   UNL A   1      37.790  22.214  25.073  1.00  0.00     0.275 C 
ENDROOT
BRANCH   1   2
ATOM      2  C   UNL A   1      36.486  23.023  25.216  1.00  0.00     0.274 C 
BRANCH   2   3
ATOM      3  O   UNL A   1      35.304  22.510  24.592  1.00  0.00    -0.461 OA
BRANCH   3   4
ATOM      4  C   UNL A   1      34.671  23.324  23.708  1.00  0.00     0.328 C 
ATOM      5  O   UNL A   1      35.166  23.787  22.693  1.00  0.00    -0.250 OA
BRANCH   4   6
ATOM      6  C   UNL A   1      33.260  23.697  24.113  1.00  0.00     0.193 C 
BRANCH   6   7
ATOM      7  C   UNL A   1      32.263  22.916  23.231  1.00  0.00     0.033 C 
ATOM      8  C   UNL A   1      32.289  21.408  23.426  1.00  0.00     0.007 C 
ENDBRANCH   6   7
BRANCH   6   9
ATOM      9  N   UNL A   1      33.014  23.585  25.561  1.00  0.00    -0.324 N 
ATOM     10  C   UNL A   1      32.147  24.315  26.343  1.00  0.00     0.318 C 
ATOM     11  H   UNL A   1      33.539  22.897  26.032  1.00  0.00     0.166 HD
ATOM     12  O   UNL A   1      31.600  23.765  27.296  1.00  0.00    -0.249 OA
BRANCH  10  13
ATOM     13  N   UNL A   1      32.175  25.692  26.194  1.00  0.00    -0.310 N 
ATOM     14  C   UNL A   1      33.488  26.368  26.231  1.00  0.00     0.186 C 
ATOM     15  C   UNL A   1      31.323  26.263  25.138  1.00  0.00     0.139 C 
ATOM     16  C   UNL A   1      33.278  27.864  26.567  1.00  0.00     0.203 C 
ATOM     17  C   UNL A   1      31.290  27.832  25.144  1.00  0.00     0.287 C 
ATOM     18  C   UNL A   1      29.872  25.768  25.237  1.00  0.00     0.037 C 
ATOM     19  C   UNL A   1      34.556  28.622  26.936  1.00  0.00     0.067 C 
ATOM     20  N   UNL A   1      32.507  28.591  25.531  1.00  0.00    -0.329 N 
ATOM     21  C   UNL A   1      34.177  29.980  27.535  1.00  0.00     0.012 C 
ATOM     22  C   UNL A   1      32.104  29.919  26.049  1.00  0.00     0.262 C 
ATOM     23  H   UNL A   1      33.101  28.700  24.710  1.00  0.00     0.348 HD
ATOM     24  C   UNL A   1      33.260  30.761  26.598  1.00  0.00     0.062 C 
ENDBRANCH  10  13
ENDBRANCH   6   9
ENDBRANCH   4   6
ENDBRANCH   3   4
ENDBRANCH   2   3
ENDBRANCH   1   2
BRANCH   1  25
ATOM     25  O   UNL A   1      38.519  21.951  26.286  1.00  0.00    -0.458 OA
BRANCH  25  26
ATOM     26  C   UNL A   1      39.736  22.550  26.350  1.00  0.00     0.338 C 
ATOM     27  O   UNL A   1      40.782  22.087  25.907  1.00  0.00    -0.246 OA
BRANCH  26  28
ATOM     28  C   UNL A   1      39.654  23.939  26.859  1.00  0.00     0.060 A 
ATOM     29  C   UNL A   1      40.443  24.906  26.218  1.00  0.00     0.016 A 
ATOM     30  C   UNL A   1      38.932  24.277  28.004  1.00  0.00     0.016 A 
ATOM     31  C   UNL A   1      40.574  26.185  26.748  1.00  0.00     0.010 A 
ATOM     32  C   UNL A   1      39.083  25.560  28.554  1.00  0.00     0.010 A 
ATOM     33  C   UNL A   1      39.945  26.500  27.956  1.00  0.00    -0.014 A 
BRANCH  33  34
ATOM     34  C   UNL A   1      40.386  27.716  28.688  1.00  0.00     0.031 A 
ATOM     35  C   UNL A   1      41.790  27.751  29.237  1.00  0.00     0.074 A 
ATOM     36  C   UNL A   1      39.598  28.802  28.785  1.00  0.00     0.049 A 
ATOM     37  N   UNL A   1      42.390  28.686  29.926  1.00  0.00    -0.248 NA
ATOM     38  C   UNL A   1      42.632  26.573  28.963  1.00  0.00     0.031 C 
ATOM     39  C   UNL A   1      38.255  28.926  28.217  1.00  0.00     0.029 A 
ATOM     40  N   UNL A   1      39.819  30.012  29.393  1.00  0.00    -0.354 N 
ATOM     41  C   UNL A   1      43.670  28.204  30.183  1.00  0.00     0.074 A 
ATOM     42  C   UNL A   1      43.751  26.885  29.599  1.00  0.00     0.031 C 
ATOM     43  C   UNL A   1      37.770  30.145  28.513  1.00  0.00     0.029 A 
ATOM     44  C   UNL A   1      38.746  30.870  29.325  1.00  0.00     0.049 A 
ATOM     45  H   UNL A   1      40.667  30.245  29.838  1.00  0.00     0.167 HD
ATOM     46  C   UNL A   1      44.688  28.807  30.842  1.00  0.00     0.031 A 
ATOM     47  C   UNL A   1      38.563  32.085  29.878  1.00  0.00     0.031 A 
ATOM     48  C   UNL A   1      44.598  30.119  31.429  1.00  0.00     0.049 A 
ATOM     49  C   UNL A   1      39.675  32.699  30.690  1.00  0.00     0.074 A 
ATOM     50  C   UNL A   1      45.568  30.816  32.128  1.00  0.00     0.029 A 
ATOM     51  N   UNL A   1      43.473  30.928  31.388  1.00  0.00    -0.354 N 
ATOM     52  N   UNL A   1      40.874  32.226  30.937  1.00  0.00    -0.248 NA
ATOM     53  C   UNL A   1      39.410  34.013  31.294  1.00  0.00     0.031 C 
ATOM     54  C   UNL A   1      45.007  32.022  32.563  1.00  0.00     0.029 A 
ATOM     55  C   UNL A   1      43.713  32.107  32.072  1.00  0.00     0.049 A 
ATOM     56  H   UNL A   1      42.628  30.699  30.938  1.00  0.00     0.167 HD
ATOM     57  C   UNL A   1      41.515  33.197  31.701  1.00  0.00     0.074 A 
ATOM     58  C   UNL A   1      40.578  34.288  31.861  1.00  0.00     0.031 C 
ATOM     59  C   UNL A   1      42.768  33.186  32.223  1.00  0.00     0.031 A 
BRANCH  46  60
ATOM     60  C   UNL A   1      45.971  28.032  31.006  1.00  0.00    -0.014 A 
ATOM     61  C   UNL A   1      46.229  27.273  32.161  1.00  0.00     0.010 A 
ATOM     62  C   UNL A   1      46.922  28.041  29.969  1.00  0.00     0.010 A 
ATOM     63  C   UNL A   1      47.430  26.568  32.292  1.00  0.00     0.020 A 
ATOM     64  C   UNL A   1      48.110  27.315  30.083  1.00  0.00     0.020 A 
ATOM     65  C   UNL A   1      48.364  26.596  31.252  1.00  0.00     0.054 A 
BRANCH  65  66
ATOM     66  S   UNL A   1      49.905  25.657  31.441  1.00  0.00     0.124 S 
ATOM     67  O   UNL A   1      49.557  24.716  32.501  1.00  0.00    -0.237 OA
ATOM     68  O   UNL A   1      50.087  25.072  30.114  1.00  0.00    -0.237 OA
ATOM     69  O   UNL A   1      50.889  26.673  31.810  1.00  0.00    -0.744 OA
ENDBRANCH  65  66
ENDBRANCH  46  60
BRANCH  47  70
ATOM     70  C   UNL A   1      37.256  32.786  29.719  1.00  0.00    -0.014 A 
ATOM     71  C   UNL A   1      36.195  32.562  30.614  1.00  0.00     0.010 A 
ATOM     72  C   UNL A   1      37.066  33.687  28.652  1.00  0.00     0.010 A 
ATOM     73  C   UNL A   1      34.969  33.212  30.438  1.00  0.00     0.020 A 
ATOM     74  C   UNL A   1      35.854  34.362  28.492  1.00  0.00     0.020 A 
ATOM     75  C   UNL A   1      34.808  34.113  29.380  1.00  0.00     0.054 A 
BRANCH  75  76
ATOM     76  S   UNL A   1      33.225  34.981  29.200  1.00  0.00     0.124 S 
ATOM     77  O   UNL A   1      33.647  36.281  28.689  1.00  0.00    -0.237 OA
ATOM     78  O   UNL A   1      32.507  34.131  28.253  1.00  0.00    -0.237 OA
ATOM     79  O   UNL A   1      32.681  34.987  30.556  1.00  0.00    -0.744 OA
ENDBRANCH  75  76
ENDBRANCH  47  70
BRANCH  59  80
ATOM     80  C   UNL A   1      43.219  34.407  32.982  1.00  0.00    -0.014 A 
ATOM     81  C   UNL A   1      43.055  34.508  34.375  1.00  0.00     0.010 A 
ATOM     82  C   UNL A   1      43.875  35.446  32.294  1.00  0.00     0.010 A 
ATOM     83  C   UNL A   1      43.508  35.639  35.060  1.00  0.00     0.020 A 
ATOM     84  C   UNL A   1      44.357  36.564  32.979  1.00  0.00     0.020 A 
ATOM     85  C   UNL A   1      44.158  36.660  34.357  1.00  0.00     0.054 A 
BRANCH  85  86
ATOM     86  S   UNL A   1      44.775  38.097  35.277  1.00  0.00     0.124 S 
ATOM     87  O   UNL A   1      43.844  39.144  34.865  1.00  0.00    -0.237 OA
ATOM     88  O   UNL A   1      44.658  37.661  36.665  1.00  0.00    -0.237 OA
ATOM     89  O   UNL A   1      46.144  38.256  34.792  1.00  0.00    -0.744 OA
ENDBRANCH  85  86
ENDBRANCH  59  80
ENDBRANCH  33  34
ENDBRANCH  26  28
ENDBRANCH  25  26
ENDBRANCH   1  25
TORSDOF 17
ENDMDL
