MODEL 1
REMARK VINA RESULT:     -10.6      0.000      0.000
REMARK SMILES O=C(OCCOC(=O)c1ccc(OC[C@H]2C[C@H]3CC[C@@H]2C3)c(Cl)c1)c1ccc(-c2c3nc(c(-c4ccc(S(=O)(=O)[O-])cc4)c4ccc([nH]4)c(-c4ccc(S(=O)(=O)[O-])cc4)c4nc(c(-c5ccc(S(=O)(=O)[O-])cc5)c5ccc2[nH]5)C=C4)C=C3)cc1
REMARK SMILES IDX 4 1 3 2 2 3 1 4 25 5 26 6 84 7 27 8 83 9 28 10 29 11 30 12
REMARK SMILES IDX 77 13 31 14 82 15 76 16 78 17 32 18 81 19 75 20 74 21 33 23
REMARK SMILES IDX 63 24 44 25 62 26 45 27 48 28 61 29 79 30 46 31 47 32 60 34
REMARK SMILES IDX 80 35 49 36 34 37 35 38 43 39 36 40 42 41 37 42 38 43 39 44
REMARK SMILES IDX 40 45 41 46 64 47 65 48 73 49 66 50 72 51 67 52 68 53 69 54
REMARK SMILES IDX 70 55 71 56 50 57 51 58 59 59 52 60 58 61 53 62 54 63 55 64
REMARK SMILES IDX 56 65 57 66 5 67 6 68 7 69 8 70 9 71 10 72 24 73 11 74 22 75
REMARK SMILES IDX 12 76 23 77 13 78 14 79 15 80 16 81 20 82 17 83 19 84 21 85
REMARK SMILES IDX 18 86
REMARK H PARENT 78 22 48 33
REMARK Flexibility Score: inf
ROOT
ATOM      1  C   UNL A   1      32.486  29.727  26.993  1.00  0.00     0.275 C 
ENDROOT
BRANCH   1   2
ATOM      2  O   UNL A   1      33.905  29.893  27.141  1.00  0.00    -0.458 OA
BRANCH   2   3
ATOM      3  C   UNL A   1      34.597  30.565  28.094  1.00  0.00     0.338 C 
ATOM      4  O   UNL A   1      34.127  31.620  28.519  1.00  0.00    -0.246 OA
BRANCH   3   5
ATOM      5  C   UNL A   1      35.995  30.203  28.507  1.00  0.00     0.060 A 
ATOM      6  C   UNL A   1      36.429  29.829  29.782  1.00  0.00     0.016 A 
ATOM      7  C   UNL A   1      36.939  30.161  27.470  1.00  0.00     0.016 A 
ATOM      8  C   UNL A   1      37.713  29.311  29.999  1.00  0.00     0.010 A 
ATOM      9  C   UNL A   1      38.203  29.596  27.670  1.00  0.00     0.010 A 
ATOM     10  C   UNL A   1      38.603  29.158  28.941  1.00  0.00    -0.014 A 
BRANCH  10  11
ATOM     11  C   UNL A   1      40.005  28.725  29.165  1.00  0.00     0.031 A 
ATOM     12  C   UNL A   1      40.969  29.765  29.661  1.00  0.00     0.074 A 
ATOM     13  C   UNL A   1      40.425  27.462  28.937  1.00  0.00     0.049 A 
ATOM     14  N   UNL A   1      42.250  29.662  29.886  1.00  0.00    -0.248 NA
ATOM     15  C   UNL A   1      40.410  31.097  29.962  1.00  0.00     0.031 C 
ATOM     16  C   UNL A   1      39.577  26.331  28.562  1.00  0.00     0.029 A 
ATOM     17  N   UNL A   1      41.686  26.916  28.956  1.00  0.00    -0.354 N 
ATOM     18  C   UNL A   1      42.630  30.898  30.387  1.00  0.00     0.074 A 
ATOM     19  C   UNL A   1      41.490  31.778  30.296  1.00  0.00     0.031 C 
ATOM     20  C   UNL A   1      40.345  25.266  28.266  1.00  0.00     0.029 A 
ATOM     21  C   UNL A   1      41.739  25.618  28.492  1.00  0.00     0.049 A 
ATOM     22  H   UNL A   1      42.480  27.407  29.269  1.00  0.00     0.167 HD
ATOM     23  C   UNL A   1      43.798  31.248  30.967  1.00  0.00     0.031 A 
ATOM     24  C   UNL A   1      42.791  24.801  28.290  1.00  0.00     0.031 A 
ATOM     25  C   UNL A   1      44.918  30.363  31.069  1.00  0.00     0.049 A 
ATOM     26  C   UNL A   1      44.138  25.264  28.778  1.00  0.00     0.074 A 
ATOM     27  C   UNL A   1      46.146  30.591  31.659  1.00  0.00     0.029 A 
ATOM     28  N   UNL A   1      44.943  29.073  30.557  1.00  0.00    -0.354 N 
ATOM     29  N   UNL A   1      44.458  26.411  29.328  1.00  0.00    -0.248 NA
ATOM     30  C   UNL A   1      45.244  24.300  28.698  1.00  0.00     0.031 C 
ATOM     31  C   UNL A   1      46.935  29.455  31.452  1.00  0.00     0.029 A 
ATOM     32  C   UNL A   1      46.176  28.499  30.791  1.00  0.00     0.049 A 
ATOM     33  H   UNL A   1      44.192  28.633  30.097  1.00  0.00     0.167 HD
ATOM     34  C   UNL A   1      45.780  26.279  29.736  1.00  0.00     0.074 A 
ATOM     35  C   UNL A   1      46.202  24.948  29.347  1.00  0.00     0.031 C 
ATOM     36  C   UNL A   1      46.561  27.166  30.400  1.00  0.00     0.031 A 
BRANCH  23  37
ATOM     37  C   UNL A   1      43.872  32.631  31.547  1.00  0.00    -0.014 A 
ATOM     38  C   UNL A   1      43.473  32.873  32.878  1.00  0.00     0.010 A 
ATOM     39  C   UNL A   1      44.287  33.708  30.749  1.00  0.00     0.010 A 
ATOM     40  C   UNL A   1      43.432  34.174  33.379  1.00  0.00     0.020 A 
ATOM     41  C   UNL A   1      44.280  35.009  31.258  1.00  0.00     0.020 A 
ATOM     42  C   UNL A   1      43.833  35.235  32.563  1.00  0.00     0.054 A 
BRANCH  42  43
ATOM     43  S   UNL A   1      43.775  36.915  33.241  1.00  0.00     0.124 S 
ATOM     44  O   UNL A   1      42.553  36.876  34.040  1.00  0.00    -0.237 OA
ATOM     45  O   UNL A   1      45.020  36.994  34.003  1.00  0.00    -0.237 OA
ATOM     46  O   UNL A   1      43.719  37.766  32.055  1.00  0.00    -0.744 OA
ENDBRANCH  42  43
ENDBRANCH  23  37
BRANCH  24  47
ATOM     47  C   UNL A   1      42.615  23.447  27.685  1.00  0.00    -0.014 A 
ATOM     48  C   UNL A   1      42.143  22.369  28.456  1.00  0.00     0.010 A 
ATOM     49  C   UNL A   1      42.944  23.219  26.336  1.00  0.00     0.010 A 
ATOM     50  C   UNL A   1      42.036  21.087  27.903  1.00  0.00     0.020 A 
ATOM     51  C   UNL A   1      42.819  21.942  25.771  1.00  0.00     0.020 A 
ATOM     52  C   UNL A   1      42.377  20.881  26.563  1.00  0.00     0.054 A 
BRANCH  52  53
ATOM     53  S   UNL A   1      42.208  19.209  25.869  1.00  0.00     0.124 S 
ATOM     54  O   UNL A   1      43.021  19.296  24.661  1.00  0.00    -0.237 OA
ATOM     55  O   UNL A   1      42.750  18.374  26.939  1.00  0.00    -0.237 OA
ATOM     56  O   UNL A   1      40.770  19.071  25.649  1.00  0.00    -0.744 OA
ENDBRANCH  52  53
ENDBRANCH  24  47
BRANCH  36  57
ATOM     57  C   UNL A   1      47.935  26.710  30.801  1.00  0.00    -0.014 A 
ATOM     58  C   UNL A   1      49.062  27.019  30.022  1.00  0.00     0.010 A 
ATOM     59  C   UNL A   1      48.101  26.037  32.026  1.00  0.00     0.010 A 
ATOM     60  C   UNL A   1      50.334  26.644  30.455  1.00  0.00     0.020 A 
ATOM     61  C   UNL A   1      49.374  25.692  32.477  1.00  0.00     0.020 A 
ATOM     62  C   UNL A   1      50.482  25.990  31.682  1.00  0.00     0.054 A 
BRANCH  62  63
ATOM     63  S   UNL A   1      52.152  25.580  32.253  1.00  0.00     0.124 S 
ATOM     64  O   UNL A   1      52.028  24.158  32.559  1.00  0.00    -0.237 OA
ATOM     65  O   UNL A   1      52.975  25.905  31.089  1.00  0.00    -0.237 OA
ATOM     66  O   UNL A   1      52.347  26.453  33.408  1.00  0.00    -0.744 OA
ENDBRANCH  62  63
ENDBRANCH  36  57
ENDBRANCH  10  11
ENDBRANCH   3   5
ENDBRANCH   2   3
ENDBRANCH   1   2
BRANCH   1  67
ATOM     67  C   UNL A   1      31.953  30.070  25.596  1.00  0.00     0.275 C 
BRANCH  67  68
ATOM     68  O   UNL A   1      32.647  29.392  24.540  1.00  0.00    -0.458 OA
BRANCH  68  69
ATOM     69  C   UNL A   1      31.885  28.519  23.829  1.00  0.00     0.338 C 
ATOM     70  O   UNL A   1      31.086  28.785  22.957  1.00  0.00    -0.246 OA
BRANCH  69  71
ATOM     71  C   UNL A   1      32.289  27.140  24.157  1.00  0.00     0.061 A 
ATOM     72  C   UNL A   1      33.476  26.860  24.824  1.00  0.00     0.019 A 
ATOM     73  C   UNL A   1      31.426  26.105  23.785  1.00  0.00     0.040 A 
ATOM     74  C   UNL A   1      33.752  25.536  25.184  1.00  0.00     0.049 A 
ATOM     75  C   UNL A   1      31.741  24.774  24.084  1.00  0.00     0.083 A 
ATOM     76  C   UNL A   1      32.850  24.497  24.888  1.00  0.00     0.137 A 
ATOM     77  Cl  UNL A   1      30.716  23.575  23.375  1.00  0.00    -0.080 Cl
BRANCH  76  78
ATOM     78  O   UNL A   1      33.131  23.369  25.599  1.00  0.00    -0.492 OA
BRANCH  78  79
ATOM     79  C   UNL A   1      34.165  23.377  26.571  1.00  0.00     0.233 C 
BRANCH  79  80
ATOM     80  C   UNL A   1      35.487  22.615  26.322  1.00  0.00     0.030 C 
ATOM     81  C   UNL A   1      35.353  21.388  25.393  1.00  0.00     0.011 C 
ATOM     82  C   UNL A   1      36.823  23.242  25.831  1.00  0.00    -0.004 C 
ATOM     83  C   UNL A   1      36.705  21.353  24.650  1.00  0.00    -0.010 C 
ATOM     84  C   UNL A   1      36.863  23.698  24.362  1.00  0.00     0.004 C 
ATOM     85  C   UNL A   1      37.665  21.967  25.672  1.00  0.00     0.007 C 
ATOM     86  C   UNL A   1      36.669  22.423  23.556  1.00  0.00     0.004 C 
ENDBRANCH  79  80
ENDBRANCH  78  79
ENDBRANCH  76  78
ENDBRANCH  69  71
ENDBRANCH  68  69
ENDBRANCH  67  68
ENDBRANCH   1  67
TORSDOF 17
ENDMDL
MODEL 2
REMARK VINA RESULT:     -10.6      2.710      9.512
REMARK SMILES O=C(OCCOC(=O)c1ccc(OC[C@H]2C[C@H]3CC[C@@H]2C3)c(Cl)c1)c1ccc(-c2c3nc(c(-c4ccc(S(=O)(=O)[O-])cc4)c4ccc([nH]4)c(-c4ccc(S(=O)(=O)[O-])cc4)c4nc(c(-c5ccc(S(=O)(=O)[O-])cc5)c5ccc2[nH]5)C=C4)C=C3)cc1
REMARK SMILES IDX 4 1 3 2 2 3 1 4 25 5 26 6 84 7 27 8 83 9 28 10 29 11 30 12
REMARK SMILES IDX 77 13 31 14 82 15 76 16 78 17 32 18 81 19 75 20 74 21 33 23
REMARK SMILES IDX 63 24 44 25 62 26 45 27 48 28 61 29 79 30 46 31 47 32 60 34
REMARK SMILES IDX 80 35 49 36 34 37 35 38 43 39 36 40 42 41 37 42 38 43 39 44
REMARK SMILES IDX 40 45 41 46 64 47 65 48 73 49 66 50 72 51 67 52 68 53 69 54
REMARK SMILES IDX 70 55 71 56 50 57 51 58 59 59 52 60 58 61 53 62 54 63 55 64
REMARK SMILES IDX 56 65 57 66 5 67 6 68 7 69 8 70 9 71 10 72 24 73 11 74 22 75
REMARK SMILES IDX 12 76 23 77 13 78 14 79 15 80 16 81 20 82 17 83 19 84 21 85
REMARK SMILES IDX 18 86
REMARK H PARENT 78 22 48 33
REMARK Flexibility Score: inf
ROOT
ATOM      1  C   UNL A   1      36.938  23.370  24.887  1.00  0.00     0.275 C 
ENDROOT
BRANCH   1   2
ATOM      2  O   UNL A   1      37.721  22.769  25.930  1.00  0.00    -0.458 OA
BRANCH   2   3
ATOM      3  C   UNL A   1      39.029  22.952  26.236  1.00  0.00     0.338 C 
ATOM      4  O   UNL A   1      39.779  21.978  26.189  1.00  0.00    -0.246 OA
BRANCH   3   5
ATOM      5  C   UNL A   1      39.568  24.224  26.826  1.00  0.00     0.060 A 
ATOM      6  C   UNL A   1      40.349  25.189  26.184  1.00  0.00     0.016 A 
ATOM      7  C   UNL A   1      39.164  24.498  28.141  1.00  0.00     0.016 A 
ATOM      8  C   UNL A   1      40.613  26.433  26.773  1.00  0.00     0.010 A 
ATOM      9  C   UNL A   1      39.378  25.756  28.713  1.00  0.00     0.010 A 
ATOM     10  C   UNL A   1      40.104  26.743  28.030  1.00  0.00    -0.014 A 
BRANCH  10  11
ATOM     11  C   UNL A   1      40.469  28.004  28.724  1.00  0.00     0.031 A 
ATOM     12  C   UNL A   1      41.792  28.032  29.435  1.00  0.00     0.074 A 
ATOM     13  C   UNL A   1      39.667  29.090  28.735  1.00  0.00     0.049 A 
ATOM     14  N   UNL A   1      42.321  28.983  30.155  1.00  0.00    -0.248 NA
ATOM     15  C   UNL A   1      42.642  26.833  29.304  1.00  0.00     0.031 C 
ATOM     16  C   UNL A   1      38.413  29.238  27.998  1.00  0.00     0.029 A 
ATOM     17  N   UNL A   1      39.769  30.276  29.422  1.00  0.00    -0.354 N 
ATOM     18  C   UNL A   1      43.571  28.507  30.521  1.00  0.00     0.074 A 
ATOM     19  C   UNL A   1      43.666  27.138  30.078  1.00  0.00     0.031 C 
ATOM     20  C   UNL A   1      37.803  30.380  28.362  1.00  0.00     0.029 A 
ATOM     21  C   UNL A   1      38.653  31.081  29.313  1.00  0.00     0.049 A 
ATOM     22  H   UNL A   1      40.564  30.528  29.944  1.00  0.00     0.167 HD
ATOM     23  C   UNL A   1      44.594  29.180  31.090  1.00  0.00     0.031 A 
ATOM     24  C   UNL A   1      38.360  32.257  29.902  1.00  0.00     0.031 A 
ATOM     25  C   UNL A   1      44.497  30.545  31.511  1.00  0.00     0.049 A 
ATOM     26  C   UNL A   1      39.449  32.933  30.692  1.00  0.00     0.074 A 
ATOM     27  C   UNL A   1      45.471  31.344  32.075  1.00  0.00     0.029 A 
ATOM     28  N   UNL A   1      43.343  31.310  31.417  1.00  0.00    -0.354 N 
ATOM     29  N   UNL A   1      40.658  32.497  30.955  1.00  0.00    -0.248 NA
ATOM     30  C   UNL A   1      39.169  34.286  31.190  1.00  0.00     0.031 C 
ATOM     31  C   UNL A   1      44.888  32.579  32.374  1.00  0.00     0.029 A 
ATOM     32  C   UNL A   1      43.570  32.567  31.938  1.00  0.00     0.049 A 
ATOM     33  H   UNL A   1      42.490  31.002  31.033  1.00  0.00     0.167 HD
ATOM     34  C   UNL A   1      41.313  33.553  31.578  1.00  0.00     0.074 A 
ATOM     35  C   UNL A   1      40.355  34.638  31.670  1.00  0.00     0.031 C 
ATOM     36  C   UNL A   1      42.597  33.629  32.005  1.00  0.00     0.031 A 
BRANCH  23  37
ATOM     37  C   UNL A   1      45.887  28.432  31.242  1.00  0.00    -0.014 A 
ATOM     38  C   UNL A   1      46.165  27.712  32.422  1.00  0.00     0.010 A 
ATOM     39  C   UNL A   1      46.856  28.488  30.229  1.00  0.00     0.010 A 
ATOM     40  C   UNL A   1      47.411  27.114  32.610  1.00  0.00     0.020 A 
ATOM     41  C   UNL A   1      48.094  27.862  30.399  1.00  0.00     0.020 A 
ATOM     42  C   UNL A   1      48.370  27.198  31.597  1.00  0.00     0.054 A 
BRANCH  42  43
ATOM     43  S   UNL A   1      49.978  26.407  31.865  1.00  0.00     0.124 S 
ATOM     44  O   UNL A   1      49.942  26.124  33.297  1.00  0.00    -0.237 OA
ATOM     45  O   UNL A   1      49.908  25.237  30.993  1.00  0.00    -0.237 OA
ATOM     46  O   UNL A   1      50.940  27.428  31.454  1.00  0.00    -0.744 OA
ENDBRANCH  42  43
ENDBRANCH  23  37
BRANCH  24  47
ATOM     47  C   UNL A   1      37.033  32.912  29.703  1.00  0.00    -0.014 A 
ATOM     48  C   UNL A   1      36.793  33.731  28.585  1.00  0.00     0.010 A 
ATOM     49  C   UNL A   1      36.004  32.742  30.648  1.00  0.00     0.010 A 
ATOM     50  C   UNL A   1      35.567  34.392  28.432  1.00  0.00     0.020 A 
ATOM     51  C   UNL A   1      34.769  33.386  30.491  1.00  0.00     0.020 A 
ATOM     52  C   UNL A   1      34.563  34.217  29.388  1.00  0.00     0.054 A 
BRANCH  52  53
ATOM     53  S   UNL A   1      32.977  35.073  29.152  1.00  0.00     0.124 S 
ATOM     54  O   UNL A   1      32.309  34.219  28.175  1.00  0.00    -0.237 OA
ATOM     55  O   UNL A   1      32.412  35.056  30.499  1.00  0.00    -0.237 OA
ATOM     56  O   UNL A   1      33.369  36.394  28.665  1.00  0.00    -0.744 OA
ENDBRANCH  52  53
ENDBRANCH  24  47
BRANCH  36  57
ATOM     57  C   UNL A   1      43.063  34.945  32.559  1.00  0.00    -0.014 A 
ATOM     58  C   UNL A   1      43.717  35.886  31.748  1.00  0.00     0.010 A 
ATOM     59  C   UNL A   1      42.758  35.271  33.893  1.00  0.00     0.010 A 
ATOM     60  C   UNL A   1      44.076  37.130  32.271  1.00  0.00     0.020 A 
ATOM     61  C   UNL A   1      43.085  36.525  34.408  1.00  0.00     0.020 A 
ATOM     62  C   UNL A   1      43.751  37.442  33.595  1.00  0.00     0.054 A 
BRANCH  62  63
ATOM     63  S   UNL A   1      44.165  39.090  34.225  1.00  0.00     0.124 S 
ATOM     64  O   UNL A   1      44.334  38.835  35.652  1.00  0.00    -0.237 OA
ATOM     65  O   UNL A   1      45.388  39.413  33.493  1.00  0.00    -0.237 OA
ATOM     66  O   UNL A   1      43.001  39.899  33.868  1.00  0.00    -0.744 OA
ENDBRANCH  62  63
ENDBRANCH  36  57
ENDBRANCH  10  11
ENDBRANCH   3   5
ENDBRANCH   2   3
ENDBRANCH   1   2
BRANCH   1  67
ATOM     67  C   UNL A   1      36.543  22.408  23.760  1.00  0.00     0.275 C 
BRANCH  67  68
ATOM     68  O   UNL A   1      35.126  22.235  23.630  1.00  0.00    -0.458 OA
BRANCH  68  69
ATOM     69  C   UNL A   1      34.539  21.563  24.656  1.00  0.00     0.338 C 
ATOM     70  O   UNL A   1      34.954  20.569  25.212  1.00  0.00    -0.246 OA
BRANCH  69  71
ATOM     71  C   UNL A   1      33.368  22.321  25.130  1.00  0.00     0.061 A 
ATOM     72  C   UNL A   1      33.085  22.469  26.483  1.00  0.00     0.019 A 
ATOM     73  C   UNL A   1      32.541  22.909  24.167  1.00  0.00     0.040 A 
ATOM     74  C   UNL A   1      32.009  23.279  26.864  1.00  0.00     0.049 A 
ATOM     75  C   UNL A   1      31.423  23.658  24.551  1.00  0.00     0.083 A 
ATOM     76  C   UNL A   1      31.222  23.942  25.905  1.00  0.00     0.137 A 
ATOM     77  Cl  UNL A   1      30.358  24.137  23.276  1.00  0.00    -0.080 Cl
BRANCH  76  78
ATOM     78  O   UNL A   1      30.459  24.921  26.469  1.00  0.00    -0.492 OA
BRANCH  78  79
ATOM     79  C   UNL A   1      30.344  26.187  25.837  1.00  0.00     0.233 C 
BRANCH  79  80
ATOM     80  C   UNL A   1      31.604  27.026  25.518  1.00  0.00     0.030 C 
ATOM     81  C   UNL A   1      31.321  28.336  24.749  1.00  0.00     0.011 C 
ATOM     82  C   UNL A   1      32.679  27.483  26.543  1.00  0.00    -0.004 C 
ATOM     83  C   UNL A   1      32.402  29.302  25.281  1.00  0.00    -0.010 C 
ATOM     84  C   UNL A   1      32.256  28.582  27.532  1.00  0.00     0.004 C 
ATOM     85  C   UNL A   1      33.553  28.356  25.630  1.00  0.00     0.007 C 
ATOM     86  C   UNL A   1      31.956  29.792  26.660  1.00  0.00     0.004 C 
ENDBRANCH  79  80
ENDBRANCH  78  79
ENDBRANCH  76  78
ENDBRANCH  69  71
ENDBRANCH  68  69
ENDBRANCH  67  68
ENDBRANCH   1  67
TORSDOF 17
ENDMDL
MODEL 3
REMARK VINA RESULT:     -10.5      3.396      6.089
REMARK SMILES O=C(OCCOC(=O)c1ccc(OC[C@H]2C[C@H]3CC[C@@H]2C3)c(Cl)c1)c1ccc(-c2c3nc(c(-c4ccc(S(=O)(=O)[O-])cc4)c4ccc([nH]4)c(-c4ccc(S(=O)(=O)[O-])cc4)c4nc(c(-c5ccc(S(=O)(=O)[O-])cc5)c5ccc2[nH]5)C=C4)C=C3)cc1
REMARK SMILES IDX 4 1 3 2 2 3 1 4 25 5 26 6 84 7 27 8 83 9 28 10 29 11 30 12
REMARK SMILES IDX 77 13 31 14 82 15 76 16 78 17 32 18 81 19 75 20 74 21 33 23
REMARK SMILES IDX 63 24 44 25 62 26 45 27 48 28 61 29 79 30 46 31 47 32 60 34
REMARK SMILES IDX 80 35 49 36 34 37 35 38 43 39 36 40 42 41 37 42 38 43 39 44
REMARK SMILES IDX 40 45 41 46 64 47 65 48 73 49 66 50 72 51 67 52 68 53 69 54
REMARK SMILES IDX 70 55 71 56 50 57 51 58 59 59 52 60 58 61 53 62 54 63 55 64
REMARK SMILES IDX 56 65 57 66 5 67 6 68 7 69 8 70 9 71 10 72 24 73 11 74 22 75
REMARK SMILES IDX 12 76 23 77 13 78 14 79 15 80 16 81 20 82 17 83 19 84 21 85
REMARK SMILES IDX 18 86
REMARK H PARENT 78 22 48 33
REMARK Flexibility Score: inf
ROOT
ATOM      1  C   UNL A   1      34.292  32.940  28.343  1.00  0.00     0.275 C 
ENDROOT
BRANCH   1   2
ATOM      2  O   UNL A   1      33.880  31.588  28.086  1.00  0.00    -0.458 OA
BRANCH   2   3
ATOM      3  C   UNL A   1      34.606  30.544  27.617  1.00  0.00     0.338 C 
ATOM      4  O   UNL A   1      34.080  29.790  26.800  1.00  0.00    -0.246 OA
BRANCH   3   5
ATOM      5  C   UNL A   1      35.934  30.139  28.191  1.00  0.00     0.060 A 
ATOM      6  C   UNL A   1      36.175  29.576  29.447  1.00  0.00     0.016 A 
ATOM      7  C   UNL A   1      37.031  30.270  27.326  1.00  0.00     0.016 A 
ATOM      8  C   UNL A   1      37.427  29.046  29.787  1.00  0.00     0.010 A 
ATOM      9  C   UNL A   1      38.267  29.697  27.638  1.00  0.00     0.010 A 
ATOM     10  C   UNL A   1      38.478  29.070  28.876  1.00  0.00    -0.014 A 
BRANCH  10  11
ATOM     11  C   UNL A   1      39.842  28.624  29.255  1.00  0.00     0.031 A 
ATOM     12  C   UNL A   1      40.728  29.636  29.925  1.00  0.00     0.074 A 
ATOM     13  C   UNL A   1      40.295  27.375  29.017  1.00  0.00     0.049 A 
ATOM     14  N   UNL A   1      41.970  29.520  30.306  1.00  0.00    -0.248 NA
ATOM     15  C   UNL A   1      40.128  30.951  30.221  1.00  0.00     0.031 C 
ATOM     16  C   UNL A   1      39.509  26.266  28.477  1.00  0.00     0.029 A 
ATOM     17  N   UNL A   1      41.547  26.828  29.168  1.00  0.00    -0.354 N 
ATOM     18  C   UNL A   1      42.276  30.727  30.917  1.00  0.00     0.074 A 
ATOM     19  C   UNL A   1      41.153  31.612  30.727  1.00  0.00     0.031 C 
ATOM     20  C   UNL A   1      40.314  25.218  28.226  1.00  0.00     0.029 A 
ATOM     21  C   UNL A   1      41.666  25.555  28.647  1.00  0.00     0.049 A 
ATOM     22  H   UNL A   1      42.290  27.301  29.607  1.00  0.00     0.167 HD
ATOM     23  C   UNL A   1      43.358  31.044  31.659  1.00  0.00     0.031 A 
ATOM     24  C   UNL A   1      42.740  24.749  28.539  1.00  0.00     0.031 A 
ATOM     25  C   UNL A   1      44.461  30.154  31.858  1.00  0.00     0.049 A 
ATOM     26  C   UNL A   1      44.010  25.185  29.219  1.00  0.00     0.074 A 
ATOM     27  C   UNL A   1      45.601  30.349  32.611  1.00  0.00     0.029 A 
ATOM     28  N   UNL A   1      44.558  28.893  31.286  1.00  0.00    -0.354 N 
ATOM     29  N   UNL A   1      44.250  26.301  29.866  1.00  0.00    -0.248 NA
ATOM     30  C   UNL A   1      45.123  24.225  29.232  1.00  0.00     0.031 C 
ATOM     31  C   UNL A   1      46.417  29.225  32.448  1.00  0.00     0.029 A 
ATOM     32  C   UNL A   1      45.755  28.307  31.645  1.00  0.00     0.049 A 
ATOM     33  H   UNL A   1      43.876  28.479  30.710  1.00  0.00     0.167 HD
ATOM     34  C   UNL A   1      45.510  26.146  30.433  1.00  0.00     0.074 A 
ATOM     35  C   UNL A   1      45.986  24.836  30.032  1.00  0.00     0.031 C 
ATOM     36  C   UNL A   1      46.194  26.995  31.237  1.00  0.00     0.031 A 
BRANCH  23  37
ATOM     37  C   UNL A   1      43.349  32.395  32.316  1.00  0.00    -0.014 A 
ATOM     38  C   UNL A   1      42.657  32.599  33.528  1.00  0.00     0.010 A 
ATOM     39  C   UNL A   1      43.985  33.482  31.698  1.00  0.00     0.010 A 
ATOM     40  C   UNL A   1      42.552  33.877  34.077  1.00  0.00     0.020 A 
ATOM     41  C   UNL A   1      43.911  34.758  32.263  1.00  0.00     0.020 A 
ATOM     42  C   UNL A   1      43.177  34.949  33.437  1.00  0.00     0.054 A 
BRANCH  42  43
ATOM     43  S   UNL A   1      43.029  36.598  34.175  1.00  0.00     0.124 S 
ATOM     44  O   UNL A   1      43.097  37.463  32.999  1.00  0.00    -0.237 OA
ATOM     45  O   UNL A   1      41.726  36.538  34.833  1.00  0.00    -0.237 OA
ATOM     46  O   UNL A   1      44.176  36.680  35.076  1.00  0.00    -0.744 OA
ENDBRANCH  42  43
ENDBRANCH  23  37
BRANCH  24  47
ATOM     47  C   UNL A   1      42.650  23.430  27.846  1.00  0.00    -0.014 A 
ATOM     48  C   UNL A   1      41.991  22.343  28.449  1.00  0.00     0.010 A 
ATOM     49  C   UNL A   1      43.248  23.242  26.586  1.00  0.00     0.010 A 
ATOM     50  C   UNL A   1      41.961  21.089  27.824  1.00  0.00     0.020 A 
ATOM     51  C   UNL A   1      43.204  21.996  25.947  1.00  0.00     0.020 A 
ATOM     52  C   UNL A   1      42.569  20.923  26.577  1.00  0.00     0.054 A 
BRANCH  52  53
ATOM     53  S   UNL A   1      42.496  19.290  25.783  1.00  0.00     0.124 S 
ATOM     54  O   UNL A   1      43.045  18.420  26.818  1.00  0.00    -0.237 OA
ATOM     55  O   UNL A   1      41.067  19.137  25.520  1.00  0.00    -0.237 OA
ATOM     56  O   UNL A   1      43.327  19.449  24.592  1.00  0.00    -0.744 OA
ENDBRANCH  52  53
ENDBRANCH  24  47
BRANCH  36  57
ATOM     57  C   UNL A   1      47.508  26.517  31.787  1.00  0.00    -0.014 A 
ATOM     58  C   UNL A   1      47.565  25.660  32.898  1.00  0.00     0.010 A 
ATOM     59  C   UNL A   1      48.696  26.866  31.119  1.00  0.00     0.010 A 
ATOM     60  C   UNL A   1      48.795  25.174  33.343  1.00  0.00     0.020 A 
ATOM     61  C   UNL A   1      49.922  26.355  31.541  1.00  0.00     0.020 A 
ATOM     62  C   UNL A   1      49.963  25.520  32.658  1.00  0.00     0.054 A 
BRANCH  62  63
ATOM     63  S   UNL A   1      51.537  24.815  33.215  1.00  0.00     0.124 S 
ATOM     64  O   UNL A   1      51.993  25.815  34.176  1.00  0.00    -0.237 OA
ATOM     65  O   UNL A   1      51.128  23.534  33.785  1.00  0.00    -0.237 OA
ATOM     66  O   UNL A   1      52.328  24.721  31.990  1.00  0.00    -0.744 OA
ENDBRANCH  62  63
ENDBRANCH  36  57
ENDBRANCH  10  11
ENDBRANCH   3   5
ENDBRANCH   2   3
ENDBRANCH   1   2
BRANCH   1  67
ATOM     67  C   UNL A   1      34.175  33.367  29.812  1.00  0.00     0.275 C 
BRANCH  67  68
ATOM     68  O   UNL A   1      34.786  32.443  30.722  1.00  0.00    -0.458 OA
BRANCH  68  69
ATOM     69  C   UNL A   1      34.642  32.762  32.036  1.00  0.00     0.338 C 
ATOM     70  O   UNL A   1      33.669  33.251  32.569  1.00  0.00    -0.246 OA
BRANCH  69  71
ATOM     71  C   UNL A   1      35.809  32.270  32.788  1.00  0.00     0.061 A 
ATOM     72  C   UNL A   1      36.412  31.051  32.497  1.00  0.00     0.019 A 
ATOM     73  C   UNL A   1      36.312  33.080  33.812  1.00  0.00     0.040 A 
ATOM     74  C   UNL A   1      37.573  30.689  33.191  1.00  0.00     0.049 A 
ATOM     75  C   UNL A   1      37.430  32.679  34.553  1.00  0.00     0.083 A 
ATOM     76  C   UNL A   1      38.134  31.535  34.165  1.00  0.00     0.137 A 
ATOM     77  Cl  UNL A   1      37.813  33.649  35.931  1.00  0.00    -0.080 Cl
BRANCH  76  78
ATOM     78  O   UNL A   1      39.410  31.170  34.475  1.00  0.00    -0.492 OA
BRANCH  78  79
ATOM     79  C   UNL A   1      39.937  29.944  33.992  1.00  0.00     0.233 C 
BRANCH  79  80
ATOM     80  C   UNL A   1      41.374  29.505  34.360  1.00  0.00     0.030 C 
ATOM     81  C   UNL A   1      41.717  29.631  35.861  1.00  0.00     0.011 C 
ATOM     82  C   UNL A   1      42.035  28.146  33.995  1.00  0.00    -0.004 C 
ATOM     83  C   UNL A   1      42.688  28.457  36.105  1.00  0.00    -0.010 C 
ATOM     84  C   UNL A   1      41.515  26.910  34.749  1.00  0.00     0.004 C 
ATOM     85  C   UNL A   1      43.368  28.296  34.743  1.00  0.00     0.007 C 
ATOM     86  C   UNL A   1      41.860  27.174  36.207  1.00  0.00     0.004 C 
ENDBRANCH  79  80
ENDBRANCH  78  79
ENDBRANCH  76  78
ENDBRANCH  69  71
ENDBRANCH  68  69
ENDBRANCH  67  68
ENDBRANCH   1  67
TORSDOF 17
ENDMDL
