MODEL 1
REMARK VINA RESULT:      -9.4      0.000      0.000
REMARK SMILES CCc1ccc(N(C)C(=O)N2CC[C@@H](C(=O)OCCOC(=O)c3ccc(-c4c5nc(c(-c6ccc(S(=O)(=O)[O-])cc6)c6ccc([nH]6)c(-c6ccc(S(=O)(=O)[O-])cc6)c6nc(c(-c7ccc(S(=O)(=O)[O-])cc7)c7ccc4[nH]7)C=C6)C=C5)cc3)[C@@H]2C)cc1
REMARK SMILES IDX 18 1 17 2 15 3 16 4 14 5 11 6 12 7 83 8 13 9 84 10 9 11
REMARK SMILES IDX 10 12 7 13 8 14 6 15 3 16 4 17 86 18 5 19 85 20 2 21 1 22
REMARK SMILES IDX 19 23 20 24 21 25 22 26 23 27 24 28 82 29 25 30 81 31 26 32
REMARK SMILES IDX 27 33 28 34 75 35 29 36 80 37 74 38 76 39 30 40 79 41 73 42
REMARK SMILES IDX 72 43 31 45 61 46 42 47 60 48 43 49 46 50 59 51 77 52 44 53
REMARK SMILES IDX 45 54 58 56 78 57 47 58 32 59 33 60 41 61 34 62 40 63 35 64
REMARK SMILES IDX 36 65 37 66 38 67 39 68 62 69 63 70 71 71 64 72 70 73 65 74
REMARK SMILES IDX 66 75 67 76 68 77 69 78 48 79 49 80 57 81 50 82 56 83 51 84
REMARK SMILES IDX 52 85 53 86 54 87 55 88
REMARK H PARENT 76 44 46 55
REMARK Flexibility Score: inf
ROOT
ATOM      1  C   UNL A   1      33.532  33.757  28.345  1.00  0.00     0.274 C 
ENDROOT
BRANCH   1   2
ATOM      2  O   UNL A   1      34.198  34.840  29.025  1.00  0.00    -0.462 OA
BRANCH   2   3
ATOM      3  C   UNL A   1      33.494  35.458  30.007  1.00  0.00     0.311 C 
ATOM      4  O   UNL A   1      32.734  36.403  29.824  1.00  0.00    -0.252 OA
BRANCH   3   5
ATOM      5  C   UNL A   1      33.754  34.902  31.393  1.00  0.00     0.123 C 
ATOM      6  N   UNL A   1      35.763  34.703  32.650  1.00  0.00    -0.321 N 
ATOM      7  C   UNL A   1      34.841  35.509  33.427  1.00  0.00     0.122 C 
ATOM      8  C   UNL A   1      35.026  34.041  31.560  1.00  0.00     0.098 C 
ATOM      9  C   UNL A   1      33.897  36.056  32.383  1.00  0.00     0.039 C 
ATOM     10  C   UNL A   1      34.674  32.599  31.945  1.00  0.00     0.032 C 
BRANCH   6  11
ATOM     11  C   UNL A   1      37.054  34.550  33.120  1.00  0.00     0.324 C 
ATOM     12  O   UNL A   1      37.313  34.995  34.243  1.00  0.00    -0.248 OA
BRANCH  11  13
ATOM     13  N   UNL A   1      38.017  33.968  32.288  1.00  0.00    -0.297 N 
ATOM     14  C   UNL A   1      38.449  34.667  31.080  1.00  0.00     0.155 C 
BRANCH  13  15
ATOM     15  C   UNL A   1      38.852  32.862  32.736  1.00  0.00     0.045 A 
ATOM     16  C   UNL A   1      40.379  30.742  33.910  1.00  0.00    -0.048 A 
ATOM     17  C   UNL A   1      40.870  32.047  33.879  1.00  0.00     0.006 A 
ATOM     18  C   UNL A   1      39.179  30.486  33.244  1.00  0.00     0.006 A 
ATOM     19  C   UNL A   1      40.123  33.083  33.296  1.00  0.00     0.027 A 
ATOM     20  C   UNL A   1      38.442  31.524  32.656  1.00  0.00     0.027 A 
BRANCH  16  21
ATOM     21  C   UNL A   1      41.121  29.613  34.581  1.00  0.00     0.032 C 
ATOM     22  C   UNL A   1      41.101  28.300  33.805  1.00  0.00     0.009 C 
ENDBRANCH  16  21
ENDBRANCH  13  15
ENDBRANCH  11  13
ENDBRANCH   6  11
ENDBRANCH   3   5
ENDBRANCH   2   3
ENDBRANCH   1   2
BRANCH   1  23
ATOM     23  C   UNL A   1      34.517  32.650  27.959  1.00  0.00     0.275 C 
BRANCH  23  24
ATOM     24  O   UNL A   1      34.239  31.419  28.650  1.00  0.00    -0.458 OA
BRANCH  24  25
ATOM     25  C   UNL A   1      34.529  30.291  27.960  1.00  0.00     0.338 C 
ATOM     26  O   UNL A   1      33.799  29.690  27.190  1.00  0.00    -0.246 OA
BRANCH  25  27
ATOM     27  C   UNL A   1      35.949  29.960  28.148  1.00  0.00     0.060 A 
ATOM     28  C   UNL A   1      36.376  29.616  29.431  1.00  0.00     0.016 A 
ATOM     29  C   UNL A   1      36.861  30.041  27.098  1.00  0.00     0.016 A 
ATOM     30  C   UNL A   1      37.715  29.351  29.683  1.00  0.00     0.010 A 
ATOM     31  C   UNL A   1      38.208  29.753  27.345  1.00  0.00     0.010 A 
ATOM     32  C   UNL A   1      38.641  29.403  28.637  1.00  0.00    -0.014 A 
BRANCH  32  33
ATOM     33  C   UNL A   1      40.061  29.076  28.901  1.00  0.00     0.031 A 
ATOM     34  C   UNL A   1      40.990  30.129  29.423  1.00  0.00     0.074 A 
ATOM     35  C   UNL A   1      40.503  27.824  28.673  1.00  0.00     0.049 A 
ATOM     36  N   UNL A   1      42.286  30.077  29.581  1.00  0.00    -0.248 NA
ATOM     37  C   UNL A   1      40.383  31.409  29.822  1.00  0.00     0.031 C 
ATOM     38  C   UNL A   1      39.674  26.700  28.232  1.00  0.00     0.029 A 
ATOM     39  N   UNL A   1      41.762  27.290  28.774  1.00  0.00    -0.354 N 
ATOM     40  C   UNL A   1      42.658  31.323  30.068  1.00  0.00     0.074 A 
ATOM     41  C   UNL A   1      41.450  32.112  30.178  1.00  0.00     0.031 C 
ATOM     42  C   UNL A   1      40.447  25.611  28.101  1.00  0.00     0.029 A 
ATOM     43  C   UNL A   1      41.831  25.975  28.381  1.00  0.00     0.049 A 
ATOM     44  H   UNL A   1      42.541  27.799  29.098  1.00  0.00     0.167 HD
ATOM     45  C   UNL A   1      43.898  31.766  30.386  1.00  0.00     0.031 A 
ATOM     46  C   UNL A   1      42.896  25.166  28.215  1.00  0.00     0.031 A 
ATOM     47  C   UNL A   1      45.091  30.968  30.270  1.00  0.00     0.049 A 
ATOM     48  C   UNL A   1      44.270  25.711  28.481  1.00  0.00     0.074 A 
ATOM     49  C   UNL A   1      46.394  31.322  30.570  1.00  0.00     0.029 A 
ATOM     50  N   UNL A   1      45.126  29.660  29.814  1.00  0.00    -0.354 N 
ATOM     51  N   UNL A   1      44.612  26.900  28.918  1.00  0.00    -0.248 NA
ATOM     52  C   UNL A   1      45.403  24.814  28.215  1.00  0.00     0.031 C 
ATOM     53  C   UNL A   1      47.224  30.242  30.248  1.00  0.00     0.029 A 
ATOM     54  C   UNL A   1      46.431  29.200  29.793  1.00  0.00     0.049 A 
ATOM     55  H   UNL A   1      44.337  29.134  29.544  1.00  0.00     0.167 HD
ATOM     56  C   UNL A   1      46.000  26.893  28.984  1.00  0.00     0.074 A 
ATOM     57  C   UNL A   1      46.433  25.576  28.561  1.00  0.00     0.031 C 
ATOM     58  C   UNL A   1      46.840  27.888  29.359  1.00  0.00     0.031 A 
BRANCH  45  59
ATOM     59  C   UNL A   1      44.031  33.194  30.836  1.00  0.00    -0.014 A 
ATOM     60  C   UNL A   1      44.225  34.238  29.916  1.00  0.00     0.010 A 
ATOM     61  C   UNL A   1      43.929  33.498  32.206  1.00  0.00     0.010 A 
ATOM     62  C   UNL A   1      44.350  35.558  30.360  1.00  0.00     0.020 A 
ATOM     63  C   UNL A   1      44.033  34.818  32.653  1.00  0.00     0.020 A 
ATOM     64  C   UNL A   1      44.261  35.839  31.728  1.00  0.00     0.054 A 
BRANCH  64  65
ATOM     65  S   UNL A   1      44.417  37.559  32.279  1.00  0.00     0.124 S 
ATOM     66  O   UNL A   1      44.079  38.295  31.064  1.00  0.00    -0.237 OA
ATOM     67  O   UNL A   1      43.435  37.643  33.358  1.00  0.00    -0.237 OA
ATOM     68  O   UNL A   1      45.813  37.663  32.702  1.00  0.00    -0.744 OA
ENDBRANCH  64  65
ENDBRANCH  45  59
BRANCH  46  69
ATOM     69  C   UNL A   1      42.699  23.781  27.709  1.00  0.00    -0.014 A 
ATOM     70  C   UNL A   1      42.503  22.714  28.600  1.00  0.00     0.010 A 
ATOM     71  C   UNL A   1      42.678  23.532  26.324  1.00  0.00     0.010 A 
ATOM     72  C   UNL A   1      42.293  21.418  28.114  1.00  0.00     0.020 A 
ATOM     73  C   UNL A   1      42.443  22.244  25.835  1.00  0.00     0.020 A 
ATOM     74  C   UNL A   1      42.262  21.193  26.735  1.00  0.00     0.054 A 
BRANCH  74  75
ATOM     75  S   UNL A   1      41.920  19.519  26.125  1.00  0.00     0.124 S 
ATOM     76  O   UNL A   1      42.791  19.439  24.957  1.00  0.00    -0.237 OA
ATOM     77  O   UNL A   1      42.303  18.682  27.260  1.00  0.00    -0.237 OA
ATOM     78  O   UNL A   1      40.486  19.546  25.838  1.00  0.00    -0.744 OA
ENDBRANCH  74  75
ENDBRANCH  46  69
BRANCH  58  79
ATOM     79  C   UNL A   1      48.313  27.590  29.337  1.00  0.00    -0.014 A 
ATOM     80  C   UNL A   1      49.092  27.895  28.208  1.00  0.00     0.010 A 
ATOM     81  C   UNL A   1      48.935  27.066  30.485  1.00  0.00     0.010 A 
ATOM     82  C   UNL A   1      50.471  27.667  28.222  1.00  0.00     0.020 A 
ATOM     83  C   UNL A   1      50.316  26.858  30.509  1.00  0.00     0.020 A 
ATOM     84  C   UNL A   1      51.074  27.153  29.374  1.00  0.00     0.054 A 
BRANCH  84  85
ATOM     85  S   UNL A   1      52.874  26.930  29.392  1.00  0.00     0.124 S 
ATOM     86  O   UNL A   1      53.352  28.300  29.232  1.00  0.00    -0.237 OA
ATOM     87  O   UNL A   1      53.112  26.330  30.703  1.00  0.00    -0.237 OA
ATOM     88  O   UNL A   1      53.124  26.046  28.256  1.00  0.00    -0.744 OA
ENDBRANCH  84  85
ENDBRANCH  58  79
ENDBRANCH  32  33
ENDBRANCH  25  27
ENDBRANCH  24  25
ENDBRANCH  23  24
ENDBRANCH   1  23
TORSDOF 18
ENDMDL
MODEL 2
REMARK VINA RESULT:      -9.3      4.167     11.062
REMARK SMILES CCc1ccc(N(C)C(=O)N2CC[C@@H](C(=O)OCCOC(=O)c3ccc(-c4c5nc(c(-c6ccc(S(=O)(=O)[O-])cc6)c6ccc([nH]6)c(-c6ccc(S(=O)(=O)[O-])cc6)c6nc(c(-c7ccc(S(=O)(=O)[O-])cc7)c7ccc4[nH]7)C=C6)C=C5)cc3)[C@@H]2C)cc1
REMARK SMILES IDX 18 1 17 2 15 3 16 4 14 5 11 6 12 7 83 8 13 9 84 10 9 11
REMARK SMILES IDX 10 12 7 13 8 14 6 15 3 16 4 17 86 18 5 19 85 20 2 21 1 22
REMARK SMILES IDX 19 23 20 24 21 25 22 26 23 27 24 28 82 29 25 30 81 31 26 32
REMARK SMILES IDX 27 33 28 34 75 35 29 36 80 37 74 38 76 39 30 40 79 41 73 42
REMARK SMILES IDX 72 43 31 45 61 46 42 47 60 48 43 49 46 50 59 51 77 52 44 53
REMARK SMILES IDX 45 54 58 56 78 57 47 58 32 59 33 60 41 61 34 62 40 63 35 64
REMARK SMILES IDX 36 65 37 66 38 67 39 68 62 69 63 70 71 71 64 72 70 73 65 74
REMARK SMILES IDX 66 75 67 76 68 77 69 78 48 79 49 80 57 81 50 82 56 83 51 84
REMARK SMILES IDX 52 85 53 86 54 87 55 88
REMARK H PARENT 76 44 46 55
REMARK Flexibility Score: inf
ROOT
ATOM      1  C   UNL A   1      36.496  21.954  24.195  1.00  0.00     0.274 C 
ENDROOT
BRANCH   1   2
ATOM      2  O   UNL A   1      35.072  21.737  24.126  1.00  0.00    -0.462 OA
BRANCH   2   3
ATOM      3  C   UNL A   1      34.590  20.675  24.820  1.00  0.00     0.311 C 
ATOM      4  O   UNL A   1      35.029  19.534  24.731  1.00  0.00    -0.252 OA
BRANCH   3   5
ATOM      5  C   UNL A   1      33.409  21.008  25.710  1.00  0.00     0.123 C 
ATOM      6  N   UNL A   1      32.244  23.050  26.071  1.00  0.00    -0.321 N 
ATOM      7  C   UNL A   1      31.280  22.078  25.591  1.00  0.00     0.122 C 
ATOM      8  C   UNL A   1      33.478  22.351  26.470  1.00  0.00     0.098 C 
ATOM      9  C   UNL A   1      32.139  21.072  24.862  1.00  0.00     0.039 C 
ATOM     10  C   UNL A   1      33.504  22.129  27.987  1.00  0.00     0.032 C 
BRANCH   6  11
ATOM     11  C   UNL A   1      31.828  24.358  26.234  1.00  0.00     0.324 C 
ATOM     12  O   UNL A   1      31.090  24.610  27.193  1.00  0.00    -0.248 OA
BRANCH  11  13
ATOM     13  N   UNL A   1      32.197  25.314  25.281  1.00  0.00    -0.297 N 
ATOM     14  C   UNL A   1      31.975  25.047  23.862  1.00  0.00     0.155 C 
BRANCH  13  15
ATOM     15  C   UNL A   1      32.482  26.694  25.649  1.00  0.00     0.045 A 
ATOM     16  C   UNL A   1      32.940  29.333  26.664  1.00  0.00    -0.048 A 
ATOM     17  C   UNL A   1      31.694  28.967  26.157  1.00  0.00     0.006 A 
ATOM     18  C   UNL A   1      33.983  28.413  26.547  1.00  0.00     0.006 A 
ATOM     19  C   UNL A   1      31.474  27.675  25.653  1.00  0.00     0.027 A 
ATOM     20  C   UNL A   1      33.759  27.126  26.035  1.00  0.00     0.027 A 
BRANCH  16  21
ATOM     21  C   UNL A   1      33.202  30.689  27.272  1.00  0.00     0.032 C 
ATOM     22  C   UNL A   1      34.649  30.919  27.695  1.00  0.00     0.009 C 
ENDBRANCH  16  21
ENDBRANCH  13  15
ENDBRANCH  11  13
ENDBRANCH   6  11
ENDBRANCH   3   5
ENDBRANCH   2   3
ENDBRANCH   1   2
BRANCH   1  23
ATOM     23  C   UNL A   1      36.960  22.169  25.639  1.00  0.00     0.275 C 
BRANCH  23  24
ATOM     24  O   UNL A   1      37.705  23.391  25.787  1.00  0.00    -0.458 OA
BRANCH  24  25
ATOM     25  C   UNL A   1      38.974  23.242  26.237  1.00  0.00     0.338 C 
ATOM     26  O   UNL A   1      39.736  22.320  26.001  1.00  0.00    -0.246 OA
BRANCH  25  27
ATOM     27  C   UNL A   1      39.381  24.462  26.948  1.00  0.00     0.060 A 
ATOM     28  C   UNL A   1      40.244  25.343  26.294  1.00  0.00     0.016 A 
ATOM     29  C   UNL A   1      38.974  24.714  28.256  1.00  0.00     0.016 A 
ATOM     30  C   UNL A   1      40.710  26.482  26.936  1.00  0.00     0.010 A 
ATOM     31  C   UNL A   1      39.425  25.872  28.898  1.00  0.00     0.010 A 
ATOM     32  C   UNL A   1      40.293  26.764  28.241  1.00  0.00    -0.014 A 
BRANCH  32  33
ATOM     33  C   UNL A   1      40.757  28.002  28.905  1.00  0.00     0.031 A 
ATOM     34  C   UNL A   1      42.141  28.076  29.474  1.00  0.00     0.074 A 
ATOM     35  C   UNL A   1      39.926  29.059  28.986  1.00  0.00     0.049 A 
ATOM     36  N   UNL A   1      42.679  29.012  30.211  1.00  0.00    -0.248 NA
ATOM     37  C   UNL A   1      43.041  26.950  29.175  1.00  0.00     0.031 C 
ATOM     38  C   UNL A   1      38.583  29.127  28.406  1.00  0.00     0.029 A 
ATOM     39  N   UNL A   1      40.089  30.278  29.595  1.00  0.00    -0.354 N 
ATOM     40  C   UNL A   1      43.968  28.579  30.492  1.00  0.00     0.074 A 
ATOM     41  C   UNL A   1      44.132  27.294  29.847  1.00  0.00     0.031 C 
ATOM     42  C   UNL A   1      38.044  30.324  28.688  1.00  0.00     0.029 A 
ATOM     43  C   UNL A   1      38.973  31.077  29.522  1.00  0.00     0.049 A 
ATOM     44  H   UNL A   1      40.923  30.553  30.040  1.00  0.00     0.167 HD
ATOM     45  C   UNL A   1      44.922  29.198  31.228  1.00  0.00     0.031 A 
ATOM     46  C   UNL A   1      38.708  32.263  30.104  1.00  0.00     0.031 A 
ATOM     47  C   UNL A   1      44.743  30.477  31.864  1.00  0.00     0.049 A 
ATOM     48  C   UNL A   1      39.746  32.884  30.995  1.00  0.00     0.074 A 
ATOM     49  C   UNL A   1      45.648  31.192  32.627  1.00  0.00     0.029 A 
ATOM     50  N   UNL A   1      43.579  31.229  31.813  1.00  0.00    -0.354 N 
ATOM     51  N   UNL A   1      40.954  32.453  31.273  1.00  0.00    -0.248 NA
ATOM     52  C   UNL A   1      39.381  34.139  31.665  1.00  0.00     0.031 C 
ATOM     53  C   UNL A   1      45.013  32.354  33.081  1.00  0.00     0.029 A 
ATOM     54  C   UNL A   1      43.730  32.385  32.558  1.00  0.00     0.049 A 
ATOM     55  H   UNL A   1      42.764  30.977  31.320  1.00  0.00     0.167 HD
ATOM     56  C   UNL A   1      41.496  33.387  32.147  1.00  0.00     0.074 A 
ATOM     57  C   UNL A   1      40.492  34.415  32.336  1.00  0.00     0.031 C 
ATOM     58  C   UNL A   1      42.714  33.391  32.741  1.00  0.00     0.031 A 
BRANCH  45  59
ATOM     59  C   UNL A   1      46.224  28.473  31.428  1.00  0.00    -0.014 A 
ATOM     60  C   UNL A   1      46.406  27.575  32.494  1.00  0.00     0.010 A 
ATOM     61  C   UNL A   1      47.273  28.673  30.513  1.00  0.00     0.010 A 
ATOM     62  C   UNL A   1      47.628  26.917  32.662  1.00  0.00     0.020 A 
ATOM     63  C   UNL A   1      48.489  28.002  30.665  1.00  0.00     0.020 A 
ATOM     64  C   UNL A   1      48.665  27.141  31.749  1.00  0.00     0.054 A 
BRANCH  64  65
ATOM     65  S   UNL A   1      50.238  26.268  31.982  1.00  0.00     0.124 S 
ATOM     66  O   UNL A   1      49.876  24.898  31.629  1.00  0.00    -0.237 OA
ATOM     67  O   UNL A   1      51.126  26.945  31.040  1.00  0.00    -0.237 OA
ATOM     68  O   UNL A   1      50.550  26.486  33.394  1.00  0.00    -0.744 OA
ENDBRANCH  64  65
ENDBRANCH  45  59
BRANCH  46  69
ATOM     69  C   UNL A   1      37.376  32.898  29.912  1.00  0.00    -0.014 A 
ATOM     70  C   UNL A   1      36.353  32.716  30.857  1.00  0.00     0.010 A 
ATOM     71  C   UNL A   1      37.138  33.715  28.791  1.00  0.00     0.010 A 
ATOM     72  C   UNL A   1      35.112  33.339  30.683  1.00  0.00     0.020 A 
ATOM     73  C   UNL A   1      35.908  34.358  28.627  1.00  0.00     0.020 A 
ATOM     74  C   UNL A   1      34.899  34.157  29.571  1.00  0.00     0.054 A 
BRANCH  74  75
ATOM     75  S   UNL A   1      33.306  35.010  29.398  1.00  0.00     0.124 S 
ATOM     76  O   UNL A   1      33.722  36.347  28.990  1.00  0.00    -0.237 OA
ATOM     77  O   UNL A   1      32.630  34.216  28.374  1.00  0.00    -0.237 OA
ATOM     78  O   UNL A   1      32.722  34.914  30.735  1.00  0.00    -0.744 OA
ENDBRANCH  74  75
ENDBRANCH  46  69
BRANCH  58  79
ATOM     79  C   UNL A   1      43.034  34.548  33.646  1.00  0.00    -0.014 A 
ATOM     80  C   UNL A   1      42.787  34.470  35.027  1.00  0.00     0.010 A 
ATOM     81  C   UNL A   1      43.654  35.694  33.118  1.00  0.00     0.010 A 
ATOM     82  C   UNL A   1      43.144  35.529  35.866  1.00  0.00     0.020 A 
ATOM     83  C   UNL A   1      44.031  36.745  33.957  1.00  0.00     0.020 A 
ATOM     84  C   UNL A   1      43.767  36.659  35.326  1.00  0.00     0.054 A 
BRANCH  84  85
ATOM     85  S   UNL A   1      44.281  37.991  36.444  1.00  0.00     0.124 S 
ATOM     86  O   UNL A   1      45.678  37.653  36.697  1.00  0.00    -0.237 OA
ATOM     87  O   UNL A   1      44.059  39.191  35.639  1.00  0.00    -0.237 OA
ATOM     88  O   UNL A   1      43.387  37.844  37.591  1.00  0.00    -0.744 OA
ENDBRANCH  84  85
ENDBRANCH  58  79
ENDBRANCH  32  33
ENDBRANCH  25  27
ENDBRANCH  24  25
ENDBRANCH  23  24
ENDBRANCH   1  23
TORSDOF 18
ENDMDL
MODEL 3
REMARK VINA RESULT:      -9.2      4.729     11.498
REMARK SMILES CCc1ccc(N(C)C(=O)N2CC[C@@H](C(=O)OCCOC(=O)c3ccc(-c4c5nc(c(-c6ccc(S(=O)(=O)[O-])cc6)c6ccc([nH]6)c(-c6ccc(S(=O)(=O)[O-])cc6)c6nc(c(-c7ccc(S(=O)(=O)[O-])cc7)c7ccc4[nH]7)C=C6)C=C5)cc3)[C@@H]2C)cc1
REMARK SMILES IDX 18 1 17 2 15 3 16 4 14 5 11 6 12 7 83 8 13 9 84 10 9 11
REMARK SMILES IDX 10 12 7 13 8 14 6 15 3 16 4 17 86 18 5 19 85 20 2 21 1 22
REMARK SMILES IDX 19 23 20 24 21 25 22 26 23 27 24 28 82 29 25 30 81 31 26 32
REMARK SMILES IDX 27 33 28 34 75 35 29 36 80 37 74 38 76 39 30 40 79 41 73 42
REMARK SMILES IDX 72 43 31 45 61 46 42 47 60 48 43 49 46 50 59 51 77 52 44 53
REMARK SMILES IDX 45 54 58 56 78 57 47 58 32 59 33 60 41 61 34 62 40 63 35 64
REMARK SMILES IDX 36 65 37 66 38 67 39 68 62 69 63 70 71 71 64 72 70 73 65 74
REMARK SMILES IDX 66 75 67 76 68 77 69 78 48 79 49 80 57 81 50 82 56 83 51 84
REMARK SMILES IDX 52 85 53 86 54 87 55 88
REMARK H PARENT 76 44 46 55
REMARK Flexibility Score: inf
ROOT
ATOM      1  C   UNL A   1      36.524  21.963  24.372  1.00  0.00     0.274 C 
ENDROOT
BRANCH   1   2
ATOM      2  O   UNL A   1      35.144  21.562  24.250  1.00  0.00    -0.462 OA
BRANCH   2   3
ATOM      3  C   UNL A   1      34.309  22.451  23.654  1.00  0.00     0.311 C 
ATOM      4  O   UNL A   1      34.623  23.172  22.714  1.00  0.00    -0.252 OA
BRANCH   3   5
ATOM      5  C   UNL A   1      32.932  22.516  24.282  1.00  0.00     0.123 C 
ATOM      6  N   UNL A   1      31.676  24.354  25.122  1.00  0.00    -0.321 N 
ATOM      7  C   UNL A   1      30.889  23.730  24.077  1.00  0.00     0.122 C 
ATOM      8  C   UNL A   1      32.777  23.451  25.503  1.00  0.00     0.098 C 
ATOM      9  C   UNL A   1      31.925  23.012  23.245  1.00  0.00     0.039 C 
ATOM     10  C   UNL A   1      32.412  22.660  26.765  1.00  0.00     0.032 C 
BRANCH   6  11
ATOM     11  C   UNL A   1      31.209  25.529  25.680  1.00  0.00     0.324 C 
ATOM     12  O   UNL A   1      30.355  25.442  26.569  1.00  0.00    -0.248 OA
BRANCH  11  13
ATOM     13  N   UNL A   1      31.665  26.752  25.175  1.00  0.00    -0.297 N 
ATOM     14  C   UNL A   1      33.100  27.018  25.104  1.00  0.00     0.155 C 
BRANCH  13  15
ATOM     15  C   UNL A   1      30.798  27.637  24.408  1.00  0.00     0.045 A 
ATOM     16  C   UNL A   1      28.904  29.385  23.158  1.00  0.00    -0.048 A 
ATOM     17  C   UNL A   1      28.743  28.001  23.110  1.00  0.00     0.006 A 
ATOM     18  C   UNL A   1      30.078  29.880  23.729  1.00  0.00     0.006 A 
ATOM     19  C   UNL A   1      29.677  27.146  23.716  1.00  0.00     0.027 A 
ATOM     20  C   UNL A   1      31.011  29.020  24.327  1.00  0.00     0.027 A 
BRANCH  16  21
ATOM     21  C   UNL A   1      27.893  30.341  22.574  1.00  0.00     0.032 C 
ATOM     22  C   UNL A   1      27.552  31.522  23.477  1.00  0.00     0.009 C 
ENDBRANCH  16  21
ENDBRANCH  13  15
ENDBRANCH  11  13
ENDBRANCH   6  11
ENDBRANCH   3   5
ENDBRANCH   2   3
ENDBRANCH   1   2
BRANCH   1  23
ATOM     23  C   UNL A   1      36.746  22.836  25.610  1.00  0.00     0.275 C 
BRANCH  23  24
ATOM     24  O   UNL A   1      37.905  23.678  25.473  1.00  0.00    -0.458 OA
BRANCH  24  25
ATOM     25  C   UNL A   1      38.960  23.339  26.250  1.00  0.00     0.338 C 
ATOM     26  O   UNL A   1      39.539  22.266  26.281  1.00  0.00    -0.246 OA
BRANCH  25  27
ATOM     27  C   UNL A   1      39.434  24.531  26.969  1.00  0.00     0.060 A 
ATOM     28  C   UNL A   1      38.977  24.732  28.273  1.00  0.00     0.016 A 
ATOM     29  C   UNL A   1      40.265  25.467  26.359  1.00  0.00     0.016 A 
ATOM     30  C   UNL A   1      39.343  25.869  28.981  1.00  0.00     0.010 A 
ATOM     31  C   UNL A   1      40.652  26.603  27.079  1.00  0.00     0.010 A 
ATOM     32  C   UNL A   1      40.196  26.808  28.394  1.00  0.00    -0.014 A 
BRANCH  32  33
ATOM     33  C   UNL A   1      40.619  27.996  29.169  1.00  0.00     0.031 A 
ATOM     34  C   UNL A   1      41.948  28.008  29.862  1.00  0.00     0.074 A 
ATOM     35  C   UNL A   1      39.802  29.065  29.238  1.00  0.00     0.049 A 
ATOM     36  N   UNL A   1      42.432  28.888  30.698  1.00  0.00    -0.248 NA
ATOM     37  C   UNL A   1      42.852  26.881  29.578  1.00  0.00     0.031 C 
ATOM     38  C   UNL A   1      38.517  29.195  28.546  1.00  0.00     0.029 A 
ATOM     39  N   UNL A   1      39.929  30.242  29.930  1.00  0.00    -0.354 N 
ATOM     40  C   UNL A   1      43.684  28.411  31.066  1.00  0.00     0.074 A 
ATOM     41  C   UNL A   1      43.884  27.162  30.363  1.00  0.00     0.031 C 
ATOM     42  C   UNL A   1      37.975  30.385  28.850  1.00  0.00     0.029 A 
ATOM     43  C   UNL A   1      38.838  31.069  29.806  1.00  0.00     0.049 A 
ATOM     44  H   UNL A   1      40.724  30.473  30.463  1.00  0.00     0.167 HD
ATOM     45  C   UNL A   1      44.577  28.966  31.919  1.00  0.00     0.031 A 
ATOM     46  C   UNL A   1      38.540  32.225  30.431  1.00  0.00     0.031 A 
ATOM     47  C   UNL A   1      44.363  30.210  32.611  1.00  0.00     0.049 A 
ATOM     48  C   UNL A   1      39.504  32.771  31.446  1.00  0.00     0.074 A 
ATOM     49  C   UNL A   1      45.207  30.860  33.493  1.00  0.00     0.029 A 
ATOM     50  N   UNL A   1      43.221  30.989  32.502  1.00  0.00    -0.354 N 
ATOM     51  N   UNL A   1      40.675  32.298  31.804  1.00  0.00    -0.248 NA
ATOM     52  C   UNL A   1      39.101  33.993  32.154  1.00  0.00     0.031 C 
ATOM     53  C   UNL A   1      44.553  32.008  33.956  1.00  0.00     0.029 A 
ATOM     54  C   UNL A   1      43.323  32.097  33.325  1.00  0.00     0.049 A 
ATOM     55  H   UNL A   1      42.450  30.783  31.924  1.00  0.00     0.167 HD
ATOM     56  C   UNL A   1      41.152  33.169  32.776  1.00  0.00     0.074 A 
ATOM     57  C   UNL A   1      40.152  34.206  32.936  1.00  0.00     0.031 C 
ATOM     58  C   UNL A   1      42.311  33.112  33.476  1.00  0.00     0.031 A 
BRANCH  45  59
ATOM     59  C   UNL A   1      45.844  28.203  32.191  1.00  0.00    -0.014 A 
ATOM     60  C   UNL A   1      47.005  28.415  31.429  1.00  0.00     0.010 A 
ATOM     61  C   UNL A   1      45.878  27.278  33.250  1.00  0.00     0.010 A 
ATOM     62  C   UNL A   1      48.169  27.690  31.698  1.00  0.00     0.020 A 
ATOM     63  C   UNL A   1      47.046  26.565  33.536  1.00  0.00     0.020 A 
ATOM     64  C   UNL A   1      48.180  26.763  32.747  1.00  0.00     0.054 A 
BRANCH  64  65
ATOM     65  S   UNL A   1      49.704  25.841  33.083  1.00  0.00     0.124 S 
ATOM     66  O   UNL A   1      50.675  26.918  33.255  1.00  0.00    -0.237 OA
ATOM     67  O   UNL A   1      49.371  25.097  34.296  1.00  0.00    -0.237 OA
ATOM     68  O   UNL A   1      49.887  25.023  31.885  1.00  0.00    -0.744 OA
ENDBRANCH  64  65
ENDBRANCH  45  59
BRANCH  46  69
ATOM     69  C   UNL A   1      37.242  32.898  30.160  1.00  0.00    -0.014 A 
ATOM     70  C   UNL A   1      36.146  32.712  31.018  1.00  0.00     0.010 A 
ATOM     71  C   UNL A   1      37.109  33.756  29.052  1.00  0.00     0.010 A 
ATOM     72  C   UNL A   1      34.936  33.371  30.770  1.00  0.00     0.020 A 
ATOM     73  C   UNL A   1      35.911  34.434  28.816  1.00  0.00     0.020 A 
ATOM     74  C   UNL A   1      34.828  34.229  29.673  1.00  0.00     0.054 A 
BRANCH  74  75
ATOM     75  S   UNL A   1      33.272  35.126  29.407  1.00  0.00     0.124 S 
ATOM     76  O   UNL A   1      32.686  35.116  30.743  1.00  0.00    -0.237 OA
ATOM     77  O   UNL A   1      33.733  36.426  28.926  1.00  0.00    -0.237 OA
ATOM     78  O   UNL A   1      32.577  34.314  28.410  1.00  0.00    -0.744 OA
ENDBRANCH  74  75
ENDBRANCH  46  69
BRANCH  58  79
ATOM     79  C   UNL A   1      42.568  34.208  34.472  1.00  0.00    -0.014 A 
ATOM     80  C   UNL A   1      42.022  34.146  35.766  1.00  0.00     0.010 A 
ATOM     81  C   UNL A   1      43.422  35.273  34.133  1.00  0.00     0.010 A 
ATOM     82  C   UNL A   1      42.316  35.141  36.702  1.00  0.00     0.020 A 
ATOM     83  C   UNL A   1      43.734  36.257  35.073  1.00  0.00     0.020 A 
ATOM     84  C   UNL A   1      43.173  36.189  36.350  1.00  0.00     0.054 A 
BRANCH  84  85
ATOM     85  S   UNL A   1      43.593  37.431  37.603  1.00  0.00     0.124 S 
ATOM     86  O   UNL A   1      42.336  37.564  38.332  1.00  0.00    -0.237 OA
ATOM     87  O   UNL A   1      44.682  36.791  38.338  1.00  0.00    -0.237 OA
ATOM     88  O   UNL A   1      43.984  38.598  36.815  1.00  0.00    -0.744 OA
ENDBRANCH  84  85
ENDBRANCH  58  79
ENDBRANCH  32  33
ENDBRANCH  25  27
ENDBRANCH  24  25
ENDBRANCH  23  24
ENDBRANCH   1  23
TORSDOF 18
ENDMDL
