MODEL 1
REMARK VINA RESULT:     -12.9      0.000      0.000
REMARK SMILES O=C(OCCOC(=O)[C@@H](Cc1ccc(O)cc1)Nc1c2ccccc2nc2ccccc12)c1ccc(-c2c3nc(c(-c4ccc(S(=O)(=O)[O-])cc4)c4ccc([nH]4)c(-c4ccc(S(=O)(=O)[O-])cc4)c4nc(c(-c5ccc(S(=O)(=O)[O-])cc5)c5ccc2[nH]5)C=C4)C=C3)cc1
REMARK SMILES IDX 4 1 3 2 2 3 1 4 33 5 34 6 92 7 35 8 91 9 36 10 37 11 38 12
REMARK SMILES IDX 85 13 39 14 90 15 84 16 86 17 40 18 89 19 83 20 82 21 41 23
REMARK SMILES IDX 71 24 52 25 70 26 53 27 56 28 69 29 87 30 54 31 55 32 68 34
REMARK SMILES IDX 88 35 57 36 42 37 43 38 51 39 44 40 50 41 45 42 46 43 47 44
REMARK SMILES IDX 48 45 49 46 72 47 73 48 81 49 74 50 80 51 75 52 76 53 77 54
REMARK SMILES IDX 78 55 79 56 58 57 59 58 67 59 60 60 66 61 61 62 62 63 63 64
REMARK SMILES IDX 64 65 65 66 5 67 6 68 7 69 8 70 9 71 10 72 11 73 12 74 17 75
REMARK SMILES IDX 13 76 16 77 14 78 15 79 18 81 19 83 20 84 32 85 21 86 25 87
REMARK SMILES IDX 27 88 31 89 22 90 24 91 26 92 28 93 30 94 23 95 29 96
REMARK H PARENT 86 22 56 33 15 80 18 82
REMARK Flexibility Score: inf
ROOT
ATOM      1  C   UNL A   1      41.211  23.178  26.462  1.00  0.00     0.275 C 
ENDROOT
BRANCH   1   2
ATOM      2  O   UNL A   1      40.311  24.276  26.439  1.00  0.00    -0.458 OA
BRANCH   2   3
ATOM      3  C   UNL A   1      40.698  25.559  26.414  1.00  0.00     0.338 C 
ATOM      4  O   UNL A   1      40.919  26.102  25.335  1.00  0.00    -0.246 OA
BRANCH   3   5
ATOM      5  C   UNL A   1      40.937  26.373  27.640  1.00  0.00     0.060 A 
ATOM      6  C   UNL A   1      42.022  27.846  27.920  1.00  0.00     0.016 A 
ATOM      7  C   UNL A   1      39.605  26.037  28.814  1.00  0.00     0.016 A 
ATOM      8  C   UNL A   1      41.790  28.873  29.436  1.00  0.00     0.010 A 
ATOM      9  C   UNL A   1      39.296  27.173  30.184  1.00  0.00     0.010 A 
ATOM     10  C   UNL A   1      40.443  28.501  30.602  1.00  0.00    -0.014 A 
BRANCH  10  11
ATOM     11  C   UNL A   1      40.331  29.209  31.925  1.00  0.00     0.031 A 
ATOM     12  C   UNL A   1      41.352  29.018  33.040  1.00  0.00     0.074 A 
ATOM     13  C   UNL A   1      39.364  30.131  32.093  1.00  0.00     0.049 A 
ATOM     14  N   UNL A   1      41.745  29.874  33.955  1.00  0.00    -0.248 NA
ATOM     15  C   UNL A   1      42.066  27.740  33.138  1.00  0.00     0.031 C 
ATOM     16  C   UNL A   1      38.270  30.380  31.161  1.00  0.00     0.029 A 
ATOM     17  N   UNL A   1      39.145  31.039  33.099  1.00  0.00    -0.354 N 
ATOM     18  C   UNL A   1      42.832  29.277  34.599  1.00  0.00     0.074 A 
ATOM     19  C   UNL A   1      43.038  27.994  33.993  1.00  0.00     0.031 C 
ATOM     20  C   UNL A   1      37.542  31.422  31.585  1.00  0.00     0.029 A 
ATOM     21  C   UNL A   1      38.068  31.865  32.870  1.00  0.00     0.049 A 
ATOM     22  H   UNL A   1      39.706  31.096  33.906  1.00  0.00     0.167 HD
ATOM     23  C   UNL A   1      43.545  29.677  35.677  1.00  0.00     0.031 A 
ATOM     24  C   UNL A   1      37.539  32.848  33.624  1.00  0.00     0.031 A 
ATOM     25  C   UNL A   1      43.080  30.712  36.548  1.00  0.00     0.049 A 
ATOM     26  C   UNL A   1      38.215  33.170  34.926  1.00  0.00     0.074 A 
ATOM     27  C   UNL A   1      43.566  31.082  37.784  1.00  0.00     0.029 A 
ATOM     28  N   UNL A   1      41.924  31.445  36.319  1.00  0.00    -0.354 N 
ATOM     29  N   UNL A   1      39.327  32.669  35.415  1.00  0.00    -0.248 NA
ATOM     30  C   UNL A   1      37.570  34.166  35.787  1.00  0.00     0.031 C 
ATOM     31  C   UNL A   1      42.635  31.956  38.354  1.00  0.00     0.029 A 
ATOM     32  C   UNL A   1      41.633  32.212  37.426  1.00  0.00     0.049 A 
ATOM     33  H   UNL A   1      41.392  31.421  35.491  1.00  0.00     0.167 HD
ATOM     34  C   UNL A   1      39.515  33.284  36.645  1.00  0.00     0.074 A 
ATOM     35  C   UNL A   1      38.410  34.211  36.815  1.00  0.00     0.031 C 
ATOM     36  C   UNL A   1      40.506  33.103  37.554  1.00  0.00     0.031 A 
BRANCH  23  37
ATOM     37  C   UNL A   1      44.741  28.831  36.052  1.00  0.00    -0.014 A 
ATOM     38  C   UNL A   1      46.000  29.056  35.459  1.00  0.00     0.010 A 
ATOM     39  C   UNL A   1      44.588  27.733  36.919  1.00  0.00     0.010 A 
ATOM     40  C   UNL A   1      47.063  28.173  35.687  1.00  0.00     0.020 A 
ATOM     41  C   UNL A   1      45.652  26.856  37.159  1.00  0.00     0.020 A 
ATOM     42  C   UNL A   1      46.877  27.069  36.524  1.00  0.00     0.054 A 
BRANCH  42  43
ATOM     43  S   UNL A   1      48.248  25.900  36.749  1.00  0.00     0.124 S 
ATOM     44  O   UNL A   1      49.343  26.788  37.134  1.00  0.00    -0.237 OA
ATOM     45  O   UNL A   1      47.753  25.022  37.805  1.00  0.00    -0.237 OA
ATOM     46  O   UNL A   1      48.392  25.274  35.436  1.00  0.00    -0.744 OA
ENDBRANCH  42  43
ENDBRANCH  23  37
BRANCH  24  47
ATOM     47  C   UNL A   1      36.285  33.519  33.169  1.00  0.00    -0.014 A 
ATOM     48  C   UNL A   1      35.014  33.025  33.506  1.00  0.00     0.010 A 
ATOM     49  C   UNL A   1      36.369  34.745  32.474  1.00  0.00     0.010 A 
ATOM     50  C   UNL A   1      33.861  33.754  33.183  1.00  0.00     0.020 A 
ATOM     51  C   UNL A   1      35.224  35.493  32.184  1.00  0.00     0.020 A 
ATOM     52  C   UNL A   1      33.975  34.992  32.540  1.00  0.00     0.054 A 
BRANCH  52  53
ATOM     53  S   UNL A   1      32.475  35.969  32.235  1.00  0.00     0.124 S 
ATOM     54  O   UNL A   1      32.624  37.062  33.190  1.00  0.00    -0.237 OA
ATOM     55  O   UNL A   1      32.616  36.336  30.828  1.00  0.00    -0.237 OA
ATOM     56  O   UNL A   1      31.387  35.036  32.519  1.00  0.00    -0.744 OA
ENDBRANCH  52  53
ENDBRANCH  24  47
BRANCH  36  57
ATOM     57  C   UNL A   1      40.457  33.924  38.808  1.00  0.00    -0.014 A 
ATOM     58  C   UNL A   1      41.075  35.183  38.877  1.00  0.00     0.010 A 
ATOM     59  C   UNL A   1      39.648  33.482  39.870  1.00  0.00     0.010 A 
ATOM     60  C   UNL A   1      40.882  35.991  39.999  1.00  0.00     0.020 A 
ATOM     61  C   UNL A   1      39.432  34.298  40.978  1.00  0.00     0.020 A 
ATOM     62  C   UNL A   1      40.054  35.547  41.037  1.00  0.00     0.054 A 
BRANCH  62  63
ATOM     63  S   UNL A   1      39.736  36.656  42.434  1.00  0.00     0.124 S 
ATOM     64  O   UNL A   1      39.350  37.890  41.757  1.00  0.00    -0.237 OA
ATOM     65  O   UNL A   1      38.667  35.968  43.151  1.00  0.00    -0.237 OA
ATOM     66  O   UNL A   1      41.018  36.704  43.135  1.00  0.00    -0.744 OA
ENDBRANCH  62  63
ENDBRANCH  36  57
ENDBRANCH  10  11
ENDBRANCH   3   5
ENDBRANCH   2   3
ENDBRANCH   1   2
BRANCH   1  67
ATOM     67  C   UNL A   1      40.460  21.852  26.245  1.00  0.00     0.274 C 
BRANCH  67  68
ATOM     68  O   UNL A   1      39.031  21.927  26.502  1.00  0.00    -0.461 OA
BRANCH  68  69
ATOM     69  C   UNL A   1      38.146  21.372  25.612  1.00  0.00     0.329 C 
ATOM     70  O   UNL A   1      38.375  20.327  25.018  1.00  0.00    -0.250 OA
BRANCH  69  71
ATOM     71  C   UNL A   1      36.766  22.171  25.533  1.00  0.00     0.194 C 
BRANCH  71  72
ATOM     72  C   UNL A   1      36.150  22.985  23.972  1.00  0.00     0.072 C 
BRANCH  72  73
ATOM     73  C   UNL A   1      34.399  24.078  23.318  1.00  0.00    -0.045 A 
ATOM     74  C   UNL A   1      33.163  23.549  22.529  1.00  0.00     0.007 A 
ATOM     75  C   UNL A   1      33.906  25.442  23.640  1.00  0.00     0.007 A 
ATOM     76  C   UNL A   1      31.809  23.916  22.652  1.00  0.00     0.046 A 
ATOM     77  C   UNL A   1      32.530  25.850  23.744  1.00  0.00     0.046 A 
ATOM     78  C   UNL A   1      31.500  25.018  23.382  1.00  0.00     0.115 A 
BRANCH  78  79
ATOM     79  O   UNL A   1      30.212  25.330  23.666  1.00  0.00    -0.508 OA
ATOM     80  H   UNL A   1      29.808  24.989  24.439  1.00  0.00     0.293 HD
ENDBRANCH  78  79
ENDBRANCH  72  73
ENDBRANCH  71  72
BRANCH  71  81
ATOM     81  N   UNL A   1      35.670  21.399  26.163  1.00  0.00    -0.371 N 
ATOM     82  H   UNL A   1      35.861  21.109  27.084  1.00  0.00     0.161 HD
BRANCH  81  83
ATOM     83  C   UNL A   1      34.415  21.007  25.689  1.00  0.00     0.054 A 
ATOM     84  C   UNL A   1      34.140  19.788  24.982  1.00  0.00     0.024 A 
ATOM     85  C   UNL A   1      33.318  21.893  25.978  1.00  0.00     0.024 A 
ATOM     86  C   UNL A   1      35.054  18.734  24.693  1.00  0.00     0.012 A 
ATOM     87  C   UNL A   1      32.799  19.561  24.597  1.00  0.00     0.073 A 
ATOM     88  C   UNL A   1      32.032  21.511  25.551  1.00  0.00     0.073 A 
ATOM     89  C   UNL A   1      33.431  23.124  26.683  1.00  0.00     0.012 A 
ATOM     90  C   UNL A   1      34.670  17.554  24.046  1.00  0.00     0.001 A 
ATOM     91  C   UNL A   1      32.436  18.388  23.949  1.00  0.00     0.029 A 
ATOM     92  N   UNL A   1      31.800  20.402  24.853  1.00  0.00    -0.248 NA
ATOM     93  C   UNL A   1      30.937  22.304  25.869  1.00  0.00     0.029 A 
ATOM     94  C   UNL A   1      32.318  23.905  26.996  1.00  0.00     0.001 A 
ATOM     95  C   UNL A   1      33.353  17.382  23.666  1.00  0.00     0.002 A 
ATOM     96  C   UNL A   1      31.063  23.487  26.594  1.00  0.00     0.002 A 
ENDBRANCH  81  83
ENDBRANCH  71  81
ENDBRANCH  69  71
ENDBRANCH  68  69
ENDBRANCH  67  68
ENDBRANCH   1  67
TORSDOF 19
ENDMDL
MODEL 2
REMARK VINA RESULT:     -12.5      1.557      2.030
REMARK SMILES O=C(OCCOC(=O)[C@@H](Cc1ccc(O)cc1)Nc1c2ccccc2nc2ccccc12)c1ccc(-c2c3nc(c(-c4ccc(S(=O)(=O)[O-])cc4)c4ccc([nH]4)c(-c4ccc(S(=O)(=O)[O-])cc4)c4nc(c(-c5ccc(S(=O)(=O)[O-])cc5)c5ccc2[nH]5)C=C4)C=C3)cc1
REMARK SMILES IDX 4 1 3 2 2 3 1 4 33 5 34 6 92 7 35 8 91 9 36 10 37 11 38 12
REMARK SMILES IDX 85 13 39 14 90 15 84 16 86 17 40 18 89 19 83 20 82 21 41 23
REMARK SMILES IDX 71 24 52 25 70 26 53 27 56 28 69 29 87 30 54 31 55 32 68 34
REMARK SMILES IDX 88 35 57 36 42 37 43 38 51 39 44 40 50 41 45 42 46 43 47 44
REMARK SMILES IDX 48 45 49 46 72 47 73 48 81 49 74 50 80 51 75 52 76 53 77 54
REMARK SMILES IDX 78 55 79 56 58 57 59 58 67 59 60 60 66 61 61 62 62 63 63 64
REMARK SMILES IDX 64 65 65 66 5 67 6 68 7 69 8 70 9 71 10 72 11 73 12 74 17 75
REMARK SMILES IDX 13 76 16 77 14 78 15 79 18 81 19 83 20 84 32 85 21 86 25 87
REMARK SMILES IDX 27 88 31 89 22 90 24 91 26 92 28 93 30 94 23 95 29 96
REMARK H PARENT 86 22 56 33 15 80 18 82
REMARK Flexibility Score: inf
ROOT
ATOM      1  C   UNL A   1      41.391  22.022  27.157  1.00  0.00     0.275 C 
ENDROOT
BRANCH   1   2
ATOM      2  O   UNL A   1      42.385  22.770  26.472  1.00  0.00    -0.458 OA
BRANCH   2   3
ATOM      3  C   UNL A   1      42.405  24.108  26.412  1.00  0.00     0.338 C 
ATOM      4  O   UNL A   1      42.479  24.663  25.318  1.00  0.00    -0.246 OA
BRANCH   3   5
ATOM      5  C   UNL A   1      42.399  24.989  27.614  1.00  0.00     0.060 A 
ATOM      6  C   UNL A   1      43.690  26.135  28.281  1.00  0.00     0.016 A 
ATOM      7  C   UNL A   1      40.688  25.194  28.159  1.00  0.00     0.016 A 
ATOM      8  C   UNL A   1      43.228  27.387  29.555  1.00  0.00     0.010 A 
ATOM      9  C   UNL A   1      40.246  26.552  29.267  1.00  0.00     0.010 A 
ATOM     10  C   UNL A   1      41.495  27.562  30.087  1.00  0.00    -0.014 A 
BRANCH  10  11
ATOM     11  C   UNL A   1      41.113  28.451  31.239  1.00  0.00     0.031 A 
ATOM     12  C   UNL A   1      41.866  28.436  32.563  1.00  0.00     0.074 A 
ATOM     13  C   UNL A   1      40.149  29.374  31.060  1.00  0.00     0.049 A 
ATOM     14  N   UNL A   1      42.067  29.420  33.410  1.00  0.00    -0.248 NA
ATOM     15  C   UNL A   1      42.520  27.196  32.995  1.00  0.00     0.031 C 
ATOM     16  C   UNL A   1      39.286  29.471  29.888  1.00  0.00     0.029 A 
ATOM     17  N   UNL A   1      39.734  30.414  31.855  1.00  0.00    -0.354 N 
ATOM     18  C   UNL A   1      42.979  28.936  34.351  1.00  0.00     0.074 A 
ATOM     19  C   UNL A   1      43.289  27.583  33.995  1.00  0.00     0.031 C 
ATOM     20  C   UNL A   1      38.503  30.552  29.992  1.00  0.00     0.029 A 
ATOM     21  C   UNL A   1      38.746  31.182  31.283  1.00  0.00     0.049 A 
ATOM     22  H   UNL A   1      40.109  30.593  32.748  1.00  0.00     0.167 HD
ATOM     23  C   UNL A   1      43.450  29.497  35.490  1.00  0.00     0.031 A 
ATOM     24  C   UNL A   1      38.084  32.256  31.756  1.00  0.00     0.031 A 
ATOM     25  C   UNL A   1      42.827  30.639  36.082  1.00  0.00     0.049 A 
ATOM     26  C   UNL A   1      38.469  32.771  33.114  1.00  0.00     0.074 A 
ATOM     27  C   UNL A   1      43.040  31.190  37.329  1.00  0.00     0.029 A 
ATOM     28  N   UNL A   1      41.760  31.316  35.507  1.00  0.00    -0.354 N 
ATOM     29  N   UNL A   1      39.441  32.361  33.898  1.00  0.00    -0.248 NA
ATOM     30  C   UNL A   1      37.671  33.871  33.664  1.00  0.00     0.031 C 
ATOM     31  C   UNL A   1      42.024  32.124  37.553  1.00  0.00     0.029 A 
ATOM     32  C   UNL A   1      41.250  32.230  36.403  1.00  0.00     0.049 A 
ATOM     33  H   UNL A   1      41.418  31.166  34.596  1.00  0.00     0.167 HD
ATOM     34  C   UNL A   1      39.369  33.149  35.039  1.00  0.00     0.074 A 
ATOM     35  C   UNL A   1      38.271  34.075  34.831  1.00  0.00     0.031 C 
ATOM     36  C   UNL A   1      40.138  33.114  36.156  1.00  0.00     0.031 A 
BRANCH  23  37
ATOM     37  C   UNL A   1      44.522  28.731  36.231  1.00  0.00    -0.014 A 
ATOM     38  C   UNL A   1      44.181  27.758  37.192  1.00  0.00     0.010 A 
ATOM     39  C   UNL A   1      45.879  29.059  36.053  1.00  0.00     0.010 A 
ATOM     40  C   UNL A   1      45.169  27.166  37.989  1.00  0.00     0.020 A 
ATOM     41  C   UNL A   1      46.871  28.461  36.839  1.00  0.00     0.020 A 
ATOM     42  C   UNL A   1      46.507  27.534  37.819  1.00  0.00     0.054 A 
BRANCH  42  43
ATOM     43  S   UNL A   1      47.761  26.806  38.911  1.00  0.00     0.124 S 
ATOM     44  O   UNL A   1      48.584  27.968  39.244  1.00  0.00    -0.237 OA
ATOM     45  O   UNL A   1      46.961  26.270  40.008  1.00  0.00    -0.237 OA
ATOM     46  O   UNL A   1      48.415  25.805  38.071  1.00  0.00    -0.744 OA
ENDBRANCH  42  43
ENDBRANCH  23  37
BRANCH  24  47
ATOM     47  C   UNL A   1      36.970  32.837  30.950  1.00  0.00    -0.014 A 
ATOM     48  C   UNL A   1      37.203  33.773  29.929  1.00  0.00     0.010 A 
ATOM     49  C   UNL A   1      35.656  32.356  31.138  1.00  0.00     0.010 A 
ATOM     50  C   UNL A   1      36.153  34.193  29.098  1.00  0.00     0.020 A 
ATOM     51  C   UNL A   1      34.615  32.743  30.288  1.00  0.00     0.020 A 
ATOM     52  C   UNL A   1      34.870  33.661  29.272  1.00  0.00     0.054 A 
BRANCH  52  53
ATOM     53  S   UNL A   1      33.555  34.133  28.113  1.00  0.00     0.124 S 
ATOM     54  O   UNL A   1      32.630  34.858  28.979  1.00  0.00    -0.237 OA
ATOM     55  O   UNL A   1      34.272  34.946  27.133  1.00  0.00    -0.237 OA
ATOM     56  O   UNL A   1      33.062  32.854  27.605  1.00  0.00    -0.744 OA
ENDBRANCH  52  53
ENDBRANCH  24  47
BRANCH  36  57
ATOM     57  C   UNL A   1      39.834  34.106  37.239  1.00  0.00    -0.014 A 
ATOM     58  C   UNL A   1      38.965  33.788  38.295  1.00  0.00     0.010 A 
ATOM     59  C   UNL A   1      40.557  35.312  37.268  1.00  0.00     0.010 A 
ATOM     60  C   UNL A   1      38.822  34.668  39.368  1.00  0.00     0.020 A 
ATOM     61  C   UNL A   1      40.437  36.179  38.351  1.00  0.00     0.020 A 
ATOM     62  C   UNL A   1      39.568  35.853  39.393  1.00  0.00     0.054 A 
BRANCH  62  63
ATOM     63  S   UNL A   1      39.444  36.930  40.845  1.00  0.00     0.124 S 
ATOM     64  O   UNL A   1      40.810  37.431  40.966  1.00  0.00    -0.237 OA
ATOM     65  O   UNL A   1      38.445  37.911  40.431  1.00  0.00    -0.237 OA
ATOM     66  O   UNL A   1      39.015  36.024  41.911  1.00  0.00    -0.744 OA
ENDBRANCH  62  63
ENDBRANCH  36  57
ENDBRANCH  10  11
ENDBRANCH   3   5
ENDBRANCH   2   3
ENDBRANCH   1   2
BRANCH   1  67
ATOM     67  C   UNL A   1      40.454  21.316  26.160  1.00  0.00     0.274 C 
BRANCH  67  68
ATOM     68  O   UNL A   1      39.157  21.953  26.006  1.00  0.00    -0.461 OA
BRANCH  68  69
ATOM     69  C   UNL A   1      38.126  21.270  25.412  1.00  0.00     0.329 C 
ATOM     70  O   UNL A   1      38.237  20.116  25.020  1.00  0.00    -0.250 OA
BRANCH  69  71
ATOM     71  C   UNL A   1      36.762  22.100  25.397  1.00  0.00     0.194 C 
BRANCH  71  72
ATOM     72  C   UNL A   1      36.098  22.940  23.869  1.00  0.00     0.072 C 
BRANCH  72  73
ATOM     73  C   UNL A   1      34.375  24.126  23.314  1.00  0.00    -0.045 A 
ATOM     74  C   UNL A   1      33.065  23.664  22.607  1.00  0.00     0.007 A 
ATOM     75  C   UNL A   1      33.980  25.519  23.652  1.00  0.00     0.007 A 
ATOM     76  C   UNL A   1      31.744  24.108  22.810  1.00  0.00     0.046 A 
ATOM     77  C   UNL A   1      32.639  26.005  23.836  1.00  0.00     0.046 A 
ATOM     78  C   UNL A   1      31.543  25.230  23.547  1.00  0.00     0.115 A 
BRANCH  78  79
ATOM     79  O   UNL A   1      30.295  25.617  23.906  1.00  0.00    -0.508 OA
ATOM     80  H   UNL A   1      29.918  26.389  23.533  1.00  0.00     0.293 HD
ENDBRANCH  78  79
ENDBRANCH  72  73
ENDBRANCH  71  72
BRANCH  71  81
ATOM     81  N   UNL A   1      35.677  21.349  26.068  1.00  0.00    -0.371 N 
ATOM     82  H   UNL A   1      35.886  21.080  26.992  1.00  0.00     0.161 HD
BRANCH  81  83
ATOM     83  C   UNL A   1      34.412  20.949  25.630  1.00  0.00     0.054 A 
ATOM     84  C   UNL A   1      34.122  19.724  24.939  1.00  0.00     0.024 A 
ATOM     85  C   UNL A   1      33.319  21.834  25.941  1.00  0.00     0.024 A 
ATOM     86  C   UNL A   1      35.031  18.671  24.635  1.00  0.00     0.012 A 
ATOM     87  C   UNL A   1      32.772  19.490  24.591  1.00  0.00     0.073 A 
ATOM     88  C   UNL A   1      32.024  21.446  25.550  1.00  0.00     0.073 A 
ATOM     89  C   UNL A   1      33.447  23.071  26.633  1.00  0.00     0.012 A 
ATOM     90  C   UNL A   1      34.635  17.485  24.007  1.00  0.00     0.001 A 
ATOM     91  C   UNL A   1      32.396  18.311  23.961  1.00  0.00     0.029 A 
ATOM     92  N   UNL A   1      31.777  20.331  24.866  1.00  0.00    -0.248 NA
ATOM     93  C   UNL A   1      30.935  22.238  25.889  1.00  0.00     0.029 A 
ATOM     94  C   UNL A   1      32.340  23.851  26.969  1.00  0.00     0.001 A 
ATOM     95  C   UNL A   1      33.308  17.305  23.663  1.00  0.00     0.002 A 
ATOM     96  C   UNL A   1      31.076  23.426  26.602  1.00  0.00     0.002 A 
ENDBRANCH  81  83
ENDBRANCH  71  81
ENDBRANCH  69  71
ENDBRANCH  68  69
ENDBRANCH  67  68
ENDBRANCH   1  67
TORSDOF 19
ENDMDL
MODEL 3
REMARK VINA RESULT:     -12.3      1.295      2.559
REMARK SMILES O=C(OCCOC(=O)[C@@H](Cc1ccc(O)cc1)Nc1c2ccccc2nc2ccccc12)c1ccc(-c2c3nc(c(-c4ccc(S(=O)(=O)[O-])cc4)c4ccc([nH]4)c(-c4ccc(S(=O)(=O)[O-])cc4)c4nc(c(-c5ccc(S(=O)(=O)[O-])cc5)c5ccc2[nH]5)C=C4)C=C3)cc1
REMARK SMILES IDX 4 1 3 2 2 3 1 4 33 5 34 6 92 7 35 8 91 9 36 10 37 11 38 12
REMARK SMILES IDX 85 13 39 14 90 15 84 16 86 17 40 18 89 19 83 20 82 21 41 23
REMARK SMILES IDX 71 24 52 25 70 26 53 27 56 28 69 29 87 30 54 31 55 32 68 34
REMARK SMILES IDX 88 35 57 36 42 37 43 38 51 39 44 40 50 41 45 42 46 43 47 44
REMARK SMILES IDX 48 45 49 46 72 47 73 48 81 49 74 50 80 51 75 52 76 53 77 54
REMARK SMILES IDX 78 55 79 56 58 57 59 58 67 59 60 60 66 61 61 62 62 63 63 64
REMARK SMILES IDX 64 65 65 66 5 67 6 68 7 69 8 70 9 71 10 72 11 73 12 74 17 75
REMARK SMILES IDX 13 76 16 77 14 78 15 79 18 81 19 83 20 84 32 85 21 86 25 87
REMARK SMILES IDX 27 88 31 89 22 90 24 91 26 92 28 93 30 94 23 95 29 96
REMARK H PARENT 86 22 56 33 15 80 18 82
REMARK Flexibility Score: inf
ROOT
ATOM      1  C   UNL A   1      41.556  22.524  27.040  1.00  0.00     0.275 C 
ENDROOT
BRANCH   1   2
ATOM      2  O   UNL A   1      42.284  23.428  26.222  1.00  0.00    -0.458 OA
BRANCH   2   3
ATOM      3  C   UNL A   1      42.086  24.752  26.212  1.00  0.00     0.338 C 
ATOM      4  O   UNL A   1      41.914  25.330  25.141  1.00  0.00    -0.246 OA
BRANCH   3   5
ATOM      5  C   UNL A   1      42.117  25.601  27.437  1.00  0.00     0.060 A 
ATOM      6  C   UNL A   1      43.358  26.847  28.015  1.00  0.00     0.016 A 
ATOM      7  C   UNL A   1      40.456  25.635  28.147  1.00  0.00     0.016 A 
ATOM      8  C   UNL A   1      42.910  28.021  29.366  1.00  0.00     0.010 A 
ATOM      9  C   UNL A   1      40.003  26.920  29.334  1.00  0.00     0.010 A 
ATOM     10  C   UNL A   1      41.229  28.023  30.064  1.00  0.00    -0.014 A 
BRANCH  10  11
ATOM     11  C   UNL A   1      40.881  28.846  31.275  1.00  0.00     0.031 A 
ATOM     12  C   UNL A   1      41.638  28.717  32.591  1.00  0.00     0.074 A 
ATOM     13  C   UNL A   1      39.948  29.810  31.163  1.00  0.00     0.049 A 
ATOM     14  N   UNL A   1      41.876  29.636  33.499  1.00  0.00    -0.248 NA
ATOM     15  C   UNL A   1      42.250  27.430  32.935  1.00  0.00     0.031 C 
ATOM     16  C   UNL A   1      39.085  30.014  30.005  1.00  0.00     0.029 A 
ATOM     17  N   UNL A   1      39.572  30.809  32.027  1.00  0.00    -0.354 N 
ATOM     18  C   UNL A   1      42.774  29.060  34.401  1.00  0.00     0.074 A 
ATOM     19  C   UNL A   1      43.036  27.724  33.954  1.00  0.00     0.031 C 
ATOM     20  C   UNL A   1      38.340  31.112  30.184  1.00  0.00     0.029 A 
ATOM     21  C   UNL A   1      38.609  31.647  31.513  1.00  0.00     0.049 A 
ATOM     22  H   UNL A   1      39.956  30.916  32.927  1.00  0.00     0.167 HD
ATOM     23  C   UNL A   1      43.268  29.528  35.571  1.00  0.00     0.031 A 
ATOM     24  C   UNL A   1      37.986  32.709  32.059  1.00  0.00     0.031 A 
ATOM     25  C   UNL A   1      42.686  30.649  36.242  1.00  0.00     0.049 A 
ATOM     26  C   UNL A   1      38.393  33.119  33.446  1.00  0.00     0.074 A 
ATOM     27  C   UNL A   1      42.922  31.109  37.520  1.00  0.00     0.029 A 
ATOM     28  N   UNL A   1      41.641  31.398  35.719  1.00  0.00    -0.354 N 
ATOM     29  N   UNL A   1      39.353  32.625  34.196  1.00  0.00    -0.248 NA
ATOM     30  C   UNL A   1      37.635  34.207  34.072  1.00  0.00     0.031 C 
ATOM     31  C   UNL A   1      41.939  32.060  37.812  1.00  0.00     0.029 A 
ATOM     32  C   UNL A   1      41.165  32.268  36.676  1.00  0.00     0.049 A 
ATOM     33  H   UNL A   1      41.291  31.321  34.801  1.00  0.00     0.167 HD
ATOM     34  C   UNL A   1      39.312  33.338  35.386  1.00  0.00     0.074 A 
ATOM     35  C   UNL A   1      38.245  34.312  35.247  1.00  0.00     0.031 C 
ATOM     36  C   UNL A   1      40.083  33.203  36.494  1.00  0.00     0.031 A 
BRANCH  23  37
ATOM     37  C   UNL A   1      44.316  28.679  36.255  1.00  0.00    -0.014 A 
ATOM     38  C   UNL A   1      43.944  27.593  37.073  1.00  0.00     0.010 A 
ATOM     39  C   UNL A   1      45.676  29.030  36.172  1.00  0.00     0.010 A 
ATOM     40  C   UNL A   1      44.905  26.911  37.830  1.00  0.00     0.020 A 
ATOM     41  C   UNL A   1      46.640  28.342  36.917  1.00  0.00     0.020 A 
ATOM     42  C   UNL A   1      46.246  27.300  37.760  1.00  0.00     0.054 A 
BRANCH  42  43
ATOM     43  S   UNL A   1      47.462  26.446  38.802  1.00  0.00     0.124 S 
ATOM     44  O   UNL A   1      47.038  26.837  40.145  1.00  0.00    -0.237 OA
ATOM     45  O   UNL A   1      47.248  25.042  38.462  1.00  0.00    -0.237 OA
ATOM     46  O   UNL A   1      48.742  27.002  38.371  1.00  0.00    -0.744 OA
ENDBRANCH  42  43
ENDBRANCH  23  37
BRANCH  24  47
ATOM     47  C   UNL A   1      36.889  33.379  31.300  1.00  0.00    -0.014 A 
ATOM     48  C   UNL A   1      37.096  33.920  30.020  1.00  0.00     0.010 A 
ATOM     49  C   UNL A   1      35.580  33.376  31.827  1.00  0.00     0.010 A 
ATOM     50  C   UNL A   1      36.016  34.417  29.277  1.00  0.00     0.020 A 
ATOM     51  C   UNL A   1      34.495  33.835  31.074  1.00  0.00     0.020 A 
ATOM     52  C   UNL A   1      34.720  34.354  29.801  1.00  0.00     0.054 A 
BRANCH  52  53
ATOM     53  S   UNL A   1      33.325  34.897  28.774  1.00  0.00     0.124 S 
ATOM     54  O   UNL A   1      33.847  36.119  28.171  1.00  0.00    -0.237 OA
ATOM     55  O   UNL A   1      33.145  33.770  27.862  1.00  0.00    -0.237 OA
ATOM     56  O   UNL A   1      32.239  35.089  29.733  1.00  0.00    -0.744 OA
ENDBRANCH  52  53
ENDBRANCH  24  47
BRANCH  36  57
ATOM     57  C   UNL A   1      39.817  34.131  37.642  1.00  0.00    -0.014 A 
ATOM     58  C   UNL A   1      38.997  33.746  38.714  1.00  0.00     0.010 A 
ATOM     59  C   UNL A   1      40.530  35.342  37.707  1.00  0.00     0.010 A 
ATOM     60  C   UNL A   1      38.893  34.565  39.840  1.00  0.00     0.020 A 
ATOM     61  C   UNL A   1      40.449  36.147  38.840  1.00  0.00     0.020 A 
ATOM     62  C   UNL A   1      39.628  35.755  39.899  1.00  0.00     0.054 A 
BRANCH  62  63
ATOM     63  S   UNL A   1      39.557  36.749  41.412  1.00  0.00     0.124 S 
ATOM     64  O   UNL A   1      39.166  38.057  40.896  1.00  0.00    -0.237 OA
ATOM     65  O   UNL A   1      38.546  36.054  42.203  1.00  0.00    -0.237 OA
ATOM     66  O   UNL A   1      40.918  36.669  41.942  1.00  0.00    -0.744 OA
ENDBRANCH  62  63
ENDBRANCH  36  57
ENDBRANCH  10  11
ENDBRANCH   3   5
ENDBRANCH   2   3
ENDBRANCH   1   2
BRANCH   1  67
ATOM     67  C   UNL A   1      40.649  21.622  26.183  1.00  0.00     0.274 C 
BRANCH  67  68
ATOM     68  O   UNL A   1      39.280  22.095  26.062  1.00  0.00    -0.461 OA
BRANCH  68  69
ATOM     69  C   UNL A   1      38.326  21.290  25.494  1.00  0.00     0.329 C 
ATOM     70  O   UNL A   1      38.535  20.118  25.209  1.00  0.00    -0.250 OA
BRANCH  69  71
ATOM     71  C   UNL A   1      36.908  22.012  25.358  1.00  0.00     0.194 C 
BRANCH  71  72
ATOM     72  C   UNL A   1      36.246  22.655  23.737  1.00  0.00     0.072 C 
BRANCH  72  73
ATOM     73  C   UNL A   1      34.477  23.679  23.023  1.00  0.00    -0.045 A 
ATOM     74  C   UNL A   1      33.193  23.068  22.384  1.00  0.00     0.007 A 
ATOM     75  C   UNL A   1      34.021  25.086  23.168  1.00  0.00     0.007 A 
ATOM     76  C   UNL A   1      31.853  23.478  22.522  1.00  0.00     0.046 A 
ATOM     77  C   UNL A   1      32.659  25.534  23.282  1.00  0.00     0.046 A 
ATOM     78  C   UNL A   1      31.599  24.680  23.099  1.00  0.00     0.115 A 
BRANCH  78  79
ATOM     79  O   UNL A   1      30.333  25.057  23.401  1.00  0.00    -0.508 OA
ATOM     80  H   UNL A   1      29.952  24.807  24.219  1.00  0.00     0.293 HD
ENDBRANCH  78  79
ENDBRANCH  72  73
ENDBRANCH  71  72
BRANCH  71  81
ATOM     81  N   UNL A   1      35.855  21.248  26.063  1.00  0.00    -0.371 N 
ATOM     82  H   UNL A   1      36.169  20.780  26.870  1.00  0.00     0.161 HD
BRANCH  81  83
ATOM     83  C   UNL A   1      34.496  21.068  25.793  1.00  0.00     0.054 A 
ATOM     84  C   UNL A   1      33.458  22.017  26.089  1.00  0.00     0.024 A 
ATOM     85  C   UNL A   1      34.133  19.844  25.128  1.00  0.00     0.024 A 
ATOM     86  C   UNL A   1      33.615  23.321  26.638  1.00  0.00     0.012 A 
ATOM     87  C   UNL A   1      32.140  21.658  25.723  1.00  0.00     0.073 A 
ATOM     88  C   UNL A   1      32.777  19.645  24.804  1.00  0.00     0.073 A 
ATOM     89  C   UNL A   1      35.048  18.819  24.756  1.00  0.00     0.012 A 
ATOM     90  C   UNL A   1      32.541  24.195  26.835  1.00  0.00     0.001 A 
ATOM     91  C   UNL A   1      31.084  22.534  25.932  1.00  0.00     0.029 A 
ATOM     92  N   UNL A   1      31.820  20.511  25.129  1.00  0.00    -0.248 NA
ATOM     93  C   UNL A   1      32.395  18.508  24.104  1.00  0.00     0.029 A 
ATOM     94  C   UNL A   1      34.646  17.685  24.049  1.00  0.00     0.001 A 
ATOM     95  C   UNL A   1      31.264  23.797  26.484  1.00  0.00     0.002 A 
ATOM     96  C   UNL A   1      33.312  17.535  23.713  1.00  0.00     0.002 A 
ENDBRANCH  81  83
ENDBRANCH  71  81
ENDBRANCH  69  71
ENDBRANCH  68  69
ENDBRANCH  67  68
ENDBRANCH   1  67
TORSDOF 19
ENDMDL
