MODEL 1
REMARK VINA RESULT:     -11.9      0.000      0.000
REMARK SMILES N#Cc1cccnc1N1CC[NH+]([C@@H](C(=O)OCCOC(=O)c2ccc(-c3c4nc(c(-c5ccc(S(=O)(=O)[O-])cc5)c5ccc([nH]5)c(-c5ccc(S(=O)(=O)[O-])cc5)c5nc(c(-c6ccc(S(=O)(=O)[O-])cc6)c6ccc3[nH]6)C=C5)C=C4)cc2)c2c[nH]c3cc(CO)ccc23)CC1
REMARK SMILES IDX 17 1 16 2 14 3 15 4 13 5 12 6 9 7 10 8 94 9 11 10 93 11 8 13
REMARK SMILES IDX 3 14 4 15 5 16 7 17 6 18 2 19 1 20 82 21 83 22 92 23 84 24
REMARK SMILES IDX 85 25 91 26 86 28 90 29 87 30 88 31 89 32 18 34 19 35 20 36
REMARK SMILES IDX 21 37 22 38 23 39 81 40 24 41 80 42 25 43 26 44 27 45 74 46
REMARK SMILES IDX 28 47 79 48 73 49 75 50 29 51 78 52 72 53 71 54 30 56 60 57
REMARK SMILES IDX 41 58 59 59 42 60 45 61 58 62 76 63 43 64 44 65 57 67 77 68
REMARK SMILES IDX 46 69 31 70 32 71 40 72 33 73 39 74 34 75 35 76 36 77 37 78
REMARK SMILES IDX 38 79 61 80 62 81 70 82 63 83 69 84 64 85 65 86 66 87 67 88
REMARK SMILES IDX 68 89 47 90 48 91 56 92 49 93 55 94 50 95 51 96 52 97 53 98
REMARK SMILES IDX 54 99
REMARK H PARENT 12 12 84 27 89 33 75 55 45 66
REMARK Flexibility Score: inf
ROOT
ATOM      1  C   UNL A   1      35.978  22.120  25.706  1.00  0.00     0.274 C 
ENDROOT
BRANCH   1   2
ATOM      2  O   UNL A   1      35.466  23.021  24.694  1.00  0.00    -0.457 OA
BRANCH   2   3
ATOM      3  C   UNL A   1      34.242  23.577  24.861  1.00  0.00     0.370 C 
ATOM      4  O   UNL A   1      33.971  24.288  25.828  1.00  0.00    -0.245 OA
BRANCH   3   5
ATOM      5  C   UNL A   1      33.186  23.124  23.828  1.00  0.00     0.328 C 
BRANCH   5   6
ATOM      6  N   UNL A   1      32.670  24.165  22.852  1.00  0.00    -0.316 N 
ATOM      7  N   UNL A   1      32.510  26.801  24.140  1.00  0.00    -0.344 N 
ATOM      8  C   UNL A   1      31.608  25.708  24.468  1.00  0.00     0.179 C 
ATOM      9  C   UNL A   1      33.644  26.591  23.231  1.00  0.00     0.179 C 
ATOM     10  C   UNL A   1      31.442  24.875  23.209  1.00  0.00     0.285 C 
ATOM     11  C   UNL A   1      33.636  25.215  22.451  1.00  0.00     0.285 C 
ATOM     12  H   UNL A   1      32.478  23.529  22.079  1.00  0.00     0.349 HD
BRANCH   7  13
ATOM     13  C   UNL A   1      32.452  27.850  25.036  1.00  0.00     0.146 A 
ATOM     14  C   UNL A   1      31.693  28.986  24.757  1.00  0.00     0.095 A 
ATOM     15  C   UNL A   1      31.465  29.917  25.776  1.00  0.00     0.025 A 
ATOM     16  C   UNL A   1      31.987  29.693  27.045  1.00  0.00     0.022 A 
ATOM     17  N   UNL A   1      32.981  27.648  26.268  1.00  0.00    -0.238 NA
ATOM     18  C   UNL A   1      32.736  28.550  27.241  1.00  0.00     0.113 A 
BRANCH  14  19
ATOM     19  C   UNL A   1      31.058  29.151  23.489  1.00  0.00     0.103 C 
ATOM     20  N   UNL A   1      30.547  29.303  22.452  1.00  0.00    -0.192 NA
ENDBRANCH  14  19
ENDBRANCH   7  13
ENDBRANCH   5   6
BRANCH   5  21
ATOM     21  C   UNL A   1      32.223  21.912  24.158  1.00  0.00     0.046 A 
ATOM     22  C   UNL A   1      31.582  21.844  25.403  1.00  0.00     0.094 A 
ATOM     23  C   UNL A   1      32.330  20.487  23.910  1.00  0.00     0.009 A 
ATOM     24  N   UNL A   1      32.406  20.916  26.053  1.00  0.00    -0.361 N 
ATOM     25  C   UNL A   1      32.723  19.939  25.132  1.00  0.00     0.046 A 
ATOM     26  C   UNL A   1      32.110  19.548  22.893  1.00  0.00     0.011 A 
ATOM     27  H   UNL A   1      32.703  20.955  26.991  1.00  0.00     0.166 HD
ATOM     28  C   UNL A   1      33.356  18.686  25.225  1.00  0.00     0.032 A 
ATOM     29  C   UNL A   1      32.530  18.225  23.010  1.00  0.00     0.007 A 
ATOM     30  C   UNL A   1      33.295  17.842  24.102  1.00  0.00    -0.021 A 
BRANCH  30  31
ATOM     31  C   UNL A   1      34.074  16.557  24.009  1.00  0.00     0.191 C 
BRANCH  31  32
ATOM     32  O   UNL A   1      34.298  16.224  22.636  1.00  0.00    -0.392 OA
ATOM     33  H   UNL A   1      35.252  16.178  22.465  1.00  0.00     0.211 HD
ENDBRANCH  31  32
ENDBRANCH  30  31
ENDBRANCH   5  21
ENDBRANCH   3   5
ENDBRANCH   2   3
ENDBRANCH   1   2
BRANCH   1  34
ATOM     34  C   UNL A   1      37.304  21.553  25.214  1.00  0.00     0.275 C 
BRANCH  34  35
ATOM     35  O   UNL A   1      38.300  22.590  25.326  1.00  0.00    -0.458 OA
BRANCH  35  36
ATOM     36  C   UNL A   1      39.226  22.297  26.258  1.00  0.00     0.338 C 
ATOM     37  O   UNL A   1      39.876  21.265  26.322  1.00  0.00    -0.246 OA
BRANCH  36  38
ATOM     38  C   UNL A   1      39.482  23.387  27.212  1.00  0.00     0.060 A 
ATOM     39  C   UNL A   1      38.950  24.650  26.929  1.00  0.00     0.016 A 
ATOM     40  C   UNL A   1      40.636  23.270  27.991  1.00  0.00     0.016 A 
ATOM     41  C   UNL A   1      39.657  25.799  27.272  1.00  0.00     0.010 A 
ATOM     42  C   UNL A   1      41.300  24.427  28.410  1.00  0.00     0.010 A 
ATOM     43  C   UNL A   1      40.842  25.697  28.012  1.00  0.00    -0.014 A 
BRANCH  43  44
ATOM     44  C   UNL A   1      41.475  26.901  28.584  1.00  0.00     0.031 A 
ATOM     45  C   UNL A   1      40.707  27.956  29.326  1.00  0.00     0.074 A 
ATOM     46  C   UNL A   1      42.767  27.071  28.257  1.00  0.00     0.049 A 
ATOM     47  N   UNL A   1      40.980  29.229  29.450  1.00  0.00    -0.248 NA
ATOM     48  C   UNL A   1      39.484  27.539  30.026  1.00  0.00     0.031 C 
ATOM     49  C   UNL A   1      43.612  26.058  27.610  1.00  0.00     0.029 A 
ATOM     50  N   UNL A   1      43.574  28.168  28.356  1.00  0.00    -0.354 N 
ATOM     51  C   UNL A   1      39.930  29.782  30.180  1.00  0.00     0.074 A 
ATOM     52  C   UNL A   1      39.025  28.697  30.496  1.00  0.00     0.031 C 
ATOM     53  C   UNL A   1      44.798  26.598  27.319  1.00  0.00     0.029 A 
ATOM     54  C   UNL A   1      44.747  28.008  27.660  1.00  0.00     0.049 A 
ATOM     55  H   UNL A   1      43.342  28.979  28.866  1.00  0.00     0.167 HD
ATOM     56  C   UNL A   1      39.765  31.081  30.537  1.00  0.00     0.031 A 
ATOM     57  C   UNL A   1      45.638  28.917  27.236  1.00  0.00     0.031 A 
ATOM     58  C   UNL A   1      40.761  32.097  30.278  1.00  0.00     0.049 A 
ATOM     59  C   UNL A   1      45.406  30.351  27.584  1.00  0.00     0.074 A 
ATOM     60  C   UNL A   1      40.753  33.429  30.655  1.00  0.00     0.029 A 
ATOM     61  N   UNL A   1      41.954  31.884  29.600  1.00  0.00    -0.354 N 
ATOM     62  N   UNL A   1      44.388  30.884  28.215  1.00  0.00    -0.248 NA
ATOM     63  C   UNL A   1      46.445  31.301  27.182  1.00  0.00     0.031 C 
ATOM     64  C   UNL A   1      41.908  34.033  30.153  1.00  0.00     0.029 A 
ATOM     65  C   UNL A   1      42.678  33.062  29.534  1.00  0.00     0.049 A 
ATOM     66  H   UNL A   1      42.242  31.022  29.221  1.00  0.00     0.167 HD
ATOM     67  C   UNL A   1      44.693  32.231  28.339  1.00  0.00     0.074 A 
ATOM     68  C   UNL A   1      45.986  32.425  27.713  1.00  0.00     0.031 C 
ATOM     69  C   UNL A   1      43.976  33.216  28.928  1.00  0.00     0.031 A 
BRANCH  56  70
ATOM     70  C   UNL A   1      38.487  31.531  31.215  1.00  0.00    -0.014 A 
ATOM     71  C   UNL A   1      38.316  31.484  32.608  1.00  0.00     0.010 A 
ATOM     72  C   UNL A   1      37.502  32.181  30.440  1.00  0.00     0.010 A 
ATOM     73  C   UNL A   1      37.190  32.068  33.208  1.00  0.00     0.020 A 
ATOM     74  C   UNL A   1      36.392  32.791  31.035  1.00  0.00     0.020 A 
ATOM     75  C   UNL A   1      36.240  32.726  32.419  1.00  0.00     0.054 A 
BRANCH  75  76
ATOM     76  S   UNL A   1      34.834  33.540  33.232  1.00  0.00     0.124 S 
ATOM     77  O   UNL A   1      33.704  32.751  32.746  1.00  0.00    -0.237 OA
ATOM     78  O   UNL A   1      35.147  33.379  34.650  1.00  0.00    -0.237 OA
ATOM     79  O   UNL A   1      34.889  34.914  32.737  1.00  0.00    -0.744 OA
ENDBRANCH  75  76
ENDBRANCH  56  70
BRANCH  57  80
ATOM     80  C   UNL A   1      46.782  28.477  26.403  1.00  0.00    -0.014 A 
ATOM     81  C   UNL A   1      46.620  28.303  25.021  1.00  0.00     0.010 A 
ATOM     82  C   UNL A   1      48.052  28.283  26.982  1.00  0.00     0.010 A 
ATOM     83  C   UNL A   1      47.698  27.896  24.236  1.00  0.00     0.020 A 
ATOM     84  C   UNL A   1      49.143  27.918  26.192  1.00  0.00     0.020 A 
ATOM     85  C   UNL A   1      48.950  27.702  24.827  1.00  0.00     0.054 A 
BRANCH  85  86
ATOM     86  S   UNL A   1      50.328  27.168  23.781  1.00  0.00     0.124 S 
ATOM     87  O   UNL A   1      50.995  28.435  23.497  1.00  0.00    -0.237 OA
ATOM     88  O   UNL A   1      51.053  26.254  24.660  1.00  0.00    -0.237 OA
ATOM     89  O   UNL A   1      49.669  26.536  22.641  1.00  0.00    -0.744 OA
ENDBRANCH  85  86
ENDBRANCH  57  80
BRANCH  69  90
ATOM     90  C   UNL A   1      44.617  34.571  29.004  1.00  0.00    -0.014 A 
ATOM     91  C   UNL A   1      45.468  34.923  30.063  1.00  0.00     0.010 A 
ATOM     92  C   UNL A   1      44.403  35.483  27.953  1.00  0.00     0.010 A 
ATOM     93  C   UNL A   1      46.084  36.176  30.079  1.00  0.00     0.020 A 
ATOM     94  C   UNL A   1      45.046  36.721  27.947  1.00  0.00     0.020 A 
ATOM     95  C   UNL A   1      45.878  37.061  29.016  1.00  0.00     0.054 A 
BRANCH  95  96
ATOM     96  S   UNL A   1      46.758  38.643  29.022  1.00  0.00     0.124 S 
ATOM     97  O   UNL A   1      47.130  38.780  30.427  1.00  0.00    -0.237 OA
ATOM     98  O   UNL A   1      47.864  38.394  28.100  1.00  0.00    -0.237 OA
ATOM     99  O   UNL A   1      45.761  39.599  28.546  1.00  0.00    -0.744 OA
ENDBRANCH  95  96
ENDBRANCH  69  90
ENDBRANCH  43  44
ENDBRANCH  36  38
ENDBRANCH  35  36
ENDBRANCH  34  35
ENDBRANCH   1  34
TORSDOF 20
ENDMDL
MODEL 2
REMARK VINA RESULT:     -11.4      4.733      8.406
REMARK SMILES N#Cc1cccnc1N1CC[NH+]([C@@H](C(=O)OCCOC(=O)c2ccc(-c3c4nc(c(-c5ccc(S(=O)(=O)[O-])cc5)c5ccc([nH]5)c(-c5ccc(S(=O)(=O)[O-])cc5)c5nc(c(-c6ccc(S(=O)(=O)[O-])cc6)c6ccc3[nH]6)C=C5)C=C4)cc2)c2c[nH]c3cc(CO)ccc23)CC1
REMARK SMILES IDX 17 1 16 2 14 3 15 4 13 5 12 6 9 7 10 8 94 9 11 10 93 11 8 13
REMARK SMILES IDX 3 14 4 15 5 16 7 17 6 18 2 19 1 20 82 21 83 22 92 23 84 24
REMARK SMILES IDX 85 25 91 26 86 28 90 29 87 30 88 31 89 32 18 34 19 35 20 36
REMARK SMILES IDX 21 37 22 38 23 39 81 40 24 41 80 42 25 43 26 44 27 45 74 46
REMARK SMILES IDX 28 47 79 48 73 49 75 50 29 51 78 52 72 53 71 54 30 56 60 57
REMARK SMILES IDX 41 58 59 59 42 60 45 61 58 62 76 63 43 64 44 65 57 67 77 68
REMARK SMILES IDX 46 69 31 70 32 71 40 72 33 73 39 74 34 75 35 76 36 77 37 78
REMARK SMILES IDX 38 79 61 80 62 81 70 82 63 83 69 84 64 85 65 86 66 87 67 88
REMARK SMILES IDX 68 89 47 90 48 91 56 92 49 93 55 94 50 95 51 96 52 97 53 98
REMARK SMILES IDX 54 99
REMARK H PARENT 12 12 84 27 89 33 75 55 45 66
REMARK Flexibility Score: inf
ROOT
ATOM      1  C   UNL A   1      36.941  23.113  24.318  1.00  0.00     0.274 C 
ENDROOT
BRANCH   1   2
ATOM      2  O   UNL A   1      35.793  22.325  23.917  1.00  0.00    -0.457 OA
BRANCH   2   3
ATOM      3  C   UNL A   1      34.681  22.958  23.468  1.00  0.00     0.370 C 
ATOM      4  O   UNL A   1      34.642  23.517  22.373  1.00  0.00    -0.245 OA
BRANCH   3   5
ATOM      5  C   UNL A   1      33.534  23.046  24.499  1.00  0.00     0.328 C 
BRANCH   5   6
ATOM      6  N   UNL A   1      33.690  24.039  25.637  1.00  0.00    -0.316 N 
ATOM      7  N   UNL A   1      31.965  26.379  25.210  1.00  0.00    -0.344 N 
ATOM      8  C   UNL A   1      33.148  26.115  24.406  1.00  0.00     0.179 C 
ATOM      9  C   UNL A   1      31.499  25.400  26.201  1.00  0.00     0.179 C 
ATOM     10  C   UNL A   1      34.140  25.388  25.299  1.00  0.00     0.285 C 
ATOM     11  C   UNL A   1      32.504  24.220  26.508  1.00  0.00     0.285 C 
ATOM     12  H   UNL A   1      34.436  23.549  26.130  1.00  0.00     0.349 HD
BRANCH   7  13
ATOM     13  C   UNL A   1      31.150  27.359  24.684  1.00  0.00     0.146 A 
ATOM     14  C   UNL A   1      31.397  28.708  24.940  1.00  0.00     0.095 A 
ATOM     15  C   UNL A   1      30.704  29.677  24.206  1.00  0.00     0.025 A 
ATOM     16  C   UNL A   1      29.792  29.284  23.233  1.00  0.00     0.022 A 
ATOM     17  N   UNL A   1      30.241  26.982  23.751  1.00  0.00    -0.238 NA
ATOM     18  C   UNL A   1      29.595  27.931  23.043  1.00  0.00     0.113 A 
BRANCH  14  19
ATOM     19  C   UNL A   1      32.421  29.106  25.852  1.00  0.00     0.103 C 
ATOM     20  N   UNL A   1      33.260  29.447  26.587  1.00  0.00    -0.192 NA
ENDBRANCH  14  19
ENDBRANCH   7  13
ENDBRANCH   5   6
BRANCH   5  21
ATOM     21  C   UNL A   1      32.611  21.789  24.768  1.00  0.00     0.046 A 
ATOM     22  C   UNL A   1      32.246  21.453  26.079  1.00  0.00     0.094 A 
ATOM     23  C   UNL A   1      32.600  20.450  24.209  1.00  0.00     0.009 A 
ATOM     24  N   UNL A   1      33.148  20.410  26.326  1.00  0.00    -0.361 N 
ATOM     25  C   UNL A   1      33.219  19.654  25.173  1.00  0.00     0.046 A 
ATOM     26  C   UNL A   1      32.128  19.751  23.090  1.00  0.00     0.011 A 
ATOM     27  H   UNL A   1      33.639  20.247  27.163  1.00  0.00     0.166 HD
ATOM     28  C   UNL A   1      33.803  18.412  24.861  1.00  0.00     0.032 A 
ATOM     29  C   UNL A   1      32.505  18.434  22.832  1.00  0.00     0.007 A 
ATOM     30  C   UNL A   1      33.468  17.828  23.627  1.00  0.00    -0.021 A 
BRANCH  30  31
ATOM     31  C   UNL A   1      34.152  16.595  23.099  1.00  0.00     0.191 C 
BRANCH  31  32
ATOM     32  O   UNL A   1      34.575  15.772  24.191  1.00  0.00    -0.392 OA
ATOM     33  H   UNL A   1      35.542  15.689  24.178  1.00  0.00     0.211 HD
ENDBRANCH  31  32
ENDBRANCH  30  31
ENDBRANCH   5  21
ENDBRANCH   3   5
ENDBRANCH   2   3
ENDBRANCH   1   2
BRANCH   1  34
ATOM     34  C   UNL A   1      37.790  22.272  25.262  1.00  0.00     0.275 C 
BRANCH  34  35
ATOM     35  O   UNL A   1      38.039  23.053  26.450  1.00  0.00    -0.458 OA
BRANCH  35  36
ATOM     36  C   UNL A   1      39.297  23.529  26.483  1.00  0.00     0.338 C 
ATOM     37  O   UNL A   1      40.293  22.950  26.078  1.00  0.00    -0.246 OA
BRANCH  36  38
ATOM     38  C   UNL A   1      39.405  24.903  26.997  1.00  0.00     0.060 A 
ATOM     39  C   UNL A   1      40.463  25.697  26.541  1.00  0.00     0.016 A 
ATOM     40  C   UNL A   1      38.840  25.140  28.252  1.00  0.00     0.016 A 
ATOM     41  C   UNL A   1      41.071  26.610  27.397  1.00  0.00     0.010 A 
ATOM     42  C   UNL A   1      39.397  26.119  29.080  1.00  0.00     0.010 A 
ATOM     43  C   UNL A   1      40.546  26.826  28.678  1.00  0.00    -0.014 A 
BRANCH  43  44
ATOM     44  C   UNL A   1      41.028  27.949  29.505  1.00  0.00     0.031 A 
ATOM     45  C   UNL A   1      42.153  27.818  30.489  1.00  0.00     0.074 A 
ATOM     46  C   UNL A   1      40.283  29.065  29.432  1.00  0.00     0.049 A 
ATOM     47  N   UNL A   1      42.365  28.504  31.582  1.00  0.00    -0.248 NA
ATOM     48  C   UNL A   1      43.176  26.799  30.219  1.00  0.00     0.031 C 
ATOM     49  C   UNL A   1      39.224  29.308  28.443  1.00  0.00     0.029 A 
ATOM     50  N   UNL A   1      40.251  30.168  30.237  1.00  0.00    -0.354 N 
ATOM     51  C   UNL A   1      43.504  27.957  32.170  1.00  0.00     0.074 A 
ATOM     52  C   UNL A   1      43.955  26.896  31.295  1.00  0.00     0.031 C 
ATOM     53  C   UNL A   1      38.608  30.456  28.733  1.00  0.00     0.029 A 
ATOM     54  C   UNL A   1      39.159  30.961  29.979  1.00  0.00     0.049 A 
ATOM     55  H   UNL A   1      40.929  30.371  30.921  1.00  0.00     0.167 HD
ATOM     56  C   UNL A   1      44.094  28.328  33.335  1.00  0.00     0.031 A 
ATOM     57  C   UNL A   1      38.587  31.922  30.719  1.00  0.00     0.031 A 
ATOM     58  C   UNL A   1      43.650  29.467  34.108  1.00  0.00     0.049 A 
ATOM     59  C   UNL A   1      39.214  32.272  32.029  1.00  0.00     0.074 A 
ATOM     60  C   UNL A   1      44.207  29.995  35.260  1.00  0.00     0.029 A 
ATOM     61  N   UNL A   1      42.561  30.266  33.791  1.00  0.00    -0.354 N 
ATOM     62  N   UNL A   1      40.247  31.717  32.616  1.00  0.00    -0.248 NA
ATOM     63  C   UNL A   1      38.614  33.386  32.767  1.00  0.00     0.031 C 
ATOM     64  C   UNL A   1      43.420  31.073  35.672  1.00  0.00     0.029 A 
ATOM     65  C   UNL A   1      42.420  31.270  34.733  1.00  0.00     0.049 A 
ATOM     66  H   UNL A   1      41.974  30.137  33.011  1.00  0.00     0.167 HD
ATOM     67  C   UNL A   1      40.459  32.456  33.769  1.00  0.00     0.074 A 
ATOM     68  C   UNL A   1      39.443  33.490  33.795  1.00  0.00     0.031 C 
ATOM     69  C   UNL A   1      41.414  32.301  34.716  1.00  0.00     0.031 A 
BRANCH  56  70
ATOM     70  C   UNL A   1      45.252  27.527  33.894  1.00  0.00    -0.014 A 
ATOM     71  C   UNL A   1      46.592  27.872  33.655  1.00  0.00     0.010 A 
ATOM     72  C   UNL A   1      44.978  26.505  34.829  1.00  0.00     0.010 A 
ATOM     73  C   UNL A   1      47.630  27.211  34.330  1.00  0.00     0.020 A 
ATOM     74  C   UNL A   1      46.008  25.862  35.526  1.00  0.00     0.020 A 
ATOM     75  C   UNL A   1      47.330  26.217  35.268  1.00  0.00     0.054 A 
BRANCH  75  76
ATOM     76  S   UNL A   1      48.691  25.433  36.182  1.00  0.00     0.124 S 
ATOM     77  O   UNL A   1      48.924  26.393  37.260  1.00  0.00    -0.237 OA
ATOM     78  O   UNL A   1      48.108  24.159  36.594  1.00  0.00    -0.237 OA
ATOM     79  O   UNL A   1      49.765  25.334  35.197  1.00  0.00    -0.744 OA
ENDBRANCH  75  76
ENDBRANCH  56  70
BRANCH  57  80
ATOM     80  C   UNL A   1      37.337  32.558  30.241  1.00  0.00    -0.014 A 
ATOM     81  C   UNL A   1      37.393  33.616  29.323  1.00  0.00     0.010 A 
ATOM     82  C   UNL A   1      36.084  32.070  30.662  1.00  0.00     0.010 A 
ATOM     83  C   UNL A   1      36.216  34.210  28.868  1.00  0.00     0.020 A 
ATOM     84  C   UNL A   1      34.904  32.634  30.175  1.00  0.00     0.020 A 
ATOM     85  C   UNL A   1      34.981  33.718  29.300  1.00  0.00     0.054 A 
BRANCH  85  86
ATOM     86  S   UNL A   1      33.471  34.515  28.695  1.00  0.00     0.124 S 
ATOM     87  O   UNL A   1      32.707  34.678  29.928  1.00  0.00    -0.237 OA
ATOM     88  O   UNL A   1      33.984  35.746  28.100  1.00  0.00    -0.237 OA
ATOM     89  O   UNL A   1      32.929  33.548  27.745  1.00  0.00    -0.744 OA
ENDBRANCH  85  86
ENDBRANCH  57  80
BRANCH  69  90
ATOM     90  C   UNL A   1      41.461  33.330  35.808  1.00  0.00    -0.014 A 
ATOM     91  C   UNL A   1      42.370  34.399  35.773  1.00  0.00     0.010 A 
ATOM     92  C   UNL A   1      40.527  33.248  36.859  1.00  0.00     0.010 A 
ATOM     93  C   UNL A   1      42.356  35.363  36.782  1.00  0.00     0.020 A 
ATOM     94  C   UNL A   1      40.486  34.230  37.848  1.00  0.00     0.020 A 
ATOM     95  C   UNL A   1      41.407  35.278  37.805  1.00  0.00     0.054 A 
BRANCH  95  96
ATOM     96  S   UNL A   1      41.357  36.591  39.052  1.00  0.00     0.124 S 
ATOM     97  O   UNL A   1      39.967  37.032  38.977  1.00  0.00    -0.237 OA
ATOM     98  O   UNL A   1      41.727  35.881  40.274  1.00  0.00    -0.237 OA
ATOM     99  O   UNL A   1      42.344  37.559  38.579  1.00  0.00    -0.744 OA
ENDBRANCH  95  96
ENDBRANCH  69  90
ENDBRANCH  43  44
ENDBRANCH  36  38
ENDBRANCH  35  36
ENDBRANCH  34  35
ENDBRANCH   1  34
TORSDOF 20
ENDMDL
MODEL 3
REMARK VINA RESULT:     -11.1      1.374      2.158
REMARK SMILES N#Cc1cccnc1N1CC[NH+]([C@@H](C(=O)OCCOC(=O)c2ccc(-c3c4nc(c(-c5ccc(S(=O)(=O)[O-])cc5)c5ccc([nH]5)c(-c5ccc(S(=O)(=O)[O-])cc5)c5nc(c(-c6ccc(S(=O)(=O)[O-])cc6)c6ccc3[nH]6)C=C5)C=C4)cc2)c2c[nH]c3cc(CO)ccc23)CC1
REMARK SMILES IDX 17 1 16 2 14 3 15 4 13 5 12 6 9 7 10 8 94 9 11 10 93 11 8 13
REMARK SMILES IDX 3 14 4 15 5 16 7 17 6 18 2 19 1 20 82 21 83 22 92 23 84 24
REMARK SMILES IDX 85 25 91 26 86 28 90 29 87 30 88 31 89 32 18 34 19 35 20 36
REMARK SMILES IDX 21 37 22 38 23 39 81 40 24 41 80 42 25 43 26 44 27 45 74 46
REMARK SMILES IDX 28 47 79 48 73 49 75 50 29 51 78 52 72 53 71 54 30 56 60 57
REMARK SMILES IDX 41 58 59 59 42 60 45 61 58 62 76 63 43 64 44 65 57 67 77 68
REMARK SMILES IDX 46 69 31 70 32 71 40 72 33 73 39 74 34 75 35 76 36 77 37 78
REMARK SMILES IDX 38 79 61 80 62 81 70 82 63 83 69 84 64 85 65 86 66 87 67 88
REMARK SMILES IDX 68 89 47 90 48 91 56 92 49 93 55 94 50 95 51 96 52 97 53 98
REMARK SMILES IDX 54 99
REMARK H PARENT 12 12 84 27 89 33 75 55 45 66
REMARK Flexibility Score: inf
ROOT
ATOM      1  C   UNL A   1      37.325  22.369  24.355  1.00  0.00     0.274 C 
ENDROOT
BRANCH   1   2
ATOM      2  O   UNL A   1      35.929  21.980  24.380  1.00  0.00    -0.457 OA
BRANCH   2   3
ATOM      3  C   UNL A   1      35.005  22.796  23.818  1.00  0.00     0.370 C 
ATOM      4  O   UNL A   1      35.223  23.415  22.776  1.00  0.00    -0.245 OA
BRANCH   3   5
ATOM      5  C   UNL A   1      33.730  23.000  24.665  1.00  0.00     0.328 C 
BRANCH   5   6
ATOM      6  N   UNL A   1      33.775  24.053  25.758  1.00  0.00    -0.316 N 
ATOM      7  N   UNL A   1      32.107  26.362  25.038  1.00  0.00    -0.344 N 
ATOM      8  C   UNL A   1      33.362  26.059  24.370  1.00  0.00     0.179 C 
ATOM      9  C   UNL A   1      31.543  25.437  26.029  1.00  0.00     0.179 C 
ATOM     10  C   UNL A   1      34.260  25.383  25.393  1.00  0.00     0.285 C 
ATOM     11  C   UNL A   1      32.510  24.277  26.497  1.00  0.00     0.285 C 
ATOM     12  H   UNL A   1      34.468  23.593  26.348  1.00  0.00     0.349 HD
BRANCH   7  13
ATOM     13  C   UNL A   1      31.349  27.310  24.381  1.00  0.00     0.146 A 
ATOM     14  C   UNL A   1      31.228  28.604  24.889  1.00  0.00     0.095 A 
ATOM     15  C   UNL A   1      30.657  29.598  24.087  1.00  0.00     0.025 A 
ATOM     16  C   UNL A   1      30.230  29.285  22.801  1.00  0.00     0.022 A 
ATOM     17  N   UNL A   1      30.909  27.005  23.136  1.00  0.00    -0.238 NA
ATOM     18  C   UNL A   1      30.376  27.981  22.372  1.00  0.00     0.113 A 
BRANCH  14  19
ATOM     19  C   UNL A   1      31.778  28.947  26.161  1.00  0.00     0.103 C 
ATOM     20  N   UNL A   1      32.212  29.240  27.203  1.00  0.00    -0.192 NA
ENDBRANCH  14  19
ENDBRANCH   7  13
ENDBRANCH   5   6
BRANCH   5  21
ATOM     21  C   UNL A   1      32.712  21.805  24.866  1.00  0.00     0.046 A 
ATOM     22  C   UNL A   1      32.259  21.476  26.151  1.00  0.00     0.094 A 
ATOM     23  C   UNL A   1      32.640  20.477  24.284  1.00  0.00     0.009 A 
ATOM     24  N   UNL A   1      33.075  20.371  26.425  1.00  0.00    -0.361 N 
ATOM     25  C   UNL A   1      33.154  19.628  25.264  1.00  0.00     0.046 A 
ATOM     26  C   UNL A   1      32.180  19.827  23.130  1.00  0.00     0.011 A 
ATOM     27  H   UNL A   1      33.511  20.164  27.283  1.00  0.00     0.166 HD
ATOM     28  C   UNL A   1      33.669  18.354  24.961  1.00  0.00     0.032 A 
ATOM     29  C   UNL A   1      32.481  18.492  22.869  1.00  0.00     0.007 A 
ATOM     30  C   UNL A   1      33.359  17.811  23.701  1.00  0.00    -0.021 A 
BRANCH  30  31
ATOM     31  C   UNL A   1      33.985  16.542  23.187  1.00  0.00     0.191 C 
BRANCH  31  32
ATOM     32  O   UNL A   1      33.894  15.519  24.184  1.00  0.00    -0.392 OA
ATOM     33  H   UNL A   1      33.134  15.696  24.760  1.00  0.00     0.211 HD
ENDBRANCH  31  32
ENDBRANCH  30  31
ENDBRANCH   5  21
ENDBRANCH   3   5
ENDBRANCH   2   3
ENDBRANCH   1   2
BRANCH   1  34
ATOM     34  C   UNL A   1      37.981  21.877  25.639  1.00  0.00     0.275 C 
BRANCH  34  35
ATOM     35  O   UNL A   1      39.411  21.912  25.449  1.00  0.00    -0.458 OA
BRANCH  35  36
ATOM     36  C   UNL A   1      40.075  21.735  26.606  1.00  0.00     0.338 C 
ATOM     37  O   UNL A   1      39.988  20.764  27.340  1.00  0.00    -0.246 OA
BRANCH  36  38
ATOM     38  C   UNL A   1      41.026  22.812  26.922  1.00  0.00     0.060 A 
ATOM     39  C   UNL A   1      41.686  22.768  28.155  1.00  0.00     0.016 A 
ATOM     40  C   UNL A   1      40.811  24.035  26.284  1.00  0.00     0.016 A 
ATOM     41  C   UNL A   1      41.976  23.948  28.835  1.00  0.00     0.010 A 
ATOM     42  C   UNL A   1      41.182  25.219  26.929  1.00  0.00     0.010 A 
ATOM     43  C   UNL A   1      41.722  25.185  28.228  1.00  0.00    -0.014 A 
BRANCH  43  44
ATOM     44  C   UNL A   1      42.236  26.432  28.827  1.00  0.00     0.031 A 
ATOM     45  C   UNL A   1      41.345  27.538  29.309  1.00  0.00     0.074 A 
ATOM     46  C   UNL A   1      43.571  26.579  28.767  1.00  0.00     0.049 A 
ATOM     47  N   UNL A   1      41.602  28.817  29.392  1.00  0.00    -0.248 NA
ATOM     48  C   UNL A   1      39.997  27.172  29.767  1.00  0.00     0.031 C 
ATOM     49  C   UNL A   1      44.519  25.522  28.391  1.00  0.00     0.029 A 
ATOM     50  N   UNL A   1      44.354  27.684  28.951  1.00  0.00    -0.354 N 
ATOM     51  C   UNL A   1      40.430  29.422  29.841  1.00  0.00     0.074 A 
ATOM     52  C   UNL A   1      39.465  28.362  30.041  1.00  0.00     0.031 C 
ATOM     53  C   UNL A   1      45.747  26.042  28.315  1.00  0.00     0.029 A 
ATOM     54  C   UNL A   1      45.645  27.475  28.530  1.00  0.00     0.049 A 
ATOM     55  H   UNL A   1      44.031  28.530  29.337  1.00  0.00     0.167 HD
ATOM     56  C   UNL A   1      40.211  30.745  30.056  1.00  0.00     0.031 A 
ATOM     57  C   UNL A   1      46.617  28.350  28.236  1.00  0.00     0.031 A 
ATOM     58  C   UNL A   1      41.253  31.740  29.936  1.00  0.00     0.049 A 
ATOM     59  C   UNL A   1      46.335  29.806  28.418  1.00  0.00     0.074 A 
ATOM     60  C   UNL A   1      41.183  33.097  30.201  1.00  0.00     0.029 A 
ATOM     61  N   UNL A   1      42.558  31.479  29.542  1.00  0.00    -0.354 N 
ATOM     62  N   UNL A   1      45.215  30.384  28.778  1.00  0.00    -0.248 NA
ATOM     63  C   UNL A   1      47.448  30.725  28.173  1.00  0.00     0.031 C 
ATOM     64  C   UNL A   1      42.425  33.664  29.909  1.00  0.00     0.029 A 
ATOM     65  C   UNL A   1      43.295  32.651  29.541  1.00  0.00     0.049 A 
ATOM     66  H   UNL A   1      42.908  30.592  29.298  1.00  0.00     0.167 HD
ATOM     67  C   UNL A   1      45.505  31.736  28.862  1.00  0.00     0.074 A 
ATOM     68  C   UNL A   1      46.903  31.886  28.508  1.00  0.00     0.031 C 
ATOM     69  C   UNL A   1      44.693  32.761  29.211  1.00  0.00     0.031 A 
BRANCH  56  70
ATOM     70  C   UNL A   1      38.825  31.241  30.414  1.00  0.00    -0.014 A 
ATOM     71  C   UNL A   1      38.444  31.525  31.736  1.00  0.00     0.010 A 
ATOM     72  C   UNL A   1      37.943  31.597  29.371  1.00  0.00     0.010 A 
ATOM     73  C   UNL A   1      37.215  32.144  32.007  1.00  0.00     0.020 A 
ATOM     74  C   UNL A   1      36.728  32.241  29.633  1.00  0.00     0.020 A 
ATOM     75  C   UNL A   1      36.369  32.507  30.952  1.00  0.00     0.054 A 
BRANCH  75  76
ATOM     76  S   UNL A   1      34.820  33.379  31.329  1.00  0.00     0.124 S 
ATOM     77  O   UNL A   1      34.178  32.464  32.271  1.00  0.00    -0.237 OA
ATOM     78  O   UNL A   1      35.292  34.637  31.902  1.00  0.00    -0.237 OA
ATOM     79  O   UNL A   1      34.159  33.497  30.032  1.00  0.00    -0.744 OA
ENDBRANCH  75  76
ENDBRANCH  56  70
BRANCH  57  80
ATOM     80  C   UNL A   1      47.903  27.851  27.698  1.00  0.00    -0.014 A 
ATOM     81  C   UNL A   1      48.936  27.482  28.571  1.00  0.00     0.010 A 
ATOM     82  C   UNL A   1      48.081  27.693  26.309  1.00  0.00     0.010 A 
ATOM     83  C   UNL A   1      50.144  27.005  28.065  1.00  0.00     0.020 A 
ATOM     84  C   UNL A   1      49.273  27.176  25.801  1.00  0.00     0.020 A 
ATOM     85  C   UNL A   1      50.306  26.859  26.683  1.00  0.00     0.054 A 
BRANCH  85  86
ATOM     86  S   UNL A   1      51.890  26.244  26.057  1.00  0.00     0.124 S 
ATOM     87  O   UNL A   1      51.852  24.846  26.475  1.00  0.00    -0.237 OA
ATOM     88  O   UNL A   1      51.772  26.479  24.621  1.00  0.00    -0.237 OA
ATOM     89  O   UNL A   1      52.877  27.076  26.740  1.00  0.00    -0.744 OA
ENDBRANCH  85  86
ENDBRANCH  57  80
BRANCH  69  90
ATOM     90  C   UNL A   1      45.322  34.121  29.317  1.00  0.00    -0.014 A 
ATOM     91  C   UNL A   1      45.337  35.010  28.231  1.00  0.00     0.010 A 
ATOM     92  C   UNL A   1      45.852  34.529  30.555  1.00  0.00     0.010 A 
ATOM     93  C   UNL A   1      45.889  36.284  28.377  1.00  0.00     0.020 A 
ATOM     94  C   UNL A   1      46.371  35.813  30.715  1.00  0.00     0.020 A 
ATOM     95  C   UNL A   1      46.391  36.680  29.621  1.00  0.00     0.054 A 
BRANCH  95  96
ATOM     96  S   UNL A   1      47.022  38.368  29.803  1.00  0.00     0.124 S 
ATOM     97  O   UNL A   1      48.434  38.137  30.095  1.00  0.00    -0.237 OA
ATOM     98  O   UNL A   1      46.737  38.955  28.496  1.00  0.00    -0.237 OA
ATOM     99  O   UNL A   1      46.240  38.916  30.910  1.00  0.00    -0.744 OA
ENDBRANCH  95  96
ENDBRANCH  69  90
ENDBRANCH  43  44
ENDBRANCH  36  38
ENDBRANCH  35  36
ENDBRANCH  34  35
ENDBRANCH   1  34
TORSDOF 20
ENDMDL
