MODEL 1
REMARK VINA RESULT:     -12.4      0.000      0.000
REMARK SMILES O=C(OCCOC(=O)c1cc(-c2ccccn2)nc2ccc(F)cc12)c1ccc(-c2c3nc(c(-c4ccc(S(=O)(=O)[O-])cc4)c4ccc([nH]4)c(-c4ccc(S(=O)(=O)[O-])cc4)c4nc(c(-c5ccc(S(=O)(=O)[O-])cc5)c5ccc2[nH]5)C=C4)C=C3)cc1
REMARK SMILES IDX 4 1 3 2 2 3 1 4 26 5 27 6 85 7 28 8 84 9 29 10 30 11 31 12
REMARK SMILES IDX 78 13 32 14 83 15 77 16 79 17 33 18 82 19 76 20 75 21 34 23
REMARK SMILES IDX 64 24 45 25 63 26 46 27 49 28 62 29 80 30 47 31 48 32 61 34
REMARK SMILES IDX 81 35 50 36 35 37 36 38 44 39 37 40 43 41 38 42 39 43 40 44
REMARK SMILES IDX 41 45 42 46 65 47 66 48 74 49 67 50 73 51 68 52 69 53 70 54
REMARK SMILES IDX 71 55 72 56 51 57 52 58 60 59 53 60 59 61 54 62 55 63 56 64
REMARK SMILES IDX 57 65 58 66 5 67 6 68 7 69 8 70 9 71 10 72 25 73 11 74 19 75
REMARK SMILES IDX 24 76 18 77 20 78 22 79 21 80 23 81 12 82 13 83 17 84 14 85
REMARK SMILES IDX 16 86 15 87
REMARK H PARENT 79 22 49 33
REMARK Flexibility Score: inf
ROOT
ATOM      1  C   UNL A   1      43.285  26.051  27.171  1.00  0.00     0.275 C 
ENDROOT
BRANCH   1   2
ATOM      2  O   UNL A   1      42.399  26.488  26.125  1.00  0.00    -0.458 OA
BRANCH   2   3
ATOM      3  C   UNL A   1      41.952  27.749  25.888  1.00  0.00     0.338 C 
ATOM      4  O   UNL A   1      42.200  28.313  24.828  1.00  0.00    -0.246 OA
BRANCH   3   5
ATOM      5  C   UNL A   1      41.367  28.528  27.001  1.00  0.00     0.060 A 
ATOM      6  C   UNL A   1      42.180  29.519  27.562  1.00  0.00     0.016 A 
ATOM      7  C   UNL A   1      40.103  28.281  27.538  1.00  0.00     0.016 A 
ATOM      8  C   UNL A   1      41.839  30.077  28.784  1.00  0.00     0.010 A 
ATOM      9  C   UNL A   1      39.761  28.824  28.766  1.00  0.00     0.010 A 
ATOM     10  C   UNL A   1      40.660  29.666  29.413  1.00  0.00    -0.014 A 
BRANCH  10  11
ATOM     11  C   UNL A   1      40.407  30.042  30.796  1.00  0.00     0.031 A 
ATOM     12  C   UNL A   1      41.231  29.416  31.844  1.00  0.00     0.074 A 
ATOM     13  C   UNL A   1      39.576  31.049  31.133  1.00  0.00     0.049 A 
ATOM     14  N   UNL A   1      41.580  30.101  32.857  1.00  0.00    -0.248 NA
ATOM     15  C   UNL A   1      41.750  28.082  31.809  1.00  0.00     0.031 C 
ATOM     16  C   UNL A   1      38.800  31.815  30.175  1.00  0.00     0.029 A 
ATOM     17  N   UNL A   1      39.237  31.586  32.364  1.00  0.00    -0.354 N 
ATOM     18  C   UNL A   1      42.558  29.486  33.807  1.00  0.00     0.074 A 
ATOM     19  C   UNL A   1      42.506  28.068  32.909  1.00  0.00     0.031 C 
ATOM     20  C   UNL A   1      38.032  32.682  30.849  1.00  0.00     0.029 A 
ATOM     21  C   UNL A   1      38.240  32.522  32.301  1.00  0.00     0.049 A 
ATOM     22  H   UNL A   1      39.673  31.320  33.206  1.00  0.00     0.167 HD
ATOM     23  C   UNL A   1      43.293  30.126  35.409  1.00  0.00     0.031 A 
ATOM     24  C   UNL A   1      37.510  33.161  33.250  1.00  0.00     0.031 A 
ATOM     25  C   UNL A   1      42.600  31.202  36.666  1.00  0.00     0.049 A 
ATOM     26  C   UNL A   1      37.853  33.191  34.747  1.00  0.00     0.074 A 
ATOM     27  C   UNL A   1      43.088  31.703  37.887  1.00  0.00     0.029 A 
ATOM     28  N   UNL A   1      41.213  31.561  36.820  1.00  0.00    -0.354 N 
ATOM     29  N   UNL A   1      38.909  32.764  35.417  1.00  0.00    -0.248 NA
ATOM     30  C   UNL A   1      36.868  33.865  35.608  1.00  0.00     0.031 C 
ATOM     31  C   UNL A   1      42.038  32.387  38.607  1.00  0.00     0.029 A 
ATOM     32  C   UNL A   1      40.913  32.440  37.807  1.00  0.00     0.049 A 
ATOM     33  H   UNL A   1      40.516  31.186  36.235  1.00  0.00     0.167 HD
ATOM     34  C   UNL A   1      38.740  33.158  36.764  1.00  0.00     0.074 A 
ATOM     35  C   UNL A   1      37.455  33.837  36.801  1.00  0.00     0.031 C 
ATOM     36  C   UNL A   1      39.568  33.011  37.858  1.00  0.00     0.031 A 
BRANCH  23  37
ATOM     37  C   UNL A   1      44.619  29.668  36.464  1.00  0.00    -0.014 A 
ATOM     38  C   UNL A   1      45.869  30.341  36.373  1.00  0.00     0.010 A 
ATOM     39  C   UNL A   1      44.550  28.546  37.323  1.00  0.00     0.010 A 
ATOM     40  C   UNL A   1      46.961  29.981  37.173  1.00  0.00     0.020 A 
ATOM     41  C   UNL A   1      45.645  28.193  38.141  1.00  0.00     0.020 A 
ATOM     42  C   UNL A   1      46.836  28.922  38.071  1.00  0.00     0.054 A 
BRANCH  42  43
ATOM     43  S   UNL A   1      48.254  28.537  39.146  1.00  0.00     0.124 S 
ATOM     44  O   UNL A   1      49.049  29.757  39.077  1.00  0.00    -0.237 OA
ATOM     45  O   UNL A   1      47.606  28.279  40.432  1.00  0.00    -0.237 OA
ATOM     46  O   UNL A   1      48.857  27.361  38.520  1.00  0.00    -0.744 OA
ENDBRANCH  42  43
ENDBRANCH  23  37
BRANCH  24  47
ATOM     47  C   UNL A   1      36.237  33.778  32.712  1.00  0.00    -0.014 A 
ATOM     48  C   UNL A   1      36.197  35.183  32.528  1.00  0.00     0.010 A 
ATOM     49  C   UNL A   1      35.041  33.056  32.579  1.00  0.00     0.010 A 
ATOM     50  C   UNL A   1      34.989  35.857  32.331  1.00  0.00     0.020 A 
ATOM     51  C   UNL A   1      33.829  33.727  32.332  1.00  0.00     0.020 A 
ATOM     52  C   UNL A   1      33.807  35.125  32.254  1.00  0.00     0.054 A 
BRANCH  52  53
ATOM     53  S   UNL A   1      32.242  36.033  32.088  1.00  0.00     0.124 S 
ATOM     54  O   UNL A   1      32.214  36.329  30.658  1.00  0.00    -0.237 OA
ATOM     55  O   UNL A   1      31.256  35.056  32.545  1.00  0.00    -0.237 OA
ATOM     56  O   UNL A   1      32.422  37.189  32.963  1.00  0.00    -0.744 OA
ENDBRANCH  52  53
ENDBRANCH  24  47
BRANCH  36  57
ATOM     57  C   UNL A   1      39.063  33.475  39.199  1.00  0.00    -0.014 A 
ATOM     58  C   UNL A   1      39.205  34.823  39.567  1.00  0.00     0.010 A 
ATOM     59  C   UNL A   1      38.550  32.563  40.145  1.00  0.00     0.010 A 
ATOM     60  C   UNL A   1      38.924  35.238  40.871  1.00  0.00     0.020 A 
ATOM     61  C   UNL A   1      38.229  32.982  41.440  1.00  0.00     0.020 A 
ATOM     62  C   UNL A   1      38.461  34.309  41.807  1.00  0.00     0.054 A 
BRANCH  62  63
ATOM     63  S   UNL A   1      38.232  34.845  43.523  1.00  0.00     0.124 S 
ATOM     64  O   UNL A   1      38.805  33.728  44.269  1.00  0.00    -0.237 OA
ATOM     65  O   UNL A   1      38.992  36.092  43.572  1.00  0.00    -0.237 OA
ATOM     66  O   UNL A   1      36.784  34.999  43.646  1.00  0.00    -0.744 OA
ENDBRANCH  62  63
ENDBRANCH  36  57
ENDBRANCH  10  11
ENDBRANCH   3   5
ENDBRANCH   2   3
ENDBRANCH   1   2
BRANCH   1  67
ATOM     67  C   UNL A   1      44.742  25.768  26.766  1.00  0.00     0.275 C 
BRANCH  67  68
ATOM     68  O   UNL A   1      45.133  24.384  26.594  1.00  0.00    -0.458 OA
BRANCH  68  69
ATOM     69  C   UNL A   1      44.763  23.822  25.403  1.00  0.00     0.339 C 
ATOM     70  O   UNL A   1      45.167  24.170  24.304  1.00  0.00    -0.246 OA
BRANCH  69  71
ATOM     71  C   UNL A   1      43.834  22.662  25.552  1.00  0.00     0.071 A 
ATOM     72  C   UNL A   1      42.439  22.864  25.700  1.00  0.00     0.047 A 
ATOM     73  C   UNL A   1      44.358  21.362  25.452  1.00  0.00     0.018 A 
ATOM     74  C   UNL A   1      41.576  21.769  25.892  1.00  0.00     0.090 A 
ATOM     75  C   UNL A   1      43.425  20.313  25.587  1.00  0.00     0.072 A 
ATOM     76  C   UNL A   1      45.731  21.063  25.219  1.00  0.00     0.050 A 
ATOM     77  N   UNL A   1      42.099  20.513  25.799  1.00  0.00    -0.246 NA
ATOM     78  C   UNL A   1      43.914  19.008  25.514  1.00  0.00     0.032 A 
ATOM     79  C   UNL A   1      46.165  19.749  25.141  1.00  0.00     0.123 A 
ATOM     80  C   UNL A   1      45.267  18.713  25.293  1.00  0.00     0.041 A 
ATOM     81  F   UNL A   1      47.463  19.487  24.933  1.00  0.00    -0.207 F 
BRANCH  74  82
ATOM     82  C   UNL A   1      40.142  21.887  26.566  1.00  0.00     0.089 A 
ATOM     83  C   UNL A   1      38.708  21.169  25.653  1.00  0.00     0.030 A 
ATOM     84  N   UNL A   1      40.007  23.500  27.342  1.00  0.00    -0.255 NA
ATOM     85  C   UNL A   1      37.171  22.202  25.369  1.00  0.00     0.004 A 
ATOM     86  C   UNL A   1      38.566  24.559  27.059  1.00  0.00     0.112 A 
ATOM     87  C   UNL A   1      37.116  23.949  26.003  1.00  0.00     0.020 A 
ENDBRANCH  74  82
ENDBRANCH  69  71
ENDBRANCH  68  69
ENDBRANCH  67  68
ENDBRANCH   1  67
TORSDOF 15
ENDMDL
MODEL 2
REMARK VINA RESULT:     -12.1      7.392     12.541
REMARK SMILES O=C(OCCOC(=O)c1cc(-c2ccccn2)nc2ccc(F)cc12)c1ccc(-c2c3nc(c(-c4ccc(S(=O)(=O)[O-])cc4)c4ccc([nH]4)c(-c4ccc(S(=O)(=O)[O-])cc4)c4nc(c(-c5ccc(S(=O)(=O)[O-])cc5)c5ccc2[nH]5)C=C4)C=C3)cc1
REMARK SMILES IDX 4 1 3 2 2 3 1 4 26 5 27 6 85 7 28 8 84 9 29 10 30 11 31 12
REMARK SMILES IDX 78 13 32 14 83 15 77 16 79 17 33 18 82 19 76 20 75 21 34 23
REMARK SMILES IDX 64 24 45 25 63 26 46 27 49 28 62 29 80 30 47 31 48 32 61 34
REMARK SMILES IDX 81 35 50 36 35 37 36 38 44 39 37 40 43 41 38 42 39 43 40 44
REMARK SMILES IDX 41 45 42 46 65 47 66 48 74 49 67 50 73 51 68 52 69 53 70 54
REMARK SMILES IDX 71 55 72 56 51 57 52 58 60 59 53 60 59 61 54 62 55 63 56 64
REMARK SMILES IDX 57 65 58 66 5 67 6 68 7 69 8 70 9 71 10 72 25 73 11 74 19 75
REMARK SMILES IDX 24 76 18 77 20 78 22 79 21 80 23 81 12 82 13 83 17 84 14 85
REMARK SMILES IDX 16 86 15 87
REMARK H PARENT 79 22 49 33
REMARK Flexibility Score: inf
ROOT
ATOM      1  C   UNL A   1      43.699  18.354  25.771  1.00  0.00     0.275 C 
ENDROOT
BRANCH   1   2
ATOM      2  O   UNL A   1      44.018  19.255  24.695  1.00  0.00    -0.458 OA
BRANCH   2   3
ATOM      3  C   UNL A   1      45.248  19.668  24.295  1.00  0.00     0.338 C 
ATOM      4  O   UNL A   1      46.028  18.888  23.759  1.00  0.00    -0.246 OA
BRANCH   3   5
ATOM      5  C   UNL A   1      45.736  20.999  24.717  1.00  0.00     0.060 A 
ATOM      6  C   UNL A   1      45.427  21.389  26.025  1.00  0.00     0.016 A 
ATOM      7  C   UNL A   1      46.415  21.879  23.873  1.00  0.00     0.016 A 
ATOM      8  C   UNL A   1      45.571  22.716  26.398  1.00  0.00     0.010 A 
ATOM      9  C   UNL A   1      46.549  23.210  24.234  1.00  0.00     0.010 A 
ATOM     10  C   UNL A   1      46.066  23.634  25.467  1.00  0.00    -0.014 A 
BRANCH  10  11
ATOM     11  C   UNL A   1      45.991  25.060  25.745  1.00  0.00     0.031 A 
ATOM     12  C   UNL A   1      44.659  25.687  25.792  1.00  0.00     0.074 A 
ATOM     13  C   UNL A   1      47.066  25.783  26.120  1.00  0.00     0.049 A 
ATOM     14  N   UNL A   1      44.432  26.611  26.635  1.00  0.00    -0.248 NA
ATOM     15  C   UNL A   1      43.531  25.305  24.996  1.00  0.00     0.031 C 
ATOM     16  C   UNL A   1      48.410  25.244  26.223  1.00  0.00     0.029 A 
ATOM     17  N   UNL A   1      47.198  27.117  26.468  1.00  0.00    -0.354 N 
ATOM     18  C   UNL A   1      43.024  27.097  26.771  1.00  0.00     0.074 A 
ATOM     19  C   UNL A   1      42.575  26.084  25.509  1.00  0.00     0.031 C 
ATOM     20  C   UNL A   1      49.242  26.242  26.548  1.00  0.00     0.029 A 
ATOM     21  C   UNL A   1      48.496  27.511  26.658  1.00  0.00     0.049 A 
ATOM     22  H   UNL A   1      46.431  27.726  26.570  1.00  0.00     0.167 HD
ATOM     23  C   UNL A   1      42.278  28.439  27.847  1.00  0.00     0.031 A 
ATOM     24  C   UNL A   1      49.078  28.723  26.842  1.00  0.00     0.031 A 
ATOM     25  C   UNL A   1      42.972  29.986  28.434  1.00  0.00     0.049 A 
ATOM     26  C   UNL A   1      48.321  30.015  27.187  1.00  0.00     0.074 A 
ATOM     27  C   UNL A   1      42.466  31.035  29.224  1.00  0.00     0.029 A 
ATOM     28  N   UNL A   1      44.164  30.633  27.949  1.00  0.00    -0.354 N 
ATOM     29  N   UNL A   1      47.056  30.237  27.497  1.00  0.00    -0.248 NA
ATOM     30  C   UNL A   1      49.144  31.233  27.247  1.00  0.00     0.031 C 
ATOM     31  C   UNL A   1      43.392  32.144  29.243  1.00  0.00     0.029 A 
ATOM     32  C   UNL A   1      44.543  31.772  28.577  1.00  0.00     0.049 A 
ATOM     33  H   UNL A   1      44.680  30.264  27.195  1.00  0.00     0.167 HD
ATOM     34  C   UNL A   1      46.941  31.605  27.835  1.00  0.00     0.074 A 
ATOM     35  C   UNL A   1      48.276  32.152  27.659  1.00  0.00     0.031 C 
ATOM     36  C   UNL A   1      45.859  32.338  28.279  1.00  0.00     0.031 A 
BRANCH  23  37
ATOM     37  C   UNL A   1      40.661  28.930  28.319  1.00  0.00    -0.014 A 
ATOM     38  C   UNL A   1      40.233  28.779  29.667  1.00  0.00     0.010 A 
ATOM     39  C   UNL A   1      39.692  29.348  27.376  1.00  0.00     0.010 A 
ATOM     40  C   UNL A   1      38.938  29.125  30.074  1.00  0.00     0.020 A 
ATOM     41  C   UNL A   1      38.392  29.713  27.788  1.00  0.00     0.020 A 
ATOM     42  C   UNL A   1      38.030  29.614  29.136  1.00  0.00     0.054 A 
BRANCH  42  43
ATOM     43  S   UNL A   1      36.383  30.125  29.721  1.00  0.00     0.124 S 
ATOM     44  O   UNL A   1      35.511  29.697  28.633  1.00  0.00    -0.237 OA
ATOM     45  O   UNL A   1      36.251  29.371  30.967  1.00  0.00    -0.237 OA
ATOM     46  O   UNL A   1      36.507  31.571  29.892  1.00  0.00    -0.744 OA
ENDBRANCH  42  43
ENDBRANCH  23  37
BRANCH  24  47
ATOM     47  C   UNL A   1      50.566  28.720  26.573  1.00  0.00    -0.014 A 
ATOM     48  C   UNL A   1      51.006  28.682  25.225  1.00  0.00     0.010 A 
ATOM     49  C   UNL A   1      51.521  28.553  27.588  1.00  0.00     0.010 A 
ATOM     50  C   UNL A   1      52.330  28.374  24.900  1.00  0.00     0.020 A 
ATOM     51  C   UNL A   1      52.865  28.291  27.264  1.00  0.00     0.020 A 
ATOM     52  C   UNL A   1      53.249  28.160  25.924  1.00  0.00     0.054 A 
BRANCH  52  53
ATOM     53  S   UNL A   1      54.941  27.673  25.473  1.00  0.00     0.124 S 
ATOM     54  O   UNL A   1      54.701  26.681  24.428  1.00  0.00    -0.237 OA
ATOM     55  O   UNL A   1      55.525  28.933  25.019  1.00  0.00    -0.237 OA
ATOM     56  O   UNL A   1      55.490  27.148  26.721  1.00  0.00    -0.744 OA
ENDBRANCH  52  53
ENDBRANCH  24  47
BRANCH  36  57
ATOM     57  C   UNL A   1      46.037  33.819  28.482  1.00  0.00    -0.014 A 
ATOM     58  C   UNL A   1      45.812  34.700  27.411  1.00  0.00     0.010 A 
ATOM     59  C   UNL A   1      46.537  34.339  29.694  1.00  0.00     0.010 A 
ATOM     60  C   UNL A   1      46.155  36.050  27.516  1.00  0.00     0.020 A 
ATOM     61  C   UNL A   1      46.843  35.698  29.818  1.00  0.00     0.020 A 
ATOM     62  C   UNL A   1      46.692  36.535  28.712  1.00  0.00     0.054 A 
BRANCH  62  63
ATOM     63  S   UNL A   1      47.251  38.258  28.777  1.00  0.00     0.124 S 
ATOM     64  O   UNL A   1      48.627  38.114  29.244  1.00  0.00    -0.237 OA
ATOM     65  O   UNL A   1      47.098  38.696  27.392  1.00  0.00    -0.237 OA
ATOM     66  O   UNL A   1      46.333  38.883  29.727  1.00  0.00    -0.744 OA
ENDBRANCH  62  63
ENDBRANCH  36  57
ENDBRANCH  10  11
ENDBRANCH   3   5
ENDBRANCH   2   3
ENDBRANCH   1   2
BRANCH   1  67
ATOM     67  C   UNL A   1      42.323  18.532  26.435  1.00  0.00     0.275 C 
BRANCH  67  68
ATOM     68  O   UNL A   1      41.478  19.602  25.947  1.00  0.00    -0.458 OA
BRANCH  68  69
ATOM     69  C   UNL A   1      41.430  20.713  26.744  1.00  0.00     0.339 C 
ATOM     70  O   UNL A   1      42.289  21.039  27.549  1.00  0.00    -0.246 OA
BRANCH  69  71
ATOM     71  C   UNL A   1      40.228  21.567  26.510  1.00  0.00     0.071 A 
ATOM     72  C   UNL A   1      39.105  21.064  25.809  1.00  0.00     0.047 A 
ATOM     73  C   UNL A   1      40.195  22.853  27.077  1.00  0.00     0.018 A 
ATOM     74  C   UNL A   1      37.997  21.891  25.546  1.00  0.00     0.090 A 
ATOM     75  C   UNL A   1      39.026  23.602  26.830  1.00  0.00     0.072 A 
ATOM     76  C   UNL A   1      41.240  23.411  27.867  1.00  0.00     0.050 A 
ATOM     77  N   UNL A   1      37.981  23.138  26.097  1.00  0.00    -0.246 NA
ATOM     78  C   UNL A   1      38.967  24.891  27.360  1.00  0.00     0.032 A 
ATOM     79  C   UNL A   1      41.129  24.693  28.383  1.00  0.00     0.123 A 
ATOM     80  C   UNL A   1      40.000  25.445  28.132  1.00  0.00     0.041 A 
ATOM     81  F   UNL A   1      42.127  25.206  29.116  1.00  0.00    -0.207 F 
BRANCH  74  82
ATOM     82  C   UNL A   1      36.957  21.625  24.374  1.00  0.00     0.089 A 
ATOM     83  C   UNL A   1      36.473  23.059  23.320  1.00  0.00     0.030 A 
ATOM     84  N   UNL A   1      35.713  20.474  24.967  1.00  0.00    -0.255 NA
ATOM     85  C   UNL A   1      34.661  23.429  23.022  1.00  0.00     0.004 A 
ATOM     86  C   UNL A   1      33.947  20.810  24.750  1.00  0.00     0.112 A 
ATOM     87  C   UNL A   1      33.369  22.348  23.807  1.00  0.00     0.020 A 
ENDBRANCH  74  82
ENDBRANCH  69  71
ENDBRANCH  68  69
ENDBRANCH  67  68
ENDBRANCH   1  67
TORSDOF 15
ENDMDL
MODEL 3
REMARK VINA RESULT:     -11.9      3.793     10.149
REMARK SMILES O=C(OCCOC(=O)c1cc(-c2ccccn2)nc2ccc(F)cc12)c1ccc(-c2c3nc(c(-c4ccc(S(=O)(=O)[O-])cc4)c4ccc([nH]4)c(-c4ccc(S(=O)(=O)[O-])cc4)c4nc(c(-c5ccc(S(=O)(=O)[O-])cc5)c5ccc2[nH]5)C=C4)C=C3)cc1
REMARK SMILES IDX 4 1 3 2 2 3 1 4 26 5 27 6 85 7 28 8 84 9 29 10 30 11 31 12
REMARK SMILES IDX 78 13 32 14 83 15 77 16 79 17 33 18 82 19 76 20 75 21 34 23
REMARK SMILES IDX 64 24 45 25 63 26 46 27 49 28 62 29 80 30 47 31 48 32 61 34
REMARK SMILES IDX 81 35 50 36 35 37 36 38 44 39 37 40 43 41 38 42 39 43 40 44
REMARK SMILES IDX 41 45 42 46 65 47 66 48 74 49 67 50 73 51 68 52 69 53 70 54
REMARK SMILES IDX 71 55 72 56 51 57 52 58 60 59 53 60 59 61 54 62 55 63 56 64
REMARK SMILES IDX 57 65 58 66 5 67 6 68 7 69 8 70 9 71 10 72 25 73 11 74 19 75
REMARK SMILES IDX 24 76 18 77 20 78 22 79 21 80 23 81 12 82 13 83 17 84 14 85
REMARK SMILES IDX 16 86 15 87
REMARK H PARENT 79 22 49 33
REMARK Flexibility Score: inf
ROOT
ATOM      1  C   UNL A   1      44.521  19.932  24.755  1.00  0.00     0.275 C 
ENDROOT
BRANCH   1   2
ATOM      2  O   UNL A   1      44.541  21.162  24.008  1.00  0.00    -0.458 OA
BRANCH   2   3
ATOM      3  C   UNL A   1      45.428  22.185  24.117  1.00  0.00     0.338 C 
ATOM      4  O   UNL A   1      46.619  22.011  23.880  1.00  0.00    -0.246 OA
BRANCH   3   5
ATOM      5  C   UNL A   1      44.996  23.450  24.749  1.00  0.00     0.060 A 
ATOM      6  C   UNL A   1      46.001  24.388  25.015  1.00  0.00     0.016 A 
ATOM      7  C   UNL A   1      43.681  23.714  25.136  1.00  0.00     0.016 A 
ATOM      8  C   UNL A   1      45.741  25.449  25.868  1.00  0.00     0.010 A 
ATOM      9  C   UNL A   1      43.417  24.764  26.000  1.00  0.00     0.010 A 
ATOM     10  C   UNL A   1      44.461  25.585  26.414  1.00  0.00    -0.014 A 
BRANCH  10  11
ATOM     11  C   UNL A   1      44.231  26.531  27.496  1.00  0.00     0.031 A 
ATOM     12  C   UNL A   1      43.201  27.566  27.302  1.00  0.00     0.074 A 
ATOM     13  C   UNL A   1      44.797  26.393  28.712  1.00  0.00     0.049 A 
ATOM     14  N   UNL A   1      42.482  27.924  28.287  1.00  0.00    -0.248 NA
ATOM     15  C   UNL A   1      42.874  28.192  26.056  1.00  0.00     0.031 C 
ATOM     16  C   UNL A   1      45.738  25.341  29.053  1.00  0.00     0.029 A 
ATOM     17  N   UNL A   1      44.677  27.142  29.870  1.00  0.00    -0.354 N 
ATOM     18  C   UNL A   1      41.336  28.845  28.012  1.00  0.00     0.074 A 
ATOM     19  C   UNL A   1      41.822  28.936  26.407  1.00  0.00     0.031 C 
ATOM     20  C   UNL A   1      46.157  25.540  30.310  1.00  0.00     0.029 A 
ATOM     21  C   UNL A   1      45.531  26.755  30.868  1.00  0.00     0.049 A 
ATOM     22  H   UNL A   1      44.036  27.883  29.968  1.00  0.00     0.167 HD
ATOM     23  C   UNL A   1      40.075  29.627  29.159  1.00  0.00     0.031 A 
ATOM     24  C   UNL A   1      45.856  27.296  32.069  1.00  0.00     0.031 A 
ATOM     25  C   UNL A   1      40.220  30.160  30.865  1.00  0.00     0.049 A 
ATOM     26  C   UNL A   1      45.068  28.414  32.769  1.00  0.00     0.074 A 
ATOM     27  C   UNL A   1      39.326  30.762  31.770  1.00  0.00     0.029 A 
ATOM     28  N   UNL A   1      41.442  30.348  31.606  1.00  0.00    -0.354 N 
ATOM     29  N   UNL A   1      43.913  28.988  32.482  1.00  0.00    -0.248 NA
ATOM     30  C   UNL A   1      45.656  28.914  34.022  1.00  0.00     0.031 C 
ATOM     31  C   UNL A   1      40.018  31.156  32.977  1.00  0.00     0.029 A 
ATOM     32  C   UNL A   1      41.321  30.701  32.909  1.00  0.00     0.049 A 
ATOM     33  H   UNL A   1      42.323  30.226  31.185  1.00  0.00     0.167 HD
ATOM     34  C   UNL A   1      43.613  29.879  33.539  1.00  0.00     0.074 A 
ATOM     35  C   UNL A   1      44.737  29.773  34.453  1.00  0.00     0.031 C 
ATOM     36  C   UNL A   1      42.511  30.680  33.759  1.00  0.00     0.031 A 
BRANCH  23  37
ATOM     37  C   UNL A   1      38.550  30.475  28.973  1.00  0.00    -0.014 A 
ATOM     38  C   UNL A   1      37.390  29.774  28.542  1.00  0.00     0.010 A 
ATOM     39  C   UNL A   1      38.446  31.880  29.099  1.00  0.00     0.010 A 
ATOM     40  C   UNL A   1      36.164  30.423  28.348  1.00  0.00     0.020 A 
ATOM     41  C   UNL A   1      37.207  32.533  28.920  1.00  0.00     0.020 A 
ATOM     42  C   UNL A   1      36.073  31.798  28.561  1.00  0.00     0.054 A 
BRANCH  42  43
ATOM     43  S   UNL A   1      34.444  32.589  28.372  1.00  0.00     0.124 S 
ATOM     44  O   UNL A   1      33.657  31.550  27.719  1.00  0.00    -0.237 OA
ATOM     45  O   UNL A   1      34.078  32.877  29.759  1.00  0.00    -0.237 OA
ATOM     46  O   UNL A   1      34.722  33.769  27.556  1.00  0.00    -0.744 OA
ENDBRANCH  42  43
ENDBRANCH  23  37
BRANCH  24  47
ATOM     47  C   UNL A   1      47.153  26.762  32.636  1.00  0.00    -0.014 A 
ATOM     48  C   UNL A   1      48.372  27.279  32.126  1.00  0.00     0.010 A 
ATOM     49  C   UNL A   1      47.209  25.649  33.488  1.00  0.00     0.010 A 
ATOM     50  C   UNL A   1      49.591  26.639  32.366  1.00  0.00     0.020 A 
ATOM     51  C   UNL A   1      48.441  25.031  33.772  1.00  0.00     0.020 A 
ATOM     52  C   UNL A   1      49.615  25.505  33.174  1.00  0.00     0.054 A 
BRANCH  52  53
ATOM     53  S   UNL A   1      51.199  24.641  33.397  1.00  0.00     0.124 S 
ATOM     54  O   UNL A   1      51.466  24.862  34.815  1.00  0.00    -0.237 OA
ATOM     55  O   UNL A   1      50.867  23.267  33.028  1.00  0.00    -0.237 OA
ATOM     56  O   UNL A   1      52.098  25.331  32.475  1.00  0.00    -0.744 OA
ENDBRANCH  52  53
ENDBRANCH  24  47
BRANCH  36  57
ATOM     57  C   UNL A   1      42.522  31.590  34.958  1.00  0.00    -0.014 A 
ATOM     58  C   UNL A   1      42.010  31.133  36.183  1.00  0.00     0.010 A 
ATOM     59  C   UNL A   1      42.932  32.936  34.854  1.00  0.00     0.010 A 
ATOM     60  C   UNL A   1      41.832  32.014  37.253  1.00  0.00     0.020 A 
ATOM     61  C   UNL A   1      42.793  33.812  35.935  1.00  0.00     0.020 A 
ATOM     62  C   UNL A   1      42.201  33.354  37.113  1.00  0.00     0.054 A 
BRANCH  62  63
ATOM     63  S   UNL A   1      41.836  34.502  38.468  1.00  0.00     0.124 S 
ATOM     64  O   UNL A   1      42.123  33.685  39.644  1.00  0.00    -0.237 OA
ATOM     65  O   UNL A   1      42.768  35.598  38.218  1.00  0.00    -0.237 OA
ATOM     66  O   UNL A   1      40.426  34.834  38.268  1.00  0.00    -0.744 OA
ENDBRANCH  62  63
ENDBRANCH  36  57
ENDBRANCH  10  11
ENDBRANCH   3   5
ENDBRANCH   2   3
ENDBRANCH   1   2
BRANCH   1  67
ATOM     67  C   UNL A   1      43.297  19.692  25.656  1.00  0.00     0.275 C 
BRANCH  67  68
ATOM     68  O   UNL A   1      42.291  20.732  25.710  1.00  0.00    -0.458 OA
BRANCH  68  69
ATOM     69  C   UNL A   1      41.298  20.532  26.627  1.00  0.00     0.339 C 
ATOM     70  O   UNL A   1      41.358  19.760  27.573  1.00  0.00    -0.246 OA
BRANCH  69  71
ATOM     71  C   UNL A   1      40.103  21.402  26.418  1.00  0.00     0.071 A 
ATOM     72  C   UNL A   1      38.973  20.926  25.709  1.00  0.00     0.047 A 
ATOM     73  C   UNL A   1      40.085  22.675  27.014  1.00  0.00     0.018 A 
ATOM     74  C   UNL A   1      37.872  21.770  25.470  1.00  0.00     0.090 A 
ATOM     75  C   UNL A   1      38.922  23.441  26.789  1.00  0.00     0.072 A 
ATOM     76  C   UNL A   1      41.138  23.205  27.813  1.00  0.00     0.050 A 
ATOM     77  N   UNL A   1      37.870  23.004  26.050  1.00  0.00    -0.246 NA
ATOM     78  C   UNL A   1      38.878  24.718  27.350  1.00  0.00     0.032 A 
ATOM     79  C   UNL A   1      41.041  24.476  28.359  1.00  0.00     0.123 A 
ATOM     80  C   UNL A   1      39.918  25.244  28.130  1.00  0.00     0.041 A 
ATOM     81  F   UNL A   1      42.046  24.962  29.099  1.00  0.00    -0.207 F 
BRANCH  74  82
ATOM     82  C   UNL A   1      36.825  21.541  24.297  1.00  0.00     0.089 A 
ATOM     83  C   UNL A   1      36.366  23.000  23.265  1.00  0.00     0.030 A 
ATOM     84  N   UNL A   1      35.561  20.405  24.875  1.00  0.00    -0.255 NA
ATOM     85  C   UNL A   1      34.561  23.408  22.976  1.00  0.00     0.004 A 
ATOM     86  C   UNL A   1      33.801  20.777  24.667  1.00  0.00     0.112 A 
ATOM     87  C   UNL A   1      33.250  22.340  23.748  1.00  0.00     0.020 A 
ENDBRANCH  74  82
ENDBRANCH  69  71
ENDBRANCH  68  69
ENDBRANCH  67  68
ENDBRANCH   1  67
TORSDOF 15
ENDMDL
