MODEL 1
REMARK VINA RESULT:     -10.4      0.000      0.000
REMARK SMILES O=C(C[C@@H]([NH2+]Cc1ccccc1)C(=O)OCCOC(=O)c1ccc(-c2c3nc(c(-c4ccc(S(=O)(=O)[O-])cc4)c4ccc([nH]4)c(-c4ccc(S(=O)(=O)[O-])cc4)c4nc(c(-c5ccc(S(=O)(=O)[O-])cc5)c5ccc2[nH]5)C=C4)C=C3)cc1)Nc1cccc(Cl)c1Cl
REMARK SMILES IDX 16 1 15 2 13 3 14 4 4 5 3 6 2 7 1 8 81 9 82 11 83 12 88 13
REMARK SMILES IDX 84 14 86 15 89 16 85 17 87 18 5 19 6 22 7 23 8 24 12 25 9 26
REMARK SMILES IDX 11 27 10 28 17 29 18 30 19 31 20 32 21 33 22 34 80 35 23 36
REMARK SMILES IDX 79 37 24 38 25 39 26 40 73 41 27 42 78 43 72 44 74 45 28 46
REMARK SMILES IDX 77 47 71 48 70 49 29 51 59 52 40 53 58 54 41 55 44 56 57 57
REMARK SMILES IDX 75 58 42 59 43 60 56 62 76 63 45 64 30 65 31 66 39 67 32 68
REMARK SMILES IDX 38 69 33 70 34 71 35 72 36 73 37 74 60 75 61 76 69 77 62 78
REMARK SMILES IDX 68 79 63 80 64 81 65 82 66 83 67 84 46 85 47 86 55 87 48 88
REMARK SMILES IDX 54 89 49 90 50 91 51 92 52 93 53 94
REMARK H PARENT 81 10 5 20 5 21 74 50 44 61
REMARK Flexibility Score: inf
ROOT
ATOM      1  C   UNL A   1      32.643  26.828  26.525  1.00  0.00     0.274 C 
ENDROOT
BRANCH   1   2
ATOM      2  O   UNL A   1      33.195  25.584  26.050  1.00  0.00    -0.458 OA
BRANCH   2   3
ATOM      3  C   UNL A   1      32.402  24.494  26.244  1.00  0.00     0.365 C 
ATOM      4  O   UNL A   1      31.647  24.387  27.205  1.00  0.00    -0.245 OA
BRANCH   3   5
ATOM      5  C   UNL A   1      32.528  23.420  25.140  1.00  0.00     0.303 C 
BRANCH   5   6
ATOM      6  C   UNL A   1      31.338  23.466  24.168  1.00  0.00     0.177 C 
BRANCH   6   7
ATOM      7  C   UNL A   1      31.316  24.752  23.375  1.00  0.00     0.231 C 
ATOM      8  O   UNL A   1      31.979  24.896  22.354  1.00  0.00    -0.274 OA
ATOM      9  N   UNL A   1      30.574  25.747  23.992  1.00  0.00    -0.325 N 
ATOM     10  H   UNL A   1      30.183  25.552  24.874  1.00  0.00     0.169 HD
BRANCH   9  11
ATOM     11  C   UNL A   1      30.344  27.023  23.432  1.00  0.00     0.061 A 
ATOM     12  C   UNL A   1      31.490  27.760  23.098  1.00  0.00     0.028 A 
ATOM     13  C   UNL A   1      29.066  27.594  23.245  1.00  0.00     0.083 A 
ATOM     14  C   UNL A   1      31.378  29.021  22.516  1.00  0.00     0.004 A 
ATOM     15  C   UNL A   1      28.967  28.875  22.677  1.00  0.00     0.061 A 
ATOM     16  Cl  UNL A   1      27.646  26.831  23.898  1.00  0.00    -0.080 Cl
ATOM     17  C   UNL A   1      30.119  29.576  22.301  1.00  0.00     0.022 A 
ATOM     18  Cl  UNL A   1      27.454  29.688  22.456  1.00  0.00    -0.083 Cl
ENDBRANCH   9  11
ENDBRANCH   6   7
ENDBRANCH   5   6
BRANCH   5  19
ATOM     19  N   UNL A   1      33.812  23.496  24.370  1.00  0.00    -0.330 N 
ATOM     20  H   UNL A   1      34.364  24.265  24.750  1.00  0.00     0.347 HD
ATOM     21  H   UNL A   1      33.551  23.629  23.392  1.00  0.00     0.347 HD
BRANCH  19  22
ATOM     22  C   UNL A   1      34.640  22.276  24.412  1.00  0.00     0.298 C 
BRANCH  22  23
ATOM     23  C   UNL A   1      36.019  22.498  24.988  1.00  0.00     0.006 A 
ATOM     24  C   UNL A   1      37.002  21.505  24.905  1.00  0.00     0.009 A 
ATOM     25  C   UNL A   1      36.344  23.710  25.618  1.00  0.00     0.009 A 
ATOM     26  C   UNL A   1      38.276  21.716  25.431  1.00  0.00     0.001 A 
ATOM     27  C   UNL A   1      37.619  23.915  26.151  1.00  0.00     0.001 A 
ATOM     28  C   UNL A   1      38.587  22.920  26.052  1.00  0.00     0.000 A 
ENDBRANCH  22  23
ENDBRANCH  19  22
ENDBRANCH   5  19
ENDBRANCH   3   5
ENDBRANCH   2   3
ENDBRANCH   1   2
BRANCH   1  29
ATOM     29  C   UNL A   1      33.654  27.983  26.487  1.00  0.00     0.275 C 
BRANCH  29  30
ATOM     30  O   UNL A   1      33.667  28.771  27.694  1.00  0.00    -0.458 OA
BRANCH  30  31
ATOM     31  C   UNL A   1      34.336  29.945  27.596  1.00  0.00     0.338 C 
ATOM     32  O   UNL A   1      33.850  31.021  27.275  1.00  0.00    -0.246 OA
BRANCH  31  33
ATOM     33  C   UNL A   1      35.732  29.814  28.058  1.00  0.00     0.060 A 
ATOM     34  C   UNL A   1      36.748  29.986  27.111  1.00  0.00     0.016 A 
ATOM     35  C   UNL A   1      36.052  29.442  29.367  1.00  0.00     0.016 A 
ATOM     36  C   UNL A   1      38.082  29.796  27.467  1.00  0.00     0.010 A 
ATOM     37  C   UNL A   1      37.390  29.216  29.715  1.00  0.00     0.010 A 
ATOM     38  C   UNL A   1      38.410  29.377  28.763  1.00  0.00    -0.014 A 
BRANCH  38  39
ATOM     39  C   UNL A   1      39.814  29.004  29.058  1.00  0.00     0.031 A 
ATOM     40  C   UNL A   1      40.681  29.959  29.827  1.00  0.00     0.074 A 
ATOM     41  C   UNL A   1      40.283  27.792  28.713  1.00  0.00     0.049 A 
ATOM     42  N   UNL A   1      41.917  29.810  30.230  1.00  0.00    -0.248 NA
ATOM     43  C   UNL A   1      40.079  31.253  30.185  1.00  0.00     0.031 C 
ATOM     44  C   UNL A   1      39.520  26.771  27.999  1.00  0.00     0.029 A 
ATOM     45  N   UNL A   1      41.502  27.204  28.937  1.00  0.00    -0.354 N 
ATOM     46  C   UNL A   1      42.242  30.991  30.889  1.00  0.00     0.074 A 
ATOM     47  C   UNL A   1      41.080  31.850  30.815  1.00  0.00     0.031 C 
ATOM     48  C   UNL A   1      40.272  25.663  27.881  1.00  0.00     0.029 A 
ATOM     49  C   UNL A   1      41.588  25.914  28.466  1.00  0.00     0.049 A 
ATOM     50  H   UNL A   1      42.246  27.661  29.393  1.00  0.00     0.167 HD
ATOM     51  C   UNL A   1      43.406  31.328  31.494  1.00  0.00     0.031 A 
ATOM     52  C   UNL A   1      42.616  25.043  28.494  1.00  0.00     0.031 A 
ATOM     53  C   UNL A   1      44.570  30.483  31.535  1.00  0.00     0.049 A 
ATOM     54  C   UNL A   1      43.919  25.466  29.122  1.00  0.00     0.074 A 
ATOM     55  C   UNL A   1      45.812  30.751  32.087  1.00  0.00     0.029 A 
ATOM     56  N   UNL A   1      44.639  29.204  31.001  1.00  0.00    -0.354 N 
ATOM     57  N   UNL A   1      44.216  26.592  29.726  1.00  0.00    -0.248 NA
ATOM     58  C   UNL A   1      45.027  24.501  29.067  1.00  0.00     0.031 C 
ATOM     59  C   UNL A   1      46.643  29.651  31.849  1.00  0.00     0.029 A 
ATOM     60  C   UNL A   1      45.903  28.677  31.199  1.00  0.00     0.049 A 
ATOM     61  H   UNL A   1      43.897  28.741  30.549  1.00  0.00     0.167 HD
ATOM     62  C   UNL A   1      45.538  26.463  30.139  1.00  0.00     0.074 A 
ATOM     63  C   UNL A   1      45.976  25.143  29.734  1.00  0.00     0.031 C 
ATOM     64  C   UNL A   1      46.322  27.359  30.791  1.00  0.00     0.031 A 
BRANCH  51  65
ATOM     65  C   UNL A   1      43.487  32.696  32.115  1.00  0.00    -0.014 A 
ATOM     66  C   UNL A   1      43.090  32.915  33.447  1.00  0.00     0.010 A 
ATOM     67  C   UNL A   1      43.988  33.773  31.362  1.00  0.00     0.010 A 
ATOM     68  C   UNL A   1      43.159  34.196  34.002  1.00  0.00     0.020 A 
ATOM     69  C   UNL A   1      44.079  35.051  31.922  1.00  0.00     0.020 A 
ATOM     70  C   UNL A   1      43.647  35.257  33.234  1.00  0.00     0.054 A 
BRANCH  70  71
ATOM     71  S   UNL A   1      43.738  36.908  33.981  1.00  0.00     0.124 S 
ATOM     72  O   UNL A   1      45.117  36.947  34.460  1.00  0.00    -0.237 OA
ATOM     73  O   UNL A   1      43.439  37.788  32.853  1.00  0.00    -0.237 OA
ATOM     74  O   UNL A   1      42.716  36.873  35.025  1.00  0.00    -0.744 OA
ENDBRANCH  70  71
ENDBRANCH  51  65
BRANCH  52  75
ATOM     75  C   UNL A   1      42.472  23.689  27.890  1.00  0.00    -0.014 A 
ATOM     76  C   UNL A   1      42.154  22.575  28.689  1.00  0.00     0.010 A 
ATOM     77  C   UNL A   1      42.674  23.502  26.510  1.00  0.00     0.010 A 
ATOM     78  C   UNL A   1      42.065  21.299  28.124  1.00  0.00     0.020 A 
ATOM     79  C   UNL A   1      42.557  22.233  25.937  1.00  0.00     0.020 A 
ATOM     80  C   UNL A   1      42.268  21.136  26.750  1.00  0.00     0.054 A 
BRANCH  80  81
ATOM     81  S   UNL A   1      42.112  19.479  26.027  1.00  0.00     0.124 S 
ATOM     82  O   UNL A   1      40.673  19.379  25.807  1.00  0.00    -0.237 OA
ATOM     83  O   UNL A   1      42.932  19.580  24.821  1.00  0.00    -0.237 OA
ATOM     84  O   UNL A   1      42.651  18.603  27.064  1.00  0.00    -0.744 OA
ENDBRANCH  80  81
ENDBRANCH  52  75
BRANCH  64  85
ATOM     85  C   UNL A   1      47.720  26.927  31.142  1.00  0.00    -0.014 A 
ATOM     86  C   UNL A   1      48.017  26.355  32.392  1.00  0.00     0.010 A 
ATOM     87  C   UNL A   1      48.746  27.058  30.187  1.00  0.00     0.010 A 
ATOM     88  C   UNL A   1      49.322  25.956  32.694  1.00  0.00     0.020 A 
ATOM     89  C   UNL A   1      50.046  26.637  30.477  1.00  0.00     0.020 A 
ATOM     90  C   UNL A   1      50.329  26.104  31.735  1.00  0.00     0.054 A 
BRANCH  90  91
ATOM     91  S   UNL A   1      52.010  25.550  32.137  1.00  0.00     0.124 S 
ATOM     92  O   UNL A   1      52.761  25.984  30.962  1.00  0.00    -0.237 OA
ATOM     93  O   UNL A   1      52.302  26.274  33.372  1.00  0.00    -0.237 OA
ATOM     94  O   UNL A   1      51.871  24.104  32.288  1.00  0.00    -0.744 OA
ENDBRANCH  90  91
ENDBRANCH  64  85
ENDBRANCH  38  39
ENDBRANCH  31  33
ENDBRANCH  30  31
ENDBRANCH  29  30
ENDBRANCH   1  29
TORSDOF 20
ENDMDL
MODEL 2
REMARK VINA RESULT:     -10.3      4.722     10.103
REMARK SMILES O=C(C[C@@H]([NH2+]Cc1ccccc1)C(=O)OCCOC(=O)c1ccc(-c2c3nc(c(-c4ccc(S(=O)(=O)[O-])cc4)c4ccc([nH]4)c(-c4ccc(S(=O)(=O)[O-])cc4)c4nc(c(-c5ccc(S(=O)(=O)[O-])cc5)c5ccc2[nH]5)C=C4)C=C3)cc1)Nc1cccc(Cl)c1Cl
REMARK SMILES IDX 16 1 15 2 13 3 14 4 4 5 3 6 2 7 1 8 81 9 82 11 83 12 88 13
REMARK SMILES IDX 84 14 86 15 89 16 85 17 87 18 5 19 6 22 7 23 8 24 12 25 9 26
REMARK SMILES IDX 11 27 10 28 17 29 18 30 19 31 20 32 21 33 22 34 80 35 23 36
REMARK SMILES IDX 79 37 24 38 25 39 26 40 73 41 27 42 78 43 72 44 74 45 28 46
REMARK SMILES IDX 77 47 71 48 70 49 29 51 59 52 40 53 58 54 41 55 44 56 57 57
REMARK SMILES IDX 75 58 42 59 43 60 56 62 76 63 45 64 30 65 31 66 39 67 32 68
REMARK SMILES IDX 38 69 33 70 34 71 35 72 36 73 37 74 60 75 61 76 69 77 62 78
REMARK SMILES IDX 68 79 63 80 64 81 65 82 66 83 67 84 46 85 47 86 55 87 48 88
REMARK SMILES IDX 54 89 49 90 50 91 51 92 52 93 53 94
REMARK H PARENT 81 10 5 20 5 21 74 50 44 61
REMARK Flexibility Score: inf
ROOT
ATOM      1  C   UNL A   1      38.551  22.380  26.085  1.00  0.00     0.274 C 
ENDROOT
BRANCH   1   2
ATOM      2  O   UNL A   1      37.212  22.890  25.926  1.00  0.00    -0.458 OA
BRANCH   2   3
ATOM      3  C   UNL A   1      36.389  22.113  25.168  1.00  0.00     0.365 C 
ATOM      4  O   UNL A   1      36.678  20.967  24.840  1.00  0.00    -0.245 OA
BRANCH   3   5
ATOM      5  C   UNL A   1      35.060  22.798  24.779  1.00  0.00     0.303 C 
BRANCH   5   6
ATOM      6  C   UNL A   1      35.300  24.155  24.097  1.00  0.00     0.177 C 
BRANCH   6   7
ATOM      7  C   UNL A   1      34.031  24.705  23.488  1.00  0.00     0.231 C 
ATOM      8  O   UNL A   1      33.692  24.433  22.342  1.00  0.00    -0.274 OA
ATOM      9  N   UNL A   1      33.392  25.613  24.315  1.00  0.00    -0.325 N 
ATOM     10  H   UNL A   1      33.824  25.844  25.169  1.00  0.00     0.169 HD
BRANCH   9  11
ATOM     11  C   UNL A   1      32.157  26.227  24.011  1.00  0.00     0.061 A 
ATOM     12  C   UNL A   1      31.012  25.550  24.455  1.00  0.00     0.028 A 
ATOM     13  C   UNL A   1      32.021  27.420  23.268  1.00  0.00     0.083 A 
ATOM     14  C   UNL A   1      29.742  26.080  24.231  1.00  0.00     0.004 A 
ATOM     15  C   UNL A   1      30.734  27.933  23.030  1.00  0.00     0.061 A 
ATOM     16  Cl  UNL A   1      33.391  28.133  22.470  1.00  0.00    -0.080 Cl
ATOM     17  C   UNL A   1      29.604  27.271  23.525  1.00  0.00     0.022 A 
ATOM     18  Cl  UNL A   1      30.452  29.355  22.083  1.00  0.00    -0.083 Cl
ENDBRANCH   9  11
ENDBRANCH   6   7
ENDBRANCH   5   6
BRANCH   5  19
ATOM     19  N   UNL A   1      34.175  21.949  23.916  1.00  0.00    -0.330 N 
ATOM     20  H   UNL A   1      34.770  21.403  23.294  1.00  0.00     0.347 HD
ATOM     21  H   UNL A   1      33.555  22.592  23.423  1.00  0.00     0.347 HD
BRANCH  19  22
ATOM     22  C   UNL A   1      33.299  21.014  24.646  1.00  0.00     0.298 C 
BRANCH  22  23
ATOM     23  C   UNL A   1      33.428  19.579  24.189  1.00  0.00     0.006 A 
ATOM     24  C   UNL A   1      34.488  18.776  24.626  1.00  0.00     0.009 A 
ATOM     25  C   UNL A   1      32.481  19.020  23.316  1.00  0.00     0.009 A 
ATOM     26  C   UNL A   1      34.599  17.450  24.208  1.00  0.00     0.001 A 
ATOM     27  C   UNL A   1      32.599  17.693  22.893  1.00  0.00     0.001 A 
ATOM     28  C   UNL A   1      33.656  16.907  23.344  1.00  0.00     0.000 A 
ENDBRANCH  22  23
ENDBRANCH  19  22
ENDBRANCH   5  19
ENDBRANCH   3   5
ENDBRANCH   2   3
ENDBRANCH   1   2
BRANCH   1  29
ATOM     29  C   UNL A   1      39.482  23.363  26.810  1.00  0.00     0.275 C 
BRANCH  29  30
ATOM     30  O   UNL A   1      38.973  24.711  26.846  1.00  0.00    -0.458 OA
BRANCH  30  31
ATOM     31  C   UNL A   1      39.925  25.674  26.900  1.00  0.00     0.338 C 
ATOM     32  O   UNL A   1      40.784  25.880  26.055  1.00  0.00    -0.246 OA
BRANCH  31  33
ATOM     33  C   UNL A   1      39.731  26.562  28.063  1.00  0.00     0.060 A 
ATOM     34  C   UNL A   1      40.422  27.779  28.074  1.00  0.00     0.016 A 
ATOM     35  C   UNL A   1      38.964  26.184  29.170  1.00  0.00     0.016 A 
ATOM     36  C   UNL A   1      40.344  28.625  29.178  1.00  0.00     0.010 A 
ATOM     37  C   UNL A   1      38.915  27.018  30.295  1.00  0.00     0.010 A 
ATOM     38  C   UNL A   1      39.617  28.235  30.310  1.00  0.00    -0.014 A 
BRANCH  38  39
ATOM     39  C   UNL A   1      39.705  29.065  31.536  1.00  0.00     0.031 A 
ATOM     40  C   UNL A   1      40.872  28.884  32.463  1.00  0.00     0.074 A 
ATOM     41  C   UNL A   1      38.794  30.026  31.773  1.00  0.00     0.049 A 
ATOM     42  N   UNL A   1      41.165  29.536  33.558  1.00  0.00    -0.248 NA
ATOM     43  C   UNL A   1      41.834  27.826  32.112  1.00  0.00     0.031 C 
ATOM     44  C   UNL A   1      37.642  30.316  30.923  1.00  0.00     0.029 A 
ATOM     45  N   UNL A   1      38.708  30.949  32.784  1.00  0.00    -0.354 N 
ATOM     46  C   UNL A   1      42.343  28.969  34.031  1.00  0.00     0.074 A 
ATOM     47  C   UNL A   1      42.700  27.909  33.112  1.00  0.00     0.031 C 
ATOM     48  C   UNL A   1      36.986  31.378  31.422  1.00  0.00     0.029 A 
ATOM     49  C   UNL A   1      37.641  31.810  32.655  1.00  0.00     0.049 A 
ATOM     50  H   UNL A   1      39.348  30.993  33.531  1.00  0.00     0.167 HD
ATOM     51  C   UNL A   1      43.058  29.298  35.133  1.00  0.00     0.031 A 
ATOM     52  C   UNL A   1      37.237  32.821  33.450  1.00  0.00     0.031 A 
ATOM     53  C   UNL A   1      42.680  30.330  36.062  1.00  0.00     0.049 A 
ATOM     54  C   UNL A   1      38.018  33.127  34.701  1.00  0.00     0.074 A 
ATOM     55  C   UNL A   1      43.315  30.712  37.232  1.00  0.00     0.029 A 
ATOM     56  N   UNL A   1      41.566  31.146  35.929  1.00  0.00    -0.354 N 
ATOM     57  N   UNL A   1      39.120  32.571  35.143  1.00  0.00    -0.248 NA
ATOM     58  C   UNL A   1      37.495  34.196  35.565  1.00  0.00     0.031 C 
ATOM     59  C   UNL A   1      42.561  31.729  37.828  1.00  0.00     0.029 A 
ATOM     60  C   UNL A   1      41.488  32.019  37.000  1.00  0.00     0.049 A 
ATOM     61  H   UNL A   1      40.926  31.109  35.182  1.00  0.00     0.167 HD
ATOM     62  C   UNL A   1      39.433  33.234  36.324  1.00  0.00     0.074 A 
ATOM     63  C   UNL A   1      38.415  34.246  36.518  1.00  0.00     0.031 C 
ATOM     64  C   UNL A   1      40.468  33.022  37.176  1.00  0.00     0.031 A 
BRANCH  51  65
ATOM     65  C   UNL A   1      44.296  28.492  35.417  1.00  0.00    -0.014 A 
ATOM     66  C   UNL A   1      44.233  27.302  36.166  1.00  0.00     0.010 A 
ATOM     67  C   UNL A   1      45.536  28.919  34.910  1.00  0.00     0.010 A 
ATOM     68  C   UNL A   1      45.397  26.574  36.432  1.00  0.00     0.020 A 
ATOM     69  C   UNL A   1      46.697  28.182  35.155  1.00  0.00     0.020 A 
ATOM     70  C   UNL A   1      46.622  27.022  35.930  1.00  0.00     0.054 A 
BRANCH  70  71
ATOM     71  S   UNL A   1      48.116  26.054  36.279  1.00  0.00     0.124 S 
ATOM     72  O   UNL A   1      47.730  25.327  37.486  1.00  0.00    -0.237 OA
ATOM     73  O   UNL A   1      48.261  25.240  35.074  1.00  0.00    -0.237 OA
ATOM     74  O   UNL A   1      49.151  27.069  36.468  1.00  0.00    -0.744 OA
ENDBRANCH  70  71
ENDBRANCH  51  65
BRANCH  52  75
ATOM     75  C   UNL A   1      36.020  33.607  33.105  1.00  0.00    -0.014 A 
ATOM     76  C   UNL A   1      36.128  34.868  32.491  1.00  0.00     0.010 A 
ATOM     77  C   UNL A   1      34.741  33.106  33.411  1.00  0.00     0.010 A 
ATOM     78  C   UNL A   1      34.984  35.623  32.212  1.00  0.00     0.020 A 
ATOM     79  C   UNL A   1      33.594  33.844  33.107  1.00  0.00     0.020 A 
ATOM     80  C   UNL A   1      33.723  35.105  32.523  1.00  0.00     0.054 A 
BRANCH  80  81
ATOM     81  S   UNL A   1      32.246  36.080  32.120  1.00  0.00     0.124 S 
ATOM     82  O   UNL A   1      32.406  36.292  30.685  1.00  0.00    -0.237 OA
ATOM     83  O   UNL A   1      31.158  35.186  32.512  1.00  0.00    -0.237 OA
ATOM     84  O   UNL A   1      32.389  37.273  32.951  1.00  0.00    -0.744 OA
ENDBRANCH  80  81
ENDBRANCH  52  75
BRANCH  64  85
ATOM     85  C   UNL A   1      40.573  33.927  38.375  1.00  0.00    -0.014 A 
ATOM     86  C   UNL A   1      41.306  35.126  38.323  1.00  0.00     0.010 A 
ATOM     87  C   UNL A   1      39.892  33.589  39.559  1.00  0.00     0.010 A 
ATOM     88  C   UNL A   1      41.385  35.954  39.447  1.00  0.00     0.020 A 
ATOM     89  C   UNL A   1      39.949  34.427  40.676  1.00  0.00     0.020 A 
ATOM     90  C   UNL A   1      40.709  35.597  40.617  1.00  0.00     0.054 A 
BRANCH  90  91
ATOM     91  S   UNL A   1      40.799  36.701  42.054  1.00  0.00     0.124 S 
ATOM     92  O   UNL A   1      39.628  37.551  41.858  1.00  0.00    -0.237 OA
ATOM     93  O   UNL A   1      40.720  35.773  43.180  1.00  0.00    -0.237 OA
ATOM     94  O   UNL A   1      42.088  37.371  41.897  1.00  0.00    -0.744 OA
ENDBRANCH  90  91
ENDBRANCH  64  85
ENDBRANCH  38  39
ENDBRANCH  31  33
ENDBRANCH  30  31
ENDBRANCH  29  30
ENDBRANCH   1  29
TORSDOF 20
ENDMDL
MODEL 3
REMARK VINA RESULT:     -10.2      3.050      4.849
REMARK SMILES O=C(C[C@@H]([NH2+]Cc1ccccc1)C(=O)OCCOC(=O)c1ccc(-c2c3nc(c(-c4ccc(S(=O)(=O)[O-])cc4)c4ccc([nH]4)c(-c4ccc(S(=O)(=O)[O-])cc4)c4nc(c(-c5ccc(S(=O)(=O)[O-])cc5)c5ccc2[nH]5)C=C4)C=C3)cc1)Nc1cccc(Cl)c1Cl
REMARK SMILES IDX 16 1 15 2 13 3 14 4 4 5 3 6 2 7 1 8 81 9 82 11 83 12 88 13
REMARK SMILES IDX 84 14 86 15 89 16 85 17 87 18 5 19 6 22 7 23 8 24 12 25 9 26
REMARK SMILES IDX 11 27 10 28 17 29 18 30 19 31 20 32 21 33 22 34 80 35 23 36
REMARK SMILES IDX 79 37 24 38 25 39 26 40 73 41 27 42 78 43 72 44 74 45 28 46
REMARK SMILES IDX 77 47 71 48 70 49 29 51 59 52 40 53 58 54 41 55 44 56 57 57
REMARK SMILES IDX 75 58 42 59 43 60 56 62 76 63 45 64 30 65 31 66 39 67 32 68
REMARK SMILES IDX 38 69 33 70 34 71 35 72 36 73 37 74 60 75 61 76 69 77 62 78
REMARK SMILES IDX 68 79 63 80 64 81 65 82 66 83 67 84 46 85 47 86 55 87 48 88
REMARK SMILES IDX 54 89 49 90 50 91 51 92 52 93 53 94
REMARK H PARENT 81 10 5 20 5 21 74 50 44 61
REMARK Flexibility Score: inf
ROOT
ATOM      1  C   UNL A   1      33.393  27.856  24.190  1.00  0.00     0.274 C 
ENDROOT
BRANCH   1   2
ATOM      2  O   UNL A   1      32.995  26.479  24.039  1.00  0.00    -0.458 OA
BRANCH   2   3
ATOM      3  C   UNL A   1      33.726  25.766  23.138  1.00  0.00     0.365 C 
ATOM      4  O   UNL A   1      33.826  26.093  21.960  1.00  0.00    -0.245 OA
BRANCH   3   5
ATOM      5  C   UNL A   1      34.425  24.525  23.737  1.00  0.00     0.303 C 
BRANCH   5   6
ATOM      6  C   UNL A   1      34.112  24.365  25.233  1.00  0.00     0.177 C 
BRANCH   6   7
ATOM      7  C   UNL A   1      35.215  23.630  25.958  1.00  0.00     0.231 C 
ATOM      8  O   UNL A   1      34.987  22.900  26.916  1.00  0.00    -0.274 OA
ATOM      9  N   UNL A   1      36.476  23.969  25.496  1.00  0.00    -0.325 N 
ATOM     10  H   UNL A   1      36.542  24.662  24.799  1.00  0.00     0.169 HD
BRANCH   9  11
ATOM     11  C   UNL A   1      37.674  23.382  25.961  1.00  0.00     0.061 A 
ATOM     12  C   UNL A   1      38.505  24.213  26.726  1.00  0.00     0.028 A 
ATOM     13  C   UNL A   1      38.084  22.064  25.666  1.00  0.00     0.083 A 
ATOM     14  C   UNL A   1      39.699  23.729  27.257  1.00  0.00     0.004 A 
ATOM     15  C   UNL A   1      39.300  21.594  26.189  1.00  0.00     0.061 A 
ATOM     16  Cl  UNL A   1      37.221  21.103  24.501  1.00  0.00    -0.080 Cl
ATOM     17  C   UNL A   1      40.093  22.420  26.994  1.00  0.00     0.022 A 
ATOM     18  Cl  UNL A   1      39.922  20.015  25.842  1.00  0.00    -0.083 Cl
ENDBRANCH   9  11
ENDBRANCH   6   7
ENDBRANCH   5   6
BRANCH   5  19
ATOM     19  N   UNL A   1      34.109  23.249  23.016  1.00  0.00    -0.330 N 
ATOM     20  H   UNL A   1      34.776  22.540  23.318  1.00  0.00     0.347 HD
ATOM     21  H   UNL A   1      34.166  23.462  22.020  1.00  0.00     0.347 HD
BRANCH  19  22
ATOM     22  C   UNL A   1      32.750  22.722  23.245  1.00  0.00     0.298 C 
BRANCH  22  23
ATOM     23  C   UNL A   1      32.718  21.247  23.570  1.00  0.00     0.006 A 
ATOM     24  C   UNL A   1      33.196  20.769  24.796  1.00  0.00     0.009 A 
ATOM     25  C   UNL A   1      32.204  20.322  22.647  1.00  0.00     0.009 A 
ATOM     26  C   UNL A   1      33.157  19.408  25.096  1.00  0.00     0.001 A 
ATOM     27  C   UNL A   1      32.174  18.958  22.948  1.00  0.00     0.001 A 
ATOM     28  C   UNL A   1      32.646  18.502  24.175  1.00  0.00     0.000 A 
ENDBRANCH  22  23
ENDBRANCH  19  22
ENDBRANCH   5  19
ENDBRANCH   3   5
ENDBRANCH   2   3
ENDBRANCH   1   2
BRANCH   1  29
ATOM     29  C   UNL A   1      33.410  28.316  25.655  1.00  0.00     0.275 C 
BRANCH  29  30
ATOM     30  O   UNL A   1      34.599  29.049  26.009  1.00  0.00    -0.458 OA
BRANCH  30  31
ATOM     31  C   UNL A   1      34.497  29.779  27.146  1.00  0.00     0.338 C 
ATOM     32  O   UNL A   1      33.477  30.304  27.570  1.00  0.00    -0.246 OA
BRANCH  31  33
ATOM     33  C   UNL A   1      35.756  29.764  27.915  1.00  0.00     0.060 A 
ATOM     34  C   UNL A   1      36.937  30.081  27.233  1.00  0.00     0.016 A 
ATOM     35  C   UNL A   1      35.809  29.361  29.253  1.00  0.00     0.016 A 
ATOM     36  C   UNL A   1      38.168  30.006  27.882  1.00  0.00     0.010 A 
ATOM     37  C   UNL A   1      37.050  29.252  29.895  1.00  0.00     0.010 A 
ATOM     38  C   UNL A   1      38.236  29.560  29.208  1.00  0.00    -0.014 A 
BRANCH  38  39
ATOM     39  C   UNL A   1      39.568  29.313  29.811  1.00  0.00     0.031 A 
ATOM     40  C   UNL A   1      39.961  30.059  31.053  1.00  0.00     0.074 A 
ATOM     41  C   UNL A   1      40.383  28.374  29.299  1.00  0.00     0.049 A 
ATOM     42  N   UNL A   1      41.054  29.960  31.764  1.00  0.00    -0.248 NA
ATOM     43  C   UNL A   1      38.998  31.051  31.558  1.00  0.00     0.031 C 
ATOM     44  C   UNL A   1      40.089  27.563  28.120  1.00  0.00     0.029 A 
ATOM     45  N   UNL A   1      41.610  27.926  29.717  1.00  0.00    -0.354 N 
ATOM     46  C   UNL A   1      40.914  30.875  32.801  1.00  0.00     0.074 A 
ATOM     47  C   UNL A   1      39.637  31.532  32.615  1.00  0.00     0.031 C 
ATOM     48  C   UNL A   1      41.088  26.683  27.933  1.00  0.00     0.029 A 
ATOM     49  C   UNL A   1      42.116  26.903  28.948  1.00  0.00     0.049 A 
ATOM     50  H   UNL A   1      42.085  28.300  30.495  1.00  0.00     0.167 HD
ATOM     51  C   UNL A   1      41.773  31.147  33.812  1.00  0.00     0.031 A 
ATOM     52  C   UNL A   1      43.281  26.232  29.048  1.00  0.00     0.031 A 
ATOM     53  C   UNL A   1      43.056  30.516  33.974  1.00  0.00     0.049 A 
ATOM     54  C   UNL A   1      44.245  26.596  30.148  1.00  0.00     0.074 A 
ATOM     55  C   UNL A   1      44.018  30.753  34.941  1.00  0.00     0.029 A 
ATOM     56  N   UNL A   1      43.559  29.522  33.146  1.00  0.00    -0.354 N 
ATOM     57  N   UNL A   1      44.104  27.475  31.110  1.00  0.00    -0.248 NA
ATOM     58  C   UNL A   1      45.528  25.879  30.170  1.00  0.00     0.031 C 
ATOM     59  C   UNL A   1      45.120  29.932  34.672  1.00  0.00     0.029 A 
ATOM     60  C   UNL A   1      44.821  29.146  33.572  1.00  0.00     0.049 A 
ATOM     61  H   UNL A   1      43.087  29.142  32.371  1.00  0.00     0.167 HD
ATOM     62  C   UNL A   1      45.271  27.404  31.863  1.00  0.00     0.074 A 
ATOM     63  C   UNL A   1      46.098  26.381  31.256  1.00  0.00     0.031 C 
ATOM     64  C   UNL A   1      45.630  28.123  32.956  1.00  0.00     0.031 A 
BRANCH  51  65
ATOM     65  C   UNL A   1      41.368  32.215  34.792  1.00  0.00    -0.014 A 
ATOM     66  C   UNL A   1      40.590  31.906  35.922  1.00  0.00     0.010 A 
ATOM     67  C   UNL A   1      41.789  33.541  34.589  1.00  0.00     0.010 A 
ATOM     68  C   UNL A   1      40.210  32.915  36.814  1.00  0.00     0.020 A 
ATOM     69  C   UNL A   1      41.430  34.547  35.490  1.00  0.00     0.020 A 
ATOM     70  C   UNL A   1      40.628  34.229  36.589  1.00  0.00     0.054 A 
BRANCH  70  71
ATOM     71  S   UNL A   1      40.133  35.518  37.766  1.00  0.00     0.124 S 
ATOM     72  O   UNL A   1      39.708  36.594  36.874  1.00  0.00    -0.237 OA
ATOM     73  O   UNL A   1      39.064  34.869  38.522  1.00  0.00    -0.237 OA
ATOM     74  O   UNL A   1      41.353  35.783  38.524  1.00  0.00    -0.744 OA
ENDBRANCH  70  71
ENDBRANCH  51  65
BRANCH  52  75
ATOM     75  C   UNL A   1      43.619  25.163  28.068  1.00  0.00    -0.014 A 
ATOM     76  C   UNL A   1      43.386  23.809  28.372  1.00  0.00     0.010 A 
ATOM     77  C   UNL A   1      44.199  25.493  26.829  1.00  0.00     0.010 A 
ATOM     78  C   UNL A   1      43.749  22.806  27.467  1.00  0.00     0.020 A 
ATOM     79  C   UNL A   1      44.536  24.495  25.910  1.00  0.00     0.020 A 
ATOM     80  C   UNL A   1      44.322  23.157  26.241  1.00  0.00     0.054 A 
BRANCH  80  81
ATOM     81  S   UNL A   1      44.752  21.845  25.062  1.00  0.00     0.124 S 
ATOM     82  O   UNL A   1      45.961  21.287  25.659  1.00  0.00    -0.237 OA
ATOM     83  O   UNL A   1      43.572  20.984  25.100  1.00  0.00    -0.237 OA
ATOM     84  O   UNL A   1      44.947  22.565  23.807  1.00  0.00    -0.744 OA
ENDBRANCH  80  81
ENDBRANCH  52  75
BRANCH  64  85
ATOM     85  C   UNL A   1      46.957  27.802  33.591  1.00  0.00    -0.014 A 
ATOM     86  C   UNL A   1      47.071  26.814  34.585  1.00  0.00     0.010 A 
ATOM     87  C   UNL A   1      48.114  28.473  33.153  1.00  0.00     0.010 A 
ATOM     88  C   UNL A   1      48.315  26.529  35.156  1.00  0.00     0.020 A 
ATOM     89  C   UNL A   1      49.362  28.172  33.704  1.00  0.00     0.020 A 
ATOM     90  C   UNL A   1      49.452  27.213  34.714  1.00  0.00     0.054 A 
BRANCH  90  91
ATOM     91  S   UNL A   1      51.061  26.804  35.446  1.00  0.00     0.124 S 
ATOM     92  O   UNL A   1      51.946  26.866  34.287  1.00  0.00    -0.237 OA
ATOM     93  O   UNL A   1      51.245  27.866  36.434  1.00  0.00    -0.237 OA
ATOM     94  O   UNL A   1      50.859  25.471  36.006  1.00  0.00    -0.744 OA
ENDBRANCH  90  91
ENDBRANCH  64  85
ENDBRANCH  38  39
ENDBRANCH  31  33
ENDBRANCH  30  31
ENDBRANCH  29  30
ENDBRANCH   1  29
TORSDOF 20
ENDMDL
