MODEL 1
REMARK VINA RESULT:      -9.7      0.000      0.000
REMARK SMILES CC[C@@H](C)N(CC(=O)OCCOC(=O)c1ccc(-c2c3nc(c(-c4ccc(S(=O)(=O)[O-])cc4)c4ccc([nH]4)c(-c4ccc(S(=O)(=O)[O-])cc4)c4nc(c(-c5ccc(S(=O)(=O)[O-])cc5)c5ccc2[nH]5)C=C4)C=C3)cc1)C(=O)NCc1cscc1C
REMARK SMILES IDX 10 1 9 2 7 3 8 4 6 5 5 6 3 7 4 8 2 9 1 10 75 11 76 12 77 13
REMARK SMILES IDX 78 15 79 16 80 17 83 18 81 19 82 20 84 21 11 22 12 23 13 24
REMARK SMILES IDX 14 25 15 26 16 27 74 28 17 29 73 30 18 31 19 32 20 33 67 34
REMARK SMILES IDX 21 35 72 36 66 37 68 38 22 39 71 40 65 41 64 42 23 44 53 45
REMARK SMILES IDX 34 46 52 47 35 48 38 49 51 50 69 51 36 52 37 53 50 55 70 56
REMARK SMILES IDX 39 57 24 58 25 59 33 60 26 61 32 62 27 63 28 64 29 65 30 66
REMARK SMILES IDX 31 67 54 68 55 69 63 70 56 71 62 72 57 73 58 74 59 75 60 76
REMARK SMILES IDX 61 77 40 78 41 79 49 80 42 81 48 82 43 83 44 84 45 85 46 86
REMARK SMILES IDX 47 87
REMARK H PARENT 77 14 68 43 38 54
REMARK Flexibility Score: inf
ROOT
ATOM      1  C   UNL A   1      35.786  21.404  24.622  1.00  0.00     0.274 C 
ENDROOT
BRANCH   1   2
ATOM      2  O   UNL A   1      34.771  20.569  25.224  1.00  0.00    -0.461 OA
BRANCH   2   3
ATOM      3  C   UNL A   1      33.600  21.212  25.492  1.00  0.00     0.325 C 
ATOM      4  O   UNL A   1      32.495  20.796  25.150  1.00  0.00    -0.250 OA
BRANCH   3   5
ATOM      5  C   UNL A   1      33.747  22.421  26.418  1.00  0.00     0.244 C 
BRANCH   5   6
ATOM      6  N   UNL A   1      32.847  23.557  26.216  1.00  0.00    -0.311 N 
BRANCH   6   7
ATOM      7  C   UNL A   1      33.539  24.731  25.615  1.00  0.00     0.084 C 
ATOM      8  C   UNL A   1      35.067  24.611  25.617  1.00  0.00     0.031 C 
BRANCH   7   9
ATOM      9  C   UNL A   1      32.999  26.045  26.221  1.00  0.00     0.021 C 
ATOM     10  C   UNL A   1      33.453  27.301  25.499  1.00  0.00     0.006 C 
ENDBRANCH   7   9
ENDBRANCH   6   7
BRANCH   6  11
ATOM     11  C   UNL A   1      31.480  23.563  26.232  1.00  0.00     0.318 C 
ATOM     12  O   UNL A   1      30.851  23.550  27.298  1.00  0.00    -0.249 OA
ATOM     13  N   UNL A   1      30.683  23.578  25.160  1.00  0.00    -0.334 N 
ATOM     14  H   UNL A   1      29.746  23.690  25.442  1.00  0.00     0.165 HD
BRANCH  13  15
ATOM     15  C   UNL A   1      30.754  23.481  23.723  1.00  0.00     0.154 C 
BRANCH  15  16
ATOM     16  C   UNL A   1      31.330  24.721  23.091  1.00  0.00    -0.015 A 
ATOM     17  C   UNL A   1      32.464  24.656  22.293  1.00  0.00     0.070 A 
ATOM     18  C   UNL A   1      30.787  26.068  23.092  1.00  0.00    -0.035 A 
ATOM     19  S   UNL A   1      32.847  26.131  21.531  1.00  0.00    -0.152 S 
ATOM     20  C   UNL A   1      31.517  26.902  22.262  1.00  0.00     0.068 A 
ATOM     21  C   UNL A   1      29.576  26.532  23.831  1.00  0.00     0.045 C 
ENDBRANCH  15  16
ENDBRANCH  13  15
ENDBRANCH   6  11
ENDBRANCH   5   6
ENDBRANCH   3   5
ENDBRANCH   2   3
ENDBRANCH   1   2
BRANCH   1  22
ATOM     22  C   UNL A   1      37.198  21.051  25.101  1.00  0.00     0.275 C 
BRANCH  22  23
ATOM     23  O   UNL A   1      37.947  22.233  25.438  1.00  0.00    -0.458 OA
BRANCH  23  24
ATOM     24  C   UNL A   1      38.987  21.987  26.268  1.00  0.00     0.338 C 
ATOM     25  O   UNL A   1      39.377  20.883  26.609  1.00  0.00    -0.246 OA
BRANCH  24  26
ATOM     26  C   UNL A   1      39.663  23.208  26.745  1.00  0.00     0.060 A 
ATOM     27  C   UNL A   1      40.693  23.186  27.689  1.00  0.00     0.016 A 
ATOM     28  C   UNL A   1      39.133  24.429  26.314  1.00  0.00     0.016 A 
ATOM     29  C   UNL A   1      41.168  24.388  28.223  1.00  0.00     0.010 A 
ATOM     30  C   UNL A   1      39.651  25.628  26.796  1.00  0.00     0.010 A 
ATOM     31  C   UNL A   1      40.674  25.618  27.753  1.00  0.00    -0.014 A 
BRANCH  31  32
ATOM     32  C   UNL A   1      41.367  26.888  28.075  1.00  0.00     0.031 A 
ATOM     33  C   UNL A   1      40.690  28.012  28.805  1.00  0.00     0.074 A 
ATOM     34  C   UNL A   1      42.607  27.047  27.574  1.00  0.00     0.049 A 
ATOM     35  N   UNL A   1      41.145  29.214  29.051  1.00  0.00    -0.248 NA
ATOM     36  C   UNL A   1      39.334  27.764  29.315  1.00  0.00     0.031 C 
ATOM     37  C   UNL A   1      43.338  26.034  26.807  1.00  0.00     0.029 A 
ATOM     38  N   UNL A   1      43.456  28.120  27.605  1.00  0.00    -0.354 N 
ATOM     39  C   UNL A   1      40.131  29.877  29.734  1.00  0.00     0.074 A 
ATOM     40  C   UNL A   1      39.030  28.940  29.855  1.00  0.00     0.031 C 
ATOM     41  C   UNL A   1      44.521  26.536  26.432  1.00  0.00     0.029 A 
ATOM     42  C   UNL A   1      44.615  27.914  26.897  1.00  0.00     0.049 A 
ATOM     43  H   UNL A   1      43.257  28.956  28.085  1.00  0.00     0.167 HD
ATOM     44  C   UNL A   1      40.125  31.146  30.210  1.00  0.00     0.031 A 
ATOM     45  C   UNL A   1      45.635  28.744  26.619  1.00  0.00     0.031 A 
ATOM     46  C   UNL A   1      41.225  32.070  30.073  1.00  0.00     0.049 A 
ATOM     47  C   UNL A   1      45.604  30.138  27.154  1.00  0.00     0.074 A 
ATOM     48  C   UNL A   1      41.339  33.356  30.576  1.00  0.00     0.029 A 
ATOM     49  N   UNL A   1      42.395  31.814  29.371  1.00  0.00    -0.354 N 
ATOM     50  N   UNL A   1      44.659  30.725  27.847  1.00  0.00    -0.248 NA
ATOM     51  C   UNL A   1      46.777  30.975  26.883  1.00  0.00     0.031 C 
ATOM     52  C   UNL A   1      42.560  33.890  30.146  1.00  0.00     0.029 A 
ATOM     53  C   UNL A   1      43.224  32.924  29.409  1.00  0.00     0.049 A 
ATOM     54  H   UNL A   1      42.604  30.968  28.914  1.00  0.00     0.167 HD
ATOM     55  C   UNL A   1      45.126  32.005  28.105  1.00  0.00     0.074 A 
ATOM     56  C   UNL A   1      46.443  32.100  27.504  1.00  0.00     0.031 C 
ATOM     57  C   UNL A   1      44.519  33.010  28.783  1.00  0.00     0.031 A 
BRANCH  44  58
ATOM     58  C   UNL A   1      38.886  31.632  30.916  1.00  0.00    -0.014 A 
ATOM     59  C   UNL A   1      38.743  31.498  32.308  1.00  0.00     0.010 A 
ATOM     60  C   UNL A   1      37.890  32.312  30.189  1.00  0.00     0.010 A 
ATOM     61  C   UNL A   1      37.618  32.017  32.959  1.00  0.00     0.020 A 
ATOM     62  C   UNL A   1      36.771  32.846  30.838  1.00  0.00     0.020 A 
ATOM     63  C   UNL A   1      36.637  32.683  32.218  1.00  0.00     0.054 A 
BRANCH  63  64
ATOM     64  S   UNL A   1      35.206  33.387  33.088  1.00  0.00     0.124 S 
ATOM     65  O   UNL A   1      34.096  32.664  32.472  1.00  0.00    -0.237 OA
ATOM     66  O   UNL A   1      35.476  33.051  34.484  1.00  0.00    -0.237 OA
ATOM     67  O   UNL A   1      35.276  34.812  32.771  1.00  0.00    -0.744 OA
ENDBRANCH  63  64
ENDBRANCH  44  58
BRANCH  45  68
ATOM     68  C   UNL A   1      46.757  28.237  25.793  1.00  0.00    -0.014 A 
ATOM     69  C   UNL A   1      46.640  28.192  24.395  1.00  0.00     0.010 A 
ATOM     70  C   UNL A   1      47.991  27.930  26.395  1.00  0.00     0.010 A 
ATOM     71  C   UNL A   1      47.747  27.868  23.607  1.00  0.00     0.020 A 
ATOM     72  C   UNL A   1      49.103  27.622  25.610  1.00  0.00     0.020 A 
ATOM     73  C   UNL A   1      48.975  27.595  24.219  1.00  0.00     0.054 A 
BRANCH  73  74
ATOM     74  S   UNL A   1      50.434  27.311  23.179  1.00  0.00     0.124 S 
ATOM     75  O   UNL A   1      51.322  26.600  24.093  1.00  0.00    -0.237 OA
ATOM     76  O   UNL A   1      49.893  26.518  22.076  1.00  0.00    -0.237 OA
ATOM     77  O   UNL A   1      50.855  28.660  22.813  1.00  0.00    -0.744 OA
ENDBRANCH  73  74
ENDBRANCH  45  68
BRANCH  57  78
ATOM     78  C   UNL A   1      45.289  34.292  28.909  1.00  0.00    -0.014 A 
ATOM     79  C   UNL A   1      46.208  34.478  29.957  1.00  0.00     0.010 A 
ATOM     80  C   UNL A   1      45.086  35.322  27.974  1.00  0.00     0.010 A 
ATOM     81  C   UNL A   1      46.882  35.693  30.093  1.00  0.00     0.020 A 
ATOM     82  C   UNL A   1      45.771  36.532  28.099  1.00  0.00     0.020 A 
ATOM     83  C   UNL A   1      46.650  36.717  29.168  1.00  0.00     0.054 A 
BRANCH  83  84
ATOM     84  S   UNL A   1      47.535  38.289  29.358  1.00  0.00     0.124 S 
ATOM     85  O   UNL A   1      46.563  39.248  28.842  1.00  0.00    -0.237 OA
ATOM     86  O   UNL A   1      47.781  38.354  30.797  1.00  0.00    -0.237 OA
ATOM     87  O   UNL A   1      48.731  38.109  28.537  1.00  0.00    -0.744 OA
ENDBRANCH  83  84
ENDBRANCH  57  78
ENDBRANCH  31  32
ENDBRANCH  24  26
ENDBRANCH  23  24
ENDBRANCH  22  23
ENDBRANCH   1  22
TORSDOF 20
ENDMDL
MODEL 2
REMARK VINA RESULT:      -9.7      3.460      8.430
REMARK SMILES CC[C@@H](C)N(CC(=O)OCCOC(=O)c1ccc(-c2c3nc(c(-c4ccc(S(=O)(=O)[O-])cc4)c4ccc([nH]4)c(-c4ccc(S(=O)(=O)[O-])cc4)c4nc(c(-c5ccc(S(=O)(=O)[O-])cc5)c5ccc2[nH]5)C=C4)C=C3)cc1)C(=O)NCc1cscc1C
REMARK SMILES IDX 10 1 9 2 7 3 8 4 6 5 5 6 3 7 4 8 2 9 1 10 75 11 76 12 77 13
REMARK SMILES IDX 78 15 79 16 80 17 83 18 81 19 82 20 84 21 11 22 12 23 13 24
REMARK SMILES IDX 14 25 15 26 16 27 74 28 17 29 73 30 18 31 19 32 20 33 67 34
REMARK SMILES IDX 21 35 72 36 66 37 68 38 22 39 71 40 65 41 64 42 23 44 53 45
REMARK SMILES IDX 34 46 52 47 35 48 38 49 51 50 69 51 36 52 37 53 50 55 70 56
REMARK SMILES IDX 39 57 24 58 25 59 33 60 26 61 32 62 27 63 28 64 29 65 30 66
REMARK SMILES IDX 31 67 54 68 55 69 63 70 56 71 62 72 57 73 58 74 59 75 60 76
REMARK SMILES IDX 61 77 40 78 41 79 49 80 42 81 48 82 43 83 44 84 45 85 46 86
REMARK SMILES IDX 47 87
REMARK H PARENT 77 14 68 43 38 54
REMARK Flexibility Score: inf
ROOT
ATOM      1  C   UNL A   1      35.980  21.133  25.308  1.00  0.00     0.274 C 
ENDROOT
BRANCH   1   2
ATOM      2  O   UNL A   1      35.392  21.636  26.529  1.00  0.00    -0.461 OA
BRANCH   2   3
ATOM      3  C   UNL A   1      34.032  21.559  26.573  1.00  0.00     0.325 C 
ATOM      4  O   UNL A   1      33.396  20.525  26.379  1.00  0.00    -0.250 OA
BRANCH   3   5
ATOM      5  C   UNL A   1      33.349  22.838  27.064  1.00  0.00     0.244 C 
BRANCH   5   6
ATOM      6  N   UNL A   1      33.074  23.890  26.086  1.00  0.00    -0.311 N 
BRANCH   6   7
ATOM      7  C   UNL A   1      31.625  23.999  25.758  1.00  0.00     0.084 C 
ATOM      8  C   UNL A   1      30.727  23.139  26.655  1.00  0.00     0.031 C 
BRANCH   7   9
ATOM      9  C   UNL A   1      31.398  23.799  24.244  1.00  0.00     0.021 C 
ATOM     10  C   UNL A   1      31.965  22.501  23.692  1.00  0.00     0.006 C 
ENDBRANCH   7   9
ENDBRANCH   6   7
BRANCH   6  11
ATOM     11  C   UNL A   1      33.894  24.913  25.695  1.00  0.00     0.318 C 
ATOM     12  O   UNL A   1      34.974  24.691  25.133  1.00  0.00    -0.249 OA
ATOM     13  N   UNL A   1      33.655  26.217  25.861  1.00  0.00    -0.334 N 
ATOM     14  H   UNL A   1      34.344  26.745  25.397  1.00  0.00     0.165 HD
BRANCH  13  15
ATOM     15  C   UNL A   1      32.713  27.100  26.505  1.00  0.00     0.154 C 
BRANCH  15  16
ATOM     16  C   UNL A   1      32.012  28.005  25.525  1.00  0.00    -0.015 A 
ATOM     17  C   UNL A   1      31.433  27.498  24.370  1.00  0.00     0.070 A 
ATOM     18  C   UNL A   1      31.726  29.423  25.656  1.00  0.00    -0.035 A 
ATOM     19  S   UNL A   1      30.539  28.652  23.492  1.00  0.00    -0.152 S 
ATOM     20  C   UNL A   1      30.917  29.866  24.624  1.00  0.00     0.068 A 
ATOM     21  C   UNL A   1      32.177  30.317  26.763  1.00  0.00     0.045 C 
ENDBRANCH  15  16
ENDBRANCH  13  15
ENDBRANCH   6  11
ENDBRANCH   5   6
ENDBRANCH   3   5
ENDBRANCH   2   3
ENDBRANCH   1   2
BRANCH   1  22
ATOM     22  C   UNL A   1      37.460  21.505  25.171  1.00  0.00     0.275 C 
BRANCH  22  23
ATOM     23  O   UNL A   1      37.774  22.690  25.925  1.00  0.00    -0.458 OA
BRANCH  23  24
ATOM     24  C   UNL A   1      39.064  22.738  26.331  1.00  0.00     0.338 C 
ATOM     25  O   UNL A   1      39.879  21.839  26.213  1.00  0.00    -0.246 OA
BRANCH  24  26
ATOM     26  C   UNL A   1      39.441  24.024  26.946  1.00  0.00     0.060 A 
ATOM     27  C   UNL A   1      39.057  24.389  28.239  1.00  0.00     0.016 A 
ATOM     28  C   UNL A   1      40.095  24.946  26.122  1.00  0.00     0.016 A 
ATOM     29  C   UNL A   1      39.302  25.689  28.693  1.00  0.00     0.010 A 
ATOM     30  C   UNL A   1      40.397  26.221  26.597  1.00  0.00     0.010 A 
ATOM     31  C   UNL A   1      40.005  26.602  27.887  1.00  0.00    -0.014 A 
BRANCH  31  32
ATOM     32  C   UNL A   1      40.536  27.864  28.453  1.00  0.00     0.031 A 
ATOM     33  C   UNL A   1      41.917  27.969  29.033  1.00  0.00     0.074 A 
ATOM     34  C   UNL A   1      39.678  28.898  28.541  1.00  0.00     0.049 A 
ATOM     35  N   UNL A   1      42.464  28.980  29.659  1.00  0.00    -0.248 NA
ATOM     36  C   UNL A   1      42.792  26.795  28.904  1.00  0.00     0.031 C 
ATOM     37  C   UNL A   1      38.296  28.885  28.053  1.00  0.00     0.029 A 
ATOM     38  N   UNL A   1      39.824  30.142  29.095  1.00  0.00    -0.354 N 
ATOM     39  C   UNL A   1      43.743  28.567  30.013  1.00  0.00     0.074 A 
ATOM     40  C   UNL A   1      43.887  27.205  29.537  1.00  0.00     0.031 C 
ATOM     41  C   UNL A   1      37.719  30.059  28.335  1.00  0.00     0.029 A 
ATOM     42  C   UNL A   1      38.673  30.890  29.058  1.00  0.00     0.049 A 
ATOM     43  H   UNL A   1      40.669  30.467  29.482  1.00  0.00     0.167 HD
ATOM     44  C   UNL A   1      44.700  29.262  30.675  1.00  0.00     0.031 A 
ATOM     45  C   UNL A   1      38.395  32.100  29.571  1.00  0.00     0.031 A 
ATOM     46  C   UNL A   1      44.538  30.614  31.151  1.00  0.00     0.049 A 
ATOM     47  C   UNL A   1      39.467  32.846  30.297  1.00  0.00     0.074 A 
ATOM     48  C   UNL A   1      45.471  31.427  31.776  1.00  0.00     0.029 A 
ATOM     49  N   UNL A   1      43.364  31.351  31.071  1.00  0.00    -0.354 N 
ATOM     50  N   UNL A   1      40.688  32.458  30.571  1.00  0.00    -0.248 NA
ATOM     51  C   UNL A   1      39.129  34.193  30.770  1.00  0.00     0.031 C 
ATOM     52  C   UNL A   1      44.850  32.638  32.107  1.00  0.00     0.029 A 
ATOM     53  C   UNL A   1      43.542  32.595  31.653  1.00  0.00     0.049 A 
ATOM     54  H   UNL A   1      42.528  31.034  30.659  1.00  0.00     0.167 HD
ATOM     55  C   UNL A   1      41.275  33.519  31.244  1.00  0.00     0.074 A 
ATOM     56  C   UNL A   1      40.276  34.568  31.324  1.00  0.00     0.031 C 
ATOM     57  C   UNL A   1      42.529  33.617  31.747  1.00  0.00     0.031 A 
BRANCH  44  58
ATOM     58  C   UNL A   1      46.015  28.578  30.944  1.00  0.00    -0.014 A 
ATOM     59  C   UNL A   1      47.083  28.673  30.035  1.00  0.00     0.010 A 
ATOM     60  C   UNL A   1      46.214  27.905  32.165  1.00  0.00     0.010 A 
ATOM     61  C   UNL A   1      48.320  28.089  30.332  1.00  0.00     0.020 A 
ATOM     62  C   UNL A   1      47.454  27.334  32.472  1.00  0.00     0.020 A 
ATOM     63  C   UNL A   1      48.496  27.420  31.546  1.00  0.00     0.054 A 
BRANCH  63  64
ATOM     64  S   UNL A   1      50.123  26.709  31.930  1.00  0.00     0.124 S 
ATOM     65  O   UNL A   1      50.202  26.907  33.375  1.00  0.00    -0.237 OA
ATOM     66  O   UNL A   1      49.983  25.322  31.494  1.00  0.00    -0.237 OA
ATOM     67  O   UNL A   1      51.048  27.516  31.137  1.00  0.00    -0.744 OA
ENDBRANCH  63  64
ENDBRANCH  44  58
BRANCH  45  68
ATOM     68  C   UNL A   1      37.031  32.651  29.391  1.00  0.00    -0.014 A 
ATOM     69  C   UNL A   1      36.134  32.684  30.472  1.00  0.00     0.010 A 
ATOM     70  C   UNL A   1      36.674  33.266  28.176  1.00  0.00     0.010 A 
ATOM     71  C   UNL A   1      34.910  33.344  30.348  1.00  0.00     0.020 A 
ATOM     72  C   UNL A   1      35.458  33.941  28.056  1.00  0.00     0.020 A 
ATOM     73  C   UNL A   1      34.584  33.978  29.145  1.00  0.00     0.054 A 
BRANCH  73  74
ATOM     74  S   UNL A   1      33.053  34.946  29.045  1.00  0.00     0.124 S 
ATOM     75  O   UNL A   1      33.549  36.256  28.635  1.00  0.00    -0.237 OA
ATOM     76  O   UNL A   1      32.278  34.220  28.041  1.00  0.00    -0.237 OA
ATOM     77  O   UNL A   1      32.517  34.871  30.402  1.00  0.00    -0.744 OA
ENDBRANCH  73  74
ENDBRANCH  45  68
BRANCH  57  78
ATOM     78  C   UNL A   1      42.881  34.911  32.421  1.00  0.00    -0.014 A 
ATOM     79  C   UNL A   1      43.527  35.938  31.711  1.00  0.00     0.010 A 
ATOM     80  C   UNL A   1      42.569  35.098  33.779  1.00  0.00     0.010 A 
ATOM     81  C   UNL A   1      43.893  37.118  32.360  1.00  0.00     0.020 A 
ATOM     82  C   UNL A   1      42.920  36.284  34.426  1.00  0.00     0.020 A 
ATOM     83  C   UNL A   1      43.598  37.278  33.718  1.00  0.00     0.054 A 
BRANCH  83  84
ATOM     84  S   UNL A   1      44.080  38.819  34.547  1.00  0.00     0.124 S 
ATOM     85  O   UNL A   1      45.425  39.034  34.024  1.00  0.00    -0.237 OA
ATOM     86  O   UNL A   1      43.067  39.767  34.087  1.00  0.00    -0.237 OA
ATOM     87  O   UNL A   1      44.007  38.480  35.967  1.00  0.00    -0.744 OA
ENDBRANCH  83  84
ENDBRANCH  57  78
ENDBRANCH  31  32
ENDBRANCH  24  26
ENDBRANCH  23  24
ENDBRANCH  22  23
ENDBRANCH   1  22
TORSDOF 20
ENDMDL
MODEL 3
REMARK VINA RESULT:      -9.5      5.604      9.590
REMARK SMILES CC[C@@H](C)N(CC(=O)OCCOC(=O)c1ccc(-c2c3nc(c(-c4ccc(S(=O)(=O)[O-])cc4)c4ccc([nH]4)c(-c4ccc(S(=O)(=O)[O-])cc4)c4nc(c(-c5ccc(S(=O)(=O)[O-])cc5)c5ccc2[nH]5)C=C4)C=C3)cc1)C(=O)NCc1cscc1C
REMARK SMILES IDX 10 1 9 2 7 3 8 4 6 5 5 6 3 7 4 8 2 9 1 10 75 11 76 12 77 13
REMARK SMILES IDX 78 15 79 16 80 17 83 18 81 19 82 20 84 21 11 22 12 23 13 24
REMARK SMILES IDX 14 25 15 26 16 27 74 28 17 29 73 30 18 31 19 32 20 33 67 34
REMARK SMILES IDX 21 35 72 36 66 37 68 38 22 39 71 40 65 41 64 42 23 44 53 45
REMARK SMILES IDX 34 46 52 47 35 48 38 49 51 50 69 51 36 52 37 53 50 55 70 56
REMARK SMILES IDX 39 57 24 58 25 59 33 60 26 61 32 62 27 63 28 64 29 65 30 66
REMARK SMILES IDX 31 67 54 68 55 69 63 70 56 71 62 72 57 73 58 74 59 75 60 76
REMARK SMILES IDX 61 77 40 78 41 79 49 80 42 81 48 82 43 83 44 84 45 85 46 86
REMARK SMILES IDX 47 87
REMARK H PARENT 77 14 68 43 38 54
REMARK Flexibility Score: inf
ROOT
ATOM      1  C   UNL A   1      37.741  22.724  26.097  1.00  0.00     0.274 C 
ENDROOT
BRANCH   1   2
ATOM      2  O   UNL A   1      37.328  22.404  24.749  1.00  0.00    -0.461 OA
BRANCH   2   3
ATOM      3  C   UNL A   1      36.176  21.679  24.671  1.00  0.00     0.325 C 
ATOM      4  O   UNL A   1      36.050  20.539  25.113  1.00  0.00    -0.250 OA
BRANCH   3   5
ATOM      5  C   UNL A   1      34.977  22.467  24.138  1.00  0.00     0.244 C 
BRANCH   5   6
ATOM      6  N   UNL A   1      33.807  22.610  25.005  1.00  0.00    -0.311 N 
BRANCH   6   7
ATOM      7  C   UNL A   1      32.606  21.918  24.458  1.00  0.00     0.084 C 
ATOM      8  C   UNL A   1      32.738  20.392  24.427  1.00  0.00     0.031 C 
BRANCH   7   9
ATOM      9  C   UNL A   1      32.183  22.553  23.115  1.00  0.00     0.021 C 
ATOM     10  C   UNL A   1      30.954  23.441  23.203  1.00  0.00     0.006 C 
ENDBRANCH   7   9
ENDBRANCH   6   7
BRANCH   6  11
ATOM     11  C   UNL A   1      33.768  23.017  26.310  1.00  0.00     0.318 C 
ATOM     12  O   UNL A   1      34.436  22.445  27.181  1.00  0.00    -0.249 OA
ATOM     13  N   UNL A   1      33.041  24.027  26.795  1.00  0.00    -0.334 N 
ATOM     14  H   UNL A   1      33.273  24.183  27.739  1.00  0.00     0.165 HD
BRANCH  13  15
ATOM     15  C   UNL A   1      32.023  24.961  26.381  1.00  0.00     0.154 C 
BRANCH  15  16
ATOM     16  C   UNL A   1      32.603  26.242  25.841  1.00  0.00    -0.015 A 
ATOM     17  C   UNL A   1      33.373  26.249  24.686  1.00  0.00     0.070 A 
ATOM     18  C   UNL A   1      32.381  27.599  26.310  1.00  0.00    -0.035 A 
ATOM     19  S   UNL A   1      33.781  27.812  24.147  1.00  0.00    -0.152 S 
ATOM     20  C   UNL A   1      32.954  28.523  25.454  1.00  0.00     0.068 A 
ATOM     21  C   UNL A   1      31.603  28.000  27.520  1.00  0.00     0.045 C 
ENDBRANCH  15  16
ENDBRANCH  13  15
ENDBRANCH   6  11
ENDBRANCH   5   6
ENDBRANCH   3   5
ENDBRANCH   2   3
ENDBRANCH   1   2
BRANCH   1  22
ATOM     22  C   UNL A   1      39.262  22.848  26.231  1.00  0.00     0.275 C 
BRANCH  22  23
ATOM     23  O   UNL A   1      39.686  24.220  26.142  1.00  0.00    -0.458 OA
BRANCH  23  24
ATOM     24  C   UNL A   1      40.842  24.466  26.802  1.00  0.00     0.338 C 
ATOM     25  O   UNL A   1      41.908  23.911  26.596  1.00  0.00    -0.246 OA
BRANCH  24  26
ATOM     26  C   UNL A   1      40.723  25.515  27.831  1.00  0.00     0.060 A 
ATOM     27  C   UNL A   1      39.626  25.612  28.692  1.00  0.00     0.016 A 
ATOM     28  C   UNL A   1      41.700  26.516  27.824  1.00  0.00     0.016 A 
ATOM     29  C   UNL A   1      39.496  26.730  29.523  1.00  0.00     0.010 A 
ATOM     30  C   UNL A   1      41.604  27.596  28.699  1.00  0.00     0.010 A 
ATOM     31  C   UNL A   1      40.503  27.711  29.557  1.00  0.00    -0.014 A 
BRANCH  31  32
ATOM     32  C   UNL A   1      40.537  28.730  30.633  1.00  0.00     0.031 A 
ATOM     33  C   UNL A   1      41.413  28.594  31.844  1.00  0.00     0.074 A 
ATOM     34  C   UNL A   1      39.648  29.737  30.542  1.00  0.00     0.049 A 
ATOM     35  N   UNL A   1      41.456  29.355  32.908  1.00  0.00    -0.248 NA
ATOM     36  C   UNL A   1      42.352  27.463  31.872  1.00  0.00     0.031 C 
ATOM     37  C   UNL A   1      38.714  29.934  29.430  1.00  0.00     0.029 A 
ATOM     38  N   UNL A   1      39.360  30.761  31.405  1.00  0.00    -0.354 N 
ATOM     39  C   UNL A   1      42.416  28.794  33.743  1.00  0.00     0.074 A 
ATOM     40  C   UNL A   1      42.925  27.619  33.062  1.00  0.00     0.031 C 
ATOM     41  C   UNL A   1      37.952  31.006  29.680  1.00  0.00     0.029 A 
ATOM     42  C   UNL A   1      38.314  31.546  30.984  1.00  0.00     0.049 A 
ATOM     43  H   UNL A   1      39.852  30.918  32.242  1.00  0.00     0.167 HD
ATOM     44  C   UNL A   1      42.826  29.221  34.962  1.00  0.00     0.031 A 
ATOM     45  C   UNL A   1      37.688  32.571  31.586  1.00  0.00     0.031 A 
ATOM     46  C   UNL A   1      42.302  30.386  35.632  1.00  0.00     0.049 A 
ATOM     47  C   UNL A   1      38.158  33.023  32.930  1.00  0.00     0.074 A 
ATOM     48  C   UNL A   1      42.697  30.937  36.841  1.00  0.00     0.029 A 
ATOM     49  N   UNL A   1      41.260  31.173  35.161  1.00  0.00    -0.354 N 
ATOM     50  N   UNL A   1      39.106  32.511  33.677  1.00  0.00    -0.248 NA
ATOM     51  C   UNL A   1      37.486  34.192  33.505  1.00  0.00     0.031 C 
ATOM     52  C   UNL A   1      41.870  32.033  37.118  1.00  0.00     0.029 A 
ATOM     53  C   UNL A   1      40.985  32.188  36.064  1.00  0.00     0.049 A 
ATOM     54  H   UNL A   1      40.787  31.031  34.311  1.00  0.00     0.167 HD
ATOM     55  C   UNL A   1      39.154  33.304  34.814  1.00  0.00     0.074 A 
ATOM     56  C   UNL A   1      38.147  34.335  34.648  1.00  0.00     0.031 C 
ATOM     57  C   UNL A   1      39.962  33.190  35.895  1.00  0.00     0.031 A 
BRANCH  44  58
ATOM     58  C   UNL A   1      43.887  28.422  35.673  1.00  0.00    -0.014 A 
ATOM     59  C   UNL A   1      45.252  28.708  35.496  1.00  0.00     0.010 A 
ATOM     60  C   UNL A   1      43.512  27.431  36.600  1.00  0.00     0.010 A 
ATOM     61  C   UNL A   1      46.224  28.003  36.216  1.00  0.00     0.020 A 
ATOM     62  C   UNL A   1      44.478  26.735  37.333  1.00  0.00     0.020 A 
ATOM     63  C   UNL A   1      45.830  27.018  37.127  1.00  0.00     0.054 A 
BRANCH  63  64
ATOM     64  S   UNL A   1      47.105  26.147  38.083  1.00  0.00     0.124 S 
ATOM     65  O   UNL A   1      46.503  24.826  38.249  1.00  0.00    -0.237 OA
ATOM     66  O   UNL A   1      48.268  26.200  37.201  1.00  0.00    -0.237 OA
ATOM     67  O   UNL A   1      47.220  26.938  39.306  1.00  0.00    -0.744 OA
ENDBRANCH  63  64
ENDBRANCH  44  58
BRANCH  45  68
ATOM     68  C   UNL A   1      36.553  33.218  30.886  1.00  0.00    -0.014 A 
ATOM     69  C   UNL A   1      35.282  33.252  31.482  1.00  0.00     0.010 A 
ATOM     70  C   UNL A   1      36.774  33.920  29.686  1.00  0.00     0.010 A 
ATOM     71  C   UNL A   1      34.253  33.996  30.901  1.00  0.00     0.020 A 
ATOM     72  C   UNL A   1      35.752  34.678  29.113  1.00  0.00     0.020 A 
ATOM     73  C   UNL A   1      34.497  34.713  29.725  1.00  0.00     0.054 A 
BRANCH  73  74
ATOM     74  S   UNL A   1      33.192  35.783  29.059  1.00  0.00     0.124 S 
ATOM     75  O   UNL A   1      33.961  36.748  28.279  1.00  0.00    -0.237 OA
ATOM     76  O   UNL A   1      32.376  34.850  28.284  1.00  0.00    -0.237 OA
ATOM     77  O   UNL A   1      32.545  36.313  30.256  1.00  0.00    -0.744 OA
ENDBRANCH  73  74
ENDBRANCH  45  68
BRANCH  57  78
ATOM     78  C   UNL A   1      39.784  34.217  36.974  1.00  0.00    -0.014 A 
ATOM     79  C   UNL A   1      39.107  33.899  38.165  1.00  0.00     0.010 A 
ATOM     80  C   UNL A   1      40.292  35.515  36.792  1.00  0.00     0.010 A 
ATOM     81  C   UNL A   1      38.904  34.876  39.141  1.00  0.00     0.020 A 
ATOM     82  C   UNL A   1      40.105  36.490  37.774  1.00  0.00     0.020 A 
ATOM     83  C   UNL A   1      39.395  36.170  38.933  1.00  0.00     0.054 A 
BRANCH  83  84
ATOM     84  S   UNL A   1      39.124  37.428  40.212  1.00  0.00     0.124 S 
ATOM     85  O   UNL A   1      38.477  36.653  41.266  1.00  0.00    -0.237 OA
ATOM     86  O   UNL A   1      40.479  37.887  40.510  1.00  0.00    -0.237 OA
ATOM     87  O   UNL A   1      38.272  38.413  39.548  1.00  0.00    -0.744 OA
ENDBRANCH  83  84
ENDBRANCH  57  78
ENDBRANCH  31  32
ENDBRANCH  24  26
ENDBRANCH  23  24
ENDBRANCH  22  23
ENDBRANCH   1  22
TORSDOF 20
ENDMDL
