MODEL 1
REMARK VINA RESULT:     -10.8      0.000      0.000
REMARK SMILES COc1cc2c(cc1OC)[C@@H](CC(=O)OCCOC(=O)c1ccc(-c3c4nc(c(-c5ccc(S(=O)(=O)[O-])cc5)c5ccc([nH]5)c(-c5ccc(S(=O)(=O)[O-])cc5)c5nc(c(-c6ccc(S(=O)(=O)[O-])cc6)c6ccc3[nH]6)C=C5)C=C4)cc1)N(C(=O)Nc1ccc(Cl)cc1)CC2
REMARK SMILES IDX 16 1 15 2 13 3 14 4 12 5 11 6 3 7 4 8 8 9 5 10 7 11 6 12
REMARK SMILES IDX 93 13 92 14 81 15 2 16 1 17 9 18 10 19 82 20 83 21 84 22
REMARK SMILES IDX 85 24 86 25 91 26 87 27 90 28 88 29 89 30 17 31 18 32 19 33
REMARK SMILES IDX 20 34 21 35 22 36 80 37 23 38 79 39 24 40 25 41 26 42 73 43
REMARK SMILES IDX 27 44 78 45 72 46 74 47 28 48 77 49 71 50 70 51 29 53 59 54
REMARK SMILES IDX 40 55 58 56 41 57 44 58 57 59 75 60 42 61 43 62 56 64 76 65
REMARK SMILES IDX 45 66 30 67 31 68 39 69 32 70 38 71 33 72 34 73 35 74 36 75
REMARK SMILES IDX 37 76 60 77 61 78 69 79 62 80 68 81 63 82 64 83 65 84 66 85
REMARK SMILES IDX 67 86 46 87 47 88 55 89 48 90 54 91 49 92 50 93 51 94 52 95
REMARK SMILES IDX 53 96
REMARK H PARENT 84 23 74 52 44 63
REMARK Flexibility Score: inf
ROOT
ATOM      1  C   UNL A   1      31.850  30.171  26.071  1.00  0.00     0.274 C 
ENDROOT
BRANCH   1   2
ATOM      2  O   UNL A   1      32.953  29.440  25.503  1.00  0.00    -0.462 OA
BRANCH   2   3
ATOM      3  C   UNL A   1      33.104  28.156  25.905  1.00  0.00     0.308 C 
ATOM      4  O   UNL A   1      32.559  27.676  26.895  1.00  0.00    -0.252 OA
BRANCH   3   5
ATOM      5  C   UNL A   1      34.010  27.314  25.029  1.00  0.00     0.152 C 
BRANCH   5   6
ATOM      6  C   UNL A   1      33.409  26.157  24.195  1.00  0.00     0.128 C 
ATOM      7  C   UNL A   1      35.455  22.292  24.661  1.00  0.00     0.161 A 
ATOM      8  C   UNL A   1      34.421  22.467  23.747  1.00  0.00     0.054 A 
ATOM      9  C   UNL A   1      35.839  23.352  25.492  1.00  0.00     0.161 A 
ATOM     10  C   UNL A   1      33.774  23.703  23.639  1.00  0.00    -0.037 A 
ATOM     11  C   UNL A   1      35.187  24.595  25.366  1.00  0.00     0.056 A 
ATOM     12  C   UNL A   1      34.156  24.806  24.429  1.00  0.00    -0.018 A 
ATOM     13  C   UNL A   1      32.728  23.928  22.594  1.00  0.00     0.057 C 
ATOM     14  C   UNL A   1      33.132  25.200  21.863  1.00  0.00     0.127 C 
ATOM     15  N   UNL A   1      33.181  26.397  22.715  1.00  0.00    -0.317 N 
BRANCH   7  16
ATOM     16  O   UNL A   1      36.106  21.088  24.570  1.00  0.00    -0.493 OA
ATOM     17  C   UNL A   1      35.309  19.976  24.966  1.00  0.00     0.278 C 
ENDBRANCH   7  16
BRANCH   9  18
ATOM     18  O   UNL A   1      36.894  23.131  26.338  1.00  0.00    -0.493 OA
ATOM     19  C   UNL A   1      38.084  23.878  26.106  1.00  0.00     0.278 C 
ENDBRANCH   9  18
BRANCH  15  20
ATOM     20  C   UNL A   1      33.209  27.669  22.200  1.00  0.00     0.322 C 
ATOM     21  O   UNL A   1      34.085  28.057  21.420  1.00  0.00    -0.248 OA
ATOM     22  N   UNL A   1      32.319  28.638  22.551  1.00  0.00    -0.308 N 
ATOM     23  H   UNL A   1      32.701  29.543  22.634  1.00  0.00     0.171 HD
BRANCH  22  24
ATOM     24  C   UNL A   1      30.953  28.553  22.812  1.00  0.00     0.042 A 
ATOM     25  C   UNL A   1      30.170  29.652  22.452  1.00  0.00     0.028 A 
ATOM     26  C   UNL A   1      30.378  27.444  23.436  1.00  0.00     0.028 A 
ATOM     27  C   UNL A   1      28.789  29.601  22.610  1.00  0.00     0.022 A 
ATOM     28  C   UNL A   1      28.989  27.392  23.589  1.00  0.00     0.022 A 
ATOM     29  C   UNL A   1      28.201  28.462  23.158  1.00  0.00     0.041 A 
ATOM     30  Cl  UNL A   1      26.488  28.376  23.285  1.00  0.00    -0.084 Cl
ENDBRANCH  22  24
ENDBRANCH  15  20
ENDBRANCH   5   6
ENDBRANCH   3   5
ENDBRANCH   2   3
ENDBRANCH   1   2
BRANCH   1  31
ATOM     31  C   UNL A   1      32.357  31.310  26.953  1.00  0.00     0.275 C 
BRANCH  31  32
ATOM     32  O   UNL A   1      33.611  30.964  27.565  1.00  0.00    -0.458 OA
BRANCH  32  33
ATOM     33  C   UNL A   1      34.331  32.019  28.006  1.00  0.00     0.338 C 
ATOM     34  O   UNL A   1      33.957  33.182  28.111  1.00  0.00    -0.246 OA
BRANCH  33  35
ATOM     35  C   UNL A   1      35.636  31.564  28.497  1.00  0.00     0.060 A 
ATOM     36  C   UNL A   1      35.706  30.298  29.088  1.00  0.00     0.016 A 
ATOM     37  C   UNL A   1      36.752  32.403  28.464  1.00  0.00     0.016 A 
ATOM     38  C   UNL A   1      36.887  29.878  29.687  1.00  0.00     0.010 A 
ATOM     39  C   UNL A   1      37.936  31.981  29.072  1.00  0.00     0.010 A 
ATOM     40  C   UNL A   1      37.998  30.731  29.713  1.00  0.00    -0.014 A 
BRANCH  40  41
ATOM     41  C   UNL A   1      39.176  30.363  30.528  1.00  0.00     0.031 A 
ATOM     42  C   UNL A   1      40.113  29.303  30.019  1.00  0.00     0.074 A 
ATOM     43  C   UNL A   1      39.424  30.998  31.687  1.00  0.00     0.049 A 
ATOM     44  N   UNL A   1      41.179  28.801  30.585  1.00  0.00    -0.248 NA
ATOM     45  C   UNL A   1      39.804  28.731  28.697  1.00  0.00     0.031 C 
ATOM     46  C   UNL A   1      38.610  32.074  32.253  1.00  0.00     0.029 A 
ATOM     47  N   UNL A   1      40.437  30.826  32.595  1.00  0.00    -0.354 N 
ATOM     48  C   UNL A   1      41.659  27.842  29.700  1.00  0.00     0.074 A 
ATOM     49  C   UNL A   1      40.757  27.819  28.569  1.00  0.00     0.031 C 
ATOM     50  C   UNL A   1      39.159  32.469  33.414  1.00  0.00     0.029 A 
ATOM     51  C   UNL A   1      40.339  31.652  33.688  1.00  0.00     0.049 A 
ATOM     52  H   UNL A   1      41.165  30.175  32.474  1.00  0.00     0.167 HD
ATOM     53  C   UNL A   1      42.753  27.053  29.820  1.00  0.00     0.031 A 
ATOM     54  C   UNL A   1      41.106  31.726  34.793  1.00  0.00     0.031 A 
ATOM     55  C   UNL A   1      43.642  27.076  30.951  1.00  0.00     0.049 A 
ATOM     56  C   UNL A   1      42.296  30.813  34.919  1.00  0.00     0.074 A 
ATOM     57  C   UNL A   1      44.772  26.311  31.176  1.00  0.00     0.029 A 
ATOM     58  N   UNL A   1      43.501  27.916  32.046  1.00  0.00    -0.354 N 
ATOM     59  N   UNL A   1      42.730  29.901  34.081  1.00  0.00    -0.248 NA
ATOM     60  C   UNL A   1      43.106  30.949  36.136  1.00  0.00     0.031 C 
ATOM     61  C   UNL A   1      45.296  26.664  32.426  1.00  0.00     0.029 A 
ATOM     62  C   UNL A   1      44.519  27.684  32.954  1.00  0.00     0.049 A 
ATOM     63  H   UNL A   1      42.782  28.579  32.160  1.00  0.00     0.167 HD
ATOM     64  C   UNL A   1      43.879  29.374  34.657  1.00  0.00     0.074 A 
ATOM     65  C   UNL A   1      44.079  30.076  35.909  1.00  0.00     0.031 C 
ATOM     66  C   UNL A   1      44.699  28.397  34.194  1.00  0.00     0.031 A 
BRANCH  53  67
ATOM     67  C   UNL A   1      43.018  26.070  28.711  1.00  0.00    -0.014 A 
ATOM     68  C   UNL A   1      42.593  24.732  28.806  1.00  0.00     0.010 A 
ATOM     69  C   UNL A   1      43.696  26.494  27.555  1.00  0.00     0.010 A 
ATOM     70  C   UNL A   1      42.879  23.826  27.780  1.00  0.00     0.020 A 
ATOM     71  C   UNL A   1      43.961  25.596  26.516  1.00  0.00     0.020 A 
ATOM     72  C   UNL A   1      43.570  24.263  26.645  1.00  0.00     0.054 A 
BRANCH  72  73
ATOM     73  S   UNL A   1      43.926  23.070  25.326  1.00  0.00     0.124 S 
ATOM     74  O   UNL A   1      44.770  22.100  26.019  1.00  0.00    -0.237 OA
ATOM     75  O   UNL A   1      42.597  22.592  24.954  1.00  0.00    -0.237 OA
ATOM     76  O   UNL A   1      44.603  23.870  24.308  1.00  0.00    -0.744 OA
ENDBRANCH  72  73
ENDBRANCH  53  67
BRANCH  54  77
ATOM     77  C   UNL A   1      40.767  32.695  35.868  1.00  0.00    -0.014 A 
ATOM     78  C   UNL A   1      39.855  32.353  36.881  1.00  0.00     0.010 A 
ATOM     79  C   UNL A   1      41.364  33.969  35.885  1.00  0.00     0.010 A 
ATOM     80  C   UNL A   1      39.533  33.273  37.883  1.00  0.00     0.020 A 
ATOM     81  C   UNL A   1      41.064  34.882  36.900  1.00  0.00     0.020 A 
ATOM     82  C   UNL A   1      40.140  34.532  37.887  1.00  0.00     0.054 A 
BRANCH  82  83
ATOM     83  S   UNL A   1      39.748  35.692  39.225  1.00  0.00     0.124 S 
ATOM     84  O   UNL A   1      38.729  34.962  39.970  1.00  0.00    -0.237 OA
ATOM     85  O   UNL A   1      41.036  35.848  39.898  1.00  0.00    -0.237 OA
ATOM     86  O   UNL A   1      39.278  36.881  38.517  1.00  0.00    -0.744 OA
ENDBRANCH  82  83
ENDBRANCH  54  77
BRANCH  66  87
ATOM     87  C   UNL A   1      45.911  28.069  35.023  1.00  0.00    -0.014 A 
ATOM     88  C   UNL A   1      47.199  28.473  34.630  1.00  0.00     0.010 A 
ATOM     89  C   UNL A   1      45.750  27.362  36.229  1.00  0.00     0.010 A 
ATOM     90  C   UNL A   1      48.310  28.133  35.404  1.00  0.00     0.020 A 
ATOM     91  C   UNL A   1      46.856  27.042  37.018  1.00  0.00     0.020 A 
ATOM     92  C   UNL A   1      48.133  27.412  36.590  1.00  0.00     0.054 A 
BRANCH  92  93
ATOM     93  S   UNL A   1      49.587  26.992  37.590  1.00  0.00     0.124 S 
ATOM     94  O   UNL A   1      49.204  27.496  38.906  1.00  0.00    -0.237 OA
ATOM     95  O   UNL A   1      49.656  25.538  37.467  1.00  0.00    -0.237 OA
ATOM     96  O   UNL A   1      50.675  27.718  36.936  1.00  0.00    -0.744 OA
ENDBRANCH  92  93
ENDBRANCH  66  87
ENDBRANCH  40  41
ENDBRANCH  33  35
ENDBRANCH  32  33
ENDBRANCH  31  32
ENDBRANCH   1  31
TORSDOF 19
ENDMDL
MODEL 2
REMARK VINA RESULT:     -10.6      1.054      7.980
REMARK SMILES COc1cc2c(cc1OC)[C@@H](CC(=O)OCCOC(=O)c1ccc(-c3c4nc(c(-c5ccc(S(=O)(=O)[O-])cc5)c5ccc([nH]5)c(-c5ccc(S(=O)(=O)[O-])cc5)c5nc(c(-c6ccc(S(=O)(=O)[O-])cc6)c6ccc3[nH]6)C=C5)C=C4)cc1)N(C(=O)Nc1ccc(Cl)cc1)CC2
REMARK SMILES IDX 16 1 15 2 13 3 14 4 12 5 11 6 3 7 4 8 8 9 5 10 7 11 6 12
REMARK SMILES IDX 93 13 92 14 81 15 2 16 1 17 9 18 10 19 82 20 83 21 84 22
REMARK SMILES IDX 85 24 86 25 91 26 87 27 90 28 88 29 89 30 17 31 18 32 19 33
REMARK SMILES IDX 20 34 21 35 22 36 80 37 23 38 79 39 24 40 25 41 26 42 73 43
REMARK SMILES IDX 27 44 78 45 72 46 74 47 28 48 77 49 71 50 70 51 29 53 59 54
REMARK SMILES IDX 40 55 58 56 41 57 44 58 57 59 75 60 42 61 43 62 56 64 76 65
REMARK SMILES IDX 45 66 30 67 31 68 39 69 32 70 38 71 33 72 34 73 35 74 36 75
REMARK SMILES IDX 37 76 60 77 61 78 69 79 62 80 68 81 63 82 64 83 65 84 66 85
REMARK SMILES IDX 67 86 46 87 47 88 55 89 48 90 54 91 49 92 50 93 51 94 52 95
REMARK SMILES IDX 53 96
REMARK H PARENT 84 23 74 52 44 63
REMARK Flexibility Score: inf
ROOT
ATOM      1  C   UNL A   1      32.055  29.267  26.080  1.00  0.00     0.274 C 
ENDROOT
BRANCH   1   2
ATOM      2  O   UNL A   1      33.158  28.515  25.539  1.00  0.00    -0.462 OA
BRANCH   2   3
ATOM      3  C   UNL A   1      33.330  27.260  26.014  1.00  0.00     0.308 C 
ATOM      4  O   UNL A   1      33.007  26.900  27.142  1.00  0.00    -0.252 OA
BRANCH   3   5
ATOM      5  C   UNL A   1      33.960  26.287  25.036  1.00  0.00     0.152 C 
BRANCH   5   6
ATOM      6  C   UNL A   1      33.068  25.271  24.285  1.00  0.00     0.128 C 
ATOM      7  C   UNL A   1      34.284  21.068  24.731  1.00  0.00     0.161 A 
ATOM      8  C   UNL A   1      33.243  21.442  23.887  1.00  0.00     0.054 A 
ATOM      9  C   UNL A   1      34.944  22.035  25.499  1.00  0.00     0.161 A 
ATOM     10  C   UNL A   1      32.865  22.786  23.786  1.00  0.00    -0.037 A 
ATOM     11  C   UNL A   1      34.561  23.387  25.379  1.00  0.00     0.056 A 
ATOM     12  C   UNL A   1      33.529  23.795  24.510  1.00  0.00    -0.018 A 
ATOM     13  C   UNL A   1      31.814  23.210  22.809  1.00  0.00     0.057 C 
ATOM     14  C   UNL A   1      32.419  24.355  22.011  1.00  0.00     0.127 C 
ATOM     15  N   UNL A   1      32.784  25.528  22.818  1.00  0.00    -0.317 N 
BRANCH   7  16
ATOM     16  O   UNL A   1      34.657  19.751  24.635  1.00  0.00    -0.493 OA
ATOM     17  C   UNL A   1      33.558  18.849  24.551  1.00  0.00     0.278 C 
ENDBRANCH   7  16
BRANCH   9  18
ATOM     18  O   UNL A   1      35.990  21.610  26.275  1.00  0.00    -0.493 OA
ATOM     19  C   UNL A   1      37.303  21.794  25.758  1.00  0.00     0.278 C 
ENDBRANCH   9  18
BRANCH  15  20
ATOM     20  C   UNL A   1      33.040  26.756  22.261  1.00  0.00     0.322 C 
ATOM     21  O   UNL A   1      34.012  26.970  21.529  1.00  0.00    -0.248 OA
ATOM     22  N   UNL A   1      32.291  27.865  22.516  1.00  0.00    -0.308 N 
ATOM     23  H   UNL A   1      32.803  28.703  22.592  1.00  0.00     0.171 HD
BRANCH  22  24
ATOM     24  C   UNL A   1      30.916  28.000  22.687  1.00  0.00     0.042 A 
ATOM     25  C   UNL A   1      30.258  26.973  23.368  1.00  0.00     0.028 A 
ATOM     26  C   UNL A   1      30.201  29.086  22.179  1.00  0.00     0.028 A 
ATOM     27  C   UNL A   1      28.899  27.083  23.645  1.00  0.00     0.022 A 
ATOM     28  C   UNL A   1      28.836  29.198  22.462  1.00  0.00     0.022 A 
ATOM     29  C   UNL A   1      28.198  28.205  23.209  1.00  0.00     0.041 A 
ATOM     30  Cl  UNL A   1      26.534  28.370  23.614  1.00  0.00    -0.084 Cl
ENDBRANCH  22  24
ENDBRANCH  15  20
ENDBRANCH   5   6
ENDBRANCH   3   5
ENDBRANCH   2   3
ENDBRANCH   1   2
BRANCH   1  31
ATOM     31  C   UNL A   1      32.545  30.582  26.681  1.00  0.00     0.275 C 
BRANCH  31  32
ATOM     32  O   UNL A   1      33.934  30.496  27.041  1.00  0.00    -0.458 OA
BRANCH  32  33
ATOM     33  C   UNL A   1      34.450  31.629  27.565  1.00  0.00     0.338 C 
ATOM     34  O   UNL A   1      34.012  32.768  27.450  1.00  0.00    -0.246 OA
BRANCH  33  35
ATOM     35  C   UNL A   1      35.576  31.304  28.447  1.00  0.00     0.060 A 
ATOM     36  C   UNL A   1      36.707  32.125  28.392  1.00  0.00     0.016 A 
ATOM     37  C   UNL A   1      35.561  30.157  29.244  1.00  0.00     0.016 A 
ATOM     38  C   UNL A   1      37.848  31.782  29.107  1.00  0.00     0.010 A 
ATOM     39  C   UNL A   1      36.710  29.811  29.957  1.00  0.00     0.010 A 
ATOM     40  C   UNL A   1      37.868  30.605  29.866  1.00  0.00    -0.014 A 
BRANCH  40  41
ATOM     41  C   UNL A   1      39.143  30.142  30.452  1.00  0.00     0.031 A 
ATOM     42  C   UNL A   1      39.682  30.838  31.670  1.00  0.00     0.074 A 
ATOM     43  C   UNL A   1      39.789  29.087  29.925  1.00  0.00     0.049 A 
ATOM     44  N   UNL A   1      40.795  30.624  32.322  1.00  0.00    -0.248 NA
ATOM     45  C   UNL A   1      38.857  31.924  32.227  1.00  0.00     0.031 C 
ATOM     46  C   UNL A   1      39.335  28.306  28.774  1.00  0.00     0.029 A 
ATOM     47  N   UNL A   1      40.968  28.491  30.293  1.00  0.00    -0.354 N 
ATOM     48  C   UNL A   1      40.815  31.557  33.353  1.00  0.00     0.074 A 
ATOM     49  C   UNL A   1      39.613  32.352  33.228  1.00  0.00     0.031 C 
ATOM     50  C   UNL A   1      40.226  27.329  28.532  1.00  0.00     0.029 A 
ATOM     51  C   UNL A   1      41.326  27.440  29.486  1.00  0.00     0.049 A 
ATOM     52  H   UNL A   1      41.504  28.789  31.064  1.00  0.00     0.167 HD
ATOM     53  C   UNL A   1      41.751  31.734  34.315  1.00  0.00     0.031 A 
ATOM     54  C   UNL A   1      42.429  26.666  29.506  1.00  0.00     0.031 A 
ATOM     55  C   UNL A   1      42.948  30.944  34.429  1.00  0.00     0.049 A 
ATOM     56  C   UNL A   1      43.472  26.906  30.564  1.00  0.00     0.074 A 
ATOM     57  C   UNL A   1      43.965  31.048  35.360  1.00  0.00     0.029 A 
ATOM     58  N   UNL A   1      43.284  29.897  33.583  1.00  0.00    -0.354 N 
ATOM     59  N   UNL A   1      43.484  27.801  31.523  1.00  0.00    -0.248 NA
ATOM     60  C   UNL A   1      44.645  26.022  30.548  1.00  0.00     0.031 C 
ATOM     61  C   UNL A   1      44.935  30.085  35.056  1.00  0.00     0.029 A 
ATOM     62  C   UNL A   1      44.496  29.350  33.965  1.00  0.00     0.049 A 
ATOM     63  H   UNL A   1      42.740  29.589  32.822  1.00  0.00     0.167 HD
ATOM     64  C   UNL A   1      44.651  27.570  32.242  1.00  0.00     0.074 A 
ATOM     65  C   UNL A   1      45.313  26.444  31.613  1.00  0.00     0.031 C 
ATOM     66  C   UNL A   1      45.135  28.228  33.325  1.00  0.00     0.031 A 
BRANCH  53  67
ATOM     67  C   UNL A   1      41.529  32.856  35.293  1.00  0.00    -0.014 A 
ATOM     68  C   UNL A   1      42.044  34.143  35.056  1.00  0.00     0.010 A 
ATOM     69  C   UNL A   1      40.786  32.620  36.464  1.00  0.00     0.010 A 
ATOM     70  C   UNL A   1      41.856  35.164  35.994  1.00  0.00     0.020 A 
ATOM     71  C   UNL A   1      40.574  33.644  37.392  1.00  0.00     0.020 A 
ATOM     72  C   UNL A   1      41.129  34.904  37.160  1.00  0.00     0.054 A 
BRANCH  72  73
ATOM     73  S   UNL A   1      40.895  36.244  38.360  1.00  0.00     0.124 S 
ATOM     74  O   UNL A   1      42.104  37.041  38.159  1.00  0.00    -0.237 OA
ATOM     75  O   UNL A   1      39.652  36.866  37.913  1.00  0.00    -0.237 OA
ATOM     76  O   UNL A   1      40.814  35.550  39.644  1.00  0.00    -0.744 OA
ENDBRANCH  72  73
ENDBRANCH  53  67
BRANCH  54  77
ATOM     77  C   UNL A   1      42.604  25.597  28.486  1.00  0.00    -0.014 A 
ATOM     78  C   UNL A   1      43.269  25.861  27.277  1.00  0.00     0.010 A 
ATOM     79  C   UNL A   1      42.108  24.303  28.727  1.00  0.00     0.010 A 
ATOM     80  C   UNL A   1      43.420  24.855  26.318  1.00  0.00     0.020 A 
ATOM     81  C   UNL A   1      42.281  23.288  27.783  1.00  0.00     0.020 A 
ATOM     82  C   UNL A   1      42.926  23.574  26.578  1.00  0.00     0.054 A 
BRANCH  82  83
ATOM     83  S   UNL A   1      43.179  22.269  25.344  1.00  0.00     0.124 S 
ATOM     84  O   UNL A   1      41.937  21.510  25.445  1.00  0.00    -0.237 OA
ATOM     85  O   UNL A   1      43.358  23.029  24.109  1.00  0.00    -0.237 OA
ATOM     86  O   UNL A   1      44.377  21.579  25.819  1.00  0.00    -0.744 OA
ENDBRANCH  82  83
ENDBRANCH  54  77
BRANCH  66  87
ATOM     87  C   UNL A   1      46.414  27.712  33.925  1.00  0.00    -0.014 A 
ATOM     88  C   UNL A   1      46.409  26.713  34.914  1.00  0.00     0.010 A 
ATOM     89  C   UNL A   1      47.644  28.226  33.472  1.00  0.00     0.010 A 
ATOM     90  C   UNL A   1      47.610  26.270  35.474  1.00  0.00     0.020 A 
ATOM     91  C   UNL A   1      48.847  27.767  34.012  1.00  0.00     0.020 A 
ATOM     92  C   UNL A   1      48.822  26.806  35.025  1.00  0.00     0.054 A 
BRANCH  92  93
ATOM     93  S   UNL A   1      50.371  26.208  35.754  1.00  0.00     0.124 S 
ATOM     94  O   UNL A   1      50.927  27.431  36.327  1.00  0.00    -0.237 OA
ATOM     95  O   UNL A   1      49.912  25.212  36.719  1.00  0.00    -0.237 OA
ATOM     96  O   UNL A   1      51.103  25.666  34.611  1.00  0.00    -0.744 OA
ENDBRANCH  92  93
ENDBRANCH  66  87
ENDBRANCH  40  41
ENDBRANCH  33  35
ENDBRANCH  32  33
ENDBRANCH  31  32
ENDBRANCH   1  31
TORSDOF 19
ENDMDL
MODEL 3
REMARK VINA RESULT:     -10.6      5.390      6.810
REMARK SMILES COc1cc2c(cc1OC)[C@@H](CC(=O)OCCOC(=O)c1ccc(-c3c4nc(c(-c5ccc(S(=O)(=O)[O-])cc5)c5ccc([nH]5)c(-c5ccc(S(=O)(=O)[O-])cc5)c5nc(c(-c6ccc(S(=O)(=O)[O-])cc6)c6ccc3[nH]6)C=C5)C=C4)cc1)N(C(=O)Nc1ccc(Cl)cc1)CC2
REMARK SMILES IDX 16 1 15 2 13 3 14 4 12 5 11 6 3 7 4 8 8 9 5 10 7 11 6 12
REMARK SMILES IDX 93 13 92 14 81 15 2 16 1 17 9 18 10 19 82 20 83 21 84 22
REMARK SMILES IDX 85 24 86 25 91 26 87 27 90 28 88 29 89 30 17 31 18 32 19 33
REMARK SMILES IDX 20 34 21 35 22 36 80 37 23 38 79 39 24 40 25 41 26 42 73 43
REMARK SMILES IDX 27 44 78 45 72 46 74 47 28 48 77 49 71 50 70 51 29 53 59 54
REMARK SMILES IDX 40 55 58 56 41 57 44 58 57 59 75 60 42 61 43 62 56 64 76 65
REMARK SMILES IDX 45 66 30 67 31 68 39 69 32 70 38 71 33 72 34 73 35 74 36 75
REMARK SMILES IDX 37 76 60 77 61 78 69 79 62 80 68 81 63 82 64 83 65 84 66 85
REMARK SMILES IDX 67 86 46 87 47 88 55 89 48 90 54 91 49 92 50 93 51 94 52 95
REMARK SMILES IDX 53 96
REMARK H PARENT 84 23 74 52 44 63
REMARK Flexibility Score: inf
ROOT
ATOM      1  C   UNL A   1      34.836  29.150  27.011  1.00  0.00     0.274 C 
ENDROOT
BRANCH   1   2
ATOM      2  O   UNL A   1      33.538  29.099  26.389  1.00  0.00    -0.462 OA
BRANCH   2   3
ATOM      3  C   UNL A   1      32.863  27.929  26.482  1.00  0.00     0.308 C 
ATOM      4  O   UNL A   1      31.981  27.708  27.307  1.00  0.00    -0.252 OA
BRANCH   3   5
ATOM      5  C   UNL A   1      33.267  26.874  25.471  1.00  0.00     0.152 C 
BRANCH   5   6
ATOM      6  C   UNL A   1      32.177  26.127  24.668  1.00  0.00     0.128 C 
ATOM      7  C   UNL A   1      31.960  21.802  25.432  1.00  0.00     0.161 A 
ATOM      8  C   UNL A   1      31.175  22.413  24.458  1.00  0.00     0.054 A 
ATOM      9  C   UNL A   1      32.814  22.575  26.227  1.00  0.00     0.161 A 
ATOM     10  C   UNL A   1      31.251  23.795  24.256  1.00  0.00    -0.037 A 
ATOM     11  C   UNL A   1      32.889  23.965  26.006  1.00  0.00     0.056 A 
ATOM     12  C   UNL A   1      32.126  24.604  25.007  1.00  0.00    -0.018 A 
ATOM     13  C   UNL A   1      30.485  24.446  23.147  1.00  0.00     0.057 C 
ATOM     14  C   UNL A   1      31.494  25.283  22.375  1.00  0.00     0.127 C 
ATOM     15  N   UNL A   1      32.130  26.346  23.167  1.00  0.00    -0.317 N 
BRANCH   7  16
ATOM     16  O   UNL A   1      31.908  20.431  25.436  1.00  0.00    -0.493 OA
ATOM     17  C   UNL A   1      32.540  19.831  24.309  1.00  0.00     0.278 C 
ENDBRANCH   7  16
BRANCH   9  18
ATOM     18  O   UNL A   1      33.594  21.909  27.136  1.00  0.00    -0.493 OA
ATOM     19  C   UNL A   1      34.979  21.776  26.835  1.00  0.00     0.278 C 
ENDBRANCH   9  18
BRANCH  15  20
ATOM     20  C   UNL A   1      32.812  27.389  22.591  1.00  0.00     0.322 C 
ATOM     21  O   UNL A   1      33.812  27.227  21.885  1.00  0.00    -0.248 OA
ATOM     22  N   UNL A   1      32.493  28.697  22.798  1.00  0.00    -0.308 N 
ATOM     23  H   UNL A   1      33.264  29.306  22.871  1.00  0.00     0.171 HD
BRANCH  22  24
ATOM     24  C   UNL A   1      31.248  29.309  22.922  1.00  0.00     0.042 A 
ATOM     25  C   UNL A   1      30.948  29.889  24.157  1.00  0.00     0.028 A 
ATOM     26  C   UNL A   1      30.314  29.324  21.885  1.00  0.00     0.028 A 
ATOM     27  C   UNL A   1      29.757  30.587  24.325  1.00  0.00     0.022 A 
ATOM     28  C   UNL A   1      29.119  30.031  22.053  1.00  0.00     0.022 A 
ATOM     29  C   UNL A   1      28.856  30.674  23.265  1.00  0.00     0.041 A 
ATOM     30  Cl  UNL A   1      27.417  31.597  23.455  1.00  0.00    -0.084 Cl
ENDBRANCH  22  24
ENDBRANCH  15  20
ENDBRANCH   5   6
ENDBRANCH   3   5
ENDBRANCH   2   3
ENDBRANCH   1   2
BRANCH   1  31
ATOM     31  C   UNL A   1      34.901  30.290  28.024  1.00  0.00     0.275 C 
BRANCH  31  32
ATOM     32  O   UNL A   1      35.747  29.943  29.134  1.00  0.00    -0.458 OA
BRANCH  32  33
ATOM     33  C   UNL A   1      36.755  30.812  29.364  1.00  0.00     0.338 C 
ATOM     34  O   UNL A   1      36.673  31.934  29.853  1.00  0.00    -0.246 OA
BRANCH  33  35
ATOM     35  C   UNL A   1      38.043  30.172  29.073  1.00  0.00     0.060 A 
ATOM     36  C   UNL A   1      38.965  30.054  30.118  1.00  0.00     0.016 A 
ATOM     37  C   UNL A   1      38.378  29.784  27.774  1.00  0.00     0.016 A 
ATOM     38  C   UNL A   1      40.245  29.578  29.863  1.00  0.00     0.010 A 
ATOM     39  C   UNL A   1      39.667  29.312  27.518  1.00  0.00     0.010 A 
ATOM     40  C   UNL A   1      40.614  29.237  28.555  1.00  0.00    -0.014 A 
BRANCH  40  41
ATOM     41  C   UNL A   1      42.030  28.933  28.257  1.00  0.00     0.031 A 
ATOM     42  C   UNL A   1      42.412  27.526  27.890  1.00  0.00     0.074 A 
ATOM     43  C   UNL A   1      42.953  29.910  28.277  1.00  0.00     0.049 A 
ATOM     44  N   UNL A   1      43.593  27.031  27.630  1.00  0.00    -0.248 NA
ATOM     45  C   UNL A   1      41.315  26.546  27.809  1.00  0.00     0.031 C 
ATOM     46  C   UNL A   1      42.688  31.318  28.572  1.00  0.00     0.029 A 
ATOM     47  N   UNL A   1      44.302  29.862  28.040  1.00  0.00    -0.354 N 
ATOM     48  C   UNL A   1      43.387  25.680  27.372  1.00  0.00     0.074 A 
ATOM     49  C   UNL A   1      41.971  25.430  27.526  1.00  0.00     0.031 C 
ATOM     50  C   UNL A   1      43.842  32.003  28.497  1.00  0.00     0.029 A 
ATOM     51  C   UNL A   1      44.927  31.077  28.183  1.00  0.00     0.049 A 
ATOM     52  H   UNL A   1      44.777  29.037  27.791  1.00  0.00     0.167 HD
ATOM     53  C   UNL A   1      44.297  24.734  27.037  1.00  0.00     0.031 A 
ATOM     54  C   UNL A   1      46.232  31.400  28.089  1.00  0.00     0.031 A 
ATOM     55  C   UNL A   1      45.706  24.989  26.891  1.00  0.00     0.049 A 
ATOM     56  C   UNL A   1      47.228  30.324  27.750  1.00  0.00     0.074 A 
ATOM     57  C   UNL A   1      46.714  24.101  26.565  1.00  0.00     0.029 A 
ATOM     58  N   UNL A   1      46.303  26.230  27.059  1.00  0.00    -0.354 N 
ATOM     59  N   UNL A   1      47.021  29.049  27.523  1.00  0.00    -0.248 NA
ATOM     60  C   UNL A   1      48.634  30.736  27.644  1.00  0.00     0.031 C 
ATOM     61  C   UNL A   1      47.928  24.798  26.569  1.00  0.00     0.029 A 
ATOM     62  C   UNL A   1      47.667  26.131  26.850  1.00  0.00     0.049 A 
ATOM     63  H   UNL A   1      45.827  27.059  27.292  1.00  0.00     0.167 HD
ATOM     64  C   UNL A   1      48.266  28.511  27.219  1.00  0.00     0.074 A 
ATOM     65  C   UNL A   1      49.218  29.602  27.281  1.00  0.00     0.031 C 
ATOM     66  C   UNL A   1      48.596  27.231  26.915  1.00  0.00     0.031 A 
BRANCH  53  67
ATOM     67  C   UNL A   1      43.792  23.330  26.846  1.00  0.00    -0.014 A 
ATOM     68  C   UNL A   1      43.789  22.722  25.577  1.00  0.00     0.010 A 
ATOM     69  C   UNL A   1      43.321  22.604  27.955  1.00  0.00     0.010 A 
ATOM     70  C   UNL A   1      43.283  21.428  25.415  1.00  0.00     0.020 A 
ATOM     71  C   UNL A   1      42.838  21.301  27.800  1.00  0.00     0.020 A 
ATOM     72  C   UNL A   1      42.803  20.730  26.527  1.00  0.00     0.054 A 
BRANCH  72  73
ATOM     73  S   UNL A   1      42.156  19.051  26.292  1.00  0.00     0.124 S 
ATOM     74  O   UNL A   1      43.091  18.504  25.312  1.00  0.00    -0.237 OA
ATOM     75  O   UNL A   1      42.245  18.479  27.633  1.00  0.00    -0.237 OA
ATOM     76  O   UNL A   1      40.797  19.270  25.801  1.00  0.00    -0.744 OA
ENDBRANCH  72  73
ENDBRANCH  53  67
BRANCH  54  77
ATOM     77  C   UNL A   1      46.668  32.802  28.325  1.00  0.00    -0.014 A 
ATOM     78  C   UNL A   1      47.029  33.234  29.613  1.00  0.00     0.010 A 
ATOM     79  C   UNL A   1      46.731  33.712  27.255  1.00  0.00     0.010 A 
ATOM     80  C   UNL A   1      47.428  34.556  29.830  1.00  0.00     0.020 A 
ATOM     81  C   UNL A   1      47.155  35.027  27.463  1.00  0.00     0.020 A 
ATOM     82  C   UNL A   1      47.490  35.444  28.753  1.00  0.00     0.054 A 
BRANCH  82  83
ATOM     83  S   UNL A   1      48.060  37.141  29.046  1.00  0.00     0.124 S 
ATOM     84  O   UNL A   1      46.899  37.926  28.642  1.00  0.00    -0.237 OA
ATOM     85  O   UNL A   1      48.354  37.134  30.478  1.00  0.00    -0.237 OA
ATOM     86  O   UNL A   1      49.232  37.260  28.180  1.00  0.00    -0.744 OA
ENDBRANCH  82  83
ENDBRANCH  54  77
BRANCH  66  87
ATOM     87  C   UNL A   1      50.036  26.955  26.579  1.00  0.00    -0.014 A 
ATOM     88  C   UNL A   1      50.966  26.603  27.573  1.00  0.00     0.010 A 
ATOM     89  C   UNL A   1      50.458  27.031  25.238  1.00  0.00     0.010 A 
ATOM     90  C   UNL A   1      52.303  26.377  27.238  1.00  0.00     0.020 A 
ATOM     91  C   UNL A   1      51.788  26.781  24.897  1.00  0.00     0.020 A 
ATOM     92  C   UNL A   1      52.708  26.475  25.902  1.00  0.00     0.054 A 
BRANCH  92  93
ATOM     93  S   UNL A   1      54.446  26.165  25.486  1.00  0.00     0.124 S 
ATOM     94  O   UNL A   1      54.828  25.185  26.498  1.00  0.00    -0.237 OA
ATOM     95  O   UNL A   1      54.366  25.660  24.118  1.00  0.00    -0.237 OA
ATOM     96  O   UNL A   1      55.072  27.479  25.621  1.00  0.00    -0.744 OA
ENDBRANCH  92  93
ENDBRANCH  66  87
ENDBRANCH  40  41
ENDBRANCH  33  35
ENDBRANCH  32  33
ENDBRANCH  31  32
ENDBRANCH   1  31
TORSDOF 19
ENDMDL
