MODEL 1
REMARK VINA RESULT:      -9.9      0.000      0.000
REMARK SMILES CCCCCCNC(=O)Oc1cccc(-c2ccc(CC(=O)OCCOC(=O)c3ccc(-c4c5nc(c(-c6ccc(S(=O)(=O)[O-])cc6)c6ccc([nH]6)c(-c6ccc(S(=O)(=O)[O-])cc6)c6nc(c(-c7ccc(S(=O)(=O)[O-])cc7)c7ccc4[nH]7)C=C6)C=C5)cc3)cc2F)c1
REMARK SMILES IDX 20 1 19 2 16 3 17 4 90 5 18 6 89 7 91 8 15 9 11 10 12 11
REMARK SMILES IDX 92 12 13 13 14 14 10 15 8 16 7 17 9 19 6 20 5 21 4 22 3 23
REMARK SMILES IDX 2 24 1 25 21 26 22 27 23 28 24 29 25 30 26 31 27 32 28 33
REMARK SMILES IDX 29 34 30 35 88 36 31 37 87 38 32 39 33 40 34 41 81 42 35 43
REMARK SMILES IDX 86 44 80 45 82 46 36 47 85 48 79 49 78 50 37 52 67 53 48 54
REMARK SMILES IDX 66 55 49 56 52 57 65 58 83 59 50 60 51 61 64 63 84 64 53 65
REMARK SMILES IDX 38 66 39 67 47 68 40 69 46 70 41 71 42 72 43 73 44 74 45 75
REMARK SMILES IDX 68 76 69 77 77 78 70 79 76 80 71 81 72 82 73 83 74 84 75 85
REMARK SMILES IDX 54 86 55 87 63 88 56 89 62 90 57 91 58 92 59 93 60 94 61 95
REMARK H PARENT 7 18 82 51 52 62
REMARK Flexibility Score: inf
ROOT
ATOM      1  C   UNL A   1      41.778  19.578  26.814  1.00  0.00     0.158 C 
ENDROOT
BRANCH   1   2
ATOM      2  C   UNL A   1      40.475  20.208  26.386  1.00  0.00    -0.034 A 
ATOM      3  C   UNL A   1      38.117  21.474  25.450  1.00  0.00     0.018 A 
ATOM      4  C   UNL A   1      38.354  20.118  25.188  1.00  0.00     0.012 A 
ATOM      5  C   UNL A   1      39.070  22.170  26.206  1.00  0.00     0.131 A 
ATOM      6  C   UNL A   1      39.521  19.495  25.646  1.00  0.00     0.005 A 
ATOM      7  C   UNL A   1      40.228  21.554  26.672  1.00  0.00     0.044 A 
ATOM      8  F   UNL A   1      38.890  23.469  26.487  1.00  0.00    -0.206 F 
BRANCH   3   9
ATOM      9  C   UNL A   1      36.937  22.157  24.915  1.00  0.00    -0.012 A 
ATOM     10  C   UNL A   1      34.708  23.056  25.242  1.00  0.00     0.133 A 
ATOM     11  C   UNL A   1      34.617  23.388  23.893  1.00  0.00     0.047 A 
ATOM     12  C   UNL A   1      35.846  22.432  25.753  1.00  0.00     0.056 A 
ATOM     13  C   UNL A   1      35.700  23.130  23.054  1.00  0.00     0.004 A 
ATOM     14  C   UNL A   1      36.854  22.524  23.563  1.00  0.00     0.009 A 
BRANCH  10  15
ATOM     15  O   UNL A   1      33.572  23.253  26.041  1.00  0.00    -0.410 OA
BRANCH  15  16
ATOM     16  C   UNL A   1      33.216  22.218  26.891  1.00  0.00     0.412 C 
ATOM     17  N   UNL A   1      32.251  21.399  26.370  1.00  0.00    -0.321 N 
ATOM     18  H   UNL A   1      31.944  20.661  26.944  1.00  0.00     0.167 HD
ATOM     19  O   UNL A   1      33.675  22.005  28.007  1.00  0.00    -0.224 OA
BRANCH  17  20
ATOM     20  C   UNL A   1      31.634  21.503  25.065  1.00  0.00     0.119 C 
BRANCH  20  21
ATOM     21  C   UNL A   1      32.309  20.593  24.038  1.00  0.00     0.021 C 
BRANCH  21  22
ATOM     22  C   UNL A   1      32.793  19.246  24.586  1.00  0.00     0.002 C 
BRANCH  22  23
ATOM     23  C   UNL A   1      34.313  19.051  24.619  1.00  0.00    -0.000 C 
BRANCH  23  24
ATOM     24  C   UNL A   1      34.805  17.646  24.261  1.00  0.00    -0.003 C 
ATOM     25  C   UNL A   1      34.171  16.552  25.106  1.00  0.00     0.004 C 
ENDBRANCH  23  24
ENDBRANCH  22  23
ENDBRANCH  21  22
ENDBRANCH  20  21
ENDBRANCH  17  20
ENDBRANCH  15  16
ENDBRANCH  10  15
ENDBRANCH   3   9
ENDBRANCH   1   2
BRANCH   1  26
ATOM     26  C   UNL A   1      42.491  18.702  25.813  1.00  0.00     0.310 C 
ATOM     27  O   UNL A   1      42.482  17.479  25.908  1.00  0.00    -0.252 OA
BRANCH  26  28
ATOM     28  O   UNL A   1      43.073  19.392  24.797  1.00  0.00    -0.462 OA
BRANCH  28  29
ATOM     29  C   UNL A   1      44.512  19.434  24.819  1.00  0.00     0.274 C 
BRANCH  29  30
ATOM     30  C   UNL A   1      45.024  20.866  24.681  1.00  0.00     0.275 C 
BRANCH  30  31
ATOM     31  O   UNL A   1      44.449  21.705  25.697  1.00  0.00    -0.458 OA
BRANCH  31  32
ATOM     32  C   UNL A   1      43.699  22.734  25.247  1.00  0.00     0.338 C 
ATOM     33  O   UNL A   1      43.270  22.909  24.120  1.00  0.00    -0.246 OA
BRANCH  32  34
ATOM     34  C   UNL A   1      43.434  23.667  26.351  1.00  0.00     0.060 A 
ATOM     35  C   UNL A   1      43.893  24.984  26.270  1.00  0.00     0.016 A 
ATOM     36  C   UNL A   1      42.840  23.193  27.519  1.00  0.00     0.016 A 
ATOM     37  C   UNL A   1      43.799  25.821  27.380  1.00  0.00     0.010 A 
ATOM     38  C   UNL A   1      42.696  24.052  28.612  1.00  0.00     0.010 A 
ATOM     39  C   UNL A   1      43.196  25.365  28.560  1.00  0.00    -0.014 A 
BRANCH  39  40
ATOM     40  C   UNL A   1      43.105  26.245  29.753  1.00  0.00     0.031 A 
ATOM     41  C   UNL A   1      41.969  27.221  29.884  1.00  0.00     0.074 A 
ATOM     42  C   UNL A   1      44.055  26.182  30.706  1.00  0.00     0.049 A 
ATOM     43  N   UNL A   1      41.789  28.163  30.774  1.00  0.00    -0.248 NA
ATOM     44  C   UNL A   1      40.898  27.131  28.879  1.00  0.00     0.031 C 
ATOM     45  C   UNL A   1      45.188  25.253  30.715  1.00  0.00     0.029 A 
ATOM     46  N   UNL A   1      44.224  26.924  31.848  1.00  0.00    -0.354 N 
ATOM     47  C   UNL A   1      40.605  28.800  30.420  1.00  0.00     0.074 A 
ATOM     48  C   UNL A   1      40.116  28.144  29.226  1.00  0.00     0.031 C 
ATOM     49  C   UNL A   1      45.928  25.476  31.812  1.00  0.00     0.029 A 
ATOM     50  C   UNL A   1      45.360  26.599  32.549  1.00  0.00     0.049 A 
ATOM     51  H   UNL A   1      43.590  27.619  32.137  1.00  0.00     0.167 HD
ATOM     52  C   UNL A   1      39.985  29.837  31.032  1.00  0.00     0.031 A 
ATOM     53  C   UNL A   1      45.905  27.164  33.644  1.00  0.00     0.031 A 
ATOM     54  C   UNL A   1      40.471  30.480  32.225  1.00  0.00     0.049 A 
ATOM     55  C   UNL A   1      45.227  28.346  34.276  1.00  0.00     0.074 A 
ATOM     56  C   UNL A   1      39.906  31.529  32.929  1.00  0.00     0.029 A 
ATOM     57  N   UNL A   1      41.637  30.134  32.891  1.00  0.00    -0.354 N 
ATOM     58  N   UNL A   1      44.115  28.945  33.920  1.00  0.00    -0.248 NA
ATOM     59  C   UNL A   1      45.878  28.933  35.455  1.00  0.00     0.031 C 
ATOM     60  C   UNL A   1      40.754  31.846  33.997  1.00  0.00     0.029 A 
ATOM     61  C   UNL A   1      41.820  30.962  33.987  1.00  0.00     0.049 A 
ATOM     62  H   UNL A   1      42.246  29.408  32.625  1.00  0.00     0.167 HD
ATOM     63  C   UNL A   1      43.925  29.968  34.843  1.00  0.00     0.074 A 
ATOM     64  C   UNL A   1      45.028  29.897  35.779  1.00  0.00     0.031 C 
ATOM     65  C   UNL A   1      42.926  30.882  34.907  1.00  0.00     0.031 A 
BRANCH  52  66
ATOM     66  C   UNL A   1      38.727  30.368  30.397  1.00  0.00    -0.014 A 
ATOM     67  C   UNL A   1      38.746  31.508  29.576  1.00  0.00     0.010 A 
ATOM     68  C   UNL A   1      37.510  29.691  30.600  1.00  0.00     0.010 A 
ATOM     69  C   UNL A   1      37.564  31.986  29.000  1.00  0.00     0.020 A 
ATOM     70  C   UNL A   1      36.331  30.151  30.008  1.00  0.00     0.020 A 
ATOM     71  C   UNL A   1      36.362  31.308  29.226  1.00  0.00     0.054 A 
BRANCH  71  72
ATOM     72  S   UNL A   1      34.844  31.938  28.458  1.00  0.00     0.124 S 
ATOM     73  O   UNL A   1      34.114  32.455  29.613  1.00  0.00    -0.237 OA
ATOM     74  O   UNL A   1      35.346  32.947  27.529  1.00  0.00    -0.237 OA
ATOM     75  O   UNL A   1      34.258  30.757  27.828  1.00  0.00    -0.744 OA
ENDBRANCH  71  72
ENDBRANCH  52  66
BRANCH  53  76
ATOM     76  C   UNL A   1      47.182  26.632  34.190  1.00  0.00    -0.014 A 
ATOM     77  C   UNL A   1      47.175  25.621  35.167  1.00  0.00     0.010 A 
ATOM     78  C   UNL A   1      48.414  27.118  33.715  1.00  0.00     0.010 A 
ATOM     79  C   UNL A   1      48.378  25.113  35.666  1.00  0.00     0.020 A 
ATOM     80  C   UNL A   1      49.618  26.594  34.192  1.00  0.00     0.020 A 
ATOM     81  C   UNL A   1      49.592  25.601  35.172  1.00  0.00     0.054 A 
BRANCH  81  82
ATOM     82  S   UNL A   1      51.141  24.882  35.786  1.00  0.00     0.124 S 
ATOM     83  O   UNL A   1      52.066  25.177  34.696  1.00  0.00    -0.237 OA
ATOM     84  O   UNL A   1      51.367  25.623  37.025  1.00  0.00    -0.237 OA
ATOM     85  O   UNL A   1      50.813  23.470  35.967  1.00  0.00    -0.744 OA
ENDBRANCH  81  82
ENDBRANCH  53  76
BRANCH  65  86
ATOM     86  C   UNL A   1      42.964  31.863  36.048  1.00  0.00    -0.014 A 
ATOM     87  C   UNL A   1      43.596  33.111  35.912  1.00  0.00     0.010 A 
ATOM     88  C   UNL A   1      42.316  31.547  37.255  1.00  0.00     0.010 A 
ATOM     89  C   UNL A   1      43.605  34.016  36.977  1.00  0.00     0.020 A 
ATOM     90  C   UNL A   1      42.303  32.459  38.314  1.00  0.00     0.020 A 
ATOM     91  C   UNL A   1      42.961  33.683  38.173  1.00  0.00     0.054 A 
BRANCH  91  92
ATOM     92  S   UNL A   1      42.950  34.890  39.528  1.00  0.00     0.124 S 
ATOM     93  O   UNL A   1      42.765  36.148  38.810  1.00  0.00    -0.237 OA
ATOM     94  O   UNL A   1      41.815  34.455  40.339  1.00  0.00    -0.237 OA
ATOM     95  O   UNL A   1      44.259  34.716  40.155  1.00  0.00    -0.744 OA
ENDBRANCH  91  92
ENDBRANCH  65  86
ENDBRANCH  39  40
ENDBRANCH  32  34
ENDBRANCH  31  32
ENDBRANCH  30  31
ENDBRANCH  29  30
ENDBRANCH  28  29
ENDBRANCH  26  28
ENDBRANCH   1  26
TORSDOF 23
ENDMDL
MODEL 2
REMARK VINA RESULT:      -9.5      1.222      8.078
REMARK SMILES CCCCCCNC(=O)Oc1cccc(-c2ccc(CC(=O)OCCOC(=O)c3ccc(-c4c5nc(c(-c6ccc(S(=O)(=O)[O-])cc6)c6ccc([nH]6)c(-c6ccc(S(=O)(=O)[O-])cc6)c6nc(c(-c7ccc(S(=O)(=O)[O-])cc7)c7ccc4[nH]7)C=C6)C=C5)cc3)cc2F)c1
REMARK SMILES IDX 20 1 19 2 16 3 17 4 90 5 18 6 89 7 91 8 15 9 11 10 12 11
REMARK SMILES IDX 92 12 13 13 14 14 10 15 8 16 7 17 9 19 6 20 5 21 4 22 3 23
REMARK SMILES IDX 2 24 1 25 21 26 22 27 23 28 24 29 25 30 26 31 27 32 28 33
REMARK SMILES IDX 29 34 30 35 88 36 31 37 87 38 32 39 33 40 34 41 81 42 35 43
REMARK SMILES IDX 86 44 80 45 82 46 36 47 85 48 79 49 78 50 37 52 67 53 48 54
REMARK SMILES IDX 66 55 49 56 52 57 65 58 83 59 50 60 51 61 64 63 84 64 53 65
REMARK SMILES IDX 38 66 39 67 47 68 40 69 46 70 41 71 42 72 43 73 44 74 45 75
REMARK SMILES IDX 68 76 69 77 77 78 70 79 76 80 71 81 72 82 73 83 74 84 75 85
REMARK SMILES IDX 54 86 55 87 63 88 56 89 62 90 57 91 58 92 59 93 60 94 61 95
REMARK H PARENT 7 18 82 51 52 62
REMARK Flexibility Score: inf
ROOT
ATOM      1  C   UNL A   1      41.919  19.711  26.834  1.00  0.00     0.158 C 
ENDROOT
BRANCH   1   2
ATOM      2  C   UNL A   1      40.582  20.237  26.372  1.00  0.00    -0.034 A 
ATOM      3  C   UNL A   1      38.157  21.312  25.371  1.00  0.00     0.018 A 
ATOM      4  C   UNL A   1      38.494  19.971  25.143  1.00  0.00     0.012 A 
ATOM      5  C   UNL A   1      39.045  22.089  26.126  1.00  0.00     0.131 A 
ATOM      6  C   UNL A   1      39.694  19.443  25.633  1.00  0.00     0.005 A 
ATOM      7  C   UNL A   1      40.236  21.568  26.624  1.00  0.00     0.044 A 
ATOM      8  F   UNL A   1      38.768  23.379  26.376  1.00  0.00    -0.206 F 
BRANCH   3   9
ATOM      9  C   UNL A   1      36.941  21.898  24.802  1.00  0.00    -0.012 A 
ATOM     10  C   UNL A   1      34.524  22.109  24.790  1.00  0.00     0.133 A 
ATOM     11  C   UNL A   1      34.578  22.937  23.672  1.00  0.00     0.047 A 
ATOM     12  C   UNL A   1      35.688  21.577  25.345  1.00  0.00     0.056 A 
ATOM     13  C   UNL A   1      35.818  23.272  23.131  1.00  0.00     0.004 A 
ATOM     14  C   UNL A   1      36.992  22.761  23.696  1.00  0.00     0.009 A 
BRANCH  10  15
ATOM     15  O   UNL A   1      33.259  21.726  25.259  1.00  0.00    -0.410 OA
BRANCH  15  16
ATOM     16  C   UNL A   1      33.216  21.065  26.477  1.00  0.00     0.412 C 
ATOM     17  N   UNL A   1      33.073  19.710  26.351  1.00  0.00    -0.321 N 
ATOM     18  H   UNL A   1      33.012  19.195  27.188  1.00  0.00     0.167 HD
ATOM     19  O   UNL A   1      33.287  21.582  27.585  1.00  0.00    -0.224 OA
BRANCH  17  20
ATOM     20  C   UNL A   1      33.003  18.953  25.120  1.00  0.00     0.119 C 
BRANCH  20  21
ATOM     21  C   UNL A   1      34.388  18.532  24.626  1.00  0.00     0.021 C 
BRANCH  21  22
ATOM     22  C   UNL A   1      34.421  17.222  23.830  1.00  0.00     0.002 C 
BRANCH  22  23
ATOM     23  C   UNL A   1      33.273  16.247  24.111  1.00  0.00    -0.000 C 
BRANCH  23  24
ATOM     24  C   UNL A   1      33.453  15.356  25.343  1.00  0.00    -0.003 C 
ATOM     25  C   UNL A   1      32.154  15.078  26.081  1.00  0.00     0.004 C 
ENDBRANCH  23  24
ENDBRANCH  22  23
ENDBRANCH  21  22
ENDBRANCH  20  21
ENDBRANCH  17  20
ENDBRANCH  15  16
ENDBRANCH  10  15
ENDBRANCH   3   9
ENDBRANCH   1   2
BRANCH   1  26
ATOM     26  C   UNL A   1      42.761  18.966  25.828  1.00  0.00     0.310 C 
ATOM     27  O   UNL A   1      42.850  17.743  25.843  1.00  0.00    -0.252 OA
BRANCH  26  28
ATOM     28  O   UNL A   1      43.342  19.770  24.898  1.00  0.00    -0.462 OA
BRANCH  28  29
ATOM     29  C   UNL A   1      44.677  20.213  25.207  1.00  0.00     0.274 C 
BRANCH  29  30
ATOM     30  C   UNL A   1      44.778  21.736  25.159  1.00  0.00     0.275 C 
BRANCH  30  31
ATOM     31  O   UNL A   1      44.052  22.321  26.254  1.00  0.00    -0.458 OA
BRANCH  31  32
ATOM     32  C   UNL A   1      43.275  23.380  25.937  1.00  0.00     0.338 C 
ATOM     33  O   UNL A   1      42.657  23.571  24.905  1.00  0.00    -0.246 OA
BRANCH  32  34
ATOM     34  C   UNL A   1      43.252  24.325  27.062  1.00  0.00     0.060 A 
ATOM     35  C   UNL A   1      42.396  24.097  28.142  1.00  0.00     0.016 A 
ATOM     36  C   UNL A   1      43.992  25.504  26.980  1.00  0.00     0.016 A 
ATOM     37  C   UNL A   1      42.241  25.072  29.125  1.00  0.00     0.010 A 
ATOM     38  C   UNL A   1      43.878  26.456  27.997  1.00  0.00     0.010 A 
ATOM     39  C   UNL A   1      42.983  26.260  29.064  1.00  0.00    -0.014 A 
BRANCH  39  40
ATOM     40  C   UNL A   1      42.815  27.311  30.099  1.00  0.00     0.031 A 
ATOM     41  C   UNL A   1      43.762  27.379  31.265  1.00  0.00     0.074 A 
ATOM     42  C   UNL A   1      41.799  28.190  30.002  1.00  0.00     0.049 A 
ATOM     43  N   UNL A   1      43.700  28.130  32.335  1.00  0.00    -0.248 NA
ATOM     44  C   UNL A   1      44.926  26.481  31.227  1.00  0.00     0.031 C 
ATOM     45  C   UNL A   1      40.834  28.253  28.901  1.00  0.00     0.029 A 
ATOM     46  N   UNL A   1      41.402  29.193  30.849  1.00  0.00    -0.354 N 
ATOM     47  C   UNL A   1      44.796  27.773  33.113  1.00  0.00     0.074 A 
ATOM     48  C   UNL A   1      45.498  26.731  32.397  1.00  0.00     0.031 C 
ATOM     49  C   UNL A   1      39.964  29.247  29.138  1.00  0.00     0.029 A 
ATOM     50  C   UNL A   1      40.270  29.849  30.431  1.00  0.00     0.049 A 
ATOM     51  H   UNL A   1      41.884  29.421  31.677  1.00  0.00     0.167 HD
ATOM     52  C   UNL A   1      45.178  28.269  34.314  1.00  0.00     0.031 A 
ATOM     53  C   UNL A   1      39.536  30.804  31.035  1.00  0.00     0.031 A 
ATOM     54  C   UNL A   1      44.481  29.313  35.018  1.00  0.00     0.049 A 
ATOM     55  C   UNL A   1      39.951  31.301  32.391  1.00  0.00     0.074 A 
ATOM     56  C   UNL A   1      44.798  29.894  36.234  1.00  0.00     0.029 A 
ATOM     57  N   UNL A   1      43.325  29.935  34.569  1.00  0.00    -0.354 N 
ATOM     58  N   UNL A   1      40.982  30.944  33.119  1.00  0.00    -0.248 NA
ATOM     59  C   UNL A   1      39.101  32.327  33.010  1.00  0.00     0.031 C 
ATOM     60  C   UNL A   1      43.810  30.836  36.541  1.00  0.00     0.029 A 
ATOM     61  C   UNL A   1      42.906  30.879  35.492  1.00  0.00     0.049 A 
ATOM     62  H   UNL A   1      42.870  29.736  33.719  1.00  0.00     0.167 HD
ATOM     63  C   UNL A   1      40.914  31.715  34.274  1.00  0.00     0.074 A 
ATOM     64  C   UNL A   1      39.750  32.567  34.141  1.00  0.00     0.031 C 
ATOM     65  C   UNL A   1      41.742  31.716  35.348  1.00  0.00     0.031 A 
BRANCH  52  66
ATOM     66  C   UNL A   1      46.391  27.657  34.964  1.00  0.00    -0.014 A 
ATOM     67  C   UNL A   1      46.279  26.561  35.837  1.00  0.00     0.010 A 
ATOM     68  C   UNL A   1      47.668  28.168  34.668  1.00  0.00     0.010 A 
ATOM     69  C   UNL A   1      47.420  26.012  36.433  1.00  0.00     0.020 A 
ATOM     70  C   UNL A   1      48.812  27.608  35.243  1.00  0.00     0.020 A 
ATOM     71  C   UNL A   1      48.679  26.544  36.137  1.00  0.00     0.054 A 
BRANCH  71  72
ATOM     72  S   UNL A   1      50.145  25.807  36.911  1.00  0.00     0.124 S 
ATOM     73  O   UNL A   1      50.456  26.781  37.954  1.00  0.00    -0.237 OA
ATOM     74  O   UNL A   1      49.647  24.517  37.383  1.00  0.00    -0.237 OA
ATOM     75  O   UNL A   1      51.113  25.733  35.819  1.00  0.00    -0.744 OA
ENDBRANCH  71  72
ENDBRANCH  52  66
BRANCH  53  76
ATOM     76  C   UNL A   1      38.313  31.327  30.369  1.00  0.00    -0.014 A 
ATOM     77  C   UNL A   1      38.371  32.491  29.583  1.00  0.00     0.010 A 
ATOM     78  C   UNL A   1      37.089  30.645  30.497  1.00  0.00     0.010 A 
ATOM     79  C   UNL A   1      37.222  32.969  28.946  1.00  0.00     0.020 A 
ATOM     80  C   UNL A   1      35.945  31.107  29.841  1.00  0.00     0.020 A 
ATOM     81  C   UNL A   1      36.017  32.272  29.076  1.00  0.00     0.054 A 
BRANCH  81  82
ATOM     82  S   UNL A   1      34.554  32.874  28.189  1.00  0.00     0.124 S 
ATOM     83  O   UNL A   1      35.139  33.828  27.251  1.00  0.00    -0.237 OA
ATOM     84  O   UNL A   1      34.016  31.652  27.595  1.00  0.00    -0.237 OA
ATOM     85  O   UNL A   1      33.731  33.457  29.246  1.00  0.00    -0.744 OA
ENDBRANCH  81  82
ENDBRANCH  53  76
BRANCH  65  86
ATOM     86  C   UNL A   1      41.436  32.692  36.451  1.00  0.00    -0.014 A 
ATOM     87  C   UNL A   1      40.614  32.331  37.533  1.00  0.00     0.010 A 
ATOM     88  C   UNL A   1      42.018  33.972  36.427  1.00  0.00     0.010 A 
ATOM     89  C   UNL A   1      40.355  33.245  38.558  1.00  0.00     0.020 A 
ATOM     90  C   UNL A   1      41.781  34.880  37.462  1.00  0.00     0.020 A 
ATOM     91  C   UNL A   1      40.938  34.516  38.514  1.00  0.00     0.054 A 
BRANCH  91  92
ATOM     92  S   UNL A   1      40.622  35.672  39.876  1.00  0.00     0.124 S 
ATOM     93  O   UNL A   1      41.958  36.199  40.141  1.00  0.00    -0.237 OA
ATOM     94  O   UNL A   1      39.679  36.618  39.285  1.00  0.00    -0.237 OA
ATOM     95  O   UNL A   1      40.067  34.823  40.928  1.00  0.00    -0.744 OA
ENDBRANCH  91  92
ENDBRANCH  65  86
ENDBRANCH  39  40
ENDBRANCH  32  34
ENDBRANCH  31  32
ENDBRANCH  30  31
ENDBRANCH  29  30
ENDBRANCH  28  29
ENDBRANCH  26  28
ENDBRANCH   1  26
TORSDOF 23
ENDMDL
MODEL 3
REMARK VINA RESULT:      -9.4      5.619     11.161
REMARK SMILES CCCCCCNC(=O)Oc1cccc(-c2ccc(CC(=O)OCCOC(=O)c3ccc(-c4c5nc(c(-c6ccc(S(=O)(=O)[O-])cc6)c6ccc([nH]6)c(-c6ccc(S(=O)(=O)[O-])cc6)c6nc(c(-c7ccc(S(=O)(=O)[O-])cc7)c7ccc4[nH]7)C=C6)C=C5)cc3)cc2F)c1
REMARK SMILES IDX 20 1 19 2 16 3 17 4 90 5 18 6 89 7 91 8 15 9 11 10 12 11
REMARK SMILES IDX 92 12 13 13 14 14 10 15 8 16 7 17 9 19 6 20 5 21 4 22 3 23
REMARK SMILES IDX 2 24 1 25 21 26 22 27 23 28 24 29 25 30 26 31 27 32 28 33
REMARK SMILES IDX 29 34 30 35 88 36 31 37 87 38 32 39 33 40 34 41 81 42 35 43
REMARK SMILES IDX 86 44 80 45 82 46 36 47 85 48 79 49 78 50 37 52 67 53 48 54
REMARK SMILES IDX 66 55 49 56 52 57 65 58 83 59 50 60 51 61 64 63 84 64 53 65
REMARK SMILES IDX 38 66 39 67 47 68 40 69 46 70 41 71 42 72 43 73 44 74 45 75
REMARK SMILES IDX 68 76 69 77 77 78 70 79 76 80 71 81 72 82 73 83 74 84 75 85
REMARK SMILES IDX 54 86 55 87 63 88 56 89 62 90 57 91 58 92 59 93 60 94 61 95
REMARK H PARENT 7 18 82 51 52 62
REMARK Flexibility Score: inf
ROOT
ATOM      1  C   UNL A   1      35.167  32.948  28.257  1.00  0.00     0.158 C 
ENDROOT
BRANCH   1   2
ATOM      2  C   UNL A   1      34.612  31.603  27.857  1.00  0.00    -0.034 A 
ATOM      3  C   UNL A   1      33.572  29.133  26.933  1.00  0.00     0.018 A 
ATOM      4  C   UNL A   1      34.917  29.247  27.311  1.00  0.00     0.012 A 
ATOM      5  C   UNL A   1      32.762  30.269  27.050  1.00  0.00     0.131 A 
ATOM      6  C   UNL A   1      35.431  30.469  27.761  1.00  0.00     0.005 A 
ATOM      7  C   UNL A   1      33.264  31.485  27.506  1.00  0.00     0.044 A 
ATOM      8  F   UNL A   1      31.466  30.213  26.704  1.00  0.00    -0.206 F 
BRANCH   3   9
ATOM      9  C   UNL A   1      33.039  27.881  26.390  1.00  0.00    -0.012 A 
ATOM     10  C   UNL A   1      33.158  26.082  24.768  1.00  0.00     0.133 A 
ATOM     11  C   UNL A   1      31.985  25.521  25.267  1.00  0.00     0.047 A 
ATOM     12  C   UNL A   1      33.677  27.258  25.307  1.00  0.00     0.056 A 
ATOM     13  C   UNL A   1      31.348  26.125  26.350  1.00  0.00     0.004 A 
ATOM     14  C   UNL A   1      31.876  27.293  26.912  1.00  0.00     0.009 A 
BRANCH  10  15
ATOM     15  O   UNL A   1      33.727  25.497  23.627  1.00  0.00    -0.410 OA
BRANCH  15  16
ATOM     16  C   UNL A   1      33.043  25.660  22.432  1.00  0.00     0.412 C 
ATOM     17  N   UNL A   1      32.879  24.489  21.741  1.00  0.00    -0.321 N 
ATOM     18  H   UNL A   1      32.421  24.553  20.872  1.00  0.00     0.167 HD
ATOM     19  O   UNL A   1      32.610  26.713  21.982  1.00  0.00    -0.224 OA
BRANCH  17  20
ATOM     20  C   UNL A   1      33.306  23.169  22.151  1.00  0.00     0.119 C 
BRANCH  20  21
ATOM     21  C   UNL A   1      32.174  22.378  22.807  1.00  0.00     0.021 C 
BRANCH  21  22
ATOM     22  C   UNL A   1      32.531  21.727  24.148  1.00  0.00     0.002 C 
BRANCH  22  23
ATOM     23  C   UNL A   1      32.310  20.213  24.231  1.00  0.00    -0.000 C 
BRANCH  23  24
ATOM     24  C   UNL A   1      33.263  19.458  25.161  1.00  0.00    -0.003 C 
ATOM     25  C   UNL A   1      32.866  18.008  25.383  1.00  0.00     0.004 C 
ENDBRANCH  23  24
ENDBRANCH  22  23
ENDBRANCH  21  22
ENDBRANCH  20  21
ENDBRANCH  17  20
ENDBRANCH  15  16
ENDBRANCH  10  15
ENDBRANCH   3   9
ENDBRANCH   1   2
BRANCH   1  26
ATOM     26  C   UNL A   1      34.517  33.651  29.424  1.00  0.00     0.310 C 
ATOM     27  O   UNL A   1      34.195  34.834  29.364  1.00  0.00    -0.252 OA
BRANCH  26  28
ATOM     28  O   UNL A   1      34.281  32.842  30.490  1.00  0.00    -0.462 OA
BRANCH  28  29
ATOM     29  C   UNL A   1      35.350  31.941  30.834  1.00  0.00     0.274 C 
BRANCH  29  30
ATOM     30  C   UNL A   1      35.784  32.128  32.286  1.00  0.00     0.275 C 
BRANCH  30  31
ATOM     31  O   UNL A   1      37.159  31.742  32.452  1.00  0.00    -0.458 OA
BRANCH  31  32
ATOM     32  C   UNL A   1      37.425  30.433  32.245  1.00  0.00     0.338 C 
ATOM     33  O   UNL A   1      36.749  29.473  32.568  1.00  0.00    -0.246 OA
BRANCH  32  34
ATOM     34  C   UNL A   1      38.700  30.300  31.526  1.00  0.00     0.060 A 
ATOM     35  C   UNL A   1      38.753  30.567  30.156  1.00  0.00     0.016 A 
ATOM     36  C   UNL A   1      39.810  29.786  32.193  1.00  0.00     0.016 A 
ATOM     37  C   UNL A   1      39.910  30.277  29.436  1.00  0.00     0.010 A 
ATOM     38  C   UNL A   1      40.988  29.549  31.479  1.00  0.00     0.010 A 
ATOM     39  C   UNL A   1      41.040  29.768  30.091  1.00  0.00    -0.014 A 
BRANCH  39  40
ATOM     40  C   UNL A   1      42.273  29.442  29.330  1.00  0.00     0.031 A 
ATOM     41  C   UNL A   1      42.476  28.056  28.783  1.00  0.00     0.074 A 
ATOM     42  C   UNL A   1      43.218  30.384  29.150  1.00  0.00     0.049 A 
ATOM     43  N   UNL A   1      43.537  27.541  28.216  1.00  0.00    -0.248 NA
ATOM     44  C   UNL A   1      41.341  27.127  28.895  1.00  0.00     0.031 C 
ATOM     45  C   UNL A   1      43.125  31.776  29.599  1.00  0.00     0.029 A 
ATOM     46  N   UNL A   1      44.450  30.310  28.550  1.00  0.00    -0.354 N 
ATOM     47  C   UNL A   1      43.211  26.218  27.933  1.00  0.00     0.074 A 
ATOM     48  C   UNL A   1      41.858  26.009  28.402  1.00  0.00     0.031 C 
ATOM     49  C   UNL A   1      44.248  32.423  29.251  1.00  0.00     0.029 A 
ATOM     50  C   UNL A   1      45.162  31.483  28.612  1.00  0.00     0.049 A 
ATOM     51  H   UNL A   1      44.789  29.494  28.115  1.00  0.00     0.167 HD
ATOM     52  C   UNL A   1      43.971  25.268  27.339  1.00  0.00     0.031 A 
ATOM     53  C   UNL A   1      46.423  31.764  28.231  1.00  0.00     0.031 A 
ATOM     54  C   UNL A   1      45.314  25.484  26.866  1.00  0.00     0.049 A 
ATOM     55  C   UNL A   1      47.265  30.680  27.622  1.00  0.00     0.074 A 
ATOM     56  C   UNL A   1      46.161  24.588  26.237  1.00  0.00     0.029 A 
ATOM     57  N   UNL A   1      46.006  26.682  26.968  1.00  0.00    -0.354 N 
ATOM     58  N   UNL A   1      46.947  29.431  27.374  1.00  0.00    -0.248 NA
ATOM     59  C   UNL A   1      48.639  31.039  27.245  1.00  0.00     0.031 C 
ATOM     60  C   UNL A   1      47.380  25.231  25.998  1.00  0.00     0.029 A 
ATOM     61  C   UNL A   1      47.275  26.543  26.432  1.00  0.00     0.049 A 
ATOM     62  H   UNL A   1      45.647  27.509  27.363  1.00  0.00     0.167 HD
ATOM     63  C   UNL A   1      48.076  28.861  26.795  1.00  0.00     0.074 A 
ATOM     64  C   UNL A   1      49.078  29.905  26.717  1.00  0.00     0.031 C 
ATOM     65  C   UNL A   1      48.263  27.589  26.366  1.00  0.00     0.031 A 
BRANCH  52  66
ATOM     66  C   UNL A   1      43.379  23.890  27.202  1.00  0.00    -0.014 A 
ATOM     67  C   UNL A   1      43.379  22.983  28.276  1.00  0.00     0.010 A 
ATOM     68  C   UNL A   1      42.783  23.510  25.985  1.00  0.00     0.010 A 
ATOM     69  C   UNL A   1      42.828  21.706  28.124  1.00  0.00     0.020 A 
ATOM     70  C   UNL A   1      42.211  22.244  25.836  1.00  0.00     0.020 A 
ATOM     71  C   UNL A   1      42.253  21.343  26.901  1.00  0.00     0.054 A 
BRANCH  71  72
ATOM     72  S   UNL A   1      41.532  19.687  26.732  1.00  0.00     0.124 S 
ATOM     73  O   UNL A   1      42.707  18.831  26.872  1.00  0.00    -0.237 OA
ATOM     74  O   UNL A   1      40.580  19.633  27.839  1.00  0.00    -0.237 OA
ATOM     75  O   UNL A   1      40.930  19.705  25.400  1.00  0.00    -0.744 OA
ENDBRANCH  71  72
ENDBRANCH  52  66
BRANCH  53  76
ATOM     76  C   UNL A   1      46.972  33.130  28.448  1.00  0.00    -0.014 A 
ATOM     77  C   UNL A   1      46.942  34.083  27.416  1.00  0.00     0.010 A 
ATOM     78  C   UNL A   1      47.505  33.490  29.699  1.00  0.00     0.010 A 
ATOM     79  C   UNL A   1      47.445  35.370  27.629  1.00  0.00     0.020 A 
ATOM     80  C   UNL A   1      47.985  34.782  29.923  1.00  0.00     0.020 A 
ATOM     81  C   UNL A   1      47.960  35.713  28.883  1.00  0.00     0.054 A 
BRANCH  81  82
ATOM     82  S   UNL A   1      48.548  37.407  29.158  1.00  0.00     0.124 S 
ATOM     83  O   UNL A   1      47.547  38.195  28.446  1.00  0.00    -0.237 OA
ATOM     84  O   UNL A   1      48.525  37.519  30.614  1.00  0.00    -0.237 OA
ATOM     85  O   UNL A   1      49.883  37.404  28.564  1.00  0.00    -0.744 OA
ENDBRANCH  81  82
ENDBRANCH  53  76
BRANCH  65  86
ATOM     86  C   UNL A   1      49.595  27.262  25.746  1.00  0.00    -0.014 A 
ATOM     87  C   UNL A   1      49.862  27.560  24.399  1.00  0.00     0.010 A 
ATOM     88  C   UNL A   1      50.607  26.690  26.539  1.00  0.00     0.010 A 
ATOM     89  C   UNL A   1      51.111  27.264  23.846  1.00  0.00     0.020 A 
ATOM     90  C   UNL A   1      51.864  26.415  25.995  1.00  0.00     0.020 A 
ATOM     91  C   UNL A   1      52.104  26.691  24.647  1.00  0.00     0.054 A 
BRANCH  91  92
ATOM     92  S   UNL A   1      53.731  26.354  23.919  1.00  0.00     0.124 S 
ATOM     93  O   UNL A   1      53.381  26.006  22.545  1.00  0.00    -0.237 OA
ATOM     94  O   UNL A   1      54.430  27.625  24.088  1.00  0.00    -0.237 OA
ATOM     95  O   UNL A   1      54.250  25.253  24.728  1.00  0.00    -0.744 OA
ENDBRANCH  91  92
ENDBRANCH  65  86
ENDBRANCH  39  40
ENDBRANCH  32  34
ENDBRANCH  31  32
ENDBRANCH  30  31
ENDBRANCH  29  30
ENDBRANCH  28  29
ENDBRANCH  26  28
ENDBRANCH   1  26
TORSDOF 23
ENDMDL
