MODEL 1
REMARK VINA RESULT:      -8.9      0.000      0.000
REMARK SMILES C[C@@H](C(=O)OCCOC(=O)c1ccc(-c2c3nc(c(-c4ccc(S(=O)(=O)[O-])cc4)c4ccc([nH]4)c(-c4ccc(S(=O)(=O)[O-])cc4)c4nc(c(-c5ccc(S(=O)(=O)[O-])cc5)c5ccc2[nH]5)C=C4)C=C3)cc1)c1ccc(-c2ccn(C(F)F)c(=O)c2)cc1
REMARK SMILES IDX 6 1 5 2 3 3 4 4 2 5 1 6 71 7 72 8 86 9 73 10 85 11 74 12
REMARK SMILES IDX 75 13 76 14 84 15 77 16 82 17 78 18 83 19 79 20 80 21 81 22
REMARK SMILES IDX 7 23 8 24 9 25 10 26 11 27 12 28 70 29 13 30 69 31 14 32
REMARK SMILES IDX 15 33 16 34 63 35 17 36 68 37 62 38 64 39 18 40 67 41 61 42
REMARK SMILES IDX 60 43 19 45 49 46 30 47 48 48 31 49 34 50 47 51 65 52 32 53
REMARK SMILES IDX 33 54 46 56 66 57 35 58 20 59 21 60 29 61 22 62 28 63 23 64
REMARK SMILES IDX 24 65 25 66 26 67 27 68 50 69 51 70 59 71 52 72 58 73 53 74
REMARK SMILES IDX 54 75 55 76 56 77 57 78 36 79 37 80 45 81 38 82 44 83 39 84
REMARK SMILES IDX 40 85 41 86 42 87 43 88
REMARK H PARENT 64 44 34 55
REMARK Flexibility Score: inf
ROOT
ATOM      1  C   UNL A   1      41.956  20.830  26.162  1.00  0.00     0.274 C 
ENDROOT
BRANCH   1   2
ATOM      2  O   UNL A   1      42.681  21.717  25.284  1.00  0.00    -0.462 OA
BRANCH   2   3
ATOM      3  C   UNL A   1      43.290  22.798  25.851  1.00  0.00     0.313 C 
ATOM      4  O   UNL A   1      43.238  23.044  27.051  1.00  0.00    -0.252 OA
BRANCH   3   5
ATOM      5  C   UNL A   1      43.971  23.713  24.808  1.00  0.00     0.126 C 
ATOM      6  C   UNL A   1      45.248  23.072  24.241  1.00  0.00     0.025 C 
BRANCH   5   7
ATOM      7  C   UNL A   1      44.168  25.156  25.304  1.00  0.00    -0.034 A 
ATOM      8  C   UNL A   1      43.207  26.166  25.126  1.00  0.00     0.005 A 
ATOM      9  C   UNL A   1      45.358  25.511  25.966  1.00  0.00     0.005 A 
ATOM     10  C   UNL A   1      43.441  27.482  25.556  1.00  0.00     0.009 A 
ATOM     11  C   UNL A   1      45.600  26.830  26.380  1.00  0.00     0.009 A 
ATOM     12  C   UNL A   1      44.644  27.831  26.172  1.00  0.00    -0.018 A 
BRANCH  12  13
ATOM     13  C   UNL A   1      44.946  29.241  26.492  1.00  0.00    -0.011 A 
ATOM     14  C   UNL A   1      43.928  30.149  26.982  1.00  0.00     0.027 A 
ATOM     15  C   UNL A   1      46.184  29.720  26.280  1.00  0.00     0.080 A 
ATOM     16  C   UNL A   1      44.178  31.455  27.126  1.00  0.00     0.095 A 
ATOM     17  C   UNL A   1      46.498  31.167  26.498  1.00  0.00     0.255 A 
ATOM     18  N   UNL A   1      45.432  31.969  26.865  1.00  0.00    -0.258 N 
ATOM     19  O   UNL A   1      47.656  31.537  26.326  1.00  0.00    -0.269 OA
BRANCH  18  20
ATOM     20  C   UNL A   1      45.664  33.390  26.983  1.00  0.00     0.451 C 
ATOM     21  F   UNL A   1      44.488  34.059  27.092  1.00  0.00    -0.185 F 
ATOM     22  F   UNL A   1      46.398  33.662  28.093  1.00  0.00    -0.185 F 
ENDBRANCH  18  20
ENDBRANCH  12  13
ENDBRANCH   5   7
ENDBRANCH   3   5
ENDBRANCH   2   3
ENDBRANCH   1   2
BRANCH   1  23
ATOM     23  C   UNL A   1      40.450  21.013  25.991  1.00  0.00     0.275 C 
BRANCH  23  24
ATOM     24  O   UNL A   1      39.987  22.044  26.879  1.00  0.00    -0.458 OA
BRANCH  24  25
ATOM     25  C   UNL A   1      39.106  22.924  26.355  1.00  0.00     0.338 C 
ATOM     26  O   UNL A   1      38.257  22.721  25.507  1.00  0.00    -0.246 OA
BRANCH  25  27
ATOM     27  C   UNL A   1      39.261  24.202  27.062  1.00  0.00     0.060 A 
ATOM     28  C   UNL A   1      39.958  25.217  26.417  1.00  0.00     0.016 A 
ATOM     29  C   UNL A   1      38.809  24.376  28.370  1.00  0.00     0.016 A 
ATOM     30  C   UNL A   1      40.249  26.397  27.089  1.00  0.00     0.010 A 
ATOM     31  C   UNL A   1      39.071  25.585  29.033  1.00  0.00     0.010 A 
ATOM     32  C   UNL A   1      39.825  26.594  28.409  1.00  0.00    -0.014 A 
BRANCH  32  33
ATOM     33  C   UNL A   1      40.276  27.815  29.134  1.00  0.00     0.031 A 
ATOM     34  C   UNL A   1      41.734  27.980  29.485  1.00  0.00     0.074 A 
ATOM     35  C   UNL A   1      39.434  28.853  29.318  1.00  0.00     0.049 A 
ATOM     36  N   UNL A   1      42.333  28.992  30.063  1.00  0.00    -0.248 NA
ATOM     37  C   UNL A   1      42.643  26.889  29.097  1.00  0.00     0.031 C 
ATOM     38  C   UNL A   1      38.039  28.896  28.879  1.00  0.00     0.029 A 
ATOM     39  N   UNL A   1      39.653  30.100  29.852  1.00  0.00    -0.354 N 
ATOM     40  C   UNL A   1      43.675  28.638  30.153  1.00  0.00     0.074 A 
ATOM     41  C   UNL A   1      43.807  27.329  29.552  1.00  0.00     0.031 C 
ATOM     42  C   UNL A   1      37.557  30.134  29.075  1.00  0.00     0.029 A 
ATOM     43  C   UNL A   1      38.577  30.949  29.729  1.00  0.00     0.049 A 
ATOM     44  H   UNL A   1      40.500  30.362  30.282  1.00  0.00     0.167 HD
ATOM     45  C   UNL A   1      44.705  29.332  30.693  1.00  0.00     0.031 A 
ATOM     46  C   UNL A   1      38.421  32.234  30.105  1.00  0.00     0.031 A 
ATOM     47  C   UNL A   1      44.594  30.643  31.269  1.00  0.00     0.049 A 
ATOM     48  C   UNL A   1      39.550  32.941  30.802  1.00  0.00     0.074 A 
ATOM     49  C   UNL A   1      45.583  31.404  31.870  1.00  0.00     0.029 A 
ATOM     50  N   UNL A   1      43.430  31.391  31.318  1.00  0.00    -0.354 N 
ATOM     51  N   UNL A   1      40.793  32.553  30.960  1.00  0.00    -0.248 NA
ATOM     52  C   UNL A   1      39.243  34.250  31.398  1.00  0.00     0.031 C 
ATOM     53  C   UNL A   1      45.007  32.602  32.308  1.00  0.00     0.029 A 
ATOM     54  C   UNL A   1      43.674  32.605  31.936  1.00  0.00     0.049 A 
ATOM     55  H   UNL A   1      42.558  31.101  30.965  1.00  0.00     0.167 HD
ATOM     56  C   UNL A   1      41.410  33.567  31.687  1.00  0.00     0.074 A 
ATOM     57  C   UNL A   1      40.420  34.602  31.896  1.00  0.00     0.031 C 
ATOM     58  C   UNL A   1      42.684  33.629  32.148  1.00  0.00     0.031 A 
BRANCH  45  59
ATOM     59  C   UNL A   1      46.041  28.647  30.748  1.00  0.00    -0.014 A 
ATOM     60  C   UNL A   1      46.959  28.731  29.688  1.00  0.00     0.010 A 
ATOM     61  C   UNL A   1      46.387  27.923  31.904  1.00  0.00     0.010 A 
ATOM     62  C   UNL A   1      48.188  28.072  29.770  1.00  0.00     0.020 A 
ATOM     63  C   UNL A   1      47.622  27.279  31.997  1.00  0.00     0.020 A 
ATOM     64  C   UNL A   1      48.508  27.343  30.920  1.00  0.00     0.054 A 
BRANCH  64  65
ATOM     65  S   UNL A   1      50.109  26.494  31.005  1.00  0.00     0.124 S 
ATOM     66  O   UNL A   1      50.755  27.189  32.116  1.00  0.00    -0.237 OA
ATOM     67  O   UNL A   1      49.727  25.110  31.268  1.00  0.00    -0.237 OA
ATOM     68  O   UNL A   1      50.700  26.736  29.692  1.00  0.00    -0.744 OA
ENDBRANCH  64  65
ENDBRANCH  45  59
BRANCH  46  69
ATOM     69  C   UNL A   1      37.127  32.935  29.874  1.00  0.00    -0.014 A 
ATOM     70  C   UNL A   1      36.061  32.782  30.778  1.00  0.00     0.010 A 
ATOM     71  C   UNL A   1      36.948  33.742  28.735  1.00  0.00     0.010 A 
ATOM     72  C   UNL A   1      34.835  33.413  30.538  1.00  0.00     0.020 A 
ATOM     73  C   UNL A   1      35.736  34.396  28.509  1.00  0.00     0.020 A 
ATOM     74  C   UNL A   1      34.681  34.216  29.404  1.00  0.00     0.054 A 
BRANCH  74  75
ATOM     75  S   UNL A   1      33.102  35.066  29.124  1.00  0.00     0.124 S 
ATOM     76  O   UNL A   1      33.544  36.381  28.671  1.00  0.00    -0.237 OA
ATOM     77  O   UNL A   1      32.459  34.229  28.114  1.00  0.00    -0.237 OA
ATOM     78  O   UNL A   1      32.466  35.036  30.439  1.00  0.00    -0.744 OA
ENDBRANCH  74  75
ENDBRANCH  46  69
BRANCH  58  79
ATOM     79  C   UNL A   1      43.091  34.858  32.914  1.00  0.00    -0.014 A 
ATOM     80  C   UNL A   1      43.039  34.883  34.319  1.00  0.00     0.010 A 
ATOM     81  C   UNL A   1      43.590  35.979  32.227  1.00  0.00     0.010 A 
ATOM     82  C   UNL A   1      43.460  36.015  35.022  1.00  0.00     0.020 A 
ATOM     83  C   UNL A   1      44.033  37.104  32.927  1.00  0.00     0.020 A 
ATOM     84  C   UNL A   1      43.955  37.120  34.321  1.00  0.00     0.054 A 
BRANCH  84  85
ATOM     85  S   UNL A   1      44.553  38.555  35.257  1.00  0.00     0.124 S 
ATOM     86  O   UNL A   1      43.956  39.667  34.524  1.00  0.00    -0.237 OA
ATOM     87  O   UNL A   1      44.010  38.318  36.592  1.00  0.00    -0.237 OA
ATOM     88  O   UNL A   1      46.007  38.450  35.157  1.00  0.00    -0.744 OA
ENDBRANCH  84  85
ENDBRANCH  58  79
ENDBRANCH  32  33
ENDBRANCH  25  27
ENDBRANCH  24  25
ENDBRANCH  23  24
ENDBRANCH   1  23
TORSDOF 17
ENDMDL
MODEL 2
REMARK VINA RESULT:      -8.8      4.685      7.261
REMARK SMILES C[C@@H](C(=O)OCCOC(=O)c1ccc(-c2c3nc(c(-c4ccc(S(=O)(=O)[O-])cc4)c4ccc([nH]4)c(-c4ccc(S(=O)(=O)[O-])cc4)c4nc(c(-c5ccc(S(=O)(=O)[O-])cc5)c5ccc2[nH]5)C=C4)C=C3)cc1)c1ccc(-c2ccn(C(F)F)c(=O)c2)cc1
REMARK SMILES IDX 6 1 5 2 3 3 4 4 2 5 1 6 71 7 72 8 86 9 73 10 85 11 74 12
REMARK SMILES IDX 75 13 76 14 84 15 77 16 82 17 78 18 83 19 79 20 80 21 81 22
REMARK SMILES IDX 7 23 8 24 9 25 10 26 11 27 12 28 70 29 13 30 69 31 14 32
REMARK SMILES IDX 15 33 16 34 63 35 17 36 68 37 62 38 64 39 18 40 67 41 61 42
REMARK SMILES IDX 60 43 19 45 49 46 30 47 48 48 31 49 34 50 47 51 65 52 32 53
REMARK SMILES IDX 33 54 46 56 66 57 35 58 20 59 21 60 29 61 22 62 28 63 23 64
REMARK SMILES IDX 24 65 25 66 26 67 27 68 50 69 51 70 59 71 52 72 58 73 53 74
REMARK SMILES IDX 54 75 55 76 56 77 57 78 36 79 37 80 45 81 38 82 44 83 39 84
REMARK SMILES IDX 40 85 41 86 42 87 43 88
REMARK H PARENT 64 44 34 55
REMARK Flexibility Score: inf
ROOT
ATOM      1  C   UNL A   1      36.568  20.549  24.923  1.00  0.00     0.274 C 
ENDROOT
BRANCH   1   2
ATOM      2  O   UNL A   1      35.531  20.893  25.866  1.00  0.00    -0.462 OA
BRANCH   2   3
ATOM      3  C   UNL A   1      34.590  21.793  25.460  1.00  0.00     0.313 C 
ATOM      4  O   UNL A   1      34.019  21.723  24.377  1.00  0.00    -0.252 OA
BRANCH   3   5
ATOM      5  C   UNL A   1      34.393  22.945  26.470  1.00  0.00     0.126 C 
ATOM      6  C   UNL A   1      33.783  22.444  27.789  1.00  0.00     0.025 C 
BRANCH   5   7
ATOM      7  C   UNL A   1      33.663  24.160  25.871  1.00  0.00    -0.034 A 
ATOM      8  C   UNL A   1      34.321  25.174  25.154  1.00  0.00     0.005 A 
ATOM      9  C   UNL A   1      32.271  24.290  26.036  1.00  0.00     0.005 A 
ATOM     10  C   UNL A   1      33.626  26.288  24.658  1.00  0.00     0.009 A 
ATOM     11  C   UNL A   1      31.579  25.412  25.555  1.00  0.00     0.009 A 
ATOM     12  C   UNL A   1      32.253  26.427  24.867  1.00  0.00    -0.018 A 
BRANCH  12  13
ATOM     13  C   UNL A   1      31.551  27.666  24.471  1.00  0.00    -0.011 A 
ATOM     14  C   UNL A   1      31.721  28.907  25.200  1.00  0.00     0.027 A 
ATOM     15  C   UNL A   1      30.693  27.641  23.437  1.00  0.00     0.080 A 
ATOM     16  C   UNL A   1      30.970  29.978  24.924  1.00  0.00     0.095 A 
ATOM     17  C   UNL A   1      29.891  28.851  23.073  1.00  0.00     0.255 A 
ATOM     18  N   UNL A   1      30.049  29.952  23.897  1.00  0.00    -0.258 N 
ATOM     19  O   UNL A   1      29.153  28.780  22.095  1.00  0.00    -0.269 OA
BRANCH  18  20
ATOM     20  C   UNL A   1      29.217  31.107  23.648  1.00  0.00     0.451 C 
ATOM     21  F   UNL A   1      27.909  30.803  23.842  1.00  0.00    -0.185 F 
ATOM     22  F   UNL A   1      29.537  32.116  24.499  1.00  0.00    -0.185 F 
ENDBRANCH  18  20
ENDBRANCH  12  13
ENDBRANCH   5   7
ENDBRANCH   3   5
ENDBRANCH   2   3
ENDBRANCH   1   2
BRANCH   1  23
ATOM     23  C   UNL A   1      37.576  21.689  24.789  1.00  0.00     0.275 C 
BRANCH  23  24
ATOM     24  O   UNL A   1      38.068  22.050  26.090  1.00  0.00    -0.458 OA
BRANCH  24  25
ATOM     25  C   UNL A   1      39.401  21.926  26.273  1.00  0.00     0.338 C 
ATOM     26  O   UNL A   1      40.133  21.035  25.882  1.00  0.00    -0.246 OA
BRANCH  25  27
ATOM     27  C   UNL A   1      39.882  23.131  26.961  1.00  0.00     0.060 A 
ATOM     28  C   UNL A   1      39.385  24.359  26.540  1.00  0.00     0.016 A 
ATOM     29  C   UNL A   1      40.869  23.069  27.945  1.00  0.00     0.016 A 
ATOM     30  C   UNL A   1      39.904  25.536  27.063  1.00  0.00     0.010 A 
ATOM     31  C   UNL A   1      41.364  24.259  28.500  1.00  0.00     0.010 A 
ATOM     32  C   UNL A   1      40.909  25.506  28.038  1.00  0.00    -0.014 A 
BRANCH  32  33
ATOM     33  C   UNL A   1      41.529  26.790  28.470  1.00  0.00     0.031 A 
ATOM     34  C   UNL A   1      42.981  27.059  28.165  1.00  0.00     0.074 A 
ATOM     35  C   UNL A   1      40.766  27.787  28.966  1.00  0.00     0.049 A 
ATOM     36  N   UNL A   1      43.689  28.135  28.407  1.00  0.00    -0.248 NA
ATOM     37  C   UNL A   1      43.723  26.002  27.458  1.00  0.00     0.031 C 
ATOM     38  C   UNL A   1      39.317  27.724  29.159  1.00  0.00     0.029 A 
ATOM     39  N   UNL A   1      41.093  29.073  29.323  1.00  0.00    -0.354 N 
ATOM     40  C   UNL A   1      44.967  27.865  27.929  1.00  0.00     0.074 A 
ATOM     41  C   UNL A   1      44.933  26.534  27.364  1.00  0.00     0.031 C 
ATOM     42  C   UNL A   1      38.870  28.941  29.508  1.00  0.00     0.029 A 
ATOM     43  C   UNL A   1      40.005  29.849  29.645  1.00  0.00     0.049 A 
ATOM     44  H   UNL A   1      42.020  29.406  29.347  1.00  0.00     0.167 HD
ATOM     45  C   UNL A   1      46.072  28.647  27.962  1.00  0.00     0.031 A 
ATOM     46  C   UNL A   1      39.923  31.142  30.017  1.00  0.00     0.031 A 
ATOM     47  C   UNL A   1      46.115  29.979  28.495  1.00  0.00     0.049 A 
ATOM     48  C   UNL A   1      41.184  31.952  30.151  1.00  0.00     0.074 A 
ATOM     49  C   UNL A   1      47.203  30.829  28.600  1.00  0.00     0.029 A 
ATOM     50  N   UNL A   1      45.026  30.660  29.013  1.00  0.00    -0.354 N 
ATOM     51  N   UNL A   1      42.403  31.646  29.776  1.00  0.00    -0.248 NA
ATOM     52  C   UNL A   1      41.058  33.272  30.786  1.00  0.00     0.031 C 
ATOM     53  C   UNL A   1      46.776  32.015  29.208  1.00  0.00     0.029 A 
ATOM     54  C   UNL A   1      45.414  31.920  29.437  1.00  0.00     0.049 A 
ATOM     55  H   UNL A   1      44.111  30.301  29.071  1.00  0.00     0.167 HD
ATOM     56  C   UNL A   1      43.190  32.734  30.146  1.00  0.00     0.074 A 
ATOM     57  C   UNL A   1      42.304  33.719  30.727  1.00  0.00     0.031 C 
ATOM     58  C   UNL A   1      44.530  32.895  30.021  1.00  0.00     0.031 A 
BRANCH  45  59
ATOM     59  C   UNL A   1      47.355  28.044  27.464  1.00  0.00    -0.014 A 
ATOM     60  C   UNL A   1      47.620  27.900  26.091  1.00  0.00     0.010 A 
ATOM     61  C   UNL A   1      48.324  27.636  28.400  1.00  0.00     0.010 A 
ATOM     62  C   UNL A   1      48.820  27.325  25.665  1.00  0.00     0.020 A 
ATOM     63  C   UNL A   1      49.531  27.079  27.976  1.00  0.00     0.020 A 
ATOM     64  C   UNL A   1      49.764  26.910  26.610  1.00  0.00     0.054 A 
BRANCH  64  65
ATOM     65  S   UNL A   1      51.315  26.166  26.034  1.00  0.00     0.124 S 
ATOM     66  O   UNL A   1      52.309  26.938  26.777  1.00  0.00    -0.237 OA
ATOM     67  O   UNL A   1      51.173  24.770  26.439  1.00  0.00    -0.237 OA
ATOM     68  O   UNL A   1      51.296  26.399  24.592  1.00  0.00    -0.744 OA
ENDBRANCH  64  65
ENDBRANCH  45  59
BRANCH  46  69
ATOM     69  C   UNL A   1      38.604  31.754  30.338  1.00  0.00    -0.014 A 
ATOM     70  C   UNL A   1      37.861  32.413  29.343  1.00  0.00     0.010 A 
ATOM     71  C   UNL A   1      38.095  31.701  31.649  1.00  0.00     0.010 A 
ATOM     72  C   UNL A   1      36.640  33.019  29.657  1.00  0.00     0.020 A 
ATOM     73  C   UNL A   1      36.863  32.279  31.959  1.00  0.00     0.020 A 
ATOM     74  C   UNL A   1      36.149  32.948  30.964  1.00  0.00     0.054 A 
BRANCH  74  75
ATOM     75  S   UNL A   1      34.543  33.698  31.353  1.00  0.00     0.124 S 
ATOM     76  O   UNL A   1      33.937  33.818  30.031  1.00  0.00    -0.237 OA
ATOM     77  O   UNL A   1      33.934  32.715  32.244  1.00  0.00    -0.237 OA
ATOM     78  O   UNL A   1      34.907  34.961  31.992  1.00  0.00    -0.744 OA
ENDBRANCH  74  75
ENDBRANCH  46  69
BRANCH  58  79
ATOM     79  C   UNL A   1      45.128  34.186  30.509  1.00  0.00    -0.014 A 
ATOM     80  C   UNL A   1      45.205  35.309  29.667  1.00  0.00     0.010 A 
ATOM     81  C   UNL A   1      45.561  34.299  31.842  1.00  0.00     0.010 A 
ATOM     82  C   UNL A   1      45.723  36.517  30.143  1.00  0.00     0.020 A 
ATOM     83  C   UNL A   1      46.059  35.511  32.329  1.00  0.00     0.020 A 
ATOM     84  C   UNL A   1      46.147  36.610  31.473  1.00  0.00     0.054 A 
BRANCH  84  85
ATOM     85  S   UNL A   1      46.760  38.204  32.087  1.00  0.00     0.124 S 
ATOM     86  O   UNL A   1      45.795  39.140  31.517  1.00  0.00    -0.237 OA
ATOM     87  O   UNL A   1      46.695  38.038  33.536  1.00  0.00    -0.237 OA
ATOM     88  O   UNL A   1      48.111  38.289  31.536  1.00  0.00    -0.744 OA
ENDBRANCH  84  85
ENDBRANCH  58  79
ENDBRANCH  32  33
ENDBRANCH  25  27
ENDBRANCH  24  25
ENDBRANCH  23  24
ENDBRANCH   1  23
TORSDOF 17
ENDMDL
MODEL 3
REMARK VINA RESULT:      -8.6      4.779     10.443
REMARK SMILES C[C@@H](C(=O)OCCOC(=O)c1ccc(-c2c3nc(c(-c4ccc(S(=O)(=O)[O-])cc4)c4ccc([nH]4)c(-c4ccc(S(=O)(=O)[O-])cc4)c4nc(c(-c5ccc(S(=O)(=O)[O-])cc5)c5ccc2[nH]5)C=C4)C=C3)cc1)c1ccc(-c2ccn(C(F)F)c(=O)c2)cc1
REMARK SMILES IDX 6 1 5 2 3 3 4 4 2 5 1 6 71 7 72 8 86 9 73 10 85 11 74 12
REMARK SMILES IDX 75 13 76 14 84 15 77 16 82 17 78 18 83 19 79 20 80 21 81 22
REMARK SMILES IDX 7 23 8 24 9 25 10 26 11 27 12 28 70 29 13 30 69 31 14 32
REMARK SMILES IDX 15 33 16 34 63 35 17 36 68 37 62 38 64 39 18 40 67 41 61 42
REMARK SMILES IDX 60 43 19 45 49 46 30 47 48 48 31 49 34 50 47 51 65 52 32 53
REMARK SMILES IDX 33 54 46 56 66 57 35 58 20 59 21 60 29 61 22 62 28 63 23 64
REMARK SMILES IDX 24 65 25 66 26 67 27 68 50 69 51 70 59 71 52 72 58 73 53 74
REMARK SMILES IDX 54 75 55 76 56 77 57 78 36 79 37 80 45 81 38 82 44 83 39 84
REMARK SMILES IDX 40 85 41 86 42 87 43 88
REMARK H PARENT 64 44 34 55
REMARK Flexibility Score: inf
ROOT
ATOM      1  C   UNL A   1      44.377  22.856  25.621  1.00  0.00     0.274 C 
ENDROOT
BRANCH   1   2
ATOM      2  O   UNL A   1      43.117  22.431  25.061  1.00  0.00    -0.462 OA
BRANCH   2   3
ATOM      3  C   UNL A   1      42.285  21.711  25.869  1.00  0.00     0.313 C 
ATOM      4  O   UNL A   1      42.174  20.492  25.801  1.00  0.00    -0.252 OA
BRANCH   3   5
ATOM      5  C   UNL A   1      41.445  22.606  26.808  1.00  0.00     0.126 C 
ATOM      6  C   UNL A   1      41.694  22.268  28.286  1.00  0.00     0.025 C 
BRANCH   5   7
ATOM      7  C   UNL A   1      39.956  22.658  26.425  1.00  0.00    -0.034 A 
ATOM      8  C   UNL A   1      39.265  21.560  25.883  1.00  0.00     0.005 A 
ATOM      9  C   UNL A   1      39.226  23.847  26.612  1.00  0.00     0.005 A 
ATOM     10  C   UNL A   1      37.916  21.658  25.507  1.00  0.00     0.009 A 
ATOM     11  C   UNL A   1      37.883  23.950  26.221  1.00  0.00     0.009 A 
ATOM     12  C   UNL A   1      37.217  22.857  25.657  1.00  0.00    -0.018 A 
BRANCH  12  13
ATOM     13  C   UNL A   1      35.844  23.000  25.129  1.00  0.00    -0.011 A 
ATOM     14  C   UNL A   1      35.223  24.298  24.952  1.00  0.00     0.027 A 
ATOM     15  C   UNL A   1      35.123  21.901  24.847  1.00  0.00     0.080 A 
ATOM     16  C   UNL A   1      33.933  24.407  24.616  1.00  0.00     0.095 A 
ATOM     17  C   UNL A   1      33.697  22.006  24.407  1.00  0.00     0.255 A 
ATOM     18  N   UNL A   1      33.168  23.285  24.372  1.00  0.00    -0.258 N 
ATOM     19  O   UNL A   1      33.102  20.970  24.126  1.00  0.00    -0.269 OA
BRANCH  18  20
ATOM     20  C   UNL A   1      31.766  23.428  24.056  1.00  0.00     0.451 C 
ATOM     21  F   UNL A   1      31.004  23.220  25.161  1.00  0.00    -0.185 F 
ATOM     22  F   UNL A   1      31.504  24.681  23.604  1.00  0.00    -0.185 F 
ENDBRANCH  18  20
ENDBRANCH  12  13
ENDBRANCH   5   7
ENDBRANCH   3   5
ENDBRANCH   2   3
ENDBRANCH   1   2
BRANCH   1  23
ATOM     23  C   UNL A   1      44.606  24.345  25.368  1.00  0.00     0.275 C 
BRANCH  23  24
ATOM     24  O   UNL A   1      43.916  25.113  26.368  1.00  0.00    -0.458 OA
BRANCH  24  25
ATOM     25  C   UNL A   1      42.822  25.785  25.947  1.00  0.00     0.338 C 
ATOM     26  O   UNL A   1      42.239  25.677  24.883  1.00  0.00    -0.246 OA
BRANCH  25  27
ATOM     27  C   UNL A   1      42.354  26.634  27.049  1.00  0.00     0.060 A 
ATOM     28  C   UNL A   1      42.892  27.911  27.154  1.00  0.00     0.016 A 
ATOM     29  C   UNL A   1      41.468  26.159  28.016  1.00  0.00     0.016 A 
ATOM     30  C   UNL A   1      42.587  28.707  28.251  1.00  0.00     0.010 A 
ATOM     31  C   UNL A   1      41.131  26.979  29.103  1.00  0.00     0.010 A 
ATOM     32  C   UNL A   1      41.715  28.250  29.248  1.00  0.00    -0.014 A 
BRANCH  32  33
ATOM     33  C   UNL A   1      41.524  29.080  30.470  1.00  0.00     0.031 A 
ATOM     34  C   UNL A   1      40.341  30.011  30.565  1.00  0.00     0.074 A 
ATOM     35  C   UNL A   1      42.289  28.877  31.563  1.00  0.00     0.049 A 
ATOM     36  N   UNL A   1      39.969  30.773  31.564  1.00  0.00    -0.248 NA
ATOM     37  C   UNL A   1      39.434  30.058  29.406  1.00  0.00     0.031 C 
ATOM     38  C   UNL A   1      43.364  27.890  31.669  1.00  0.00     0.029 A 
ATOM     39  N   UNL A   1      42.226  29.436  32.817  1.00  0.00    -0.354 N 
ATOM     40  C   UNL A   1      38.818  31.426  31.136  1.00  0.00     0.074 A 
ATOM     41  C   UNL A   1      38.540  30.956  29.796  1.00  0.00     0.031 C 
ATOM     42  C   UNL A   1      43.794  27.847  32.940  1.00  0.00     0.029 A 
ATOM     43  C   UNL A   1      43.087  28.858  33.721  1.00  0.00     0.049 A 
ATOM     44  H   UNL A   1      41.622  30.179  33.047  1.00  0.00     0.167 HD
ATOM     45  C   UNL A   1      38.063  32.339  31.790  1.00  0.00     0.031 A 
ATOM     46  C   UNL A   1      43.295  29.115  35.028  1.00  0.00     0.031 A 
ATOM     47  C   UNL A   1      38.311  32.797  33.129  1.00  0.00     0.049 A 
ATOM     48  C   UNL A   1      42.516  30.213  35.698  1.00  0.00     0.074 A 
ATOM     49  C   UNL A   1      37.615  33.747  33.856  1.00  0.00     0.029 A 
ATOM     50  N   UNL A   1      39.332  32.339  33.946  1.00  0.00    -0.354 N 
ATOM     51  N   UNL A   1      41.484  30.886  35.244  1.00  0.00    -0.248 NA
ATOM     52  C   UNL A   1      42.950  30.605  37.047  1.00  0.00     0.031 C 
ATOM     53  C   UNL A   1      38.234  33.885  35.103  1.00  0.00     0.029 A 
ATOM     54  C   UNL A   1      39.284  32.985  35.169  1.00  0.00     0.049 A 
ATOM     55  H   UNL A   1      39.994  31.655  33.693  1.00  0.00     0.167 HD
ATOM     56  C   UNL A   1      41.159  31.791  36.251  1.00  0.00     0.074 A 
ATOM     57  C   UNL A   1      42.069  31.548  37.350  1.00  0.00     0.031 C 
ATOM     58  C   UNL A   1      40.196  32.745  36.257  1.00  0.00     0.031 A 
BRANCH  45  59
ATOM     59  C   UNL A   1      36.927  32.963  31.031  1.00  0.00    -0.014 A 
ATOM     60  C   UNL A   1      37.142  33.703  29.856  1.00  0.00     0.010 A 
ATOM     61  C   UNL A   1      35.612  32.777  31.497  1.00  0.00     0.010 A 
ATOM     62  C   UNL A   1      36.062  34.278  29.181  1.00  0.00     0.020 A 
ATOM     63  C   UNL A   1      34.529  33.334  30.815  1.00  0.00     0.020 A 
ATOM     64  C   UNL A   1      34.764  34.097  29.670  1.00  0.00     0.054 A 
BRANCH  64  65
ATOM     65  S   UNL A   1      33.376  34.852  28.778  1.00  0.00     0.124 S 
ATOM     66  O   UNL A   1      33.993  36.061  28.236  1.00  0.00    -0.237 OA
ATOM     67  O   UNL A   1      33.030  33.829  27.795  1.00  0.00    -0.237 OA
ATOM     68  O   UNL A   1      32.376  35.076  29.818  1.00  0.00    -0.744 OA
ENDBRANCH  64  65
ENDBRANCH  45  59
BRANCH  46  69
ATOM     69  C   UNL A   1      44.318  28.350  35.794  1.00  0.00    -0.014 A 
ATOM     70  C   UNL A   1      43.958  27.197  36.514  1.00  0.00     0.010 A 
ATOM     71  C   UNL A   1      45.655  28.787  35.828  1.00  0.00     0.010 A 
ATOM     72  C   UNL A   1      44.915  26.503  37.263  1.00  0.00     0.020 A 
ATOM     73  C   UNL A   1      46.619  28.080  36.550  1.00  0.00     0.020 A 
ATOM     74  C   UNL A   1      46.239  26.950  37.276  1.00  0.00     0.054 A 
BRANCH  74  75
ATOM     75  S   UNL A   1      47.483  26.019  38.214  1.00  0.00     0.124 S 
ATOM     76  O   UNL A   1      47.480  24.733  37.525  1.00  0.00    -0.237 OA
ATOM     77  O   UNL A   1      48.687  26.828  38.045  1.00  0.00    -0.237 OA
ATOM     78  O   UNL A   1      46.940  26.005  39.570  1.00  0.00    -0.744 OA
ENDBRANCH  74  75
ENDBRANCH  46  69
BRANCH  58  79
ATOM     79  C   UNL A   1      40.061  33.594  37.492  1.00  0.00    -0.014 A 
ATOM     80  C   UNL A   1      40.720  34.832  37.592  1.00  0.00     0.010 A 
ATOM     81  C   UNL A   1      39.217  33.180  38.538  1.00  0.00     0.010 A 
ATOM     82  C   UNL A   1      40.554  35.631  38.727  1.00  0.00     0.020 A 
ATOM     83  C   UNL A   1      39.030  33.987  39.664  1.00  0.00     0.020 A 
ATOM     84  C   UNL A   1      39.709  35.204  39.756  1.00  0.00     0.054 A 
BRANCH  84  85
ATOM     85  S   UNL A   1      39.461  36.286  41.191  1.00  0.00     0.124 S 
ATOM     86  O   UNL A   1      38.124  35.902  41.634  1.00  0.00    -0.237 OA
ATOM     87  O   UNL A   1      40.554  35.900  42.080  1.00  0.00    -0.237 OA
ATOM     88  O   UNL A   1      39.569  37.632  40.631  1.00  0.00    -0.744 OA
ENDBRANCH  84  85
ENDBRANCH  58  79
ENDBRANCH  32  33
ENDBRANCH  25  27
ENDBRANCH  24  25
ENDBRANCH  23  24
ENDBRANCH   1  23
TORSDOF 17
ENDMDL
