MODEL 1
REMARK VINA RESULT:     -10.8      0.000      0.000
REMARK SMILES O=C(CCN1C(=O)/C(=C2\C(=O)N(Cc3ccc(Cl)cc3)c3ccccc32)SC1=S)OCCOC(=O)c1ccc(-c2c3nc(c(-c4ccc(S(=O)(=O)[O-])cc4)c4ccc([nH]4)c(-c4ccc(S(=O)(=O)[O-])cc4)c4nc(c(-c5ccc(S(=O)(=O)[O-])cc5)c5ccc2[nH]5)C=C4)C=C3)cc1
REMARK SMILES IDX 31 1 30 2 2 3 1 4 3 5 4 6 5 7 6 8 28 9 7 10 8 11 27 12 29 13
REMARK SMILES IDX 9 14 10 15 26 16 11 17 12 18 21 19 25 20 22 21 24 22 23 23
REMARK SMILES IDX 13 24 14 25 15 26 20 27 16 28 19 29 17 30 18 31 32 32 33 33
REMARK SMILES IDX 34 34 35 35 36 36 37 37 95 38 38 39 94 40 39 41 40 42 41 43
REMARK SMILES IDX 88 44 42 45 93 46 87 47 89 48 43 49 92 50 86 51 85 52 44 54
REMARK SMILES IDX 74 55 55 56 73 57 56 58 59 59 72 60 90 61 57 62 58 63 71 65
REMARK SMILES IDX 91 66 60 67 45 68 46 69 54 70 47 71 53 72 48 73 49 74 50 75
REMARK SMILES IDX 51 76 52 77 75 78 76 79 84 80 77 81 83 82 78 83 79 84 80 85
REMARK SMILES IDX 81 86 82 87 61 88 62 89 70 90 63 91 69 92 64 93 65 94 66 95
REMARK SMILES IDX 67 96 68 97
REMARK H PARENT 89 53 59 64
REMARK Flexibility Score: inf
ROOT
ATOM      1  C   UNL A   1      31.921  28.736  26.788  1.00  0.00     0.274 C 
ENDROOT
BRANCH   1   2
ATOM      2  O   UNL A   1      30.991  28.545  25.700  1.00  0.00    -0.462 OA
BRANCH   2   3
ATOM      3  C   UNL A   1      30.516  27.364  25.243  1.00  0.00     0.307 C 
ATOM      4  O   UNL A   1      30.767  26.318  25.838  1.00  0.00    -0.252 OA
BRANCH   3   5
ATOM      5  C   UNL A   1      29.731  27.332  23.959  1.00  0.00     0.144 C 
BRANCH   5   6
ATOM      6  C   UNL A   1      30.578  27.575  22.725  1.00  0.00     0.139 C 
BRANCH   6   7
ATOM      7  N   UNL A   1      31.890  26.932  22.802  1.00  0.00    -0.292 N 
ATOM      8  C   UNL A   1      31.964  25.556  22.639  1.00  0.00     0.267 C 
ATOM      9  C   UNL A   1      33.082  27.603  22.962  1.00  0.00     0.148 C 
ATOM     10  O   UNL A   1      31.057  24.871  22.202  1.00  0.00    -0.268 OA
ATOM     11  C   UNL A   1      33.329  25.073  22.989  1.00  0.00     0.093 C 
ATOM     12  S   UNL A   1      34.391  26.446  22.956  1.00  0.00    -0.053 SA
ATOM     13  S   UNL A   1      33.350  29.242  23.091  1.00  0.00    -0.052 S 
ATOM     14  C   UNL A   1      33.636  23.860  23.481  1.00  0.00     0.069 C 
ATOM     15  C   UNL A   1      32.649  22.747  23.747  1.00  0.00     0.260 C 
ATOM     16  C   UNL A   1      34.865  23.504  24.215  1.00  0.00     0.012 A 
ATOM     17  O   UNL A   1      31.608  22.505  23.170  1.00  0.00    -0.269 OA
ATOM     18  N   UNL A   1      33.213  22.012  24.788  1.00  0.00    -0.303 N 
ATOM     19  C   UNL A   1      34.500  22.484  25.099  1.00  0.00     0.052 A 
ATOM     20  C   UNL A   1      36.165  23.985  24.207  1.00  0.00     0.011 A 
ATOM     21  C   UNL A   1      35.357  22.058  26.098  1.00  0.00     0.027 A 
ATOM     22  C   UNL A   1      37.059  23.519  25.173  1.00  0.00     0.001 A 
ATOM     23  C   UNL A   1      36.647  22.588  26.133  1.00  0.00     0.002 A 
BRANCH  18  24
ATOM     24  C   UNL A   1      32.594  20.828  25.342  1.00  0.00     0.161 C 
BRANCH  24  25
ATOM     25  C   UNL A   1      33.099  19.544  24.708  1.00  0.00    -0.028 A 
ATOM     26  C   UNL A   1      34.359  19.022  25.038  1.00  0.00     0.007 A 
ATOM     27  C   UNL A   1      32.323  18.862  23.758  1.00  0.00     0.007 A 
ATOM     28  C   UNL A   1      34.846  17.868  24.423  1.00  0.00     0.021 A 
ATOM     29  C   UNL A   1      32.800  17.690  23.158  1.00  0.00     0.021 A 
ATOM     30  C   UNL A   1      34.063  17.205  23.486  1.00  0.00     0.041 A 
ATOM     31  Cl  UNL A   1      34.663  15.778  22.735  1.00  0.00    -0.084 Cl
ENDBRANCH  24  25
ENDBRANCH  18  24
ENDBRANCH   6   7
ENDBRANCH   5   6
ENDBRANCH   3   5
ENDBRANCH   2   3
ENDBRANCH   1   2
BRANCH   1  32
ATOM     32  C   UNL A   1      32.484  30.157  26.814  1.00  0.00     0.275 C 
BRANCH  32  33
ATOM     33  O   UNL A   1      33.919  30.107  26.855  1.00  0.00    -0.458 OA
BRANCH  33  34
ATOM     34  C   UNL A   1      34.513  30.943  27.743  1.00  0.00     0.338 C 
ATOM     35  O   UNL A   1      33.996  31.888  28.311  1.00  0.00    -0.246 OA
BRANCH  34  36
ATOM     36  C   UNL A   1      35.838  30.382  28.097  1.00  0.00     0.060 A 
ATOM     37  C   UNL A   1      36.901  30.368  27.186  1.00  0.00     0.016 A 
ATOM     38  C   UNL A   1      35.981  29.775  29.352  1.00  0.00     0.016 A 
ATOM     39  C   UNL A   1      38.104  29.749  27.533  1.00  0.00     0.010 A 
ATOM     40  C   UNL A   1      37.182  29.149  29.694  1.00  0.00     0.010 A 
ATOM     41  C   UNL A   1      38.254  29.142  28.791  1.00  0.00    -0.014 A 
BRANCH  41  42
ATOM     42  C   UNL A   1      39.584  28.655  29.224  1.00  0.00     0.031 A 
ATOM     43  C   UNL A   1      40.094  27.295  28.856  1.00  0.00     0.074 A 
ATOM     44  C   UNL A   1      40.332  29.479  29.983  1.00  0.00     0.049 A 
ATOM     45  N   UNL A   1      41.254  26.759  29.138  1.00  0.00    -0.248 NA
ATOM     46  C   UNL A   1      39.203  26.425  28.075  1.00  0.00     0.031 C 
ATOM     47  C   UNL A   1      39.926  30.822  30.405  1.00  0.00     0.029 A 
ATOM     48  N   UNL A   1      41.576  29.315  30.537  1.00  0.00    -0.354 N 
ATOM     49  C   UNL A   1      41.249  25.502  28.550  1.00  0.00     0.074 A 
ATOM     50  C   UNL A   1      39.953  25.337  27.924  1.00  0.00     0.031 C 
ATOM     51  C   UNL A   1      40.900  31.357  31.154  1.00  0.00     0.029 A 
ATOM     52  C   UNL A   1      41.986  30.390  31.288  1.00  0.00     0.049 A 
ATOM     53  H   UNL A   1      42.121  28.506  30.409  1.00  0.00     0.167 HD
ATOM     54  C   UNL A   1      42.245  24.585  28.526  1.00  0.00     0.031 A 
ATOM     55  C   UNL A   1      43.104  30.579  32.018  1.00  0.00     0.031 A 
ATOM     56  C   UNL A   1      43.524  24.759  29.169  1.00  0.00     0.049 A 
ATOM     57  C   UNL A   1      44.164  29.517  32.026  1.00  0.00     0.074 A 
ATOM     58  C   UNL A   1      44.611  23.899  29.148  1.00  0.00     0.029 A 
ATOM     59  N   UNL A   1      43.889  25.843  29.952  1.00  0.00    -0.354 N 
ATOM     60  N   UNL A   1      44.176  28.369  31.392  1.00  0.00    -0.248 NA
ATOM     61  C   UNL A   1      45.366  29.773  32.833  1.00  0.00     0.031 C 
ATOM     62  C   UNL A   1      45.601  24.426  29.976  1.00  0.00     0.029 A 
ATOM     63  C   UNL A   1      45.166  25.650  30.456  1.00  0.00     0.049 A 
ATOM     64  H   UNL A   1      43.327  26.631  30.124  1.00  0.00     0.167 HD
ATOM     65  C   UNL A   1      45.387  27.770  31.716  1.00  0.00     0.074 A 
ATOM     66  C   UNL A   1      46.092  28.690  32.583  1.00  0.00     0.031 C 
ATOM     67  C   UNL A   1      45.864  26.564  31.327  1.00  0.00     0.031 A 
BRANCH  54  68
ATOM     68  C   UNL A   1      42.044  23.303  27.760  1.00  0.00    -0.014 A 
ATOM     69  C   UNL A   1      41.421  22.206  28.383  1.00  0.00     0.010 A 
ATOM     70  C   UNL A   1      42.666  23.122  26.512  1.00  0.00     0.010 A 
ATOM     71  C   UNL A   1      41.473  20.936  27.800  1.00  0.00     0.020 A 
ATOM     72  C   UNL A   1      42.702  21.857  25.917  1.00  0.00     0.020 A 
ATOM     73  C   UNL A   1      42.133  20.767  26.580  1.00  0.00     0.054 A 
BRANCH  73  74
ATOM     74  S   UNL A   1      42.273  19.097  25.884  1.00  0.00     0.124 S 
ATOM     75  O   UNL A   1      42.895  18.357  26.976  1.00  0.00    -0.237 OA
ATOM     76  O   UNL A   1      40.881  18.754  25.599  1.00  0.00    -0.237 OA
ATOM     77  O   UNL A   1      43.110  19.289  24.701  1.00  0.00    -0.744 OA
ENDBRANCH  73  74
ENDBRANCH  54  68
BRANCH  55  78
ATOM     78  C   UNL A   1      43.253  31.843  32.787  1.00  0.00    -0.014 A 
ATOM     79  C   UNL A   1      42.746  31.932  34.098  1.00  0.00     0.010 A 
ATOM     80  C   UNL A   1      43.821  32.983  32.193  1.00  0.00     0.010 A 
ATOM     81  C   UNL A   1      42.756  33.148  34.782  1.00  0.00     0.020 A 
ATOM     82  C   UNL A   1      43.860  34.196  32.887  1.00  0.00     0.020 A 
ATOM     83  C   UNL A   1      43.303  34.276  34.166  1.00  0.00     0.054 A 
BRANCH  83  84
ATOM     84  S   UNL A   1      43.274  35.856  35.058  1.00  0.00     0.124 S 
ATOM     85  O   UNL A   1      44.698  36.103  35.272  1.00  0.00    -0.237 OA
ATOM     86  O   UNL A   1      42.616  36.749  34.109  1.00  0.00    -0.237 OA
ATOM     87  O   UNL A   1      42.503  35.553  36.261  1.00  0.00    -0.744 OA
ENDBRANCH  83  84
ENDBRANCH  55  78
BRANCH  67  88
ATOM     88  C   UNL A   1      47.210  26.126  31.841  1.00  0.00    -0.014 A 
ATOM     89  C   UNL A   1      48.298  26.017  30.954  1.00  0.00     0.010 A 
ATOM     90  C   UNL A   1      47.357  25.674  33.164  1.00  0.00     0.010 A 
ATOM     91  C   UNL A   1      49.491  25.419  31.367  1.00  0.00     0.020 A 
ATOM     92  C   UNL A   1      48.560  25.101  33.588  1.00  0.00     0.020 A 
ATOM     93  C   UNL A   1      49.608  24.949  32.678  1.00  0.00     0.054 A 
BRANCH  93  94
ATOM     94  S   UNL A   1      51.143  24.119  33.176  1.00  0.00     0.124 S 
ATOM     95  O   UNL A   1      51.401  23.242  32.039  1.00  0.00    -0.237 OA
ATOM     96  O   UNL A   1      52.073  25.233  33.336  1.00  0.00    -0.237 OA
ATOM     97  O   UNL A   1      50.777  23.440  34.418  1.00  0.00    -0.744 OA
ENDBRANCH  93  94
ENDBRANCH  67  88
ENDBRANCH  41  42
ENDBRANCH  34  36
ENDBRANCH  33  34
ENDBRANCH  32  33
ENDBRANCH   1  32
TORSDOF 18
ENDMDL
MODEL 2
REMARK VINA RESULT:     -10.6      9.343     16.190
REMARK SMILES O=C(CCN1C(=O)/C(=C2\C(=O)N(Cc3ccc(Cl)cc3)c3ccccc32)SC1=S)OCCOC(=O)c1ccc(-c2c3nc(c(-c4ccc(S(=O)(=O)[O-])cc4)c4ccc([nH]4)c(-c4ccc(S(=O)(=O)[O-])cc4)c4nc(c(-c5ccc(S(=O)(=O)[O-])cc5)c5ccc2[nH]5)C=C4)C=C3)cc1
REMARK SMILES IDX 31 1 30 2 2 3 1 4 3 5 4 6 5 7 6 8 28 9 7 10 8 11 27 12 29 13
REMARK SMILES IDX 9 14 10 15 26 16 11 17 12 18 21 19 25 20 22 21 24 22 23 23
REMARK SMILES IDX 13 24 14 25 15 26 20 27 16 28 19 29 17 30 18 31 32 32 33 33
REMARK SMILES IDX 34 34 35 35 36 36 37 37 95 38 38 39 94 40 39 41 40 42 41 43
REMARK SMILES IDX 88 44 42 45 93 46 87 47 89 48 43 49 92 50 86 51 85 52 44 54
REMARK SMILES IDX 74 55 55 56 73 57 56 58 59 59 72 60 90 61 57 62 58 63 71 65
REMARK SMILES IDX 91 66 60 67 45 68 46 69 54 70 47 71 53 72 48 73 49 74 50 75
REMARK SMILES IDX 51 76 52 77 75 78 76 79 84 80 77 81 83 82 78 83 79 84 80 85
REMARK SMILES IDX 81 86 82 87 61 88 62 89 70 90 63 91 69 92 64 93 65 94 66 95
REMARK SMILES IDX 67 96 68 97
REMARK H PARENT 89 53 59 64
REMARK Flexibility Score: inf
ROOT
ATOM      1  C   UNL A   1      45.740  38.567  29.291  1.00  0.00     0.274 C 
ENDROOT
BRANCH   1   2
ATOM      2  O   UNL A   1      45.118  37.789  28.246  1.00  0.00    -0.462 OA
BRANCH   2   3
ATOM      3  C   UNL A   1      44.128  38.194  27.419  1.00  0.00     0.307 C 
ATOM      4  O   UNL A   1      43.034  37.634  27.433  1.00  0.00    -0.252 OA
BRANCH   3   5
ATOM      5  C   UNL A   1      44.397  39.298  26.431  1.00  0.00     0.144 C 
BRANCH   5   6
ATOM      6  C   UNL A   1      43.280  40.321  26.348  1.00  0.00     0.139 C 
BRANCH   6   7
ATOM      7  N   UNL A   1      43.732  41.614  25.833  1.00  0.00    -0.292 N 
ATOM      8  C   UNL A   1      43.060  42.166  24.751  1.00  0.00     0.267 C 
ATOM      9  C   UNL A   1      44.744  42.366  26.385  1.00  0.00     0.148 C 
ATOM     10  O   UNL A   1      41.979  41.777  24.347  1.00  0.00    -0.268 OA
ATOM     11  C   UNL A   1      43.810  43.343  24.231  1.00  0.00     0.093 C 
ATOM     12  S   UNL A   1      44.912  43.849  25.475  1.00  0.00    -0.053 SA
ATOM     13  S   UNL A   1      45.676  42.040  27.726  1.00  0.00    -0.052 S 
ATOM     14  C   UNL A   1      43.816  43.778  22.960  1.00  0.00     0.069 C 
ATOM     15  C   UNL A   1      43.038  43.164  21.820  1.00  0.00     0.260 C 
ATOM     16  C   UNL A   1      44.839  44.642  22.340  1.00  0.00     0.012 A 
ATOM     17  O   UNL A   1      41.974  42.580  21.859  1.00  0.00    -0.269 OA
ATOM     18  N   UNL A   1      43.790  43.447  20.682  1.00  0.00    -0.303 N 
ATOM     19  C   UNL A   1      44.879  44.280  20.991  1.00  0.00     0.052 A 
ATOM     20  C   UNL A   1      45.700  45.616  22.825  1.00  0.00     0.011 A 
ATOM     21  C   UNL A   1      45.880  44.738  20.152  1.00  0.00     0.027 A 
ATOM     22  C   UNL A   1      46.678  46.130  21.972  1.00  0.00     0.001 A 
ATOM     23  C   UNL A   1      46.788  45.669  20.655  1.00  0.00     0.002 A 
BRANCH  18  24
ATOM     24  C   UNL A   1      43.384  43.052  19.350  1.00  0.00     0.161 C 
BRANCH  24  25
ATOM     25  C   UNL A   1      42.914  44.221  18.502  1.00  0.00    -0.028 A 
ATOM     26  C   UNL A   1      43.740  44.771  17.510  1.00  0.00     0.007 A 
ATOM     27  C   UNL A   1      41.650  44.794  18.711  1.00  0.00     0.007 A 
ATOM     28  C   UNL A   1      43.331  45.875  16.761  1.00  0.00     0.021 A 
ATOM     29  C   UNL A   1      41.228  45.886  17.943  1.00  0.00     0.021 A 
ATOM     30  C   UNL A   1      42.075  46.427  16.979  1.00  0.00     0.041 A 
ATOM     31  Cl  UNL A   1      41.571  47.784  16.048  1.00  0.00    -0.084 Cl
ENDBRANCH  24  25
ENDBRANCH  18  24
ENDBRANCH   6   7
ENDBRANCH   5   6
ENDBRANCH   3   5
ENDBRANCH   2   3
ENDBRANCH   1   2
BRANCH   1  32
ATOM     32  C   UNL A   1      47.257  38.383  29.315  1.00  0.00     0.275 C 
BRANCH  32  33
ATOM     33  O   UNL A   1      47.596  37.272  30.159  1.00  0.00    -0.458 OA
BRANCH  33  34
ATOM     34  C   UNL A   1      48.537  36.425  29.670  1.00  0.00     0.338 C 
ATOM     35  O   UNL A   1      49.741  36.605  29.658  1.00  0.00    -0.246 OA
BRANCH  34  36
ATOM     36  C   UNL A   1      47.884  35.131  29.362  1.00  0.00     0.060 A 
ATOM     37  C   UNL A   1      47.225  34.909  28.147  1.00  0.00     0.016 A 
ATOM     38  C   UNL A   1      47.862  34.151  30.362  1.00  0.00     0.016 A 
ATOM     39  C   UNL A   1      46.548  33.705  27.936  1.00  0.00     0.010 A 
ATOM     40  C   UNL A   1      47.178  32.952  30.153  1.00  0.00     0.010 A 
ATOM     41  C   UNL A   1      46.526  32.717  28.934  1.00  0.00    -0.014 A 
BRANCH  41  42
ATOM     42  C   UNL A   1      45.971  31.376  28.637  1.00  0.00     0.031 A 
ATOM     43  C   UNL A   1      44.539  31.027  28.913  1.00  0.00     0.074 A 
ATOM     44  C   UNL A   1      46.806  30.459  28.114  1.00  0.00     0.049 A 
ATOM     45  N   UNL A   1      43.916  29.903  28.666  1.00  0.00    -0.248 NA
ATOM     46  C   UNL A   1      43.697  32.058  29.537  1.00  0.00     0.031 C 
ATOM     47  C   UNL A   1      48.220  30.693  27.814  1.00  0.00     0.029 A 
ATOM     48  N   UNL A   1      46.597  29.154  27.748  1.00  0.00    -0.354 N 
ATOM     49  C   UNL A   1      42.604  30.094  29.077  1.00  0.00     0.074 A 
ATOM     50  C   UNL A   1      42.527  31.433  29.627  1.00  0.00     0.031 C 
ATOM     51  C   UNL A   1      48.753  29.569  27.315  1.00  0.00     0.029 A 
ATOM     52  C   UNL A   1      47.728  28.528  27.283  1.00  0.00     0.049 A 
ATOM     53  H   UNL A   1      45.722  28.708  27.813  1.00  0.00     0.167 HD
ATOM     54  C   UNL A   1      41.565  29.232  28.985  1.00  0.00     0.031 A 
ATOM     55  C   UNL A   1      47.932  27.256  26.885  1.00  0.00     0.031 A 
ATOM     56  C   UNL A   1      41.662  27.896  28.451  1.00  0.00     0.049 A 
ATOM     57  C   UNL A   1      46.774  26.302  26.855  1.00  0.00     0.074 A 
ATOM     58  C   UNL A   1      40.643  26.974  28.272  1.00  0.00     0.029 A 
ATOM     59  N   UNL A   1      42.831  27.285  28.025  1.00  0.00    -0.354 N 
ATOM     60  N   UNL A   1      45.520  26.528  27.169  1.00  0.00    -0.248 NA
ATOM     61  C   UNL A   1      47.046  24.928  26.409  1.00  0.00     0.031 C 
ATOM     62  C   UNL A   1      41.206  25.784  27.811  1.00  0.00     0.029 A 
ATOM     63  C   UNL A   1      42.564  25.984  27.628  1.00  0.00     0.049 A 
ATOM     64  H   UNL A   1      43.718  27.711  28.006  1.00  0.00     0.167 HD
ATOM     65  C   UNL A   1      44.854  25.329  26.950  1.00  0.00     0.074 A 
ATOM     66  C   UNL A   1      45.835  24.386  26.456  1.00  0.00     0.031 C 
ATOM     67  C   UNL A   1      43.544  25.043  27.145  1.00  0.00     0.031 A 
BRANCH  54  68
ATOM     68  C   UNL A   1      40.198  29.680  29.435  1.00  0.00    -0.014 A 
ATOM     69  C   UNL A   1      39.224  30.024  28.478  1.00  0.00     0.010 A 
ATOM     70  C   UNL A   1      39.961  29.970  30.790  1.00  0.00     0.010 A 
ATOM     71  C   UNL A   1      38.062  30.701  28.861  1.00  0.00     0.020 A 
ATOM     72  C   UNL A   1      38.790  30.628  31.178  1.00  0.00     0.020 A 
ATOM     73  C   UNL A   1      37.863  31.017  30.208  1.00  0.00     0.054 A 
BRANCH  73  74
ATOM     74  S   UNL A   1      36.396  31.977  30.675  1.00  0.00     0.124 S 
ATOM     75  O   UNL A   1      35.953  31.295  31.886  1.00  0.00    -0.237 OA
ATOM     76  O   UNL A   1      36.943  33.319  30.868  1.00  0.00    -0.237 OA
ATOM     77  O   UNL A   1      35.513  31.837  29.519  1.00  0.00    -0.744 OA
ENDBRANCH  73  74
ENDBRANCH  54  68
BRANCH  55  78
ATOM     78  C   UNL A   1      49.301  26.841  26.479  1.00  0.00    -0.014 A 
ATOM     79  C   UNL A   1      49.722  27.012  25.147  1.00  0.00     0.010 A 
ATOM     80  C   UNL A   1      50.157  26.201  27.392  1.00  0.00     0.010 A 
ATOM     81  C   UNL A   1      50.950  26.506  24.720  1.00  0.00     0.020 A 
ATOM     82  C   UNL A   1      51.401  25.719  26.974  1.00  0.00     0.020 A 
ATOM     83  C   UNL A   1      51.777  25.850  25.635  1.00  0.00     0.054 A 
BRANCH  83  84
ATOM     84  S   UNL A   1      53.353  25.167  25.052  1.00  0.00     0.124 S 
ATOM     85  O   UNL A   1      53.153  23.735  25.263  1.00  0.00    -0.237 OA
ATOM     86  O   UNL A   1      53.395  25.597  23.658  1.00  0.00    -0.237 OA
ATOM     87  O   UNL A   1      54.340  25.797  25.926  1.00  0.00    -0.744 OA
ENDBRANCH  83  84
ENDBRANCH  55  78
BRANCH  67  88
ATOM     88  C   UNL A   1      43.066  23.644  26.854  1.00  0.00    -0.014 A 
ATOM     89  C   UNL A   1      42.729  22.783  27.915  1.00  0.00     0.010 A 
ATOM     90  C   UNL A   1      43.098  23.137  25.544  1.00  0.00     0.010 A 
ATOM     91  C   UNL A   1      42.484  21.428  27.677  1.00  0.00     0.020 A 
ATOM     92  C   UNL A   1      42.826  21.788  25.299  1.00  0.00     0.020 A 
ATOM     93  C   UNL A   1      42.550  20.936  26.371  1.00  0.00     0.054 A 
BRANCH  93  94
ATOM     94  S   UNL A   1      42.291  19.162  26.090  1.00  0.00     0.124 S 
ATOM     95  O   UNL A   1      40.863  19.102  25.799  1.00  0.00    -0.237 OA
ATOM     96  O   UNL A   1      43.176  18.883  24.962  1.00  0.00    -0.237 OA
ATOM     97  O   UNL A   1      42.697  18.552  27.354  1.00  0.00    -0.744 OA
ENDBRANCH  93  94
ENDBRANCH  67  88
ENDBRANCH  41  42
ENDBRANCH  34  36
ENDBRANCH  33  34
ENDBRANCH  32  33
ENDBRANCH   1  32
TORSDOF 18
ENDMDL
MODEL 3
REMARK VINA RESULT:     -10.1      4.109     10.297
REMARK SMILES O=C(CCN1C(=O)/C(=C2\C(=O)N(Cc3ccc(Cl)cc3)c3ccccc32)SC1=S)OCCOC(=O)c1ccc(-c2c3nc(c(-c4ccc(S(=O)(=O)[O-])cc4)c4ccc([nH]4)c(-c4ccc(S(=O)(=O)[O-])cc4)c4nc(c(-c5ccc(S(=O)(=O)[O-])cc5)c5ccc2[nH]5)C=C4)C=C3)cc1
REMARK SMILES IDX 31 1 30 2 2 3 1 4 3 5 4 6 5 7 6 8 28 9 7 10 8 11 27 12 29 13
REMARK SMILES IDX 9 14 10 15 26 16 11 17 12 18 21 19 25 20 22 21 24 22 23 23
REMARK SMILES IDX 13 24 14 25 15 26 20 27 16 28 19 29 17 30 18 31 32 32 33 33
REMARK SMILES IDX 34 34 35 35 36 36 37 37 95 38 38 39 94 40 39 41 40 42 41 43
REMARK SMILES IDX 88 44 42 45 93 46 87 47 89 48 43 49 92 50 86 51 85 52 44 54
REMARK SMILES IDX 74 55 55 56 73 57 56 58 59 59 72 60 90 61 57 62 58 63 71 65
REMARK SMILES IDX 91 66 60 67 45 68 46 69 54 70 47 71 53 72 48 73 49 74 50 75
REMARK SMILES IDX 51 76 52 77 75 78 76 79 84 80 77 81 83 82 78 83 79 84 80 85
REMARK SMILES IDX 81 86 82 87 61 88 62 89 70 90 63 91 69 92 64 93 65 94 66 95
REMARK SMILES IDX 67 96 68 97
REMARK H PARENT 89 53 59 64
REMARK Flexibility Score: inf
ROOT
ATOM      1  C   UNL A   1      42.563  22.219  25.847  1.00  0.00     0.274 C 
ENDROOT
BRANCH   1   2
ATOM      2  O   UNL A   1      41.216  21.729  25.678  1.00  0.00    -0.462 OA
BRANCH   2   3
ATOM      3  C   UNL A   1      40.277  21.603  26.643  1.00  0.00     0.307 C 
ATOM      4  O   UNL A   1      40.515  20.964  27.666  1.00  0.00    -0.252 OA
BRANCH   3   5
ATOM      5  C   UNL A   1      38.910  22.197  26.425  1.00  0.00     0.144 C 
BRANCH   5   6
ATOM      6  C   UNL A   1      38.487  22.221  24.969  1.00  0.00     0.139 C 
BRANCH   6   7
ATOM      7  N   UNL A   1      37.058  21.966  24.789  1.00  0.00    -0.292 N 
ATOM      8  C   UNL A   1      36.240  23.021  24.407  1.00  0.00     0.267 C 
ATOM      9  C   UNL A   1      36.462  20.730  24.909  1.00  0.00     0.148 C 
ATOM     10  O   UNL A   1      36.652  24.084  23.980  1.00  0.00    -0.268 OA
ATOM     11  C   UNL A   1      34.809  22.621  24.514  1.00  0.00     0.093 C 
ATOM     12  S   UNL A   1      34.755  20.886  24.568  1.00  0.00    -0.053 SA
ATOM     13  S   UNL A   1      37.165  19.261  25.257  1.00  0.00    -0.052 S 
ATOM     14  C   UNL A   1      33.776  23.442  24.771  1.00  0.00     0.069 C 
ATOM     15  C   UNL A   1      33.874  24.935  24.976  1.00  0.00     0.260 C 
ATOM     16  C   UNL A   1      32.454  23.042  25.290  1.00  0.00     0.012 A 
ATOM     17  O   UNL A   1      34.673  25.714  24.497  1.00  0.00    -0.269 OA
ATOM     18  N   UNL A   1      32.808  25.250  25.816  1.00  0.00    -0.303 N 
ATOM     19  C   UNL A   1      31.995  24.126  26.042  1.00  0.00     0.052 A 
ATOM     20  C   UNL A   1      31.695  21.884  25.202  1.00  0.00     0.011 A 
ATOM     21  C   UNL A   1      30.880  24.018  26.854  1.00  0.00     0.027 A 
ATOM     22  C   UNL A   1      30.534  21.784  25.971  1.00  0.00     0.001 A 
ATOM     23  C   UNL A   1      30.149  22.830  26.817  1.00  0.00     0.002 A 
BRANCH  18  24
ATOM     24  C   UNL A   1      32.518  26.600  26.250  1.00  0.00     0.161 C 
BRANCH  24  25
ATOM     25  C   UNL A   1      31.741  27.399  25.220  1.00  0.00    -0.028 A 
ATOM     26  C   UNL A   1      32.217  28.634  24.755  1.00  0.00     0.007 A 
ATOM     27  C   UNL A   1      30.514  26.929  24.727  1.00  0.00     0.007 A 
ATOM     28  C   UNL A   1      31.483  29.394  23.842  1.00  0.00     0.021 A 
ATOM     29  C   UNL A   1      29.788  27.678  23.793  1.00  0.00     0.021 A 
ATOM     30  C   UNL A   1      30.271  28.911  23.363  1.00  0.00     0.041 A 
ATOM     31  Cl  UNL A   1      29.372  29.846  22.233  1.00  0.00    -0.084 Cl
ENDBRANCH  24  25
ENDBRANCH  18  24
ENDBRANCH   6   7
ENDBRANCH   5   6
ENDBRANCH   3   5
ENDBRANCH   2   3
ENDBRANCH   1   2
BRANCH   1  32
ATOM     32  C   UNL A   1      42.672  23.199  27.015  1.00  0.00     0.275 C 
BRANCH  32  33
ATOM     33  O   UNL A   1      43.315  24.406  26.574  1.00  0.00    -0.458 OA
BRANCH  33  34
ATOM     34  C   UNL A   1      42.488  25.396  26.155  1.00  0.00     0.338 C 
ATOM     35  O   UNL A   1      41.909  25.456  25.085  1.00  0.00    -0.246 OA
BRANCH  34  36
ATOM     36  C   UNL A   1      42.209  26.289  27.304  1.00  0.00     0.060 A 
ATOM     37  C   UNL A   1      43.041  27.370  27.616  1.00  0.00     0.016 A 
ATOM     38  C   UNL A   1      41.129  25.969  28.137  1.00  0.00     0.016 A 
ATOM     39  C   UNL A   1      42.788  28.131  28.761  1.00  0.00     0.010 A 
ATOM     40  C   UNL A   1      40.883  26.725  29.286  1.00  0.00     0.010 A 
ATOM     41  C   UNL A   1      41.705  27.818  29.598  1.00  0.00    -0.014 A 
BRANCH  41  42
ATOM     42  C   UNL A   1      41.331  28.735  30.700  1.00  0.00     0.031 A 
ATOM     43  C   UNL A   1      40.210  29.721  30.570  1.00  0.00     0.074 A 
ATOM     44  C   UNL A   1      42.049  28.666  31.837  1.00  0.00     0.049 A 
ATOM     45  N   UNL A   1      39.755  30.556  31.470  1.00  0.00    -0.248 NA
ATOM     46  C   UNL A   1      39.506  29.783  29.281  1.00  0.00     0.031 C 
ATOM     47  C   UNL A   1      43.166  27.747  32.064  1.00  0.00     0.029 A 
ATOM     48  N   UNL A   1      41.955  29.376  33.007  1.00  0.00    -0.354 N 
ATOM     49  C   UNL A   1      38.696  31.224  30.872  1.00  0.00     0.074 A 
ATOM     50  C   UNL A   1      38.597  30.726  29.515  1.00  0.00     0.031 C 
ATOM     51  C   UNL A   1      43.657  27.952  33.295  1.00  0.00     0.029 A 
ATOM     52  C   UNL A   1      42.908  29.031  33.934  1.00  0.00     0.049 A 
ATOM     53  H   UNL A   1      41.271  30.066  33.167  1.00  0.00     0.167 HD
ATOM     54  C   UNL A   1      37.879  32.155  31.419  1.00  0.00     0.031 A 
ATOM     55  C   UNL A   1      43.168  29.531  35.159  1.00  0.00     0.031 A 
ATOM     56  C   UNL A   1      38.001  32.653  32.766  1.00  0.00     0.049 A 
ATOM     57  C   UNL A   1      42.285  30.610  35.714  1.00  0.00     0.074 A 
ATOM     58  C   UNL A   1      37.179  33.559  33.417  1.00  0.00     0.029 A 
ATOM     59  N   UNL A   1      39.002  32.309  33.662  1.00  0.00    -0.354 N 
ATOM     60  N   UNL A   1      41.234  31.169  35.164  1.00  0.00    -0.248 NA
ATOM     61  C   UNL A   1      42.607  31.118  37.056  1.00  0.00     0.031 C 
ATOM     62  C   UNL A   1      37.724  33.819  34.675  1.00  0.00     0.029 A 
ATOM     63  C   UNL A   1      38.843  33.020  34.841  1.00  0.00     0.049 A 
ATOM     64  H   UNL A   1      39.718  31.657  33.487  1.00  0.00     0.167 HD
ATOM     65  C   UNL A   1      40.765  32.089  36.094  1.00  0.00     0.074 A 
ATOM     66  C   UNL A   1      41.629  31.996  37.251  1.00  0.00     0.031 C 
ATOM     67  C   UNL A   1      39.711  32.933  35.989  1.00  0.00     0.031 A 
BRANCH  54  68
ATOM     68  C   UNL A   1      36.738  32.701  30.598  1.00  0.00    -0.014 A 
ATOM     69  C   UNL A   1      36.951  33.806  29.752  1.00  0.00     0.010 A 
ATOM     70  C   UNL A   1      35.424  32.262  30.837  1.00  0.00     0.010 A 
ATOM     71  C   UNL A   1      35.866  34.498  29.205  1.00  0.00     0.020 A 
ATOM     72  C   UNL A   1      34.339  32.940  30.274  1.00  0.00     0.020 A 
ATOM     73  C   UNL A   1      34.566  34.072  29.486  1.00  0.00     0.054 A 
BRANCH  73  74
ATOM     74  S   UNL A   1      33.169  35.036  28.845  1.00  0.00     0.124 S 
ATOM     75  O   UNL A   1      32.379  35.274  30.047  1.00  0.00    -0.237 OA
ATOM     76  O   UNL A   1      33.828  36.211  28.278  1.00  0.00    -0.237 OA
ATOM     77  O   UNL A   1      32.559  34.143  27.862  1.00  0.00    -0.744 OA
ENDBRANCH  73  74
ENDBRANCH  54  68
BRANCH  55  78
ATOM     78  C   UNL A   1      44.322  28.990  35.925  1.00  0.00    -0.014 A 
ATOM     79  C   UNL A   1      44.137  27.903  36.801  1.00  0.00     0.010 A 
ATOM     80  C   UNL A   1      45.584  29.603  35.851  1.00  0.00     0.010 A 
ATOM     81  C   UNL A   1      45.176  27.471  37.626  1.00  0.00     0.020 A 
ATOM     82  C   UNL A   1      46.636  29.154  36.655  1.00  0.00     0.020 A 
ATOM     83  C   UNL A   1      46.417  28.109  37.557  1.00  0.00     0.054 A 
BRANCH  83  84
ATOM     84  S   UNL A   1      47.744  27.557  38.664  1.00  0.00     0.124 S 
ATOM     85  O   UNL A   1      48.863  27.410  37.737  1.00  0.00    -0.237 OA
ATOM     86  O   UNL A   1      47.853  28.662  39.611  1.00  0.00    -0.237 OA
ATOM     87  O   UNL A   1      47.224  26.311  39.222  1.00  0.00    -0.744 OA
ENDBRANCH  83  84
ENDBRANCH  55  78
BRANCH  67  88
ATOM     88  C   UNL A   1      39.419  33.860  37.140  1.00  0.00    -0.014 A 
ATOM     89  C   UNL A   1      39.882  35.190  37.104  1.00  0.00     0.010 A 
ATOM     90  C   UNL A   1      38.825  33.373  38.317  1.00  0.00     0.010 A 
ATOM     91  C   UNL A   1      39.803  35.998  38.241  1.00  0.00     0.020 A 
ATOM     92  C   UNL A   1      38.719  34.189  39.447  1.00  0.00     0.020 A 
ATOM     93  C   UNL A   1      39.236  35.486  39.411  1.00  0.00     0.054 A 
BRANCH  93  94
ATOM     94  S   UNL A   1      39.199  36.530  40.894  1.00  0.00     0.124 S 
ATOM     95  O   UNL A   1      40.614  36.635  41.232  1.00  0.00    -0.237 OA
ATOM     96  O   UNL A   1      38.574  37.758  40.407  1.00  0.00    -0.237 OA
ATOM     97  O   UNL A   1      38.388  35.760  41.835  1.00  0.00    -0.744 OA
ENDBRANCH  93  94
ENDBRANCH  67  88
ENDBRANCH  41  42
ENDBRANCH  34  36
ENDBRANCH  33  34
ENDBRANCH  32  33
ENDBRANCH   1  32
TORSDOF 18
ENDMDL
