MODEL 1
REMARK VINA RESULT:     -10.7      0.000      0.000
REMARK SMILES O=C(OCCOC(=O)[C@H](Cc1ccccn1)[C@H]1CCS(=O)(=O)C1)c1ccc(-c2c3nc(c(-c4ccc(S(=O)(=O)[O-])cc4)c4ccc([nH]4)c(-c4ccc(S(=O)(=O)[O-])cc4)c4nc(c(-c5ccc(S(=O)(=O)[O-])cc5)c5ccc2[nH]5)C=C4)C=C3)cc1
REMARK SMILES IDX 4 1 3 2 2 3 1 4 24 5 25 6 83 7 26 8 82 9 27 10 28 11 29 12
REMARK SMILES IDX 76 13 30 14 81 15 75 16 77 17 31 18 80 19 74 20 73 21 32 23
REMARK SMILES IDX 62 24 43 25 61 26 44 27 47 28 60 29 78 30 45 31 46 32 59 34
REMARK SMILES IDX 79 35 48 36 33 37 34 38 42 39 35 40 41 41 36 42 37 43 38 44
REMARK SMILES IDX 39 45 40 46 63 47 64 48 72 49 65 50 71 51 66 52 67 53 68 54
REMARK SMILES IDX 69 55 70 56 49 57 50 58 58 59 51 60 57 61 52 62 53 63 54 64
REMARK SMILES IDX 55 65 56 66 5 67 6 68 7 69 8 70 9 71 10 72 11 73 12 74 16 75
REMARK SMILES IDX 13 76 15 77 14 78 17 79 18 80 23 81 19 82 20 83 21 84 22 85
REMARK H PARENT 77 22 47 33
REMARK Flexibility Score: inf
ROOT
ATOM      1  C   UNL A   1      32.671  29.315  26.769  1.00  0.00     0.275 C 
ENDROOT
BRANCH   1   2
ATOM      2  O   UNL A   1      33.817  30.140  26.569  1.00  0.00    -0.458 OA
BRANCH   2   3
ATOM      3  C   UNL A   1      34.375  30.978  27.466  1.00  0.00     0.338 C 
ATOM      4  O   UNL A   1      33.767  32.004  27.767  1.00  0.00    -0.246 OA
BRANCH   3   5
ATOM      5  C   UNL A   1      35.764  30.787  27.984  1.00  0.00     0.060 A 
ATOM      6  C   UNL A   1      36.790  31.724  28.156  1.00  0.00     0.016 A 
ATOM      7  C   UNL A   1      36.016  29.489  28.394  1.00  0.00     0.016 A 
ATOM      8  C   UNL A   1      37.984  31.379  28.832  1.00  0.00     0.010 A 
ATOM      9  C   UNL A   1      37.129  29.188  29.161  1.00  0.00     0.010 A 
ATOM     10  C   UNL A   1      38.157  30.099  29.368  1.00  0.00    -0.014 A 
BRANCH  10  11
ATOM     11  C   UNL A   1      39.380  29.605  30.060  1.00  0.00     0.031 A 
ATOM     12  C   UNL A   1      39.748  30.185  31.420  1.00  0.00     0.074 A 
ATOM     13  C   UNL A   1      40.262  28.790  29.440  1.00  0.00     0.049 A 
ATOM     14  N   UNL A   1      40.736  29.864  32.217  1.00  0.00    -0.248 NA
ATOM     15  C   UNL A   1      38.968  31.339  31.916  1.00  0.00     0.031 C 
ATOM     16  C   UNL A   1      40.198  28.345  28.043  1.00  0.00     0.029 A 
ATOM     17  N   UNL A   1      41.411  28.200  29.912  1.00  0.00    -0.354 N 
ATOM     18  C   UNL A   1      40.683  30.788  33.257  1.00  0.00     0.074 A 
ATOM     19  C   UNL A   1      39.731  31.797  32.890  1.00  0.00     0.031 C 
ATOM     20  C   UNL A   1      41.233  27.520  27.791  1.00  0.00     0.029 A 
ATOM     21  C   UNL A   1      42.015  27.349  29.012  1.00  0.00     0.049 A 
ATOM     22  H   UNL A   1      41.772  28.372  30.811  1.00  0.00     0.167 HD
ATOM     23  C   UNL A   1      41.260  30.739  34.478  1.00  0.00     0.031 A 
ATOM     24  C   UNL A   1      43.033  26.482  29.188  1.00  0.00     0.031 A 
ATOM     25  C   UNL A   1      42.146  29.685  34.858  1.00  0.00     0.049 A 
ATOM     26  C   UNL A   1      43.600  26.325  30.579  1.00  0.00     0.074 A 
ATOM     27  C   UNL A   1      42.678  29.393  36.098  1.00  0.00     0.029 A 
ATOM     28  N   UNL A   1      42.620  28.733  33.971  1.00  0.00    -0.354 N 
ATOM     29  N   UNL A   1      43.344  27.027  31.661  1.00  0.00    -0.248 NA
ATOM     30  C   UNL A   1      44.534  25.211  30.795  1.00  0.00     0.031 C 
ATOM     31  C   UNL A   1      43.512  28.278  35.948  1.00  0.00     0.029 A 
ATOM     32  C   UNL A   1      43.448  27.851  34.628  1.00  0.00     0.049 A 
ATOM     33  H   UNL A   1      42.399  28.694  33.012  1.00  0.00     0.167 HD
ATOM     34  C   UNL A   1      44.032  26.398  32.695  1.00  0.00     0.074 A 
ATOM     35  C   UNL A   1      44.714  25.262  32.108  1.00  0.00     0.031 C 
ATOM     36  C   UNL A   1      44.086  26.717  34.013  1.00  0.00     0.031 A 
BRANCH  23  37
ATOM     37  C   UNL A   1      40.848  31.787  35.484  1.00  0.00    -0.014 A 
ATOM     38  C   UNL A   1      41.647  32.934  35.692  1.00  0.00     0.010 A 
ATOM     39  C   UNL A   1      39.677  31.634  36.242  1.00  0.00     0.010 A 
ATOM     40  C   UNL A   1      41.326  33.860  36.684  1.00  0.00     0.020 A 
ATOM     41  C   UNL A   1      39.327  32.585  37.209  1.00  0.00     0.020 A 
ATOM     42  C   UNL A   1      40.166  33.679  37.438  1.00  0.00     0.054 A 
BRANCH  42  43
ATOM     43  S   UNL A   1      39.762  34.916  38.701  1.00  0.00     0.124 S 
ATOM     44  O   UNL A   1      40.595  34.485  39.822  1.00  0.00    -0.237 OA
ATOM     45  O   UNL A   1      40.167  36.166  38.064  1.00  0.00    -0.237 OA
ATOM     46  O   UNL A   1      38.324  34.755  38.895  1.00  0.00    -0.744 OA
ENDBRANCH  42  43
ENDBRANCH  23  37
BRANCH  24  47
ATOM     47  C   UNL A   1      43.441  25.555  28.089  1.00  0.00    -0.014 A 
ATOM     48  C   UNL A   1      44.510  25.906  27.242  1.00  0.00     0.010 A 
ATOM     49  C   UNL A   1      42.781  24.333  27.871  1.00  0.00     0.010 A 
ATOM     50  C   UNL A   1      44.890  25.077  26.183  1.00  0.00     0.020 A 
ATOM     51  C   UNL A   1      43.173  23.488  26.823  1.00  0.00     0.020 A 
ATOM     52  C   UNL A   1      44.218  23.870  25.978  1.00  0.00     0.054 A 
BRANCH  52  53
ATOM     53  S   UNL A   1      44.758  22.798  24.615  1.00  0.00     0.124 S 
ATOM     54  O   UNL A   1      43.513  22.581  23.884  1.00  0.00    -0.237 OA
ATOM     55  O   UNL A   1      45.751  23.629  23.939  1.00  0.00    -0.237 OA
ATOM     56  O   UNL A   1      45.298  21.623  25.296  1.00  0.00    -0.744 OA
ENDBRANCH  52  53
ENDBRANCH  24  47
BRANCH  36  57
ATOM     57  C   UNL A   1      44.842  25.796  34.925  1.00  0.00    -0.014 A 
ATOM     58  C   UNL A   1      46.201  26.005  35.212  1.00  0.00     0.010 A 
ATOM     59  C   UNL A   1      44.148  24.757  35.572  1.00  0.00     0.010 A 
ATOM     60  C   UNL A   1      46.863  25.164  36.106  1.00  0.00     0.020 A 
ATOM     61  C   UNL A   1      44.799  23.936  36.492  1.00  0.00     0.020 A 
ATOM     62  C   UNL A   1      46.158  24.136  36.741  1.00  0.00     0.054 A 
BRANCH  62  63
ATOM     63  S   UNL A   1      47.031  23.088  37.933  1.00  0.00     0.124 S 
ATOM     64  O   UNL A   1      48.285  22.819  37.236  1.00  0.00    -0.237 OA
ATOM     65  O   UNL A   1      47.136  23.955  39.104  1.00  0.00    -0.237 OA
ATOM     66  O   UNL A   1      46.147  21.936  38.094  1.00  0.00    -0.744 OA
ENDBRANCH  62  63
ENDBRANCH  36  57
ENDBRANCH  10  11
ENDBRANCH   3   5
ENDBRANCH   2   3
ENDBRANCH   1   2
BRANCH   1  67
ATOM     67  C   UNL A   1      32.624  28.004  25.970  1.00  0.00     0.274 C 
BRANCH  67  68
ATOM     68  O   UNL A   1      32.805  28.077  24.531  1.00  0.00    -0.462 OA
BRANCH  68  69
ATOM     69  C   UNL A   1      31.952  27.291  23.808  1.00  0.00     0.309 C 
ATOM     70  O   UNL A   1      32.302  26.723  22.776  1.00  0.00    -0.252 OA
BRANCH  69  71
ATOM     71  C   UNL A   1      30.467  27.340  24.249  1.00  0.00     0.109 C 
BRANCH  71  72
ATOM     72  C   UNL A   1      29.856  26.108  24.937  1.00  0.00     0.071 C 
BRANCH  72  73
ATOM     73  C   UNL A   1      30.615  24.820  25.226  1.00  0.00     0.041 A 
ATOM     74  C   UNL A   1      30.997  23.893  24.263  1.00  0.00     0.024 A 
ATOM     75  N   UNL A   1      31.065  24.702  26.502  1.00  0.00    -0.261 NA
ATOM     76  C   UNL A   1      31.920  22.891  24.590  1.00  0.00     0.003 A 
ATOM     77  C   UNL A   1      31.933  23.706  26.807  1.00  0.00     0.111 A 
ATOM     78  C   UNL A   1      32.407  22.799  25.884  1.00  0.00     0.020 A 
ENDBRANCH  72  73
ENDBRANCH  71  72
BRANCH  71  79
ATOM     79  C   UNL A   1      29.586  27.980  23.144  1.00  0.00     0.020 C 
ATOM     80  C   UNL A   1      28.076  27.746  23.357  1.00  0.00     0.021 C 
ATOM     81  C   UNL A   1      29.873  29.459  22.857  1.00  0.00     0.141 C 
ATOM     82  C   UNL A   1      27.265  29.002  23.117  1.00  0.00     0.137 C 
ATOM     83  S   UNL A   1      28.332  30.199  22.375  1.00  0.00     0.150 S 
ATOM     84  O   UNL A   1      28.203  30.081  20.933  1.00  0.00    -0.229 OA
ATOM     85  O   UNL A   1      28.157  31.462  23.056  1.00  0.00    -0.229 OA
ENDBRANCH  71  79
ENDBRANCH  69  71
ENDBRANCH  68  69
ENDBRANCH  67  68
ENDBRANCH   1  67
TORSDOF 17
ENDMDL
MODEL 2
REMARK VINA RESULT:     -10.5      5.405     10.957
REMARK SMILES O=C(OCCOC(=O)[C@H](Cc1ccccn1)[C@H]1CCS(=O)(=O)C1)c1ccc(-c2c3nc(c(-c4ccc(S(=O)(=O)[O-])cc4)c4ccc([nH]4)c(-c4ccc(S(=O)(=O)[O-])cc4)c4nc(c(-c5ccc(S(=O)(=O)[O-])cc5)c5ccc2[nH]5)C=C4)C=C3)cc1
REMARK SMILES IDX 4 1 3 2 2 3 1 4 24 5 25 6 83 7 26 8 82 9 27 10 28 11 29 12
REMARK SMILES IDX 76 13 30 14 81 15 75 16 77 17 31 18 80 19 74 20 73 21 32 23
REMARK SMILES IDX 62 24 43 25 61 26 44 27 47 28 60 29 78 30 45 31 46 32 59 34
REMARK SMILES IDX 79 35 48 36 33 37 34 38 42 39 35 40 41 41 36 42 37 43 38 44
REMARK SMILES IDX 39 45 40 46 63 47 64 48 72 49 65 50 71 51 66 52 67 53 68 54
REMARK SMILES IDX 69 55 70 56 49 57 50 58 58 59 51 60 57 61 52 62 53 63 54 64
REMARK SMILES IDX 55 65 56 66 5 67 6 68 7 69 8 70 9 71 10 72 11 73 12 74 16 75
REMARK SMILES IDX 13 76 15 77 14 78 17 79 18 80 23 81 19 82 20 83 21 84 22 85
REMARK H PARENT 77 22 47 33
REMARK Flexibility Score: inf
ROOT
ATOM      1  C   UNL A   1      37.507  21.474  24.648  1.00  0.00     0.275 C 
ENDROOT
BRANCH   1   2
ATOM      2  O   UNL A   1      38.040  22.162  25.779  1.00  0.00    -0.458 OA
BRANCH   2   3
ATOM      3  C   UNL A   1      39.287  22.053  26.277  1.00  0.00     0.338 C 
ATOM      4  O   UNL A   1      39.835  20.952  26.252  1.00  0.00    -0.246 OA
BRANCH   3   5
ATOM      5  C   UNL A   1      39.964  23.177  26.994  1.00  0.00     0.060 A 
ATOM      6  C   UNL A   1      40.948  23.137  27.989  1.00  0.00     0.016 A 
ATOM      7  C   UNL A   1      39.571  24.424  26.542  1.00  0.00     0.016 A 
ATOM      8  C   UNL A   1      41.595  24.319  28.420  1.00  0.00     0.010 A 
ATOM      9  C   UNL A   1      40.288  25.561  26.873  1.00  0.00     0.010 A 
ATOM     10  C   UNL A   1      41.284  25.554  27.842  1.00  0.00    -0.014 A 
BRANCH  10  11
ATOM     11  C   UNL A   1      41.863  26.869  28.239  1.00  0.00     0.031 A 
ATOM     12  C   UNL A   1      43.347  27.126  28.007  1.00  0.00     0.074 A 
ATOM     13  C   UNL A   1      41.150  27.767  28.954  1.00  0.00     0.049 A 
ATOM     14  N   UNL A   1      44.043  28.213  28.229  1.00  0.00    -0.248 NA
ATOM     15  C   UNL A   1      44.185  25.994  27.557  1.00  0.00     0.031 C 
ATOM     16  C   UNL A   1      39.797  27.574  29.487  1.00  0.00     0.029 A 
ATOM     17  N   UNL A   1      41.483  29.033  29.376  1.00  0.00    -0.354 N 
ATOM     18  C   UNL A   1      45.364  27.861  27.966  1.00  0.00     0.074 A 
ATOM     19  C   UNL A   1      45.405  26.438  27.790  1.00  0.00     0.031 C 
ATOM     20  C   UNL A   1      39.405  28.697  30.122  1.00  0.00     0.029 A 
ATOM     21  C   UNL A   1      40.460  29.699  30.013  1.00  0.00     0.049 A 
ATOM     22  H   UNL A   1      42.375  29.427  29.238  1.00  0.00     0.167 HD
ATOM     23  C   UNL A   1      46.435  28.655  27.744  1.00  0.00     0.031 A 
ATOM     24  C   UNL A   1      40.369  30.991  30.392  1.00  0.00     0.031 A 
ATOM     25  C   UNL A   1      46.360  30.078  27.847  1.00  0.00     0.049 A 
ATOM     26  C   UNL A   1      41.508  31.917  30.034  1.00  0.00     0.074 A 
ATOM     27  C   UNL A   1      47.293  31.031  27.493  1.00  0.00     0.029 A 
ATOM     28  N   UNL A   1      45.253  30.747  28.342  1.00  0.00    -0.354 N 
ATOM     29  N   UNL A   1      42.679  31.626  29.514  1.00  0.00    -0.248 NA
ATOM     30  C   UNL A   1      41.284  33.355  30.239  1.00  0.00     0.031 C 
ATOM     31  C   UNL A   1      46.760  32.285  27.815  1.00  0.00     0.029 A 
ATOM     32  C   UNL A   1      45.476  32.105  28.314  1.00  0.00     0.049 A 
ATOM     33  H   UNL A   1      44.430  30.316  28.666  1.00  0.00     0.167 HD
ATOM     34  C   UNL A   1      43.302  32.847  29.269  1.00  0.00     0.074 A 
ATOM     35  C   UNL A   1      42.378  33.876  29.699  1.00  0.00     0.031 C 
ATOM     36  C   UNL A   1      44.519  33.099  28.725  1.00  0.00     0.031 A 
BRANCH  23  37
ATOM     37  C   UNL A   1      47.705  27.992  27.269  1.00  0.00    -0.014 A 
ATOM     38  C   UNL A   1      48.770  27.756  28.166  1.00  0.00     0.010 A 
ATOM     39  C   UNL A   1      47.859  27.614  25.925  1.00  0.00     0.010 A 
ATOM     40  C   UNL A   1      49.982  27.231  27.719  1.00  0.00     0.020 A 
ATOM     41  C   UNL A   1      49.058  27.046  25.480  1.00  0.00     0.020 A 
ATOM     42  C   UNL A   1      50.119  26.879  26.375  1.00  0.00     0.054 A 
BRANCH  42  43
ATOM     43  S   UNL A   1      51.698  26.173  25.830  1.00  0.00     0.124 S 
ATOM     44  O   UNL A   1      51.666  26.437  24.393  1.00  0.00    -0.237 OA
ATOM     45  O   UNL A   1      52.674  26.951  26.589  1.00  0.00    -0.237 OA
ATOM     46  O   UNL A   1      51.597  24.766  26.208  1.00  0.00    -0.744 OA
ENDBRANCH  42  43
ENDBRANCH  23  37
BRANCH  24  47
ATOM     47  C   UNL A   1      39.096  31.530  30.958  1.00  0.00    -0.014 A 
ATOM     48  C   UNL A   1      38.054  31.909  30.089  1.00  0.00     0.010 A 
ATOM     49  C   UNL A   1      38.906  31.674  32.343  1.00  0.00     0.010 A 
ATOM     50  C   UNL A   1      36.865  32.452  30.587  1.00  0.00     0.020 A 
ATOM     51  C   UNL A   1      37.706  32.198  32.848  1.00  0.00     0.020 A 
ATOM     52  C   UNL A   1      36.698  32.594  31.966  1.00  0.00     0.054 A 
BRANCH  52  53
ATOM     53  S   UNL A   1      35.128  33.268  32.583  1.00  0.00     0.124 S 
ATOM     54  O   UNL A   1      35.205  32.966  34.009  1.00  0.00    -0.237 OA
ATOM     55  O   UNL A   1      35.235  34.682  32.229  1.00  0.00    -0.237 OA
ATOM     56  O   UNL A   1      34.118  32.521  31.838  1.00  0.00    -0.744 OA
ENDBRANCH  52  53
ENDBRANCH  24  47
BRANCH  36  57
ATOM     57  C   UNL A   1      44.898  34.533  28.494  1.00  0.00    -0.014 A 
ATOM     58  C   UNL A   1      45.613  35.264  29.455  1.00  0.00     0.010 A 
ATOM     59  C   UNL A   1      44.605  35.122  27.250  1.00  0.00     0.010 A 
ATOM     60  C   UNL A   1      45.999  36.578  29.189  1.00  0.00     0.020 A 
ATOM     61  C   UNL A   1      45.018  36.423  26.967  1.00  0.00     0.020 A 
ATOM     62  C   UNL A   1      45.700  37.148  27.947  1.00  0.00     0.054 A 
BRANCH  62  63
ATOM     63  S   UNL A   1      46.253  38.840  27.610  1.00  0.00     0.124 S 
ATOM     64  O   UNL A   1      46.956  39.179  28.843  1.00  0.00    -0.237 OA
ATOM     65  O   UNL A   1      47.097  38.671  26.429  1.00  0.00    -0.237 OA
ATOM     66  O   UNL A   1      45.009  39.572  27.380  1.00  0.00    -0.744 OA
ENDBRANCH  62  63
ENDBRANCH  36  57
ENDBRANCH  10  11
ENDBRANCH   3   5
ENDBRANCH   2   3
ENDBRANCH   1   2
BRANCH   1  67
ATOM     67  C   UNL A   1      36.611  22.295  23.708  1.00  0.00     0.274 C 
BRANCH  67  68
ATOM     68  O   UNL A   1      35.466  22.976  24.282  1.00  0.00    -0.462 OA
BRANCH  68  69
ATOM     69  C   UNL A   1      34.252  22.506  23.863  1.00  0.00     0.309 C 
ATOM     70  O   UNL A   1      33.752  22.847  22.794  1.00  0.00    -0.252 OA
BRANCH  69  71
ATOM     71  C   UNL A   1      33.455  21.694  24.915  1.00  0.00     0.109 C 
BRANCH  71  72
ATOM     72  C   UNL A   1      32.802  20.369  24.491  1.00  0.00     0.071 C 
BRANCH  72  73
ATOM     73  C   UNL A   1      33.326  18.991  24.874  1.00  0.00     0.041 A 
ATOM     74  C   UNL A   1      32.567  17.995  25.479  1.00  0.00     0.024 A 
ATOM     75  N   UNL A   1      34.575  18.714  24.421  1.00  0.00    -0.261 NA
ATOM     76  C   UNL A   1      33.058  16.685  25.538  1.00  0.00     0.003 A 
ATOM     77  C   UNL A   1      35.047  17.446  24.516  1.00  0.00     0.111 A 
ATOM     78  C   UNL A   1      34.319  16.399  25.038  1.00  0.00     0.020 A 
ENDBRANCH  72  73
ENDBRANCH  71  72
BRANCH  71  79
ATOM     79  C   UNL A   1      32.551  22.629  25.762  1.00  0.00     0.020 C 
ATOM     80  C   UNL A   1      33.255  23.935  26.187  1.00  0.00     0.021 C 
ATOM     81  C   UNL A   1      31.172  22.925  25.159  1.00  0.00     0.141 C 
ATOM     82  C   UNL A   1      32.365  25.148  26.006  1.00  0.00     0.137 C 
ATOM     83  S   UNL A   1      30.731  24.570  25.663  1.00  0.00     0.150 S 
ATOM     84  O   UNL A   1      30.014  24.481  26.923  1.00  0.00    -0.229 OA
ATOM     85  O   UNL A   1      30.205  25.307  24.536  1.00  0.00    -0.229 OA
ENDBRANCH  71  79
ENDBRANCH  69  71
ENDBRANCH  68  69
ENDBRANCH  67  68
ENDBRANCH   1  67
TORSDOF 17
ENDMDL
MODEL 3
REMARK VINA RESULT:     -10.5      4.512      9.903
REMARK SMILES O=C(OCCOC(=O)[C@H](Cc1ccccn1)[C@H]1CCS(=O)(=O)C1)c1ccc(-c2c3nc(c(-c4ccc(S(=O)(=O)[O-])cc4)c4ccc([nH]4)c(-c4ccc(S(=O)(=O)[O-])cc4)c4nc(c(-c5ccc(S(=O)(=O)[O-])cc5)c5ccc2[nH]5)C=C4)C=C3)cc1
REMARK SMILES IDX 4 1 3 2 2 3 1 4 24 5 25 6 83 7 26 8 82 9 27 10 28 11 29 12
REMARK SMILES IDX 76 13 30 14 81 15 75 16 77 17 31 18 80 19 74 20 73 21 32 23
REMARK SMILES IDX 62 24 43 25 61 26 44 27 47 28 60 29 78 30 45 31 46 32 59 34
REMARK SMILES IDX 79 35 48 36 33 37 34 38 42 39 35 40 41 41 36 42 37 43 38 44
REMARK SMILES IDX 39 45 40 46 63 47 64 48 72 49 65 50 71 51 66 52 67 53 68 54
REMARK SMILES IDX 69 55 70 56 49 57 50 58 58 59 51 60 57 61 52 62 53 63 54 64
REMARK SMILES IDX 55 65 56 66 5 67 6 68 7 69 8 70 9 71 10 72 11 73 12 74 16 75
REMARK SMILES IDX 13 76 15 77 14 78 17 79 18 80 23 81 19 82 20 83 21 84 22 85
REMARK H PARENT 77 22 47 33
REMARK Flexibility Score: inf
ROOT
ATOM      1  C   UNL A   1      37.062  21.880  24.741  1.00  0.00     0.275 C 
ENDROOT
BRANCH   1   2
ATOM      2  O   UNL A   1      37.679  22.988  25.395  1.00  0.00    -0.458 OA
BRANCH   2   3
ATOM      3  C   UNL A   1      38.801  22.962  26.141  1.00  0.00     0.338 C 
ATOM      4  O   UNL A   1      39.236  21.873  26.510  1.00  0.00    -0.246 OA
BRANCH   3   5
ATOM      5  C   UNL A   1      39.443  24.207  26.665  1.00  0.00     0.060 A 
ATOM      6  C   UNL A   1      40.207  25.169  25.993  1.00  0.00     0.016 A 
ATOM      7  C   UNL A   1      39.174  24.434  28.003  1.00  0.00     0.016 A 
ATOM      8  C   UNL A   1      40.579  26.376  26.630  1.00  0.00     0.010 A 
ATOM      9  C   UNL A   1      39.431  25.665  28.584  1.00  0.00     0.010 A 
ATOM     10  C   UNL A   1      40.169  26.649  27.938  1.00  0.00    -0.014 A 
BRANCH  10  11
ATOM     11  C   UNL A   1      40.531  27.860  28.727  1.00  0.00     0.031 A 
ATOM     12  C   UNL A   1      41.874  27.901  29.448  1.00  0.00     0.074 A 
ATOM     13  C   UNL A   1      39.635  28.844  28.964  1.00  0.00     0.049 A 
ATOM     14  N   UNL A   1      42.410  28.871  30.145  1.00  0.00    -0.248 NA
ATOM     15  C   UNL A   1      42.684  26.664  29.475  1.00  0.00     0.031 C 
ATOM     16  C   UNL A   1      38.222  28.844  28.568  1.00  0.00     0.029 A 
ATOM     17  N   UNL A   1      39.783  30.041  29.623  1.00  0.00    -0.354 N 
ATOM     18  C   UNL A   1      43.574  28.334  30.685  1.00  0.00     0.074 A 
ATOM     19  C   UNL A   1      43.558  26.922  30.428  1.00  0.00     0.031 C 
ATOM     20  C   UNL A   1      37.653  30.003  28.952  1.00  0.00     0.029 A 
ATOM     21  C   UNL A   1      38.662  30.842  29.590  1.00  0.00     0.049 A 
ATOM     22  H   UNL A   1      40.615  30.303  30.080  1.00  0.00     0.167 HD
ATOM     23  C   UNL A   1      44.643  28.965  31.221  1.00  0.00     0.031 A 
ATOM     24  C   UNL A   1      38.504  32.128  29.967  1.00  0.00     0.031 A 
ATOM     25  C   UNL A   1      44.677  30.383  31.398  1.00  0.00     0.049 A 
ATOM     26  C   UNL A   1      39.721  32.883  30.447  1.00  0.00     0.074 A 
ATOM     27  C   UNL A   1      45.732  31.194  31.763  1.00  0.00     0.029 A 
ATOM     28  N   UNL A   1      43.576  31.200  31.203  1.00  0.00    -0.354 N 
ATOM     29  N   UNL A   1      40.929  32.430  30.698  1.00  0.00    -0.248 NA
ATOM     30  C   UNL A   1      39.578  34.335  30.619  1.00  0.00     0.031 C 
ATOM     31  C   UNL A   1      45.253  32.508  31.827  1.00  0.00     0.029 A 
ATOM     32  C   UNL A   1      43.917  32.511  31.446  1.00  0.00     0.049 A 
ATOM     33  H   UNL A   1      42.682  30.889  30.931  1.00  0.00     0.167 HD
ATOM     34  C   UNL A   1      41.703  33.550  30.991  1.00  0.00     0.074 A 
ATOM     35  C   UNL A   1      40.825  34.698  30.888  1.00  0.00     0.031 C 
ATOM     36  C   UNL A   1      43.021  33.628  31.304  1.00  0.00     0.031 A 
BRANCH  23  37
ATOM     37  C   UNL A   1      45.862  28.130  31.530  1.00  0.00    -0.014 A 
ATOM     38  C   UNL A   1      46.059  27.601  32.825  1.00  0.00     0.010 A 
ATOM     39  C   UNL A   1      46.829  27.878  30.544  1.00  0.00     0.010 A 
ATOM     40  C   UNL A   1      47.226  26.909  33.146  1.00  0.00     0.020 A 
ATOM     41  C   UNL A   1      47.982  27.145  30.850  1.00  0.00     0.020 A 
ATOM     42  C   UNL A   1      48.182  26.685  32.155  1.00  0.00     0.054 A 
BRANCH  42  43
ATOM     43  S   UNL A   1      49.676  25.757  32.597  1.00  0.00     0.124 S 
ATOM     44  O   UNL A   1      49.208  24.951  33.723  1.00  0.00    -0.237 OA
ATOM     45  O   UNL A   1      49.965  25.016  31.372  1.00  0.00    -0.237 OA
ATOM     46  O   UNL A   1      50.643  26.798  32.936  1.00  0.00    -0.744 OA
ENDBRANCH  42  43
ENDBRANCH  23  37
BRANCH  24  47
ATOM     47  C   UNL A   1      37.215  32.840  29.715  1.00  0.00    -0.014 A 
ATOM     48  C   UNL A   1      36.382  33.177  30.800  1.00  0.00     0.010 A 
ATOM     49  C   UNL A   1      36.803  33.185  28.416  1.00  0.00     0.010 A 
ATOM     50  C   UNL A   1      35.152  33.809  30.592  1.00  0.00     0.020 A 
ATOM     51  C   UNL A   1      35.580  33.840  28.205  1.00  0.00     0.020 A 
ATOM     52  C   UNL A   1      34.758  34.138  29.294  1.00  0.00     0.054 A 
BRANCH  52  53
ATOM     53  S   UNL A   1      33.171  34.992  29.061  1.00  0.00     0.124 S 
ATOM     54  O   UNL A   1      32.587  34.921  30.396  1.00  0.00    -0.237 OA
ATOM     55  O   UNL A   1      33.594  36.321  28.625  1.00  0.00    -0.237 OA
ATOM     56  O   UNL A   1      32.499  34.193  28.039  1.00  0.00    -0.744 OA
ENDBRANCH  52  53
ENDBRANCH  24  47
BRANCH  36  57
ATOM     57  C   UNL A   1      43.616  34.994  31.485  1.00  0.00    -0.014 A 
ATOM     58  C   UNL A   1      43.675  35.605  32.748  1.00  0.00     0.010 A 
ATOM     59  C   UNL A   1      44.205  35.632  30.377  1.00  0.00     0.010 A 
ATOM     60  C   UNL A   1      44.284  36.851  32.893  1.00  0.00     0.020 A 
ATOM     61  C   UNL A   1      44.844  36.862  30.526  1.00  0.00     0.020 A 
ATOM     62  C   UNL A   1      44.865  37.471  31.782  1.00  0.00     0.054 A 
BRANCH  62  63
ATOM     63  S   UNL A   1      45.690  39.068  32.008  1.00  0.00     0.124 S 
ATOM     64  O   UNL A   1      46.745  39.008  31.001  1.00  0.00    -0.237 OA
ATOM     65  O   UNL A   1      44.617  40.023  31.740  1.00  0.00    -0.237 OA
ATOM     66  O   UNL A   1      46.149  39.027  33.395  1.00  0.00    -0.744 OA
ENDBRANCH  62  63
ENDBRANCH  36  57
ENDBRANCH  10  11
ENDBRANCH   3   5
ENDBRANCH   2   3
ENDBRANCH   1   2
BRANCH   1  67
ATOM     67  C   UNL A   1      35.845  21.261  25.443  1.00  0.00     0.274 C 
BRANCH  67  68
ATOM     68  O   UNL A   1      34.757  22.144  25.824  1.00  0.00    -0.462 OA
BRANCH  68  69
ATOM     69  C   UNL A   1      33.701  21.521  26.428  1.00  0.00     0.309 C 
ATOM     70  O   UNL A   1      33.718  21.206  27.615  1.00  0.00    -0.252 OA
BRANCH  69  71
ATOM     71  C   UNL A   1      32.578  21.041  25.472  1.00  0.00     0.109 C 
BRANCH  71  72
ATOM     72  C   UNL A   1      32.949  20.135  24.288  1.00  0.00     0.071 C 
BRANCH  72  73
ATOM     73  C   UNL A   1      32.926  18.612  24.330  1.00  0.00     0.041 A 
ATOM     74  C   UNL A   1      33.509  17.785  23.376  1.00  0.00     0.024 A 
ATOM     75  N   UNL A   1      32.436  18.085  25.481  1.00  0.00    -0.261 NA
ATOM     76  C   UNL A   1      33.672  16.420  23.645  1.00  0.00     0.003 A 
ATOM     77  C   UNL A   1      32.573  16.755  25.710  1.00  0.00     0.111 A 
ATOM     78  C   UNL A   1      33.205  15.893  24.839  1.00  0.00     0.020 A 
ENDBRANCH  72  73
ENDBRANCH  71  72
BRANCH  71  79
ATOM     79  C   UNL A   1      31.612  22.206  25.130  1.00  0.00     0.020 C 
ATOM     80  C   UNL A   1      31.115  22.972  26.375  1.00  0.00     0.021 C 
ATOM     81  C   UNL A   1      32.118  23.180  24.058  1.00  0.00     0.141 C 
ATOM     82  C   UNL A   1      31.150  24.472  26.173  1.00  0.00     0.137 C 
ATOM     83  S   UNL A   1      31.457  24.778  24.460  1.00  0.00     0.150 S 
ATOM     84  O   UNL A   1      30.175  24.920  23.793  1.00  0.00    -0.229 OA
ATOM     85  O   UNL A   1      32.491  25.782  24.347  1.00  0.00    -0.229 OA
ENDBRANCH  71  79
ENDBRANCH  69  71
ENDBRANCH  68  69
ENDBRANCH  67  68
ENDBRANCH   1  67
TORSDOF 17
ENDMDL
