MODEL 1
REMARK VINA RESULT:     -14.0      0.000      0.000
REMARK SMILES O=C(CCc1cn(-c2ccc(Br)cc2)nc1-c1ccccc1)OCCOC(=O)c1ccc(-c2c3nc(c(-c4ccc(S(=O)(=O)[O-])cc4)c4ccc([nH]4)c(-c4ccc(S(=O)(=O)[O-])cc4)c4nc(c(-c5ccc(S(=O)(=O)[O-])cc5)c5ccc2[nH]5)C=C4)C=C3)cc1
REMARK SMILES IDX 24 1 23 2 2 3 1 4 3 5 4 6 5 7 6 8 16 9 7 10 15 11 17 12
REMARK SMILES IDX 18 13 22 14 19 15 21 16 20 17 8 18 9 19 14 20 10 21 13 22
REMARK SMILES IDX 11 23 12 24 25 25 26 26 27 27 28 28 29 29 30 30 88 31 31 32
REMARK SMILES IDX 87 33 32 34 33 35 34 36 81 37 35 38 86 39 80 40 82 41 36 42
REMARK SMILES IDX 85 43 79 44 78 45 37 47 67 48 48 49 66 50 49 51 52 52 65 53
REMARK SMILES IDX 83 54 50 55 51 56 64 58 84 59 53 60 38 61 39 62 47 63 40 64
REMARK SMILES IDX 46 65 41 66 42 67 43 68 44 69 45 70 68 71 69 72 77 73 70 74
REMARK SMILES IDX 76 75 71 76 72 77 73 78 74 79 75 80 54 81 55 82 63 83 56 84
REMARK SMILES IDX 62 85 57 86 58 87 59 88 60 89 61 90
REMARK H PARENT 82 46 52 57
REMARK Flexibility Score: inf
ROOT
ATOM      1  C   UNL A   1      34.959  32.141  29.273  1.00  0.00     0.274 C 
ENDROOT
BRANCH   1   2
ATOM      2  O   UNL A   1      34.929  30.877  28.147  1.00  0.00    -0.462 OA
BRANCH   2   3
ATOM      3  C   UNL A   1      34.956  29.692  27.446  1.00  0.00     0.306 C 
ATOM      4  O   UNL A   1      36.069  29.160  27.302  1.00  0.00    -0.252 OA
BRANCH   3   5
ATOM      5  C   UNL A   1      33.745  28.892  26.688  1.00  0.00     0.127 C 
BRANCH   5   6
ATOM      6  C   UNL A   1      32.765  29.608  25.761  1.00  0.00     0.051 C 
BRANCH   6   7
ATOM      7  C   UNL A   1      32.802  28.831  24.552  1.00  0.00    -0.001 A 
ATOM      8  C   UNL A   1      33.662  27.742  24.437  1.00  0.00     0.119 A 
ATOM      9  C   UNL A   1      31.707  28.709  23.628  1.00  0.00     0.096 A 
ATOM     10  N   UNL A   1      32.962  26.838  23.698  1.00  0.00    -0.240 N 
ATOM     11  N   UNL A   1      31.979  27.498  23.045  1.00  0.00    -0.168 NA
BRANCH   9  12
ATOM     12  C   UNL A   1      30.197  29.503  23.563  1.00  0.00     0.002 A 
ATOM     13  C   UNL A   1      29.087  29.117  22.782  1.00  0.00     0.010 A 
ATOM     14  C   UNL A   1      29.894  30.806  24.014  1.00  0.00     0.010 A 
ATOM     15  C   UNL A   1      27.853  29.822  22.612  1.00  0.00     0.001 A 
ATOM     16  C   UNL A   1      28.703  31.568  23.868  1.00  0.00     0.001 A 
ATOM     17  C   UNL A   1      27.650  31.055  23.177  1.00  0.00     0.000 A 
ENDBRANCH   9  12
BRANCH  10  18
ATOM     18  C   UNL A   1      33.025  25.384  23.796  1.00  0.00     0.065 A 
ATOM     19  C   UNL A   1      33.247  24.753  25.039  1.00  0.00     0.029 A 
ATOM     20  C   UNL A   1      32.787  24.552  22.690  1.00  0.00     0.029 A 
ATOM     21  C   UNL A   1      33.206  23.348  25.168  1.00  0.00     0.018 A 
ATOM     22  C   UNL A   1      32.753  23.146  22.816  1.00  0.00     0.018 A 
ATOM     23  C   UNL A   1      32.959  22.551  24.056  1.00  0.00     0.018 A 
ATOM     24  Br  UNL A   1      32.910  20.665  24.230  1.00  0.00    -0.051 Br
ENDBRANCH  10  18
ENDBRANCH   6   7
ENDBRANCH   5   6
ENDBRANCH   3   5
ENDBRANCH   2   3
ENDBRANCH   1   2
BRANCH   1  25
ATOM     25  C   UNL A   1      35.541  32.419  30.942  1.00  0.00     0.275 C 
BRANCH  25  26
ATOM     26  O   UNL A   1      36.972  32.429  31.640  1.00  0.00    -0.458 OA
BRANCH  26  27
ATOM     27  C   UNL A   1      38.294  32.881  31.492  1.00  0.00     0.338 C 
ATOM     28  O   UNL A   1      38.786  33.962  31.605  1.00  0.00    -0.246 OA
BRANCH  27  29
ATOM     29  C   UNL A   1      39.141  31.716  30.992  1.00  0.00     0.060 A 
ATOM     30  C   UNL A   1      38.703  30.362  31.020  1.00  0.00     0.016 A 
ATOM     31  C   UNL A   1      40.461  31.988  30.673  1.00  0.00     0.016 A 
ATOM     32  C   UNL A   1      39.627  29.307  30.885  1.00  0.00     0.010 A 
ATOM     33  C   UNL A   1      41.354  30.941  30.461  1.00  0.00     0.010 A 
ATOM     34  C   UNL A   1      40.967  29.597  30.610  1.00  0.00    -0.014 A 
BRANCH  34  35
ATOM     35  C   UNL A   1      41.906  28.530  30.176  1.00  0.00     0.031 A 
ATOM     36  C   UNL A   1      42.801  28.006  31.264  1.00  0.00     0.074 A 
ATOM     37  C   UNL A   1      41.710  27.808  29.047  1.00  0.00     0.049 A 
ATOM     38  N   UNL A   1      44.055  27.678  31.230  1.00  0.00    -0.248 NA
ATOM     39  C   UNL A   1      42.202  27.902  32.609  1.00  0.00     0.031 C 
ATOM     40  C   UNL A   1      40.658  28.031  28.047  1.00  0.00     0.029 A 
ATOM     41  N   UNL A   1      42.250  26.606  28.656  1.00  0.00    -0.354 N 
ATOM     42  C   UNL A   1      44.349  27.163  32.498  1.00  0.00     0.074 A 
ATOM     43  C   UNL A   1      43.233  27.493  33.340  1.00  0.00     0.031 C 
ATOM     44  C   UNL A   1      40.447  26.887  27.363  1.00  0.00     0.029 A 
ATOM     45  C   UNL A   1      41.412  25.890  27.796  1.00  0.00     0.049 A 
ATOM     46  H   UNL A   1      43.132  26.284  28.951  1.00  0.00     0.167 HD
ATOM     47  C   UNL A   1      45.368  26.291  32.740  1.00  0.00     0.031 A 
ATOM     48  C   UNL A   1      41.425  24.557  27.530  1.00  0.00     0.031 A 
ATOM     49  C   UNL A   1      46.339  26.273  31.684  1.00  0.00     0.049 A 
ATOM     50  C   UNL A   1      42.723  24.010  27.981  1.00  0.00     0.074 A 
ATOM     51  C   UNL A   1      47.175  27.204  31.104  1.00  0.00     0.029 A 
ATOM     52  N   UNL A   1      46.329  25.188  30.843  1.00  0.00    -0.354 N 
ATOM     53  N   UNL A   1      43.863  24.274  27.414  1.00  0.00    -0.248 NA
ATOM     54  C   UNL A   1      42.808  23.418  29.307  1.00  0.00     0.031 C 
ATOM     55  C   UNL A   1      47.269  26.818  29.736  1.00  0.00     0.029 A 
ATOM     56  C   UNL A   1      46.518  25.653  29.570  1.00  0.00     0.049 A 
ATOM     57  H   UNL A   1      46.210  24.247  31.107  1.00  0.00     0.167 HD
ATOM     58  C   UNL A   1      44.780  24.285  28.453  1.00  0.00     0.074 A 
ATOM     59  C   UNL A   1      44.102  23.625  29.563  1.00  0.00     0.031 C 
ATOM     60  C   UNL A   1      45.886  25.083  28.401  1.00  0.00     0.031 A 
BRANCH  47  61
ATOM     61  C   UNL A   1      45.273  25.164  33.754  1.00  0.00    -0.014 A 
ATOM     62  C   UNL A   1      46.109  25.187  34.892  1.00  0.00     0.010 A 
ATOM     63  C   UNL A   1      44.605  23.950  33.489  1.00  0.00     0.010 A 
ATOM     64  C   UNL A   1      46.330  24.033  35.660  1.00  0.00     0.020 A 
ATOM     65  C   UNL A   1      44.775  22.811  34.278  1.00  0.00     0.020 A 
ATOM     66  C   UNL A   1      45.673  22.848  35.334  1.00  0.00     0.054 A 
BRANCH  66  67
ATOM     67  S   UNL A   1      46.058  21.329  36.239  1.00  0.00     0.124 S 
ATOM     68  O   UNL A   1      47.501  21.225  36.045  1.00  0.00    -0.237 OA
ATOM     69  O   UNL A   1      45.620  21.655  37.594  1.00  0.00    -0.237 OA
ATOM     70  O   UNL A   1      45.257  20.314  35.559  1.00  0.00    -0.744 OA
ENDBRANCH  66  67
ENDBRANCH  47  61
BRANCH  48  71
ATOM     71  C   UNL A   1      40.293  23.665  27.154  1.00  0.00    -0.014 A 
ATOM     72  C   UNL A   1      39.011  24.190  26.894  1.00  0.00     0.010 A 
ATOM     73  C   UNL A   1      40.527  22.322  26.796  1.00  0.00     0.010 A 
ATOM     74  C   UNL A   1      38.026  23.420  26.248  1.00  0.00     0.020 A 
ATOM     75  C   UNL A   1      39.547  21.543  26.167  1.00  0.00     0.020 A 
ATOM     76  C   UNL A   1      38.308  22.105  25.871  1.00  0.00     0.054 A 
BRANCH  76  77
ATOM     77  S   UNL A   1      37.103  21.177  24.877  1.00  0.00     0.124 S 
ATOM     78  O   UNL A   1      37.794  19.912  24.649  1.00  0.00    -0.237 OA
ATOM     79  O   UNL A   1      35.941  21.115  25.759  1.00  0.00    -0.237 OA
ATOM     80  O   UNL A   1      36.927  22.009  23.687  1.00  0.00    -0.744 OA
ENDBRANCH  76  77
ENDBRANCH  48  71
BRANCH  60  81
ATOM     81  C   UNL A   1      46.311  25.646  27.068  1.00  0.00    -0.014 A 
ATOM     82  C   UNL A   1      45.978  26.940  26.625  1.00  0.00     0.010 A 
ATOM     83  C   UNL A   1      47.213  24.884  26.304  1.00  0.00     0.010 A 
ATOM     84  C   UNL A   1      46.515  27.447  25.434  1.00  0.00     0.020 A 
ATOM     85  C   UNL A   1      47.769  25.393  25.129  1.00  0.00     0.020 A 
ATOM     86  C   UNL A   1      47.411  26.669  24.695  1.00  0.00     0.054 A 
BRANCH  86  87
ATOM     87  S   UNL A   1      48.156  27.360  23.192  1.00  0.00     0.124 S 
ATOM     88  O   UNL A   1      49.345  28.031  23.708  1.00  0.00    -0.237 OA
ATOM     89  O   UNL A   1      48.407  26.173  22.378  1.00  0.00    -0.237 OA
ATOM     90  O   UNL A   1      47.120  28.250  22.669  1.00  0.00    -0.744 OA
ENDBRANCH  86  87
ENDBRANCH  60  81
ENDBRANCH  34  35
ENDBRANCH  27  29
ENDBRANCH  26  27
ENDBRANCH  25  26
ENDBRANCH   1  25
TORSDOF 18
ENDMDL
MODEL 2
REMARK VINA RESULT:     -13.9      3.839      5.755
REMARK SMILES O=C(CCc1cn(-c2ccc(Br)cc2)nc1-c1ccccc1)OCCOC(=O)c1ccc(-c2c3nc(c(-c4ccc(S(=O)(=O)[O-])cc4)c4ccc([nH]4)c(-c4ccc(S(=O)(=O)[O-])cc4)c4nc(c(-c5ccc(S(=O)(=O)[O-])cc5)c5ccc2[nH]5)C=C4)C=C3)cc1
REMARK SMILES IDX 24 1 23 2 2 3 1 4 3 5 4 6 5 7 6 8 16 9 7 10 15 11 17 12
REMARK SMILES IDX 18 13 22 14 19 15 21 16 20 17 8 18 9 19 14 20 10 21 13 22
REMARK SMILES IDX 11 23 12 24 25 25 26 26 27 27 28 28 29 29 30 30 88 31 31 32
REMARK SMILES IDX 87 33 32 34 33 35 34 36 81 37 35 38 86 39 80 40 82 41 36 42
REMARK SMILES IDX 85 43 79 44 78 45 37 47 67 48 48 49 66 50 49 51 52 52 65 53
REMARK SMILES IDX 83 54 50 55 51 56 64 58 84 59 53 60 38 61 39 62 47 63 40 64
REMARK SMILES IDX 46 65 41 66 42 67 43 68 44 69 45 70 68 71 69 72 77 73 70 74
REMARK SMILES IDX 76 75 71 76 72 77 73 78 74 79 75 80 54 81 55 82 63 83 56 84
REMARK SMILES IDX 62 85 57 86 58 87 59 88 60 89 61 90
REMARK H PARENT 82 46 52 57
REMARK Flexibility Score: inf
ROOT
ATOM      1  C   UNL A   1      31.592  27.181  26.574  1.00  0.00     0.274 C 
ENDROOT
BRANCH   1   2
ATOM      2  O   UNL A   1      31.866  25.526  26.798  1.00  0.00    -0.462 OA
BRANCH   2   3
ATOM      3  C   UNL A   1      31.822  24.167  27.016  1.00  0.00     0.306 C 
ATOM      4  O   UNL A   1      30.698  23.673  27.199  1.00  0.00    -0.252 OA
BRANCH   3   5
ATOM      5  C   UNL A   1      33.043  23.084  27.153  1.00  0.00     0.127 C 
BRANCH   5   6
ATOM      6  C   UNL A   1      34.471  23.426  26.735  1.00  0.00     0.051 C 
BRANCH   6   7
ATOM      7  C   UNL A   1      34.727  22.545  25.627  1.00  0.00    -0.001 A 
ATOM      8  C   UNL A   1      35.138  21.233  25.847  1.00  0.00     0.119 A 
ATOM      9  C   UNL A   1      34.126  22.675  24.328  1.00  0.00     0.096 A 
ATOM     10  N   UNL A   1      34.534  20.522  24.855  1.00  0.00    -0.240 N 
ATOM     11  N   UNL A   1      34.183  21.383  23.873  1.00  0.00    -0.168 NA
BRANCH   9  12
ATOM     12  C   UNL A   1      33.136  23.898  23.664  1.00  0.00     0.002 A 
ATOM     13  C   UNL A   1      33.505  25.241  23.447  1.00  0.00     0.010 A 
ATOM     14  C   UNL A   1      31.732  23.873  23.509  1.00  0.00     0.010 A 
ATOM     15  C   UNL A   1      32.668  26.316  23.007  1.00  0.00     0.001 A 
ATOM     16  C   UNL A   1      30.843  24.900  23.093  1.00  0.00     0.001 A 
ATOM     17  C   UNL A   1      31.322  26.140  22.809  1.00  0.00     0.000 A 
ENDBRANCH   9  12
BRANCH  10  18
ATOM     18  C   UNL A   1      34.057  19.146  24.923  1.00  0.00     0.065 A 
ATOM     19  C   UNL A   1      34.855  18.081  24.450  1.00  0.00     0.029 A 
ATOM     20  C   UNL A   1      32.838  18.809  25.531  1.00  0.00     0.029 A 
ATOM     21  C   UNL A   1      34.455  16.737  24.604  1.00  0.00     0.018 A 
ATOM     22  C   UNL A   1      32.432  17.464  25.679  1.00  0.00     0.018 A 
ATOM     23  C   UNL A   1      33.245  16.434  25.218  1.00  0.00     0.018 A 
ATOM     24  Br  UNL A   1      32.706  14.629  25.420  1.00  0.00    -0.051 Br
ENDBRANCH  10  18
ENDBRANCH   6   7
ENDBRANCH   5   6
ENDBRANCH   3   5
ENDBRANCH   2   3
ENDBRANCH   1   2
BRANCH   1  25
ATOM     25  C   UNL A   1      32.107  28.725  27.317  1.00  0.00     0.275 C 
BRANCH  25  26
ATOM     26  O   UNL A   1      33.421  29.620  27.239  1.00  0.00    -0.458 OA
BRANCH  26  27
ATOM     27  C   UNL A   1      34.005  30.806  27.713  1.00  0.00     0.338 C 
ATOM     28  O   UNL A   1      33.557  31.892  27.917  1.00  0.00    -0.246 OA
BRANCH  27  29
ATOM     29  C   UNL A   1      35.505  30.571  27.856  1.00  0.00     0.060 A 
ATOM     30  C   UNL A   1      36.110  29.288  27.743  1.00  0.00     0.016 A 
ATOM     31  C   UNL A   1      36.271  31.637  28.298  1.00  0.00     0.016 A 
ATOM     32  C   UNL A   1      37.416  29.066  28.222  1.00  0.00     0.010 A 
ATOM     33  C   UNL A   1      37.589  31.428  28.695  1.00  0.00     0.010 A 
ATOM     34  C   UNL A   1      38.162  30.144  28.710  1.00  0.00    -0.014 A 
BRANCH  34  35
ATOM     35  C   UNL A   1      39.623  30.016  28.950  1.00  0.00     0.031 A 
ATOM     36  C   UNL A   1      40.017  30.001  30.401  1.00  0.00     0.074 A 
ATOM     37  C   UNL A   1      40.474  29.545  28.007  1.00  0.00     0.049 A 
ATOM     38  N   UNL A   1      41.024  30.558  31.000  1.00  0.00    -0.248 NA
ATOM     39  C   UNL A   1      39.096  29.306  31.322  1.00  0.00     0.031 C 
ATOM     40  C   UNL A   1      40.132  29.219  26.618  1.00  0.00     0.029 A 
ATOM     41  N   UNL A   1      41.751  29.055  28.129  1.00  0.00    -0.354 N 
ATOM     42  C   UNL A   1      40.956  30.136  32.332  1.00  0.00     0.074 A 
ATOM     43  C   UNL A   1      39.665  29.527  32.502  1.00  0.00     0.031 C 
ATOM     44  C   UNL A   1      41.038  28.345  26.132  1.00  0.00     0.029 A 
ATOM     45  C   UNL A   1      42.076  28.134  27.128  1.00  0.00     0.049 A 
ATOM     46  H   UNL A   1      42.372  29.323  28.845  1.00  0.00     0.167 HD
ATOM     47  C   UNL A   1      42.034  30.087  33.164  1.00  0.00     0.031 A 
ATOM     48  C   UNL A   1      43.051  27.187  27.143  1.00  0.00     0.031 A 
ATOM     49  C   UNL A   1      43.134  30.876  32.687  1.00  0.00     0.049 A 
ATOM     50  C   UNL A   1      44.003  27.523  28.225  1.00  0.00     0.074 A 
ATOM     51  C   UNL A   1      43.330  32.209  32.392  1.00  0.00     0.029 A 
ATOM     52  N   UNL A   1      44.200  30.202  32.145  1.00  0.00    -0.354 N 
ATOM     53  N   UNL A   1      44.805  28.546  28.199  1.00  0.00    -0.248 NA
ATOM     54  C   UNL A   1      43.826  26.900  29.528  1.00  0.00     0.031 C 
ATOM     55  C   UNL A   1      44.257  32.218  31.311  1.00  0.00     0.029 A 
ATOM     56  C   UNL A   1      44.603  30.894  31.036  1.00  0.00     0.049 A 
ATOM     57  H   UNL A   1      44.602  29.373  32.492  1.00  0.00     0.167 HD
ATOM     58  C   UNL A   1      44.895  28.956  29.519  1.00  0.00     0.074 A 
ATOM     59  C   UNL A   1      44.385  27.834  30.300  1.00  0.00     0.031 C 
ATOM     60  C   UNL A   1      45.103  30.267  29.832  1.00  0.00     0.031 A 
BRANCH  47  61
ATOM     61  C   UNL A   1      42.228  29.003  34.210  1.00  0.00    -0.014 A 
ATOM     62  C   UNL A   1      42.854  27.792  33.843  1.00  0.00     0.010 A 
ATOM     63  C   UNL A   1      41.566  29.015  35.457  1.00  0.00     0.010 A 
ATOM     64  C   UNL A   1      42.743  26.640  34.637  1.00  0.00     0.020 A 
ATOM     65  C   UNL A   1      41.495  27.891  36.281  1.00  0.00     0.020 A 
ATOM     66  C   UNL A   1      42.046  26.696  35.843  1.00  0.00     0.054 A 
BRANCH  66  67
ATOM     67  S   UNL A   1      41.787  25.183  36.802  1.00  0.00     0.124 S 
ATOM     68  O   UNL A   1      41.661  24.182  35.748  1.00  0.00    -0.237 OA
ATOM     69  O   UNL A   1      43.006  25.111  37.605  1.00  0.00    -0.237 OA
ATOM     70  O   UNL A   1      40.566  25.461  37.555  1.00  0.00    -0.744 OA
ENDBRANCH  66  67
ENDBRANCH  47  61
BRANCH  48  71
ATOM     71  C   UNL A   1      43.082  25.862  26.463  1.00  0.00    -0.014 A 
ATOM     72  C   UNL A   1      43.873  25.654  25.315  1.00  0.00     0.010 A 
ATOM     73  C   UNL A   1      42.537  24.723  27.089  1.00  0.00     0.010 A 
ATOM     74  C   UNL A   1      44.156  24.356  24.851  1.00  0.00     0.020 A 
ATOM     75  C   UNL A   1      42.799  23.428  26.623  1.00  0.00     0.020 A 
ATOM     76  C   UNL A   1      43.630  23.248  25.521  1.00  0.00     0.054 A 
BRANCH  76  77
ATOM     77  S   UNL A   1      44.144  21.575  25.031  1.00  0.00     0.124 S 
ATOM     78  O   UNL A   1      44.391  21.731  23.601  1.00  0.00    -0.237 OA
ATOM     79  O   UNL A   1      45.326  21.349  25.858  1.00  0.00    -0.237 OA
ATOM     80  O   UNL A   1      42.987  20.748  25.373  1.00  0.00    -0.744 OA
ENDBRANCH  76  77
ENDBRANCH  48  71
BRANCH  60  81
ATOM     81  C   UNL A   1      45.619  31.195  28.760  1.00  0.00    -0.014 A 
ATOM     82  C   UNL A   1      44.790  31.856  27.834  1.00  0.00     0.010 A 
ATOM     83  C   UNL A   1      46.987  31.524  28.794  1.00  0.00     0.010 A 
ATOM     84  C   UNL A   1      45.322  32.804  26.949  1.00  0.00     0.020 A 
ATOM     85  C   UNL A   1      47.517  32.484  27.931  1.00  0.00     0.020 A 
ATOM     86  C   UNL A   1      46.684  33.114  27.007  1.00  0.00     0.054 A 
BRANCH  86  87
ATOM     87  S   UNL A   1      47.350  34.393  25.907  1.00  0.00     0.124 S 
ATOM     88  O   UNL A   1      48.609  33.804  25.462  1.00  0.00    -0.237 OA
ATOM     89  O   UNL A   1      46.315  34.512  24.882  1.00  0.00    -0.237 OA
ATOM     90  O   UNL A   1      47.486  35.562  26.775  1.00  0.00    -0.744 OA
ENDBRANCH  86  87
ENDBRANCH  60  81
ENDBRANCH  34  35
ENDBRANCH  27  29
ENDBRANCH  26  27
ENDBRANCH  25  26
ENDBRANCH   1  25
TORSDOF 18
ENDMDL
MODEL 3
REMARK VINA RESULT:     -13.5      3.687      6.159
REMARK SMILES O=C(CCc1cn(-c2ccc(Br)cc2)nc1-c1ccccc1)OCCOC(=O)c1ccc(-c2c3nc(c(-c4ccc(S(=O)(=O)[O-])cc4)c4ccc([nH]4)c(-c4ccc(S(=O)(=O)[O-])cc4)c4nc(c(-c5ccc(S(=O)(=O)[O-])cc5)c5ccc2[nH]5)C=C4)C=C3)cc1
REMARK SMILES IDX 24 1 23 2 2 3 1 4 3 5 4 6 5 7 6 8 16 9 7 10 15 11 17 12
REMARK SMILES IDX 18 13 22 14 19 15 21 16 20 17 8 18 9 19 14 20 10 21 13 22
REMARK SMILES IDX 11 23 12 24 25 25 26 26 27 27 28 28 29 29 30 30 88 31 31 32
REMARK SMILES IDX 87 33 32 34 33 35 34 36 81 37 35 38 86 39 80 40 82 41 36 42
REMARK SMILES IDX 85 43 79 44 78 45 37 47 67 48 48 49 66 50 49 51 52 52 65 53
REMARK SMILES IDX 83 54 50 55 51 56 64 58 84 59 53 60 38 61 39 62 47 63 40 64
REMARK SMILES IDX 46 65 41 66 42 67 43 68 44 69 45 70 68 71 69 72 77 73 70 74
REMARK SMILES IDX 76 75 71 76 72 77 73 78 74 79 75 80 54 81 55 82 63 83 56 84
REMARK SMILES IDX 62 85 57 86 58 87 59 88 60 89 61 90
REMARK H PARENT 82 46 52 57
REMARK Flexibility Score: inf
ROOT
ATOM      1  C   UNL A   1      31.793  27.100  26.501  1.00  0.00     0.274 C 
ENDROOT
BRANCH   1   2
ATOM      2  O   UNL A   1      31.400  25.474  26.762  1.00  0.00    -0.462 OA
BRANCH   2   3
ATOM      3  C   UNL A   1      31.272  24.104  26.789  1.00  0.00     0.306 C 
ATOM      4  O   UNL A   1      30.218  23.657  27.269  1.00  0.00    -0.252 OA
BRANCH   3   5
ATOM      5  C   UNL A   1      32.338  22.940  26.351  1.00  0.00     0.127 C 
BRANCH   5   6
ATOM      6  C   UNL A   1      32.050  21.976  25.203  1.00  0.00     0.051 C 
BRANCH   6   7
ATOM      7  C   UNL A   1      32.193  22.790  24.025  1.00  0.00    -0.001 A 
ATOM      8  C   UNL A   1      31.100  23.478  23.504  1.00  0.00     0.119 A 
ATOM      9  C   UNL A   1      33.423  23.402  23.602  1.00  0.00     0.096 A 
ATOM     10  N   UNL A   1      31.627  24.644  23.040  1.00  0.00    -0.240 N 
ATOM     11  N   UNL A   1      32.958  24.469  22.876  1.00  0.00    -0.168 NA
BRANCH   9  12
ATOM     12  C   UNL A   1      35.017  23.249  24.194  1.00  0.00     0.002 A 
ATOM     13  C   UNL A   1      35.881  22.155  23.981  1.00  0.00     0.010 A 
ATOM     14  C   UNL A   1      35.628  24.006  25.217  1.00  0.00     0.010 A 
ATOM     15  C   UNL A   1      37.174  21.939  24.558  1.00  0.00     0.001 A 
ATOM     16  C   UNL A   1      36.893  23.841  25.843  1.00  0.00     0.001 A 
ATOM     17  C   UNL A   1      37.696  22.803  25.487  1.00  0.00     0.000 A 
ENDBRANCH   9  12
BRANCH  10  18
ATOM     18  C   UNL A   1      30.979  25.950  23.003  1.00  0.00     0.065 A 
ATOM     19  C   UNL A   1      29.740  26.159  23.645  1.00  0.00     0.029 A 
ATOM     20  C   UNL A   1      31.587  27.066  22.408  1.00  0.00     0.029 A 
ATOM     21  C   UNL A   1      29.151  27.440  23.708  1.00  0.00     0.018 A 
ATOM     22  C   UNL A   1      30.996  28.348  22.464  1.00  0.00     0.018 A 
ATOM     23  C   UNL A   1      29.782  28.529  23.117  1.00  0.00     0.018 A 
ATOM     24  Br  UNL A   1      28.988  30.248  23.197  1.00  0.00    -0.051 Br
ENDBRANCH  10  18
ENDBRANCH   6   7
ENDBRANCH   5   6
ENDBRANCH   3   5
ENDBRANCH   2   3
ENDBRANCH   1   2
BRANCH   1  25
ATOM     25  C   UNL A   1      33.183  28.050  25.896  1.00  0.00     0.275 C 
BRANCH  25  26
ATOM     26  O   UNL A   1      34.207  29.077  26.553  1.00  0.00    -0.458 OA
BRANCH  26  27
ATOM     27  C   UNL A   1      34.352  30.014  27.589  1.00  0.00     0.338 C 
ATOM     28  O   UNL A   1      33.600  30.815  28.054  1.00  0.00    -0.246 OA
BRANCH  27  29
ATOM     29  C   UNL A   1      35.805  29.987  28.052  1.00  0.00     0.060 A 
ATOM     30  C   UNL A   1      36.500  31.138  28.515  1.00  0.00     0.016 A 
ATOM     31  C   UNL A   1      36.515  28.819  27.829  1.00  0.00     0.016 A 
ATOM     32  C   UNL A   1      37.907  31.144  28.593  1.00  0.00     0.010 A 
ATOM     33  C   UNL A   1      37.899  28.806  27.986  1.00  0.00     0.010 A 
ATOM     34  C   UNL A   1      38.615  29.969  28.319  1.00  0.00    -0.014 A 
BRANCH  34  35
ATOM     35  C   UNL A   1      40.055  29.847  28.667  1.00  0.00     0.031 A 
ATOM     36  C   UNL A   1      40.344  29.875  30.142  1.00  0.00     0.074 A 
ATOM     37  C   UNL A   1      40.970  29.349  27.802  1.00  0.00     0.049 A 
ATOM     38  N   UNL A   1      41.307  30.449  30.795  1.00  0.00    -0.248 NA
ATOM     39  C   UNL A   1      39.358  29.208  31.014  1.00  0.00     0.031 C 
ATOM     40  C   UNL A   1      40.728  28.982  26.401  1.00  0.00     0.029 A 
ATOM     41  N   UNL A   1      42.234  28.861  28.029  1.00  0.00    -0.354 N 
ATOM     42  C   UNL A   1      41.143  30.066  32.131  1.00  0.00     0.074 A 
ATOM     43  C   UNL A   1      39.842  29.462  32.225  1.00  0.00     0.031 C 
ATOM     44  C   UNL A   1      41.664  28.094  26.007  1.00  0.00     0.029 A 
ATOM     45  C   UNL A   1      42.627  27.911  27.081  1.00  0.00     0.049 A 
ATOM     46  H   UNL A   1      42.803  29.149  28.779  1.00  0.00     0.167 HD
ATOM     47  C   UNL A   1      42.159  30.040  33.039  1.00  0.00     0.031 A 
ATOM     48  C   UNL A   1      43.596  26.964  27.193  1.00  0.00     0.031 A 
ATOM     49  C   UNL A   1      43.291  30.814  32.619  1.00  0.00     0.049 A 
ATOM     50  C   UNL A   1      44.469  27.331  28.330  1.00  0.00     0.074 A 
ATOM     51  C   UNL A   1      43.512  32.138  32.300  1.00  0.00     0.029 A 
ATOM     52  N   UNL A   1      44.392  30.124  32.175  1.00  0.00    -0.354 N 
ATOM     53  N   UNL A   1      45.274  28.352  28.333  1.00  0.00    -0.248 NA
ATOM     54  C   UNL A   1      44.197  26.747  29.635  1.00  0.00     0.031 C 
ATOM     55  C   UNL A   1      44.514  32.114  31.288  1.00  0.00     0.029 A 
ATOM     56  C   UNL A   1      44.875  30.783  31.078  1.00  0.00     0.049 A 
ATOM     57  H   UNL A   1      44.765  29.305  32.574  1.00  0.00     0.167 HD
ATOM     58  C   UNL A   1      45.270  28.801  29.644  1.00  0.00     0.074 A 
ATOM     59  C   UNL A   1      44.702  27.703  30.418  1.00  0.00     0.031 C 
ATOM     60  C   UNL A   1      45.459  30.121  29.932  1.00  0.00     0.031 A 
BRANCH  47  61
ATOM     61  C   UNL A   1      42.273  28.987  34.127  1.00  0.00    -0.014 A 
ATOM     62  C   UNL A   1      42.527  27.646  33.767  1.00  0.00     0.010 A 
ATOM     63  C   UNL A   1      41.860  29.213  35.458  1.00  0.00     0.010 A 
ATOM     64  C   UNL A   1      42.290  26.590  34.661  1.00  0.00     0.020 A 
ATOM     65  C   UNL A   1      41.674  28.176  36.373  1.00  0.00     0.020 A 
ATOM     66  C   UNL A   1      41.847  26.865  35.954  1.00  0.00     0.054 A 
BRANCH  66  67
ATOM     67  S   UNL A   1      41.414  25.503  37.064  1.00  0.00     0.124 S 
ATOM     68  O   UNL A   1      41.257  24.395  36.127  1.00  0.00    -0.237 OA
ATOM     69  O   UNL A   1      42.580  25.433  37.941  1.00  0.00    -0.237 OA
ATOM     70  O   UNL A   1      40.185  25.963  37.706  1.00  0.00    -0.744 OA
ENDBRANCH  66  67
ENDBRANCH  47  61
BRANCH  48  71
ATOM     71  C   UNL A   1      43.672  25.620  26.557  1.00  0.00    -0.014 A 
ATOM     72  C   UNL A   1      43.997  25.481  25.192  1.00  0.00     0.010 A 
ATOM     73  C   UNL A   1      43.681  24.452  27.346  1.00  0.00     0.010 A 
ATOM     74  C   UNL A   1      44.373  24.236  24.656  1.00  0.00     0.020 A 
ATOM     75  C   UNL A   1      44.038  23.205  26.817  1.00  0.00     0.020 A 
ATOM     76  C   UNL A   1      44.409  23.107  25.479  1.00  0.00     0.054 A 
BRANCH  76  77
ATOM     77  S   UNL A   1      45.070  21.543  24.830  1.00  0.00     0.124 S 
ATOM     78  O   UNL A   1      46.507  21.709  25.020  1.00  0.00    -0.237 OA
ATOM     79  O   UNL A   1      44.428  20.547  25.684  1.00  0.00    -0.237 OA
ATOM     80  O   UNL A   1      44.625  21.536  23.437  1.00  0.00    -0.744 OA
ENDBRANCH  76  77
ENDBRANCH  48  71
BRANCH  60  81
ATOM     81  C   UNL A   1      46.053  31.016  28.873  1.00  0.00    -0.014 A 
ATOM     82  C   UNL A   1      45.308  31.581  27.820  1.00  0.00     0.010 A 
ATOM     83  C   UNL A   1      47.390  31.420  29.045  1.00  0.00     0.010 A 
ATOM     84  C   UNL A   1      45.895  32.508  26.948  1.00  0.00     0.020 A 
ATOM     85  C   UNL A   1      47.972  32.360  28.193  1.00  0.00     0.020 A 
ATOM     86  C   UNL A   1      47.224  32.893  27.143  1.00  0.00     0.054 A 
BRANCH  86  87
ATOM     87  S   UNL A   1      47.954  34.146  26.053  1.00  0.00     0.124 S 
ATOM     88  O   UNL A   1      49.063  33.423  25.438  1.00  0.00    -0.237 OA
ATOM     89  O   UNL A   1      46.849  34.482  25.158  1.00  0.00    -0.237 OA
ATOM     90  O   UNL A   1      48.345  35.217  26.967  1.00  0.00    -0.744 OA
ENDBRANCH  86  87
ENDBRANCH  60  81
ENDBRANCH  34  35
ENDBRANCH  27  29
ENDBRANCH  26  27
ENDBRANCH  25  26
ENDBRANCH   1  25
TORSDOF 18
ENDMDL
