MODEL 1
REMARK VINA RESULT:      -9.4      0.000      0.000
REMARK SMILES O=C(OCCOC(=O)c1ccc(-c2ccc(Cl)cc2)cc1F)c1ccc(-c2c3nc(c(-c4ccc(S(=O)(=O)[O-])cc4)c4ccc([nH]4)c(-c4ccc(S(=O)(=O)[O-])cc4)c4nc(c(-c5ccc(S(=O)(=O)[O-])cc5)c5ccc2[nH]5)C=C4)C=C3)cc1
REMARK SMILES IDX 4 1 3 2 2 3 1 4 23 5 24 6 82 7 25 8 81 9 26 10 27 11 28 12
REMARK SMILES IDX 75 13 29 14 80 15 74 16 76 17 30 18 79 19 73 20 72 21 31 23
REMARK SMILES IDX 61 24 42 25 60 26 43 27 46 28 59 29 77 30 44 31 45 32 58 34
REMARK SMILES IDX 78 35 47 36 32 37 33 38 41 39 34 40 40 41 35 42 36 43 37 44
REMARK SMILES IDX 38 45 39 46 62 47 63 48 71 49 64 50 70 51 65 52 66 53 67 54
REMARK SMILES IDX 68 55 69 56 48 57 49 58 57 59 50 60 56 61 51 62 52 63 53 64
REMARK SMILES IDX 54 65 55 66 5 67 6 68 7 69 8 70 9 71 10 72 21 73 11 74 20 75
REMARK SMILES IDX 22 76 12 77 13 78 14 79 19 80 15 81 18 82 16 83 17 84
REMARK H PARENT 76 22 46 33
REMARK Flexibility Score: inf
ROOT
ATOM      1  C   UNL A   1      40.597  21.268  26.995  1.00  0.00     0.275 C 
ENDROOT
BRANCH   1   2
ATOM      2  O   UNL A   1      39.645  21.802  26.058  1.00  0.00    -0.458 OA
BRANCH   2   3
ATOM      3  C   UNL A   1      38.864  22.903  26.139  1.00  0.00     0.338 C 
ATOM      4  O   UNL A   1      37.775  22.895  25.564  1.00  0.00    -0.246 OA
BRANCH   3   5
ATOM      5  C   UNL A   1      39.298  24.190  26.770  1.00  0.00     0.060 A 
ATOM      6  C   UNL A   1      40.036  25.203  26.154  1.00  0.00     0.016 A 
ATOM      7  C   UNL A   1      38.938  24.369  28.119  1.00  0.00     0.016 A 
ATOM      8  C   UNL A   1      40.334  26.392  26.828  1.00  0.00     0.010 A 
ATOM      9  C   UNL A   1      39.233  25.554  28.798  1.00  0.00     0.010 A 
ATOM     10  C   UNL A   1      39.933  26.576  28.152  1.00  0.00    -0.014 A 
BRANCH  10  11
ATOM     11  C   UNL A   1      40.372  27.778  28.895  1.00  0.00     0.031 A 
ATOM     12  C   UNL A   1      41.700  27.742  29.590  1.00  0.00     0.074 A 
ATOM     13  C   UNL A   1      39.616  28.891  28.916  1.00  0.00     0.049 A 
ATOM     14  N   UNL A   1      42.304  28.690  30.256  1.00  0.00    -0.248 NA
ATOM     15  C   UNL A   1      42.460  26.484  29.500  1.00  0.00     0.031 C 
ATOM     16  C   UNL A   1      38.352  29.065  28.204  1.00  0.00     0.029 A 
ATOM     17  N   UNL A   1      39.793  30.084  29.570  1.00  0.00    -0.354 N 
ATOM     18  C   UNL A   1      43.532  28.159  30.624  1.00  0.00     0.074 A 
ATOM     19  C   UNL A   1      43.558  26.785  30.176  1.00  0.00     0.031 C 
ATOM     20  C   UNL A   1      37.826  30.262  28.519  1.00  0.00     0.029 A 
ATOM     21  C   UNL A   1      38.731  30.948  29.434  1.00  0.00     0.049 A 
ATOM     22  H   UNL A   1      40.602  30.301  30.086  1.00  0.00     0.167 HD
ATOM     23  C   UNL A   1      44.561  28.776  31.249  1.00  0.00     0.031 A 
ATOM     24  C   UNL A   1      38.515  32.157  29.986  1.00  0.00     0.031 A 
ATOM     25  C   UNL A   1      44.506  30.130  31.723  1.00  0.00     0.049 A 
ATOM     26  C   UNL A   1      39.615  32.773  30.806  1.00  0.00     0.074 A 
ATOM     27  C   UNL A   1      45.486  30.857  32.370  1.00  0.00     0.029 A 
ATOM     28  N   UNL A   1      43.396  30.955  31.615  1.00  0.00    -0.354 N 
ATOM     29  N   UNL A   1      40.796  32.280  31.094  1.00  0.00    -0.248 NA
ATOM     30  C   UNL A   1      39.376  34.122  31.335  1.00  0.00     0.031 C 
ATOM     31  C   UNL A   1      44.950  32.106  32.701  1.00  0.00     0.029 A 
ATOM     32  C   UNL A   1      43.654  32.176  32.212  1.00  0.00     0.049 A 
ATOM     33  H   UNL A   1      42.549  30.709  31.178  1.00  0.00     0.167 HD
ATOM     34  C   UNL A   1      41.463  33.278  31.794  1.00  0.00     0.074 A 
ATOM     35  C   UNL A   1      40.548  34.399  31.892  1.00  0.00     0.031 C 
ATOM     36  C   UNL A   1      42.724  33.275  32.293  1.00  0.00     0.031 A 
BRANCH  23  37
ATOM     37  C   UNL A   1      45.809  27.966  31.458  1.00  0.00    -0.014 A 
ATOM     38  C   UNL A   1      45.931  27.104  32.564  1.00  0.00     0.010 A 
ATOM     39  C   UNL A   1      46.881  28.084  30.557  1.00  0.00     0.010 A 
ATOM     40  C   UNL A   1      47.123  26.414  32.795  1.00  0.00     0.020 A 
ATOM     41  C   UNL A   1      48.068  27.377  30.772  1.00  0.00     0.020 A 
ATOM     42  C   UNL A   1      48.188  26.563  31.901  1.00  0.00     0.054 A 
BRANCH  42  43
ATOM     43  S   UNL A   1      49.730  25.666  32.230  1.00  0.00     0.124 S 
ATOM     44  O   UNL A   1      50.032  25.098  30.919  1.00  0.00    -0.237 OA
ATOM     45  O   UNL A   1      50.630  26.728  32.675  1.00  0.00    -0.237 OA
ATOM     46  O   UNL A   1      49.357  24.699  33.258  1.00  0.00    -0.744 OA
ENDBRANCH  42  43
ENDBRANCH  23  37
BRANCH  24  47
ATOM     47  C   UNL A   1      37.221  32.859  29.767  1.00  0.00    -0.014 A 
ATOM     48  C   UNL A   1      36.981  33.596  28.595  1.00  0.00     0.010 A 
ATOM     49  C   UNL A   1      36.208  32.783  30.743  1.00  0.00     0.010 A 
ATOM     50  C   UNL A   1      35.763  34.258  28.409  1.00  0.00     0.020 A 
ATOM     51  C   UNL A   1      34.981  33.427  30.552  1.00  0.00     0.020 A 
ATOM     52  C   UNL A   1      34.770  34.169  29.389  1.00  0.00     0.054 A 
BRANCH  52  53
ATOM     53  S   UNL A   1      33.182  35.004  29.106  1.00  0.00     0.124 S 
ATOM     54  O   UNL A   1      33.608  36.323  28.649  1.00  0.00    -0.237 OA
ATOM     55  O   UNL A   1      32.556  34.154  28.097  1.00  0.00    -0.237 OA
ATOM     56  O   UNL A   1      32.542  34.973  30.420  1.00  0.00    -0.744 OA
ENDBRANCH  52  53
ENDBRANCH  24  47
BRANCH  36  57
ATOM     57  C   UNL A   1      43.206  34.537  32.952  1.00  0.00    -0.014 A 
ATOM     58  C   UNL A   1      43.918  35.509  32.230  1.00  0.00     0.010 A 
ATOM     59  C   UNL A   1      42.876  34.778  34.299  1.00  0.00     0.010 A 
ATOM     60  C   UNL A   1      44.313  36.695  32.852  1.00  0.00     0.020 A 
ATOM     61  C   UNL A   1      43.246  35.974  34.915  1.00  0.00     0.020 A 
ATOM     62  C   UNL A   1      43.972  36.921  34.190  1.00  0.00     0.054 A 
BRANCH  62  63
ATOM     63  S   UNL A   1      44.443  38.494  34.959  1.00  0.00     0.124 S 
ATOM     64  O   UNL A   1      43.485  39.421  34.362  1.00  0.00    -0.237 OA
ATOM     65  O   UNL A   1      44.253  38.225  36.383  1.00  0.00    -0.237 OA
ATOM     66  O   UNL A   1      45.832  38.679  34.546  1.00  0.00    -0.744 OA
ENDBRANCH  62  63
ENDBRANCH  36  57
ENDBRANCH  10  11
ENDBRANCH   3   5
ENDBRANCH   2   3
ENDBRANCH   1   2
BRANCH   1  67
ATOM     67  C   UNL A   1      41.906  20.778  26.374  1.00  0.00     0.275 C 
BRANCH  67  68
ATOM     68  O   UNL A   1      42.423  21.653  25.364  1.00  0.00    -0.458 OA
BRANCH  68  69
ATOM     69  C   UNL A   1      43.749  21.933  25.460  1.00  0.00     0.341 C 
ATOM     70  O   UNL A   1      44.674  21.173  25.230  1.00  0.00    -0.246 OA
BRANCH  69  71
ATOM     71  C   UNL A   1      43.937  23.364  25.736  1.00  0.00     0.095 A 
ATOM     72  C   UNL A   1      43.316  24.300  24.904  1.00  0.00     0.019 A 
ATOM     73  C   UNL A   1      44.712  23.797  26.802  1.00  0.00     0.138 A 
ATOM     74  C   UNL A   1      43.414  25.665  25.199  1.00  0.00     0.010 A 
ATOM     75  C   UNL A   1      44.844  25.161  27.069  1.00  0.00     0.049 A 
ATOM     76  F   UNL A   1      45.339  22.919  27.597  1.00  0.00    -0.206 F 
ATOM     77  C   UNL A   1      44.167  26.118  26.296  1.00  0.00    -0.015 A 
BRANCH  77  78
ATOM     78  C   UNL A   1      44.241  27.549  26.632  1.00  0.00    -0.018 A 
ATOM     79  C   UNL A   1      45.380  28.085  27.257  1.00  0.00     0.010 A 
ATOM     80  C   UNL A   1      43.172  28.419  26.353  1.00  0.00     0.010 A 
ATOM     81  C   UNL A   1      45.456  29.445  27.575  1.00  0.00     0.021 A 
ATOM     82  C   UNL A   1      43.243  29.780  26.676  1.00  0.00     0.021 A 
ATOM     83  C   UNL A   1      44.389  30.287  27.279  1.00  0.00     0.041 A 
ATOM     84  Cl  UNL A   1      44.493  31.964  27.650  1.00  0.00    -0.084 Cl
ENDBRANCH  77  78
ENDBRANCH  69  71
ENDBRANCH  68  69
ENDBRANCH  67  68
ENDBRANCH   1  67
TORSDOF 15
ENDMDL
MODEL 2
REMARK VINA RESULT:      -9.2      3.174     10.819
REMARK SMILES O=C(OCCOC(=O)c1ccc(-c2ccc(Cl)cc2)cc1F)c1ccc(-c2c3nc(c(-c4ccc(S(=O)(=O)[O-])cc4)c4ccc([nH]4)c(-c4ccc(S(=O)(=O)[O-])cc4)c4nc(c(-c5ccc(S(=O)(=O)[O-])cc5)c5ccc2[nH]5)C=C4)C=C3)cc1
REMARK SMILES IDX 4 1 3 2 2 3 1 4 23 5 24 6 82 7 25 8 81 9 26 10 27 11 28 12
REMARK SMILES IDX 75 13 29 14 80 15 74 16 76 17 30 18 79 19 73 20 72 21 31 23
REMARK SMILES IDX 61 24 42 25 60 26 43 27 46 28 59 29 77 30 44 31 45 32 58 34
REMARK SMILES IDX 78 35 47 36 32 37 33 38 41 39 34 40 40 41 35 42 36 43 37 44
REMARK SMILES IDX 38 45 39 46 62 47 63 48 71 49 64 50 70 51 65 52 66 53 67 54
REMARK SMILES IDX 68 55 69 56 48 57 49 58 57 59 50 60 56 61 51 62 52 63 53 64
REMARK SMILES IDX 54 65 55 66 5 67 6 68 7 69 8 70 9 71 10 72 21 73 11 74 20 75
REMARK SMILES IDX 22 76 12 77 13 78 14 79 19 80 15 81 18 82 16 83 17 84
REMARK H PARENT 76 22 46 33
REMARK Flexibility Score: inf
ROOT
ATOM      1  C   UNL A   1      34.470  33.128  28.081  1.00  0.00     0.275 C 
ENDROOT
BRANCH   1   2
ATOM      2  O   UNL A   1      34.204  31.791  28.541  1.00  0.00    -0.458 OA
BRANCH   2   3
ATOM      3  C   UNL A   1      34.712  30.608  28.127  1.00  0.00     0.338 C 
ATOM      4  O   UNL A   1      33.971  29.830  27.525  1.00  0.00    -0.246 OA
BRANCH   3   5
ATOM      5  C   UNL A   1      36.085  30.122  28.473  1.00  0.00     0.060 A 
ATOM      6  C   UNL A   1      36.505  29.653  29.719  1.00  0.00     0.016 A 
ATOM      7  C   UNL A   1      37.036  30.169  27.436  1.00  0.00     0.016 A 
ATOM      8  C   UNL A   1      37.803  29.168  29.909  1.00  0.00     0.010 A 
ATOM      9  C   UNL A   1      38.335  29.686  27.620  1.00  0.00     0.010 A 
ATOM     10  C   UNL A   1      38.724  29.178  28.862  1.00  0.00    -0.014 A 
BRANCH  10  11
ATOM     11  C   UNL A   1      40.130  28.791  29.113  1.00  0.00     0.031 A 
ATOM     12  C   UNL A   1      41.065  29.819  29.674  1.00  0.00     0.074 A 
ATOM     13  C   UNL A   1      40.552  27.535  28.877  1.00  0.00     0.049 A 
ATOM     14  N   UNL A   1      42.319  29.689  30.016  1.00  0.00    -0.248 NA
ATOM     15  C   UNL A   1      40.508  31.162  29.909  1.00  0.00     0.031 C 
ATOM     16  C   UNL A   1      39.709  26.435  28.415  1.00  0.00     0.029 A 
ATOM     17  N   UNL A   1      41.798  26.972  28.983  1.00  0.00    -0.354 N 
ATOM     18  C   UNL A   1      42.687  30.916  30.547  1.00  0.00     0.074 A 
ATOM     19  C   UNL A   1      41.552  31.801  30.415  1.00  0.00     0.031 C 
ATOM     20  C   UNL A   1      40.472  25.349  28.202  1.00  0.00     0.029 A 
ATOM     21  C   UNL A   1      41.854  25.671  28.538  1.00  0.00     0.049 A 
ATOM     22  H   UNL A   1      42.578  27.453  29.343  1.00  0.00     0.167 HD
ATOM     23  C   UNL A   1      43.859  31.263  31.128  1.00  0.00     0.031 A 
ATOM     24  C   UNL A   1      42.903  24.835  28.418  1.00  0.00     0.031 A 
ATOM     25  C   UNL A   1      44.992  30.386  31.219  1.00  0.00     0.049 A 
ATOM     26  C   UNL A   1      44.240  25.290  28.935  1.00  0.00     0.074 A 
ATOM     27  C   UNL A   1      46.229  30.631  31.783  1.00  0.00     0.029 A 
ATOM     28  N   UNL A   1      45.028  29.096  30.709  1.00  0.00    -0.354 N 
ATOM     29  N   UNL A   1      44.556  26.436  29.492  1.00  0.00    -0.248 NA
ATOM     30  C   UNL A   1      45.348  24.329  28.854  1.00  0.00     0.031 C 
ATOM     31  C   UNL A   1      47.032  29.506  31.568  1.00  0.00     0.029 A 
ATOM     32  C   UNL A   1      46.278  28.540  30.918  1.00  0.00     0.049 A 
ATOM     33  H   UNL A   1      44.276  28.643  30.264  1.00  0.00     0.167 HD
ATOM     34  C   UNL A   1      45.887  26.316  29.875  1.00  0.00     0.074 A 
ATOM     35  C   UNL A   1      46.316  24.988  29.478  1.00  0.00     0.031 C 
ATOM     36  C   UNL A   1      46.676  27.215  30.514  1.00  0.00     0.031 A 
BRANCH  23  37
ATOM     37  C   UNL A   1      43.952  32.656  31.684  1.00  0.00    -0.014 A 
ATOM     38  C   UNL A   1      44.381  33.727  30.877  1.00  0.00     0.010 A 
ATOM     39  C   UNL A   1      43.634  32.897  33.032  1.00  0.00     0.010 A 
ATOM     40  C   UNL A   1      44.539  35.003  31.420  1.00  0.00     0.020 A 
ATOM     41  C   UNL A   1      43.770  34.178  33.574  1.00  0.00     0.020 A 
ATOM     42  C   UNL A   1      44.241  35.218  32.769  1.00  0.00     0.054 A 
BRANCH  42  43
ATOM     43  S   UNL A   1      44.468  36.882  33.455  1.00  0.00     0.124 S 
ATOM     44  O   UNL A   1      45.861  37.159  33.114  1.00  0.00    -0.237 OA
ATOM     45  O   UNL A   1      43.475  37.668  32.727  1.00  0.00    -0.237 OA
ATOM     46  O   UNL A   1      44.198  36.710  34.880  1.00  0.00    -0.744 OA
ENDBRANCH  42  43
ENDBRANCH  23  37
BRANCH  24  47
ATOM     47  C   UNL A   1      42.723  23.493  27.801  1.00  0.00    -0.014 A 
ATOM     48  C   UNL A   1      43.073  23.255  26.460  1.00  0.00     0.010 A 
ATOM     49  C   UNL A   1      42.201  22.433  28.567  1.00  0.00     0.010 A 
ATOM     50  C   UNL A   1      42.888  21.989  25.892  1.00  0.00     0.020 A 
ATOM     51  C   UNL A   1      42.033  21.162  28.009  1.00  0.00     0.020 A 
ATOM     52  C   UNL A   1      42.370  20.951  26.671  1.00  0.00     0.054 A 
BRANCH  52  53
ATOM     53  S   UNL A   1      42.177  19.307  25.923  1.00  0.00     0.124 S 
ATOM     54  O   UNL A   1      40.734  19.236  25.710  1.00  0.00    -0.237 OA
ATOM     55  O   UNL A   1      42.991  19.414  24.716  1.00  0.00    -0.237 OA
ATOM     56  O   UNL A   1      42.704  18.403  26.944  1.00  0.00    -0.744 OA
ENDBRANCH  52  53
ENDBRANCH  24  47
BRANCH  36  57
ATOM     57  C   UNL A   1      48.071  26.778  30.864  1.00  0.00    -0.014 A 
ATOM     58  C   UNL A   1      49.164  27.105  30.044  1.00  0.00     0.010 A 
ATOM     59  C   UNL A   1      48.293  26.090  32.071  1.00  0.00     0.010 A 
ATOM     60  C   UNL A   1      50.456  26.730  30.416  1.00  0.00     0.020 A 
ATOM     61  C   UNL A   1      49.586  25.738  32.459  1.00  0.00     0.020 A 
ATOM     62  C   UNL A   1      50.659  26.051  31.622  1.00  0.00     0.054 A 
BRANCH  62  63
ATOM     63  S   UNL A   1      52.353  25.628  32.113  1.00  0.00     0.124 S 
ATOM     64  O   UNL A   1      53.088  25.830  30.867  1.00  0.00    -0.237 OA
ATOM     65  O   UNL A   1      52.632  26.596  33.172  1.00  0.00    -0.237 OA
ATOM     66  O   UNL A   1      52.247  24.240  32.559  1.00  0.00    -0.744 OA
ENDBRANCH  62  63
ENDBRANCH  36  57
ENDBRANCH  10  11
ENDBRANCH   3   5
ENDBRANCH   2   3
ENDBRANCH   1   2
BRANCH   1  67
ATOM     67  C   UNL A   1      33.841  34.237  28.926  1.00  0.00     0.275 C 
BRANCH  67  68
ATOM     68  O   UNL A   1      33.623  33.861  30.291  1.00  0.00    -0.458 OA
BRANCH  68  69
ATOM     69  C   UNL A   1      34.384  34.519  31.204  1.00  0.00     0.341 C 
ATOM     70  O   UNL A   1      34.150  35.608  31.702  1.00  0.00    -0.246 OA
BRANCH  69  71
ATOM     71  C   UNL A   1      35.487  33.656  31.649  1.00  0.00     0.095 A 
ATOM     72  C   UNL A   1      36.693  33.685  30.945  1.00  0.00     0.019 A 
ATOM     73  C   UNL A   1      35.351  32.820  32.749  1.00  0.00     0.138 A 
ATOM     74  C   UNL A   1      37.783  32.934  31.401  1.00  0.00     0.010 A 
ATOM     75  C   UNL A   1      36.425  32.038  33.177  1.00  0.00     0.049 A 
ATOM     76  F   UNL A   1      34.195  32.755  33.423  1.00  0.00    -0.206 F 
ATOM     77  C   UNL A   1      37.672  32.109  32.535  1.00  0.00    -0.015 A 
BRANCH  77  78
ATOM     78  C   UNL A   1      38.826  31.347  33.040  1.00  0.00    -0.018 A 
ATOM     79  C   UNL A   1      38.910  29.958  32.850  1.00  0.00     0.010 A 
ATOM     80  C   UNL A   1      39.868  31.981  33.739  1.00  0.00     0.010 A 
ATOM     81  C   UNL A   1      40.006  29.230  33.326  1.00  0.00     0.021 A 
ATOM     82  C   UNL A   1      40.963  31.255  34.221  1.00  0.00     0.021 A 
ATOM     83  C   UNL A   1      41.030  29.882  34.005  1.00  0.00     0.041 A 
ATOM     84  Cl  UNL A   1      42.389  28.990  34.569  1.00  0.00    -0.084 Cl
ENDBRANCH  77  78
ENDBRANCH  69  71
ENDBRANCH  68  69
ENDBRANCH  67  68
ENDBRANCH   1  67
TORSDOF 15
ENDMDL
MODEL 3
REMARK VINA RESULT:      -9.1      3.969      5.686
REMARK SMILES O=C(OCCOC(=O)c1ccc(-c2ccc(Cl)cc2)cc1F)c1ccc(-c2c3nc(c(-c4ccc(S(=O)(=O)[O-])cc4)c4ccc([nH]4)c(-c4ccc(S(=O)(=O)[O-])cc4)c4nc(c(-c5ccc(S(=O)(=O)[O-])cc5)c5ccc2[nH]5)C=C4)C=C3)cc1
REMARK SMILES IDX 4 1 3 2 2 3 1 4 23 5 24 6 82 7 25 8 81 9 26 10 27 11 28 12
REMARK SMILES IDX 75 13 29 14 80 15 74 16 76 17 30 18 79 19 73 20 72 21 31 23
REMARK SMILES IDX 61 24 42 25 60 26 43 27 46 28 59 29 77 30 44 31 45 32 58 34
REMARK SMILES IDX 78 35 47 36 32 37 33 38 41 39 34 40 40 41 35 42 36 43 37 44
REMARK SMILES IDX 38 45 39 46 62 47 63 48 71 49 64 50 70 51 65 52 66 53 67 54
REMARK SMILES IDX 68 55 69 56 48 57 49 58 57 59 50 60 56 61 51 62 52 63 53 64
REMARK SMILES IDX 54 65 55 66 5 67 6 68 7 69 8 70 9 71 10 72 21 73 11 74 20 75
REMARK SMILES IDX 22 76 12 77 13 78 14 79 19 80 15 81 18 82 16 83 17 84
REMARK H PARENT 76 22 46 33
REMARK Flexibility Score: inf
ROOT
ATOM      1  C   UNL A   1      42.998  23.251  26.640  1.00  0.00     0.275 C 
ENDROOT
BRANCH   1   2
ATOM      2  O   UNL A   1      42.256  24.183  25.833  1.00  0.00    -0.458 OA
BRANCH   2   3
ATOM      3  C   UNL A   1      42.201  25.533  25.886  1.00  0.00     0.338 C 
ATOM      4  O   UNL A   1      42.569  26.175  24.901  1.00  0.00    -0.246 OA
BRANCH   3   5
ATOM      5  C   UNL A   1      41.847  26.307  27.118  1.00  0.00     0.060 A 
ATOM      6  C   UNL A   1      40.783  26.042  27.982  1.00  0.00     0.016 A 
ATOM      7  C   UNL A   1      42.664  27.417  27.406  1.00  0.00     0.016 A 
ATOM      8  C   UNL A   1      40.585  26.801  29.140  1.00  0.00     0.010 A 
ATOM      9  C   UNL A   1      42.470  28.180  28.561  1.00  0.00     0.010 A 
ATOM     10  C   UNL A   1      41.428  27.872  29.438  1.00  0.00    -0.014 A 
BRANCH  10  11
ATOM     11  C   UNL A   1      41.125  28.749  30.590  1.00  0.00     0.031 A 
ATOM     12  C   UNL A   1      41.904  28.561  31.856  1.00  0.00     0.074 A 
ATOM     13  C   UNL A   1      40.196  29.718  30.493  1.00  0.00     0.049 A 
ATOM     14  N   UNL A   1      41.842  29.243  32.968  1.00  0.00    -0.248 NA
ATOM     15  C   UNL A   1      42.907  27.482  31.862  1.00  0.00     0.031 C 
ATOM     16  C   UNL A   1      39.442  30.046  29.286  1.00  0.00     0.029 A 
ATOM     17  N   UNL A   1      39.719  30.601  31.429  1.00  0.00    -0.354 N 
ATOM     18  C   UNL A   1      42.825  28.708  33.787  1.00  0.00     0.074 A 
ATOM     19  C   UNL A   1      43.419  27.597  33.078  1.00  0.00     0.031 C 
ATOM     20  C   UNL A   1      38.542  31.003  29.570  1.00  0.00     0.029 A 
ATOM     21  C   UNL A   1      38.676  31.374  30.974  1.00  0.00     0.049 A 
ATOM     22  H   UNL A   1      40.089  30.674  32.338  1.00  0.00     0.167 HD
ATOM     23  C   UNL A   1      43.222  29.129  35.010  1.00  0.00     0.031 A 
ATOM     24  C   UNL A   1      37.916  32.280  31.619  1.00  0.00     0.031 A 
ATOM     25  C   UNL A   1      42.598  30.210  35.720  1.00  0.00     0.049 A 
ATOM     26  C   UNL A   1      38.278  32.635  33.035  1.00  0.00     0.074 A 
ATOM     27  C   UNL A   1      42.915  30.722  36.963  1.00  0.00     0.029 A 
ATOM     28  N   UNL A   1      41.511  30.933  35.250  1.00  0.00    -0.354 N 
ATOM     29  N   UNL A   1      39.252  32.160  33.775  1.00  0.00    -0.248 NA
ATOM     30  C   UNL A   1      37.474  33.677  33.687  1.00  0.00     0.031 C 
ATOM     31  C   UNL A   1      41.984  31.721  37.269  1.00  0.00     0.029 A 
ATOM     32  C   UNL A   1      41.122  31.868  36.193  1.00  0.00     0.049 A 
ATOM     33  H   UNL A   1      41.079  30.800  34.376  1.00  0.00     0.167 HD
ATOM     34  C   UNL A   1      39.212  32.881  34.962  1.00  0.00     0.074 A 
ATOM     35  C   UNL A   1      38.111  33.818  34.842  1.00  0.00     0.031 C 
ATOM     36  C   UNL A   1      40.023  32.790  36.045  1.00  0.00     0.031 A 
BRANCH  23  37
ATOM     37  C   UNL A   1      44.371  28.394  35.639  1.00  0.00    -0.014 A 
ATOM     38  C   UNL A   1      45.699  28.811  35.423  1.00  0.00     0.010 A 
ATOM     39  C   UNL A   1      44.129  27.261  36.434  1.00  0.00     0.010 A 
ATOM     40  C   UNL A   1      46.765  28.078  35.948  1.00  0.00     0.020 A 
ATOM     41  C   UNL A   1      45.193  26.538  36.981  1.00  0.00     0.020 A 
ATOM     42  C   UNL A   1      46.504  26.939  36.716  1.00  0.00     0.054 A 
BRANCH  42  43
ATOM     43  S   UNL A   1      47.907  25.996  37.375  1.00  0.00     0.124 S 
ATOM     44  O   UNL A   1      49.017  26.516  36.582  1.00  0.00    -0.237 OA
ATOM     45  O   UNL A   1      47.913  26.373  38.787  1.00  0.00    -0.237 OA
ATOM     46  O   UNL A   1      47.547  24.606  37.107  1.00  0.00    -0.744 OA
ENDBRANCH  42  43
ENDBRANCH  23  37
BRANCH  24  47
ATOM     47  C   UNL A   1      36.761  32.915  30.928  1.00  0.00    -0.014 A 
ATOM     48  C   UNL A   1      35.439  32.643  31.320  1.00  0.00     0.010 A 
ATOM     49  C   UNL A   1      36.987  33.813  29.867  1.00  0.00     0.010 A 
ATOM     50  C   UNL A   1      34.364  33.242  30.653  1.00  0.00     0.020 A 
ATOM     51  C   UNL A   1      35.915  34.429  29.212  1.00  0.00     0.020 A 
ATOM     52  C   UNL A   1      34.609  34.131  29.603  1.00  0.00     0.054 A 
BRANCH  52  53
ATOM     53  S   UNL A   1      33.199  34.926  28.780  1.00  0.00     0.124 S 
ATOM     54  O   UNL A   1      32.368  35.323  29.913  1.00  0.00    -0.237 OA
ATOM     55  O   UNL A   1      33.837  36.018  28.049  1.00  0.00    -0.237 OA
ATOM     56  O   UNL A   1      32.648  33.863  27.943  1.00  0.00    -0.744 OA
ENDBRANCH  52  53
ENDBRANCH  24  47
BRANCH  36  57
ATOM     57  C   UNL A   1      39.780  33.757  37.169  1.00  0.00    -0.014 A 
ATOM     58  C   UNL A   1      38.921  33.436  38.234  1.00  0.00     0.010 A 
ATOM     59  C   UNL A   1      40.481  34.977  37.190  1.00  0.00     0.010 A 
ATOM     60  C   UNL A   1      38.749  34.332  39.291  1.00  0.00     0.020 A 
ATOM     61  C   UNL A   1      40.333  35.862  38.259  1.00  0.00     0.020 A 
ATOM     62  C   UNL A   1      39.458  35.538  39.297  1.00  0.00     0.054 A 
BRANCH  62  63
ATOM     63  S   UNL A   1      39.265  36.657  40.711  1.00  0.00     0.124 S 
ATOM     64  O   UNL A   1      40.654  36.935  41.069  1.00  0.00    -0.237 OA
ATOM     65  O   UNL A   1      38.529  37.780  40.133  1.00  0.00    -0.237 OA
ATOM     66  O   UNL A   1      38.516  35.863  41.682  1.00  0.00    -0.744 OA
ENDBRANCH  62  63
ENDBRANCH  36  57
ENDBRANCH  10  11
ENDBRANCH   3   5
ENDBRANCH   2   3
ENDBRANCH   1   2
BRANCH   1  67
ATOM     67  C   UNL A   1      42.864  21.787  26.221  1.00  0.00     0.275 C 
BRANCH  67  68
ATOM     68  O   UNL A   1      41.569  21.456  25.706  1.00  0.00    -0.458 OA
BRANCH  68  69
ATOM     69  C   UNL A   1      40.605  21.253  26.641  1.00  0.00     0.341 C 
ATOM     70  O   UNL A   1      40.761  20.808  27.766  1.00  0.00    -0.246 OA
BRANCH  69  71
ATOM     71  C   UNL A   1      39.326  21.799  26.166  1.00  0.00     0.095 A 
ATOM     72  C   UNL A   1      38.987  23.112  26.499  1.00  0.00     0.019 A 
ATOM     73  C   UNL A   1      38.458  21.038  25.396  1.00  0.00     0.138 A 
ATOM     74  C   UNL A   1      37.814  23.679  25.988  1.00  0.00     0.010 A 
ATOM     75  C   UNL A   1      37.267  21.591  24.922  1.00  0.00     0.049 A 
ATOM     76  F   UNL A   1      38.749  19.767  25.086  1.00  0.00    -0.206 F 
ATOM     77  C   UNL A   1      36.941  22.932  25.177  1.00  0.00    -0.015 A 
BRANCH  77  78
ATOM     78  C   UNL A   1      35.726  23.536  24.605  1.00  0.00    -0.018 A 
ATOM     79  C   UNL A   1      35.118  24.646  25.215  1.00  0.00     0.010 A 
ATOM     80  C   UNL A   1      35.131  23.015  23.443  1.00  0.00     0.010 A 
ATOM     81  C   UNL A   1      33.966  25.225  24.674  1.00  0.00     0.021 A 
ATOM     82  C   UNL A   1      33.974  23.588  22.902  1.00  0.00     0.021 A 
ATOM     83  C   UNL A   1      33.401  24.697  23.517  1.00  0.00     0.041 A 
ATOM     84  Cl  UNL A   1      31.998  25.424  22.839  1.00  0.00    -0.084 Cl
ENDBRANCH  77  78
ENDBRANCH  69  71
ENDBRANCH  68  69
ENDBRANCH  67  68
ENDBRANCH   1  67
TORSDOF 15
ENDMDL
