MODEL 1
REMARK VINA RESULT:     -10.0      0.000      0.000
REMARK SMILES CSCc1ccc(C(=O)N[C@@H](Cc2cnc[nH]2)C(=O)OCCOC(=O)c2ccc(-c3c4nc(c(-c5ccc(S(=O)(=O)[O-])cc5)c5ccc([nH]5)c(-c5ccc(S(=O)(=O)[O-])cc5)c5nc(c(-c6ccc(S(=O)(=O)[O-])cc6)c6ccc3[nH]6)C=C5)C=C4)cc2)o1
REMARK SMILES IDX 21 1 20 2 18 3 19 4 11 5 10 6 8 7 9 8 7 10 4 11 5 12 86 13
REMARK SMILES IDX 6 14 3 15 2 16 1 17 12 18 13 19 14 20 17 21 15 22 16 23
REMARK SMILES IDX 22 25 23 26 24 27 25 28 26 29 27 30 85 31 28 32 84 33 29 34
REMARK SMILES IDX 30 35 31 36 78 37 32 38 83 39 77 40 79 41 33 42 82 43 76 44
REMARK SMILES IDX 75 45 34 47 64 48 45 49 63 50 46 51 49 52 62 53 80 54 47 55
REMARK SMILES IDX 48 56 61 58 81 59 50 60 35 61 36 62 44 63 37 64 43 65 38 66
REMARK SMILES IDX 39 67 40 68 41 69 42 70 65 71 66 72 74 73 67 74 73 75 68 76
REMARK SMILES IDX 69 77 70 78 71 79 72 80 51 81 52 82 60 83 53 84 59 85 54 86
REMARK SMILES IDX 55 87 56 88 57 89 58 90
REMARK H PARENT 10 9 17 24 79 46 49 57
REMARK Flexibility Score: inf
ROOT
ATOM      1  C   UNL A   1      31.750  29.920  25.964  1.00  0.00     0.274 C 
ENDROOT
BRANCH   1   2
ATOM      2  O   UNL A   1      31.678  28.587  25.423  1.00  0.00    -0.461 OA
BRANCH   2   3
ATOM      3  C   UNL A   1      31.466  27.578  26.313  1.00  0.00     0.329 C 
ATOM      4  O   UNL A   1      31.159  27.726  27.490  1.00  0.00    -0.250 OA
BRANCH   3   5
ATOM      5  C   UNL A   1      31.740  26.197  25.692  1.00  0.00     0.198 C 
BRANCH   5   6
ATOM      6  N   UNL A   1      31.362  25.080  26.565  1.00  0.00    -0.336 N 
ATOM      7  C   UNL A   1      31.623  23.731  26.492  1.00  0.00     0.287 C 
ATOM      8  O   UNL A   1      31.223  23.060  27.446  1.00  0.00    -0.266 OA
ATOM      9  H   UNL A   1      30.822  25.343  27.345  1.00  0.00     0.164 HD
BRANCH   7  10
ATOM     10  C   UNL A   1      32.330  23.155  25.361  1.00  0.00     0.191 A 
ATOM     11  C   UNL A   1      34.188  22.660  24.248  1.00  0.00     0.114 A 
ATOM     12  C   UNL A   1      33.141  22.167  23.500  1.00  0.00     0.047 A 
ATOM     13  O   UNL A   1      33.700  23.275  25.362  1.00  0.00    -0.455 OA
ATOM     14  C   UNL A   1      31.956  22.467  24.220  1.00  0.00     0.056 A 
BRANCH  11  15
ATOM     15  C   UNL A   1      35.664  22.662  24.039  1.00  0.00     0.144 C 
BRANCH  15  16
ATOM     16  S   UNL A   1      36.552  23.598  25.321  1.00  0.00    -0.157 SA
ATOM     17  C   UNL A   1      37.873  22.409  25.672  1.00  0.00     0.085 C 
ENDBRANCH  15  16
ENDBRANCH  11  15
ENDBRANCH   7  10
ENDBRANCH   5   6
BRANCH   5  18
ATOM     18  C   UNL A   1      31.031  26.099  24.330  1.00  0.00     0.092 C 
BRANCH  18  19
ATOM     19  C   UNL A   1      31.971  25.925  23.181  1.00  0.00     0.037 A 
ATOM     20  C   UNL A   1      33.331  26.130  23.080  1.00  0.00     0.134 A 
ATOM     21  N   UNL A   1      31.583  25.530  21.924  1.00  0.00    -0.348 N 
ATOM     22  N   UNL A   1      33.765  25.902  21.801  1.00  0.00    -0.245 NA
ATOM     23  C   UNL A   1      32.693  25.549  21.129  1.00  0.00     0.196 A 
ATOM     24  H   UNL A   1      30.672  25.279  21.648  1.00  0.00     0.167 HD
ENDBRANCH  18  19
ENDBRANCH   5  18
ENDBRANCH   3   5
ENDBRANCH   2   3
ENDBRANCH   1   2
BRANCH   1  25
ATOM     25  C   UNL A   1      33.188  30.273  26.349  1.00  0.00     0.275 C 
BRANCH  25  26
ATOM     26  O   UNL A   1      33.294  30.582  27.752  1.00  0.00    -0.458 OA
BRANCH  26  27
ATOM     27  C   UNL A   1      34.154  31.590  28.028  1.00  0.00     0.338 C 
ATOM     28  O   UNL A   1      33.876  32.764  28.207  1.00  0.00    -0.246 OA
BRANCH  27  29
ATOM     29  C   UNL A   1      35.508  31.065  28.243  1.00  0.00     0.060 A 
ATOM     30  C   UNL A   1      35.619  29.780  28.771  1.00  0.00     0.016 A 
ATOM     31  C   UNL A   1      36.638  31.870  28.098  1.00  0.00     0.016 A 
ATOM     32  C   UNL A   1      36.845  29.314  29.228  1.00  0.00     0.010 A 
ATOM     33  C   UNL A   1      37.878  31.390  28.539  1.00  0.00     0.010 A 
ATOM     34  C   UNL A   1      37.981  30.127  29.152  1.00  0.00    -0.014 A 
BRANCH  34  35
ATOM     35  C   UNL A   1      39.224  29.693  29.842  1.00  0.00     0.031 A 
ATOM     36  C   UNL A   1      39.633  30.365  31.127  1.00  0.00     0.074 A 
ATOM     37  C   UNL A   1      39.930  28.640  29.386  1.00  0.00     0.049 A 
ATOM     38  N   UNL A   1      40.683  30.140  31.875  1.00  0.00    -0.248 NA
ATOM     39  C   UNL A   1      38.740  31.413  31.647  1.00  0.00     0.031 C 
ATOM     40  C   UNL A   1      39.610  27.856  28.192  1.00  0.00     0.029 A 
ATOM     41  N   UNL A   1      41.058  28.040  29.888  1.00  0.00    -0.354 N 
ATOM     42  C   UNL A   1      40.585  31.026  32.943  1.00  0.00     0.074 A 
ATOM     43  C   UNL A   1      39.383  31.804  32.738  1.00  0.00     0.031 C 
ATOM     44  C   UNL A   1      40.515  26.872  28.060  1.00  0.00     0.029 A 
ATOM     45  C   UNL A   1      41.501  26.981  29.131  1.00  0.00     0.049 A 
ATOM     46  H   UNL A   1      41.507  28.339  30.710  1.00  0.00     0.167 HD
ATOM     47  C   UNL A   1      41.412  31.177  34.005  1.00  0.00     0.031 A 
ATOM     48  C   UNL A   1      42.590  26.200  29.269  1.00  0.00     0.031 A 
ATOM     49  C   UNL A   1      42.617  30.421  34.214  1.00  0.00     0.049 A 
ATOM     50  C   UNL A   1      43.531  26.434  30.419  1.00  0.00     0.074 A 
ATOM     51  C   UNL A   1      43.550  30.551  35.229  1.00  0.00     0.029 A 
ATOM     52  N   UNL A   1      43.050  29.387  33.403  1.00  0.00    -0.354 N 
ATOM     53  N   UNL A   1      43.446  27.317  31.385  1.00  0.00    -0.248 NA
ATOM     54  C   UNL A   1      44.714  25.564  30.495  1.00  0.00     0.031 C 
ATOM     55  C   UNL A   1      44.559  29.604  35.019  1.00  0.00     0.029 A 
ATOM     56  C   UNL A   1      44.233  28.864  33.894  1.00  0.00     0.049 A 
ATOM     57  H   UNL A   1      42.584  29.069  32.595  1.00  0.00     0.167 HD
ATOM     58  C   UNL A   1      44.560  27.097  32.192  1.00  0.00     0.074 A 
ATOM     59  C   UNL A   1      45.288  25.989  31.612  1.00  0.00     0.031 C 
ATOM     60  C   UNL A   1      44.945  27.759  33.311  1.00  0.00     0.031 A 
BRANCH  47  61
ATOM     61  C   UNL A   1      41.047  32.226  35.015  1.00  0.00    -0.014 A 
ATOM     62  C   UNL A   1      40.180  31.928  36.081  1.00  0.00     0.010 A 
ATOM     63  C   UNL A   1      41.600  33.515  34.916  1.00  0.00     0.010 A 
ATOM     64  C   UNL A   1      39.852  32.910  37.019  1.00  0.00     0.020 A 
ATOM     65  C   UNL A   1      41.288  34.495  35.862  1.00  0.00     0.020 A 
ATOM     66  C   UNL A   1      40.405  34.190  36.899  1.00  0.00     0.054 A 
BRANCH  66  67
ATOM     67  S   UNL A   1      39.985  35.444  38.142  1.00  0.00     0.124 S 
ATOM     68  O   UNL A   1      38.815  34.849  38.783  1.00  0.00    -0.237 OA
ATOM     69  O   UNL A   1      41.191  35.502  38.963  1.00  0.00    -0.237 OA
ATOM     70  O   UNL A   1      39.718  36.640  37.348  1.00  0.00    -0.744 OA
ENDBRANCH  66  67
ENDBRANCH  47  61
BRANCH  48  71
ATOM     71  C   UNL A   1      42.882  25.146  28.262  1.00  0.00    -0.014 A 
ATOM     72  C   UNL A   1      42.449  23.822  28.458  1.00  0.00     0.010 A 
ATOM     73  C   UNL A   1      43.621  25.464  27.108  1.00  0.00     0.010 A 
ATOM     74  C   UNL A   1      42.773  22.830  27.528  1.00  0.00     0.020 A 
ATOM     75  C   UNL A   1      43.923  24.480  26.165  1.00  0.00     0.020 A 
ATOM     76  C   UNL A   1      43.512  23.165  26.390  1.00  0.00     0.054 A 
BRANCH  76  77
ATOM     77  S   UNL A   1      43.894  21.879  25.168  1.00  0.00     0.124 S 
ATOM     78  O   UNL A   1      42.855  20.891  25.436  1.00  0.00    -0.237 OA
ATOM     79  O   UNL A   1      43.779  22.594  23.899  1.00  0.00    -0.237 OA
ATOM     80  O   UNL A   1      45.253  21.475  25.523  1.00  0.00    -0.744 OA
ENDBRANCH  76  77
ENDBRANCH  48  71
BRANCH  60  81
ATOM     81  C   UNL A   1      46.190  27.274  33.998  1.00  0.00    -0.014 A 
ATOM     82  C   UNL A   1      46.131  26.274  34.985  1.00  0.00     0.010 A 
ATOM     83  C   UNL A   1      47.438  27.810  33.634  1.00  0.00     0.010 A 
ATOM     84  C   UNL A   1      47.297  25.850  35.628  1.00  0.00     0.020 A 
ATOM     85  C   UNL A   1      48.607  27.373  34.261  1.00  0.00     0.020 A 
ATOM     86  C   UNL A   1      48.527  26.409  35.269  1.00  0.00     0.054 A 
BRANCH  86  87
ATOM     87  S   UNL A   1      50.034  25.836  36.101  1.00  0.00     0.124 S 
ATOM     88  O   UNL A   1      50.519  27.064  36.725  1.00  0.00    -0.237 OA
ATOM     89  O   UNL A   1      49.532  24.819  37.021  1.00  0.00    -0.237 OA
ATOM     90  O   UNL A   1      50.855  25.325  35.006  1.00  0.00    -0.744 OA
ENDBRANCH  86  87
ENDBRANCH  60  81
ENDBRANCH  34  35
ENDBRANCH  27  29
ENDBRANCH  26  27
ENDBRANCH  25  26
ENDBRANCH   1  25
TORSDOF 20
ENDMDL
MODEL 2
REMARK VINA RESULT:      -9.6      3.226      9.198
REMARK SMILES CSCc1ccc(C(=O)N[C@@H](Cc2cnc[nH]2)C(=O)OCCOC(=O)c2ccc(-c3c4nc(c(-c5ccc(S(=O)(=O)[O-])cc5)c5ccc([nH]5)c(-c5ccc(S(=O)(=O)[O-])cc5)c5nc(c(-c6ccc(S(=O)(=O)[O-])cc6)c6ccc3[nH]6)C=C5)C=C4)cc2)o1
REMARK SMILES IDX 21 1 20 2 18 3 19 4 11 5 10 6 8 7 9 8 7 10 4 11 5 12 86 13
REMARK SMILES IDX 6 14 3 15 2 16 1 17 12 18 13 19 14 20 17 21 15 22 16 23
REMARK SMILES IDX 22 25 23 26 24 27 25 28 26 29 27 30 85 31 28 32 84 33 29 34
REMARK SMILES IDX 30 35 31 36 78 37 32 38 83 39 77 40 79 41 33 42 82 43 76 44
REMARK SMILES IDX 75 45 34 47 64 48 45 49 63 50 46 51 49 52 62 53 80 54 47 55
REMARK SMILES IDX 48 56 61 58 81 59 50 60 35 61 36 62 44 63 37 64 43 65 38 66
REMARK SMILES IDX 39 67 40 68 41 69 42 70 65 71 66 72 74 73 67 74 73 75 68 76
REMARK SMILES IDX 69 77 70 78 71 79 72 80 51 81 52 82 60 83 53 84 59 85 54 86
REMARK SMILES IDX 55 87 56 88 57 89 58 90
REMARK H PARENT 10 9 17 24 79 46 49 57
REMARK Flexibility Score: inf
ROOT
ATOM      1  C   UNL A   1      36.737  20.627  25.467  1.00  0.00     0.274 C 
ENDROOT
BRANCH   1   2
ATOM      2  O   UNL A   1      35.541  21.184  24.890  1.00  0.00    -0.461 OA
BRANCH   2   3
ATOM      3  C   UNL A   1      34.591  21.626  25.761  1.00  0.00     0.329 C 
ATOM      4  O   UNL A   1      34.575  21.396  26.965  1.00  0.00    -0.250 OA
BRANCH   3   5
ATOM      5  C   UNL A   1      33.468  22.396  25.045  1.00  0.00     0.198 C 
BRANCH   5   6
ATOM      6  N   UNL A   1      33.706  22.569  23.607  1.00  0.00    -0.336 N 
ATOM      7  C   UNL A   1      33.671  23.685  22.801  1.00  0.00     0.287 C 
ATOM      8  O   UNL A   1      34.006  23.503  21.629  1.00  0.00    -0.266 OA
ATOM      9  H   UNL A   1      33.933  21.737  23.132  1.00  0.00     0.164 HD
BRANCH   7  10
ATOM     10  C   UNL A   1      33.268  24.981  23.318  1.00  0.00     0.191 A 
ATOM     11  C   UNL A   1      31.770  26.588  23.650  1.00  0.00     0.114 A 
ATOM     12  C   UNL A   1      32.940  27.015  24.241  1.00  0.00     0.047 A 
ATOM     13  O   UNL A   1      31.971  25.368  23.075  1.00  0.00    -0.455 OA
ATOM     14  C   UNL A   1      33.891  25.981  24.044  1.00  0.00     0.056 A 
BRANCH  11  15
ATOM     15  C   UNL A   1      30.421  27.209  23.517  1.00  0.00     0.144 C 
BRANCH  15  16
ATOM     16  S   UNL A   1      30.455  28.763  22.574  1.00  0.00    -0.157 SA
ATOM     17  C   UNL A   1      28.781  29.350  22.936  1.00  0.00     0.085 C 
ENDBRANCH  15  16
ENDBRANCH  11  15
ENDBRANCH   7  10
ENDBRANCH   5   6
BRANCH   5  18
ATOM     18  C   UNL A   1      32.122  21.694  25.301  1.00  0.00     0.092 C 
BRANCH  18  19
ATOM     19  C   UNL A   1      31.117  22.566  25.981  1.00  0.00     0.037 A 
ATOM     20  C   UNL A   1      31.135  23.913  26.279  1.00  0.00     0.134 A 
ATOM     21  N   UNL A   1      29.926  22.112  26.491  1.00  0.00    -0.348 N 
ATOM     22  N   UNL A   1      30.012  24.274  26.975  1.00  0.00    -0.245 NA
ATOM     23  C   UNL A   1      29.308  23.171  27.093  1.00  0.00     0.196 A 
ATOM     24  H   UNL A   1      29.581  21.192  26.434  1.00  0.00     0.167 HD
ENDBRANCH  18  19
ENDBRANCH   5  18
ENDBRANCH   3   5
ENDBRANCH   2   3
ENDBRANCH   1   2
BRANCH   1  25
ATOM     25  C   UNL A   1      37.977  21.376  24.975  1.00  0.00     0.275 C 
BRANCH  25  26
ATOM     26  O   UNL A   1      38.466  22.293  25.972  1.00  0.00    -0.458 OA
BRANCH  26  27
ATOM     27  C   UNL A   1      38.133  23.585  25.739  1.00  0.00     0.338 C 
ATOM     28  O   UNL A   1      37.208  23.993  25.059  1.00  0.00    -0.246 OA
BRANCH  27  29
ATOM     29  C   UNL A   1      38.963  24.483  26.553  1.00  0.00     0.060 A 
ATOM     30  C   UNL A   1      38.655  24.584  27.909  1.00  0.00     0.016 A 
ATOM     31  C   UNL A   1      39.903  25.335  25.975  1.00  0.00     0.016 A 
ATOM     32  C   UNL A   1      39.227  25.586  28.684  1.00  0.00     0.010 A 
ATOM     33  C   UNL A   1      40.496  26.331  26.764  1.00  0.00     0.010 A 
ATOM     34  C   UNL A   1      40.125  26.493  28.112  1.00  0.00    -0.014 A 
BRANCH  34  35
ATOM     35  C   UNL A   1      40.550  27.678  28.901  1.00  0.00     0.031 A 
ATOM     36  C   UNL A   1      41.940  27.725  29.482  1.00  0.00     0.074 A 
ATOM     37  C   UNL A   1      39.744  28.751  29.016  1.00  0.00     0.049 A 
ATOM     38  N   UNL A   1      42.498  28.661  30.207  1.00  0.00    -0.248 NA
ATOM     39  C   UNL A   1      42.821  26.580  29.199  1.00  0.00     0.031 C 
ATOM     40  C   UNL A   1      38.400  28.868  28.447  1.00  0.00     0.029 A 
ATOM     41  N   UNL A   1      39.949  29.957  29.639  1.00  0.00    -0.354 N 
ATOM     42  C   UNL A   1      43.786  28.213  30.478  1.00  0.00     0.074 A 
ATOM     43  C   UNL A   1      43.922  26.914  29.856  1.00  0.00     0.031 C 
ATOM     44  C   UNL A   1      37.906  30.083  28.739  1.00  0.00     0.029 A 
ATOM     45  C   UNL A   1      38.876  30.812  29.549  1.00  0.00     0.049 A 
ATOM     46  H   UNL A   1      40.784  30.187  30.105  1.00  0.00     0.167 HD
ATOM     47  C   UNL A   1      44.774  28.825  31.175  1.00  0.00     0.031 A 
ATOM     48  C   UNL A   1      38.684  32.036  30.079  1.00  0.00     0.031 A 
ATOM     49  C   UNL A   1      44.648  30.109  31.810  1.00  0.00     0.049 A 
ATOM     50  C   UNL A   1      39.771  32.666  30.908  1.00  0.00     0.074 A 
ATOM     51  C   UNL A   1      45.575  30.778  32.590  1.00  0.00     0.029 A 
ATOM     52  N   UNL A   1      43.532  30.923  31.729  1.00  0.00    -0.354 N 
ATOM     53  N   UNL A   1      40.961  32.197  31.197  1.00  0.00    -0.248 NA
ATOM     54  C   UNL A   1      39.486  33.991  31.479  1.00  0.00     0.031 C 
ATOM     55  C   UNL A   1      45.010  31.992  32.998  1.00  0.00     0.029 A 
ATOM     56  C   UNL A   1      43.746  32.091  32.440  1.00  0.00     0.049 A 
ATOM     57  H   UNL A   1      42.706  30.704  31.238  1.00  0.00     0.167 HD
ATOM     58  C   UNL A   1      41.571  33.178  31.974  1.00  0.00     0.074 A 
ATOM     59  C   UNL A   1      40.629  34.270  32.090  1.00  0.00     0.031 C 
ATOM     60  C   UNL A   1      42.802  33.171  32.544  1.00  0.00     0.031 A 
BRANCH  47  61
ATOM     61  C   UNL A   1      46.078  28.093  31.304  1.00  0.00    -0.014 A 
ATOM     62  C   UNL A   1      47.186  28.452  30.516  1.00  0.00     0.010 A 
ATOM     63  C   UNL A   1      46.207  27.056  32.244  1.00  0.00     0.010 A 
ATOM     64  C   UNL A   1      48.397  27.767  30.649  1.00  0.00     0.020 A 
ATOM     65  C   UNL A   1      47.421  26.381  32.392  1.00  0.00     0.020 A 
ATOM     66  C   UNL A   1      48.504  26.732  31.584  1.00  0.00     0.054 A 
BRANCH  66  67
ATOM     67  S   UNL A   1      50.093  25.872  31.759  1.00  0.00     0.124 S 
ATOM     68  O   UNL A   1      49.959  25.266  33.081  1.00  0.00    -0.237 OA
ATOM     69  O   UNL A   1      50.082  24.939  30.635  1.00  0.00    -0.237 OA
ATOM     70  O   UNL A   1      51.078  26.945  31.663  1.00  0.00    -0.744 OA
ENDBRANCH  66  67
ENDBRANCH  47  61
BRANCH  48  71
ATOM     71  C   UNL A   1      37.388  32.737  29.884  1.00  0.00    -0.014 A 
ATOM     72  C   UNL A   1      36.334  32.574  30.800  1.00  0.00     0.010 A 
ATOM     73  C   UNL A   1      37.198  33.558  28.757  1.00  0.00     0.010 A 
ATOM     74  C   UNL A   1      35.104  33.200  30.579  1.00  0.00     0.020 A 
ATOM     75  C   UNL A   1      35.979  34.205  28.548  1.00  0.00     0.020 A 
ATOM     76  C   UNL A   1      34.934  34.008  29.452  1.00  0.00     0.054 A 
BRANCH  76  77
ATOM     77  S   UNL A   1      33.347  34.848  29.192  1.00  0.00     0.124 S 
ATOM     78  O   UNL A   1      32.697  33.972  28.223  1.00  0.00    -0.237 OA
ATOM     79  O   UNL A   1      32.762  34.857  30.531  1.00  0.00    -0.237 OA
ATOM     80  O   UNL A   1      33.743  36.161  28.687  1.00  0.00    -0.744 OA
ENDBRANCH  76  77
ENDBRANCH  48  71
BRANCH  60  81
ATOM     81  C   UNL A   1      43.208  34.398  33.310  1.00  0.00    -0.014 A 
ATOM     82  C   UNL A   1      42.970  34.503  34.692  1.00  0.00     0.010 A 
ATOM     83  C   UNL A   1      43.857  35.451  32.641  1.00  0.00     0.010 A 
ATOM     84  C   UNL A   1      43.336  35.660  35.383  1.00  0.00     0.020 A 
ATOM     85  C   UNL A   1      44.242  36.601  33.334  1.00  0.00     0.020 A 
ATOM     86  C   UNL A   1      43.962  36.706  34.698  1.00  0.00     0.054 A 
BRANCH  86  87
ATOM     87  S   UNL A   1      44.447  38.196  35.613  1.00  0.00     0.124 S 
ATOM     88  O   UNL A   1      45.904  38.095  35.602  1.00  0.00    -0.237 OA
ATOM     89  O   UNL A   1      43.886  39.274  34.804  1.00  0.00    -0.237 OA
ATOM     90  O   UNL A   1      43.818  38.015  36.919  1.00  0.00    -0.744 OA
ENDBRANCH  86  87
ENDBRANCH  60  81
ENDBRANCH  34  35
ENDBRANCH  27  29
ENDBRANCH  26  27
ENDBRANCH  25  26
ENDBRANCH   1  25
TORSDOF 20
ENDMDL
MODEL 3
REMARK VINA RESULT:      -9.6      3.122      9.428
REMARK SMILES CSCc1ccc(C(=O)N[C@@H](Cc2cnc[nH]2)C(=O)OCCOC(=O)c2ccc(-c3c4nc(c(-c5ccc(S(=O)(=O)[O-])cc5)c5ccc([nH]5)c(-c5ccc(S(=O)(=O)[O-])cc5)c5nc(c(-c6ccc(S(=O)(=O)[O-])cc6)c6ccc3[nH]6)C=C5)C=C4)cc2)o1
REMARK SMILES IDX 21 1 20 2 18 3 19 4 11 5 10 6 8 7 9 8 7 10 4 11 5 12 86 13
REMARK SMILES IDX 6 14 3 15 2 16 1 17 12 18 13 19 14 20 17 21 15 22 16 23
REMARK SMILES IDX 22 25 23 26 24 27 25 28 26 29 27 30 85 31 28 32 84 33 29 34
REMARK SMILES IDX 30 35 31 36 78 37 32 38 83 39 77 40 79 41 33 42 82 43 76 44
REMARK SMILES IDX 75 45 34 47 64 48 45 49 63 50 46 51 49 52 62 53 80 54 47 55
REMARK SMILES IDX 48 56 61 58 81 59 50 60 35 61 36 62 44 63 37 64 43 65 38 66
REMARK SMILES IDX 39 67 40 68 41 69 42 70 65 71 66 72 74 73 67 74 73 75 68 76
REMARK SMILES IDX 69 77 70 78 71 79 72 80 51 81 52 82 60 83 53 84 59 85 54 86
REMARK SMILES IDX 55 87 56 88 57 89 58 90
REMARK H PARENT 10 9 17 24 79 46 49 57
REMARK Flexibility Score: inf
ROOT
ATOM      1  C   UNL A   1      36.918  23.436  26.307  1.00  0.00     0.274 C 
ENDROOT
BRANCH   1   2
ATOM      2  O   UNL A   1      35.967  23.654  25.247  1.00  0.00    -0.461 OA
BRANCH   2   3
ATOM      3  C   UNL A   1      34.652  23.682  25.602  1.00  0.00     0.329 C 
ATOM      4  O   UNL A   1      34.095  22.853  26.313  1.00  0.00    -0.250 OA
BRANCH   3   5
ATOM      5  C   UNL A   1      33.900  24.847  24.933  1.00  0.00     0.198 C 
BRANCH   5   6
ATOM      6  N   UNL A   1      33.684  24.650  23.495  1.00  0.00    -0.336 N 
ATOM      7  C   UNL A   1      33.389  25.537  22.485  1.00  0.00     0.287 C 
ATOM      8  O   UNL A   1      33.351  25.054  21.351  1.00  0.00    -0.266 OA
ATOM      9  H   UNL A   1      33.764  23.715  23.199  1.00  0.00     0.164 HD
BRANCH   7  10
ATOM     10  C   UNL A   1      33.149  26.943  22.755  1.00  0.00     0.191 A 
ATOM     11  C   UNL A   1      31.831  28.642  23.316  1.00  0.00     0.114 A 
ATOM     12  C   UNL A   1      33.091  29.169  23.128  1.00  0.00     0.047 A 
ATOM     13  O   UNL A   1      31.860  27.301  23.072  1.00  0.00    -0.455 OA
ATOM     14  C   UNL A   1      33.936  28.082  22.787  1.00  0.00     0.056 A 
BRANCH  11  15
ATOM     15  C   UNL A   1      30.525  29.257  23.686  1.00  0.00     0.144 C 
BRANCH  15  16
ATOM     16  S   UNL A   1      29.532  29.719  22.234  1.00  0.00    -0.157 SA
ATOM     17  C   UNL A   1      28.069  30.362  23.086  1.00  0.00     0.085 C 
ENDBRANCH  15  16
ENDBRANCH  11  15
ENDBRANCH   7  10
ENDBRANCH   5   6
BRANCH   5  18
ATOM     18  C   UNL A   1      32.568  25.083  25.666  1.00  0.00     0.092 C 
BRANCH  18  19
ATOM     19  C   UNL A   1      32.467  26.435  26.294  1.00  0.00     0.037 A 
ATOM     20  C   UNL A   1      33.408  27.428  26.473  1.00  0.00     0.134 A 
ATOM     21  N   UNL A   1      31.324  26.930  26.874  1.00  0.00    -0.348 N 
ATOM     22  N   UNL A   1      32.878  28.484  27.164  1.00  0.00    -0.245 NA
ATOM     23  C   UNL A   1      31.628  28.154  27.397  1.00  0.00     0.196 A 
ATOM     24  H   UNL A   1      30.448  26.483  26.907  1.00  0.00     0.167 HD
ENDBRANCH  18  19
ENDBRANCH   5  18
ENDBRANCH   3   5
ENDBRANCH   2   3
ENDBRANCH   1   2
BRANCH   1  25
ATOM     25  C   UNL A   1      38.339  23.755  25.836  1.00  0.00     0.275 C 
BRANCH  25  26
ATOM     26  O   UNL A   1      38.788  25.024  26.347  1.00  0.00    -0.458 OA
BRANCH  26  27
ATOM     27  C   UNL A   1      40.107  25.058  26.648  1.00  0.00     0.338 C 
ATOM     28  O   UNL A   1      41.027  24.650  25.961  1.00  0.00    -0.246 OA
BRANCH  27  29
ATOM     29  C   UNL A   1      40.331  25.809  27.890  1.00  0.00     0.060 A 
ATOM     30  C   UNL A   1      39.339  25.738  28.867  1.00  0.00     0.016 A 
ATOM     31  C   UNL A   1      41.397  26.697  28.028  1.00  0.00     0.016 A 
ATOM     32  C   UNL A   1      39.361  26.605  29.952  1.00  0.00     0.010 A 
ATOM     33  C   UNL A   1      41.430  27.556  29.136  1.00  0.00     0.010 A 
ATOM     34  C   UNL A   1      40.386  27.548  30.080  1.00  0.00    -0.014 A 
BRANCH  34  35
ATOM     35  C   UNL A   1      40.269  28.600  31.122  1.00  0.00     0.031 A 
ATOM     36  C   UNL A   1      41.208  28.585  32.302  1.00  0.00     0.074 A 
ATOM     37  C   UNL A   1      39.405  29.622  30.972  1.00  0.00     0.049 A 
ATOM     38  N   UNL A   1      41.263  29.405  33.320  1.00  0.00    -0.248 NA
ATOM     39  C   UNL A   1      42.225  27.522  32.332  1.00  0.00     0.031 C 
ATOM     40  C   UNL A   1      38.484  29.797  29.847  1.00  0.00     0.029 A 
ATOM     41  N   UNL A   1      39.172  30.716  31.768  1.00  0.00    -0.354 N 
ATOM     42  C   UNL A   1      42.307  28.950  34.118  1.00  0.00     0.074 A 
ATOM     43  C   UNL A   1      42.847  27.772  33.475  1.00  0.00     0.031 C 
ATOM     44  C   UNL A   1      37.795  30.937  30.019  1.00  0.00     0.029 A 
ATOM     45  C   UNL A   1      38.191  31.549  31.284  1.00  0.00     0.049 A 
ATOM     46  H   UNL A   1      39.660  30.888  32.604  1.00  0.00     0.167 HD
ATOM     47  C   UNL A   1      42.783  29.465  35.277  1.00  0.00     0.031 A 
ATOM     48  C   UNL A   1      37.653  32.667  31.810  1.00  0.00     0.031 A 
ATOM     49  C   UNL A   1      42.247  30.626  35.934  1.00  0.00     0.049 A 
ATOM     50  C   UNL A   1      38.152  33.180  33.133  1.00  0.00     0.074 A 
ATOM     51  C   UNL A   1      42.625  31.183  37.143  1.00  0.00     0.029 A 
ATOM     52  N   UNL A   1      41.228  31.416  35.431  1.00  0.00    -0.354 N 
ATOM     53  N   UNL A   1      39.103  32.699  33.897  1.00  0.00    -0.248 NA
ATOM     54  C   UNL A   1      37.503  34.389  33.663  1.00  0.00     0.031 C 
ATOM     55  C   UNL A   1      41.819  32.302  37.382  1.00  0.00     0.029 A 
ATOM     56  C   UNL A   1      40.965  32.460  36.302  1.00  0.00     0.049 A 
ATOM     57  H   UNL A   1      40.759  31.260  34.579  1.00  0.00     0.167 HD
ATOM     58  C   UNL A   1      39.175  33.556  34.992  1.00  0.00     0.074 A 
ATOM     59  C   UNL A   1      38.187  34.593  34.780  1.00  0.00     0.031 C 
ATOM     60  C   UNL A   1      39.984  33.487  36.077  1.00  0.00     0.031 A 
BRANCH  47  61
ATOM     61  C   UNL A   1      43.936  28.752  35.922  1.00  0.00    -0.014 A 
ATOM     62  C   UNL A   1      43.715  27.693  36.819  1.00  0.00     0.010 A 
ATOM     63  C   UNL A   1      45.254  29.124  35.604  1.00  0.00     0.010 A 
ATOM     64  C   UNL A   1      44.796  27.032  37.409  1.00  0.00     0.020 A 
ATOM     65  C   UNL A   1      46.337  28.454  36.178  1.00  0.00     0.020 A 
ATOM     66  C   UNL A   1      46.101  27.422  37.088  1.00  0.00     0.054 A 
BRANCH  66  67
ATOM     67  S   UNL A   1      47.491  26.534  37.846  1.00  0.00     0.124 S 
ATOM     68  O   UNL A   1      48.614  26.984  37.026  1.00  0.00    -0.237 OA
ATOM     69  O   UNL A   1      47.479  27.027  39.220  1.00  0.00    -0.237 OA
ATOM     70  O   UNL A   1      47.130  25.128  37.688  1.00  0.00    -0.744 OA
ENDBRANCH  66  67
ENDBRANCH  47  61
BRANCH  48  71
ATOM     71  C   UNL A   1      36.541  33.360  31.107  1.00  0.00    -0.014 A 
ATOM     72  C   UNL A   1      36.692  33.806  29.782  1.00  0.00     0.010 A 
ATOM     73  C   UNL A   1      35.328  33.597  31.778  1.00  0.00     0.010 A 
ATOM     74  C   UNL A   1      35.656  34.500  29.150  1.00  0.00     0.020 A 
ATOM     75  C   UNL A   1      34.282  34.267  31.140  1.00  0.00     0.020 A 
ATOM     76  C   UNL A   1      34.460  34.729  29.835  1.00  0.00     0.054 A 
BRANCH  76  77
ATOM     77  S   UNL A   1      33.106  35.596  28.993  1.00  0.00     0.124 S 
ATOM     78  O   UNL A   1      33.824  36.627  28.250  1.00  0.00    -0.237 OA
ATOM     79  O   UNL A   1      32.497  34.541  28.187  1.00  0.00    -0.237 OA
ATOM     80  O   UNL A   1      32.280  36.077  30.099  1.00  0.00    -0.744 OA
ENDBRANCH  76  77
ENDBRANCH  48  71
BRANCH  60  81
ATOM     81  C   UNL A   1      39.858  34.584  37.096  1.00  0.00    -0.014 A 
ATOM     82  C   UNL A   1      40.570  35.789  36.956  1.00  0.00     0.010 A 
ATOM     83  C   UNL A   1      38.999  34.415  38.196  1.00  0.00     0.010 A 
ATOM     84  C   UNL A   1      40.456  36.790  37.925  1.00  0.00     0.020 A 
ATOM     85  C   UNL A   1      38.868  35.422  39.155  1.00  0.00     0.020 A 
ATOM     86  C   UNL A   1      39.613  36.596  39.023  1.00  0.00     0.054 A 
BRANCH  86  87
ATOM     87  S   UNL A   1      39.463  37.912  40.263  1.00  0.00     0.124 S 
ATOM     88  O   UNL A   1      39.203  37.149  41.482  1.00  0.00    -0.237 OA
ATOM     89  O   UNL A   1      40.765  38.570  40.201  1.00  0.00    -0.237 OA
ATOM     90  O   UNL A   1      38.343  38.714  39.778  1.00  0.00    -0.744 OA
ENDBRANCH  86  87
ENDBRANCH  60  81
ENDBRANCH  34  35
ENDBRANCH  27  29
ENDBRANCH  26  27
ENDBRANCH  25  26
ENDBRANCH   1  25
TORSDOF 20
ENDMDL
