MODEL 1
REMARK VINA RESULT:     -14.8      0.000      0.000
REMARK SMILES Cc1c(NC(=O)c2cccc(-c3cc4ccccc4oc3=O)c2)cccc1C(=O)OCCOC(=O)c1ccc(-c2c3nc(c(-c4ccc(S(=O)(=O)[O-])cc4)c4ccc([nH]4)c(-c4ccc(S(=O)(=O)[O-])cc4)c4nc(c(-c5ccc(S(=O)(=O)[O-])cc5)c5ccc2[nH]5)C=C4)C=C3)cc1
REMARK SMILES IDX 31 1 30 2 28 3 29 4 27 5 1 6 2 7 3 8 24 9 26 10 25 11 4 12
REMARK SMILES IDX 5 13 6 15 7 16 8 17 23 18 9 19 11 20 10 21 12 22 13 23 21 24
REMARK SMILES IDX 14 25 20 26 22 27 15 28 19 29 16 30 18 31 17 32 32 33 33 34
REMARK SMILES IDX 34 35 35 36 36 37 37 38 95 39 38 40 94 41 39 42 40 43 41 44
REMARK SMILES IDX 88 45 42 46 93 47 87 48 89 49 43 50 92 51 86 52 85 53 44 55
REMARK SMILES IDX 74 56 55 57 73 58 56 59 59 60 72 61 90 62 57 63 58 64 71 66
REMARK SMILES IDX 91 67 60 68 45 69 46 70 54 71 47 72 53 73 48 74 49 75 50 76
REMARK SMILES IDX 51 77 52 78 75 79 76 80 84 81 77 82 83 83 78 84 79 85 80 86
REMARK SMILES IDX 81 87 82 88 61 89 62 90 70 91 63 92 69 93 64 94 65 95 66 96
REMARK SMILES IDX 67 97 68 98
REMARK H PARENT 4 14 89 54 59 65
REMARK Flexibility Score: inf
ROOT
ATOM      1  C   UNL A   1      34.317  28.579  26.413  1.00  0.00     0.275 C 
ENDROOT
BRANCH   1   2
ATOM      2  O   UNL A   1      33.923  28.846  25.050  1.00  0.00    -0.458 OA
BRANCH   2   3
ATOM      3  C   UNL A   1      32.580  29.026  24.885  1.00  0.00     0.338 C 
ATOM      4  O   UNL A   1      32.009  30.076  25.061  1.00  0.00    -0.246 OA
BRANCH   3   5
ATOM      5  C   UNL A   1      31.873  27.743  24.542  1.00  0.00     0.065 A 
ATOM      6  C   UNL A   1      31.009  27.496  26.933  1.00  0.00     0.047 C 
ATOM      7  C   UNL A   1      31.099  27.046  25.496  1.00  0.00    -0.013 A 
ATOM      8  C   UNL A   1      30.448  25.845  25.101  1.00  0.00     0.045 A 
ATOM      9  C   UNL A   1      30.421  25.463  23.758  1.00  0.00     0.026 A 
ATOM     10  C   UNL A   1      31.952  27.238  23.238  1.00  0.00     0.016 A 
ATOM     11  C   UNL A   1      31.191  26.144  22.829  1.00  0.00     0.003 A 
BRANCH   8  12
ATOM     12  N   UNL A   1      29.856  25.037  26.089  1.00  0.00    -0.322 N 
ATOM     13  C   UNL A   1      30.300  23.920  26.763  1.00  0.00     0.255 C 
ATOM     14  H   UNL A   1      28.951  25.325  26.349  1.00  0.00     0.170 HD
ATOM     15  O   UNL A   1      29.489  23.320  27.477  1.00  0.00    -0.269 OA
BRANCH  13  16
ATOM     16  C   UNL A   1      31.721  23.453  26.786  1.00  0.00     0.040 A 
ATOM     17  C   UNL A   1      32.118  22.643  27.858  1.00  0.00     0.014 A 
ATOM     18  C   UNL A   1      32.702  23.896  25.889  1.00  0.00     0.022 A 
ATOM     19  C   UNL A   1      33.447  22.238  27.995  1.00  0.00     0.001 A 
ATOM     20  C   UNL A   1      34.043  23.473  25.996  1.00  0.00    -0.010 A 
ATOM     21  C   UNL A   1      34.401  22.640  27.060  1.00  0.00     0.009 A 
BRANCH  20  22
ATOM     22  C   UNL A   1      35.138  24.015  25.140  1.00  0.00     0.068 A 
ATOM     23  C   UNL A   1      36.370  24.184  25.663  1.00  0.00     0.028 A 
ATOM     24  C   UNL A   1      35.184  23.339  23.804  1.00  0.00     0.344 A 
ATOM     25  C   UNL A   1      37.307  23.065  25.477  1.00  0.00     0.018 A 
ATOM     26  O   UNL A   1      35.810  22.100  23.819  1.00  0.00    -0.422 OA
ATOM     27  O   UNL A   1      34.599  23.788  22.826  1.00  0.00    -0.246 OA
ATOM     28  C   UNL A   1      38.524  23.009  26.136  1.00  0.00     0.012 A 
ATOM     29  C   UNL A   1      36.913  21.984  24.681  1.00  0.00     0.138 A 
ATOM     30  C   UNL A   1      39.276  21.838  26.061  1.00  0.00     0.001 A 
ATOM     31  C   UNL A   1      37.614  20.784  24.675  1.00  0.00     0.048 A 
ATOM     32  C   UNL A   1      38.800  20.707  25.392  1.00  0.00     0.004 A 
ENDBRANCH  20  22
ENDBRANCH  13  16
ENDBRANCH   8  12
ENDBRANCH   3   5
ENDBRANCH   2   3
ENDBRANCH   1   2
BRANCH   1  33
ATOM     33  C   UNL A   1      34.665  29.869  27.188  1.00  0.00     0.275 C 
BRANCH  33  34
ATOM     34  O   UNL A   1      35.268  29.657  28.477  1.00  0.00    -0.458 OA
BRANCH  34  35
ATOM     35  C   UNL A   1      36.383  30.404  28.710  1.00  0.00     0.338 C 
ATOM     36  O   UNL A   1      36.369  31.510  29.217  1.00  0.00    -0.246 OA
BRANCH  35  37
ATOM     37  C   UNL A   1      37.548  29.480  28.627  1.00  0.00     0.060 A 
ATOM     38  C   UNL A   1      38.495  29.668  27.615  1.00  0.00     0.016 A 
ATOM     39  C   UNL A   1      37.862  28.710  29.749  1.00  0.00     0.016 A 
ATOM     40  C   UNL A   1      39.807  29.227  27.799  1.00  0.00     0.010 A 
ATOM     41  C   UNL A   1      39.170  28.359  29.979  1.00  0.00     0.010 A 
ATOM     42  C   UNL A   1      40.144  28.608  29.005  1.00  0.00    -0.014 A 
BRANCH  42  43
ATOM     43  C   UNL A   1      41.351  27.815  29.193  1.00  0.00     0.031 A 
ATOM     44  C   UNL A   1      41.513  26.419  28.736  1.00  0.00     0.074 A 
ATOM     45  C   UNL A   1      42.346  28.560  29.727  1.00  0.00     0.049 A 
ATOM     46  N   UNL A   1      42.533  25.690  29.033  1.00  0.00    -0.248 NA
ATOM     47  C   UNL A   1      40.540  25.694  27.925  1.00  0.00     0.031 C 
ATOM     48  C   UNL A   1      43.754  28.256  29.897  1.00  0.00     0.029 A 
ATOM     49  N   UNL A   1      42.172  29.744  30.469  1.00  0.00    -0.354 N 
ATOM     50  C   UNL A   1      42.485  24.533  28.278  1.00  0.00     0.074 A 
ATOM     51  C   UNL A   1      41.195  24.559  27.639  1.00  0.00     0.031 C 
ATOM     52  C   UNL A   1      44.203  28.973  30.946  1.00  0.00     0.029 A 
ATOM     53  C   UNL A   1      43.037  29.620  31.549  1.00  0.00     0.049 A 
ATOM     54  H   UNL A   1      41.569  30.495  30.267  1.00  0.00     0.167 HD
ATOM     55  C   UNL A   1      43.604  23.755  28.213  1.00  0.00     0.031 A 
ATOM     56  C   UNL A   1      42.552  29.376  32.804  1.00  0.00     0.031 A 
ATOM     57  C   UNL A   1      44.554  24.175  29.240  1.00  0.00     0.049 A 
ATOM     58  C   UNL A   1      43.109  28.068  33.317  1.00  0.00     0.074 A 
ATOM     59  C   UNL A   1      45.647  25.023  29.215  1.00  0.00     0.029 A 
ATOM     60  N   UNL A   1      44.191  24.027  30.576  1.00  0.00    -0.354 N 
ATOM     61  N   UNL A   1      43.348  27.022  32.568  1.00  0.00    -0.248 NA
ATOM     62  C   UNL A   1      43.514  27.888  34.705  1.00  0.00     0.031 C 
ATOM     63  C   UNL A   1      45.826  25.519  30.537  1.00  0.00     0.029 A 
ATOM     64  C   UNL A   1      44.878  24.931  31.360  1.00  0.00     0.049 A 
ATOM     65  H   UNL A   1      43.539  23.371  30.912  1.00  0.00     0.167 HD
ATOM     66  C   UNL A   1      44.056  26.110  33.308  1.00  0.00     0.074 A 
ATOM     67  C   UNL A   1      44.087  26.674  34.650  1.00  0.00     0.031 C 
ATOM     68  C   UNL A   1      44.642  24.989  32.794  1.00  0.00     0.031 A 
BRANCH  55  69
ATOM     69  C   UNL A   1      43.956  22.800  27.088  1.00  0.00    -0.014 A 
ATOM     70  C   UNL A   1      43.005  21.826  26.701  1.00  0.00     0.010 A 
ATOM     71  C   UNL A   1      45.208  22.720  26.450  1.00  0.00     0.010 A 
ATOM     72  C   UNL A   1      43.309  20.790  25.800  1.00  0.00     0.020 A 
ATOM     73  C   UNL A   1      45.527  21.687  25.546  1.00  0.00     0.020 A 
ATOM     74  C   UNL A   1      44.580  20.713  25.244  1.00  0.00     0.054 A 
BRANCH  74  75
ATOM     75  S   UNL A   1      44.983  19.320  24.151  1.00  0.00     0.124 S 
ATOM     76  O   UNL A   1      44.289  18.206  24.792  1.00  0.00    -0.237 OA
ATOM     77  O   UNL A   1      44.431  19.750  22.869  1.00  0.00    -0.237 OA
ATOM     78  O   UNL A   1      46.443  19.248  24.202  1.00  0.00    -0.744 OA
ENDBRANCH  74  75
ENDBRANCH  55  69
BRANCH  56  79
ATOM     79  C   UNL A   1      41.195  29.926  33.152  1.00  0.00    -0.014 A 
ATOM     80  C   UNL A   1      41.006  31.329  33.118  1.00  0.00     0.010 A 
ATOM     81  C   UNL A   1      40.053  29.120  33.304  1.00  0.00     0.010 A 
ATOM     82  C   UNL A   1      39.726  31.901  33.125  1.00  0.00     0.020 A 
ATOM     83  C   UNL A   1      38.763  29.692  33.333  1.00  0.00     0.020 A 
ATOM     84  C   UNL A   1      38.607  31.077  33.214  1.00  0.00     0.054 A 
BRANCH  84  85
ATOM     85  S   UNL A   1      36.958  31.814  32.956  1.00  0.00     0.124 S 
ATOM     86  O   UNL A   1      37.248  32.913  32.042  1.00  0.00    -0.237 OA
ATOM     87  O   UNL A   1      36.207  30.697  32.386  1.00  0.00    -0.237 OA
ATOM     88  O   UNL A   1      36.555  32.201  34.308  1.00  0.00    -0.744 OA
ENDBRANCH  84  85
ENDBRANCH  56  79
BRANCH  68  89
ATOM     89  C   UNL A   1      45.172  23.862  33.637  1.00  0.00    -0.014 A 
ATOM     90  C   UNL A   1      46.406  23.925  34.301  1.00  0.00     0.010 A 
ATOM     91  C   UNL A   1      44.337  22.756  33.915  1.00  0.00     0.010 A 
ATOM     92  C   UNL A   1      46.828  22.890  35.140  1.00  0.00     0.020 A 
ATOM     93  C   UNL A   1      44.726  21.743  34.791  1.00  0.00     0.020 A 
ATOM     94  C   UNL A   1      45.987  21.803  35.375  1.00  0.00     0.054 A 
BRANCH  94  95
ATOM     95  S   UNL A   1      46.511  20.494  36.506  1.00  0.00     0.124 S 
ATOM     96  O   UNL A   1      45.868  20.903  37.752  1.00  0.00    -0.237 OA
ATOM     97  O   UNL A   1      45.967  19.285  35.889  1.00  0.00    -0.237 OA
ATOM     98  O   UNL A   1      47.968  20.593  36.486  1.00  0.00    -0.744 OA
ENDBRANCH  94  95
ENDBRANCH  68  89
ENDBRANCH  42  43
ENDBRANCH  35  37
ENDBRANCH  34  35
ENDBRANCH  33  34
ENDBRANCH   1  33
TORSDOF 17
ENDMDL
MODEL 2
REMARK VINA RESULT:     -14.3      4.512     11.236
REMARK SMILES Cc1c(NC(=O)c2cccc(-c3cc4ccccc4oc3=O)c2)cccc1C(=O)OCCOC(=O)c1ccc(-c2c3nc(c(-c4ccc(S(=O)(=O)[O-])cc4)c4ccc([nH]4)c(-c4ccc(S(=O)(=O)[O-])cc4)c4nc(c(-c5ccc(S(=O)(=O)[O-])cc5)c5ccc2[nH]5)C=C4)C=C3)cc1
REMARK SMILES IDX 31 1 30 2 28 3 29 4 27 5 1 6 2 7 3 8 24 9 26 10 25 11 4 12
REMARK SMILES IDX 5 13 6 15 7 16 8 17 23 18 9 19 11 20 10 21 12 22 13 23 21 24
REMARK SMILES IDX 14 25 20 26 22 27 15 28 19 29 16 30 18 31 17 32 32 33 33 34
REMARK SMILES IDX 34 35 35 36 36 37 37 38 95 39 38 40 94 41 39 42 40 43 41 44
REMARK SMILES IDX 88 45 42 46 93 47 87 48 89 49 43 50 92 51 86 52 85 53 44 55
REMARK SMILES IDX 74 56 55 57 73 58 56 59 59 60 72 61 90 62 57 63 58 64 71 66
REMARK SMILES IDX 91 67 60 68 45 69 46 70 54 71 47 72 53 73 48 74 49 75 50 76
REMARK SMILES IDX 51 77 52 78 75 79 76 80 84 81 77 82 83 83 78 84 79 85 80 86
REMARK SMILES IDX 81 87 82 88 61 89 62 90 70 91 63 92 69 93 64 94 65 95 66 96
REMARK SMILES IDX 67 97 68 98
REMARK H PARENT 4 14 89 54 59 65
REMARK Flexibility Score: inf
ROOT
ATOM      1  C   UNL A   1      37.065  22.838  25.790  1.00  0.00     0.275 C 
ENDROOT
BRANCH   1   2
ATOM      2  O   UNL A   1      35.714  23.005  26.272  1.00  0.00    -0.458 OA
BRANCH   2   3
ATOM      3  C   UNL A   1      34.836  22.076  25.796  1.00  0.00     0.338 C 
ATOM      4  O   UNL A   1      35.081  20.897  25.695  1.00  0.00    -0.246 OA
BRANCH   3   5
ATOM      5  C   UNL A   1      33.548  22.699  25.329  1.00  0.00     0.065 A 
ATOM      6  C   UNL A   1      34.464  22.983  22.961  1.00  0.00     0.047 C 
ATOM      7  C   UNL A   1      33.360  23.087  23.983  1.00  0.00    -0.013 A 
ATOM      8  C   UNL A   1      32.114  23.660  23.607  1.00  0.00     0.045 A 
ATOM      9  C   UNL A   1      31.040  23.668  24.500  1.00  0.00     0.026 A 
ATOM     10  C   UNL A   1      32.495  22.872  26.235  1.00  0.00     0.016 A 
ATOM     11  C   UNL A   1      31.234  23.296  25.820  1.00  0.00     0.003 A 
BRANCH   8  12
ATOM     12  N   UNL A   1      31.992  24.242  22.332  1.00  0.00    -0.322 N 
ATOM     13  C   UNL A   1      32.140  25.537  21.884  1.00  0.00     0.255 C 
ATOM     14  H   UNL A   1      31.756  23.601  21.623  1.00  0.00     0.170 HD
ATOM     15  O   UNL A   1      31.814  25.782  20.718  1.00  0.00    -0.269 OA
BRANCH  13  16
ATOM     16  C   UNL A   1      32.777  26.638  22.672  1.00  0.00     0.040 A 
ATOM     17  C   UNL A   1      33.653  27.495  21.992  1.00  0.00     0.014 A 
ATOM     18  C   UNL A   1      32.664  26.769  24.062  1.00  0.00     0.022 A 
ATOM     19  C   UNL A   1      34.351  28.492  22.675  1.00  0.00     0.001 A 
ATOM     20  C   UNL A   1      33.340  27.788  24.762  1.00  0.00    -0.010 A 
ATOM     21  C   UNL A   1      34.184  28.647  24.051  1.00  0.00     0.009 A 
BRANCH  20  22
ATOM     22  C   UNL A   1      33.346  27.887  26.251  1.00  0.00     0.068 A 
ATOM     23  C   UNL A   1      34.158  28.777  26.857  1.00  0.00     0.028 A 
ATOM     24  C   UNL A   1      31.956  27.925  26.811  1.00  0.00     0.344 A 
ATOM     25  C   UNL A   1      33.563  30.088  27.161  1.00  0.00     0.018 A 
ATOM     26  O   UNL A   1      31.350  29.172  26.731  1.00  0.00    -0.422 OA
ATOM     27  O   UNL A   1      31.372  26.912  27.175  1.00  0.00    -0.246 OA
ATOM     28  C   UNL A   1      34.329  31.163  27.583  1.00  0.00     0.012 A 
ATOM     29  C   UNL A   1      32.196  30.276  26.928  1.00  0.00     0.138 A 
ATOM     30  C   UNL A   1      33.732  32.419  27.672  1.00  0.00     0.001 A 
ATOM     31  C   UNL A   1      31.619  31.540  26.929  1.00  0.00     0.048 A 
ATOM     32  C   UNL A   1      32.405  32.626  27.286  1.00  0.00     0.004 A 
ENDBRANCH  20  22
ENDBRANCH  13  16
ENDBRANCH   8  12
ENDBRANCH   3   5
ENDBRANCH   2   3
ENDBRANCH   1   2
BRANCH   1  33
ATOM     33  C   UNL A   1      37.955  24.062  26.096  1.00  0.00     0.275 C 
BRANCH  33  34
ATOM     34  O   UNL A   1      38.890  23.877  27.175  1.00  0.00    -0.458 OA
BRANCH  34  35
ATOM     35  C   UNL A   1      40.039  24.598  27.057  1.00  0.00     0.338 C 
ATOM     36  O   UNL A   1      40.948  24.316  26.298  1.00  0.00    -0.246 OA
BRANCH  35  37
ATOM     37  C   UNL A   1      39.780  25.929  27.673  1.00  0.00     0.060 A 
ATOM     38  C   UNL A   1      39.447  25.999  29.029  1.00  0.00     0.016 A 
ATOM     39  C   UNL A   1      40.233  27.068  27.001  1.00  0.00     0.016 A 
ATOM     40  C   UNL A   1      39.722  27.159  29.755  1.00  0.00     0.010 A 
ATOM     41  C   UNL A   1      40.595  28.177  27.727  1.00  0.00     0.010 A 
ATOM     42  C   UNL A   1      40.335  28.231  29.101  1.00  0.00    -0.014 A 
BRANCH  42  43
ATOM     43  C   UNL A   1      40.366  29.586  29.632  1.00  0.00     0.031 A 
ATOM     44  C   UNL A   1      39.246  30.546  29.540  1.00  0.00     0.074 A 
ATOM     45  C   UNL A   1      41.503  29.811  30.330  1.00  0.00     0.049 A 
ATOM     46  N   UNL A   1      39.341  31.782  29.891  1.00  0.00    -0.248 NA
ATOM     47  C   UNL A   1      37.919  30.225  29.022  1.00  0.00     0.031 C 
ATOM     48  C   UNL A   1      41.870  30.921  31.188  1.00  0.00     0.029 A 
ATOM     49  N   UNL A   1      42.708  29.097  30.179  1.00  0.00    -0.354 N 
ATOM     50  C   UNL A   1      38.077  32.341  29.891  1.00  0.00     0.074 A 
ATOM     51  C   UNL A   1      37.228  31.343  29.292  1.00  0.00     0.031 C 
ATOM     52  C   UNL A   1      43.214  31.022  31.173  1.00  0.00     0.029 A 
ATOM     53  C   UNL A   1      43.701  30.068  30.175  1.00  0.00     0.049 A 
ATOM     54  H   UNL A   1      42.820  28.123  30.095  1.00  0.00     0.167 HD
ATOM     55  C   UNL A   1      37.901  33.546  30.504  1.00  0.00     0.031 A 
ATOM     56  C   UNL A   1      44.353  30.391  29.017  1.00  0.00     0.031 A 
ATOM     57  C   UNL A   1      39.202  34.152  30.777  1.00  0.00     0.049 A 
ATOM     58  C   UNL A   1      44.128  31.853  28.701  1.00  0.00     0.074 A 
ATOM     59  C   UNL A   1      40.011  34.167  31.901  1.00  0.00     0.029 A 
ATOM     60  N   UNL A   1      40.007  34.505  29.698  1.00  0.00    -0.354 N 
ATOM     61  N   UNL A   1      43.021  32.501  28.951  1.00  0.00    -0.248 NA
ATOM     62  C   UNL A   1      45.182  32.699  28.158  1.00  0.00     0.031 C 
ATOM     63  C   UNL A   1      41.348  34.363  31.454  1.00  0.00     0.029 A 
ATOM     64  C   UNL A   1      41.334  34.517  30.076  1.00  0.00     0.049 A 
ATOM     65  H   UNL A   1      39.676  34.716  28.796  1.00  0.00     0.167 HD
ATOM     66  C   UNL A   1      43.246  33.839  28.755  1.00  0.00     0.074 A 
ATOM     67  C   UNL A   1      44.593  33.906  28.209  1.00  0.00     0.031 C 
ATOM     68  C   UNL A   1      42.372  34.828  29.106  1.00  0.00     0.031 A 
BRANCH  55  69
ATOM     69  C   UNL A   1      36.598  34.067  31.082  1.00  0.00    -0.014 A 
ATOM     70  C   UNL A   1      35.451  34.092  30.255  1.00  0.00     0.010 A 
ATOM     71  C   UNL A   1      36.445  34.638  32.360  1.00  0.00     0.010 A 
ATOM     72  C   UNL A   1      34.254  34.721  30.643  1.00  0.00     0.020 A 
ATOM     73  C   UNL A   1      35.252  35.272  32.762  1.00  0.00     0.020 A 
ATOM     74  C   UNL A   1      34.169  35.329  31.890  1.00  0.00     0.054 A 
BRANCH  74  75
ATOM     75  S   UNL A   1      32.648  36.211  32.341  1.00  0.00     0.124 S 
ATOM     76  O   UNL A   1      33.056  36.953  33.532  1.00  0.00    -0.237 OA
ATOM     77  O   UNL A   1      32.385  37.022  31.155  1.00  0.00    -0.237 OA
ATOM     78  O   UNL A   1      31.683  35.139  32.583  1.00  0.00    -0.744 OA
ENDBRANCH  74  75
ENDBRANCH  55  69
BRANCH  56  79
ATOM     79  C   UNL A   1      44.534  29.309  27.988  1.00  0.00    -0.014 A 
ATOM     80  C   UNL A   1      45.362  28.206  28.305  1.00  0.00     0.010 A 
ATOM     81  C   UNL A   1      43.764  29.226  26.813  1.00  0.00     0.010 A 
ATOM     82  C   UNL A   1      45.346  27.028  27.547  1.00  0.00     0.020 A 
ATOM     83  C   UNL A   1      43.759  28.050  26.034  1.00  0.00     0.020 A 
ATOM     84  C   UNL A   1      44.528  26.947  26.422  1.00  0.00     0.054 A 
BRANCH  84  85
ATOM     85  S   UNL A   1      44.319  25.329  25.608  1.00  0.00     0.124 S 
ATOM     86  O   UNL A   1      43.114  25.534  24.813  1.00  0.00    -0.237 OA
ATOM     87  O   UNL A   1      45.563  25.201  24.853  1.00  0.00    -0.237 OA
ATOM     88  O   UNL A   1      44.186  24.407  26.736  1.00  0.00    -0.744 OA
ENDBRANCH  84  85
ENDBRANCH  56  79
BRANCH  68  89
ATOM     89  C   UNL A   1      42.495  36.254  28.645  1.00  0.00    -0.014 A 
ATOM     90  C   UNL A   1      43.271  37.208  29.321  1.00  0.00     0.010 A 
ATOM     91  C   UNL A   1      41.947  36.626  27.395  1.00  0.00     0.010 A 
ATOM     92  C   UNL A   1      43.425  38.502  28.816  1.00  0.00     0.020 A 
ATOM     93  C   UNL A   1      42.138  37.898  26.859  1.00  0.00     0.020 A 
ATOM     94  C   UNL A   1      42.852  38.841  27.591  1.00  0.00     0.054 A 
BRANCH  94  95
ATOM     95  S   UNL A   1      43.102  40.497  26.913  1.00  0.00     0.124 S 
ATOM     96  O   UNL A   1      41.740  40.875  26.545  1.00  0.00    -0.237 OA
ATOM     97  O   UNL A   1      43.672  41.234  28.040  1.00  0.00    -0.237 OA
ATOM     98  O   UNL A   1      44.017  40.272  25.797  1.00  0.00    -0.744 OA
ENDBRANCH  94  95
ENDBRANCH  68  89
ENDBRANCH  42  43
ENDBRANCH  35  37
ENDBRANCH  34  35
ENDBRANCH  33  34
ENDBRANCH   1  33
TORSDOF 17
ENDMDL
MODEL 3
REMARK VINA RESULT:     -14.3      1.816      2.313
REMARK SMILES Cc1c(NC(=O)c2cccc(-c3cc4ccccc4oc3=O)c2)cccc1C(=O)OCCOC(=O)c1ccc(-c2c3nc(c(-c4ccc(S(=O)(=O)[O-])cc4)c4ccc([nH]4)c(-c4ccc(S(=O)(=O)[O-])cc4)c4nc(c(-c5ccc(S(=O)(=O)[O-])cc5)c5ccc2[nH]5)C=C4)C=C3)cc1
REMARK SMILES IDX 31 1 30 2 28 3 29 4 27 5 1 6 2 7 3 8 24 9 26 10 25 11 4 12
REMARK SMILES IDX 5 13 6 15 7 16 8 17 23 18 9 19 11 20 10 21 12 22 13 23 21 24
REMARK SMILES IDX 14 25 20 26 22 27 15 28 19 29 16 30 18 31 17 32 32 33 33 34
REMARK SMILES IDX 34 35 35 36 36 37 37 38 95 39 38 40 94 41 39 42 40 43 41 44
REMARK SMILES IDX 88 45 42 46 93 47 87 48 89 49 43 50 92 51 86 52 85 53 44 55
REMARK SMILES IDX 74 56 55 57 73 58 56 59 59 60 72 61 90 62 57 63 58 64 71 66
REMARK SMILES IDX 91 67 60 68 45 69 46 70 54 71 47 72 53 73 48 74 49 75 50 76
REMARK SMILES IDX 51 77 52 78 75 79 76 80 84 81 77 82 83 83 78 84 79 85 80 86
REMARK SMILES IDX 81 87 82 88 61 89 62 90 70 91 63 92 69 93 64 94 65 95 66 96
REMARK SMILES IDX 67 97 68 98
REMARK H PARENT 4 14 89 54 59 65
REMARK Flexibility Score: inf
ROOT
ATOM      1  C   UNL A   1      33.714  29.758  26.346  1.00  0.00     0.275 C 
ENDROOT
BRANCH   1   2
ATOM      2  O   UNL A   1      32.704  28.914  25.753  1.00  0.00    -0.458 OA
BRANCH   2   3
ATOM      3  C   UNL A   1      33.155  28.158  24.711  1.00  0.00     0.338 C 
ATOM      4  O   UNL A   1      34.102  28.449  24.019  1.00  0.00    -0.246 OA
BRANCH   3   5
ATOM      5  C   UNL A   1      32.285  26.955  24.464  1.00  0.00     0.065 A 
ATOM      6  C   UNL A   1      31.507  26.930  26.897  1.00  0.00     0.047 C 
ATOM      7  C   UNL A   1      31.477  26.404  25.484  1.00  0.00    -0.013 A 
ATOM      8  C   UNL A   1      30.671  25.273  25.179  1.00  0.00     0.045 A 
ATOM      9  C   UNL A   1      30.538  24.834  23.859  1.00  0.00     0.026 A 
ATOM     10  C   UNL A   1      32.244  26.383  23.186  1.00  0.00     0.016 A 
ATOM     11  C   UNL A   1      31.341  25.371  22.866  1.00  0.00     0.003 A 
BRANCH   8  12
ATOM     12  N   UNL A   1      30.033  24.591  26.230  1.00  0.00    -0.322 N 
ATOM     13  C   UNL A   1      30.301  23.394  26.859  1.00  0.00     0.255 C 
ATOM     14  H   UNL A   1      29.242  25.057  26.586  1.00  0.00     0.170 HD
ATOM     15  O   UNL A   1      29.465  22.966  27.660  1.00  0.00    -0.269 OA
BRANCH  13  16
ATOM     16  C   UNL A   1      31.587  22.639  26.729  1.00  0.00     0.040 A 
ATOM     17  C   UNL A   1      32.564  22.854  27.710  1.00  0.00     0.014 A 
ATOM     18  C   UNL A   1      31.921  21.853  25.618  1.00  0.00     0.022 A 
ATOM     19  C   UNL A   1      33.820  22.252  27.612  1.00  0.00     0.001 A 
ATOM     20  C   UNL A   1      33.175  21.216  25.519  1.00  0.00    -0.010 A 
ATOM     21  C   UNL A   1      34.118  21.426  26.529  1.00  0.00     0.009 A 
BRANCH  20  22
ATOM     22  C   UNL A   1      33.617  20.475  24.301  1.00  0.00     0.068 A 
ATOM     23  C   UNL A   1      34.610  19.568  24.397  1.00  0.00     0.028 A 
ATOM     24  C   UNL A   1      32.452  19.949  23.518  1.00  0.00     0.344 A 
ATOM     25  C   UNL A   1      34.192  18.175  24.618  1.00  0.00     0.018 A 
ATOM     26  O   UNL A   1      31.908  18.779  24.032  1.00  0.00    -0.422 OA
ATOM     27  O   UNL A   1      31.952  20.577  22.593  1.00  0.00    -0.246 OA
ATOM     28  C   UNL A   1      35.097  17.179  24.946  1.00  0.00     0.012 A 
ATOM     29  C   UNL A   1      32.826  17.871  24.584  1.00  0.00     0.138 A 
ATOM     30  C   UNL A   1      34.612  15.928  25.324  1.00  0.00     0.001 A 
ATOM     31  C   UNL A   1      32.334  16.655  25.045  1.00  0.00     0.048 A 
ATOM     32  C   UNL A   1      33.241  15.681  25.439  1.00  0.00     0.004 A 
ENDBRANCH  20  22
ENDBRANCH  13  16
ENDBRANCH   8  12
ENDBRANCH   3   5
ENDBRANCH   2   3
ENDBRANCH   1   2
BRANCH   1  33
ATOM     33  C   UNL A   1      34.612  28.991  27.342  1.00  0.00     0.275 C 
BRANCH  33  34
ATOM     34  O   UNL A   1      35.005  29.743  28.505  1.00  0.00    -0.458 OA
BRANCH  34  35
ATOM     35  C   UNL A   1      36.128  30.496  28.338  1.00  0.00     0.338 C 
ATOM     36  O   UNL A   1      36.180  31.696  28.535  1.00  0.00    -0.246 OA
BRANCH  35  37
ATOM     37  C   UNL A   1      37.280  29.553  28.295  1.00  0.00     0.060 A 
ATOM     38  C   UNL A   1      38.226  29.680  27.274  1.00  0.00     0.016 A 
ATOM     39  C   UNL A   1      37.587  28.831  29.452  1.00  0.00     0.016 A 
ATOM     40  C   UNL A   1      39.533  29.230  27.476  1.00  0.00     0.010 A 
ATOM     41  C   UNL A   1      38.890  28.474  29.695  1.00  0.00     0.010 A 
ATOM     42  C   UNL A   1      39.865  28.663  28.708  1.00  0.00    -0.014 A 
BRANCH  42  43
ATOM     43  C   UNL A   1      41.061  27.862  28.930  1.00  0.00     0.031 A 
ATOM     44  C   UNL A   1      41.201  26.443  28.542  1.00  0.00     0.074 A 
ATOM     45  C   UNL A   1      42.069  28.619  29.423  1.00  0.00     0.049 A 
ATOM     46  N   UNL A   1      42.211  25.715  28.870  1.00  0.00    -0.248 NA
ATOM     47  C   UNL A   1      40.213  25.693  27.771  1.00  0.00     0.031 C 
ATOM     48  C   UNL A   1      43.473  28.302  29.602  1.00  0.00     0.029 A 
ATOM     49  N   UNL A   1      41.915  29.840  30.106  1.00  0.00    -0.354 N 
ATOM     50  C   UNL A   1      42.143  24.524  28.173  1.00  0.00     0.074 A 
ATOM     51  C   UNL A   1      40.851  24.536  27.539  1.00  0.00     0.031 C 
ATOM     52  C   UNL A   1      43.938  29.063  30.613  1.00  0.00     0.029 A 
ATOM     53  C   UNL A   1      42.784  29.757  31.188  1.00  0.00     0.049 A 
ATOM     54  H   UNL A   1      41.322  30.588  29.870  1.00  0.00     0.167 HD
ATOM     55  C   UNL A   1      43.250  23.727  28.142  1.00  0.00     0.031 A 
ATOM     56  C   UNL A   1      42.301  29.582  32.455  1.00  0.00     0.031 A 
ATOM     57  C   UNL A   1      44.211  24.183  29.144  1.00  0.00     0.049 A 
ATOM     58  C   UNL A   1      42.841  28.292  33.030  1.00  0.00     0.074 A 
ATOM     59  C   UNL A   1      45.317  25.012  29.072  1.00  0.00     0.029 A 
ATOM     60  N   UNL A   1      43.852  24.106  30.486  1.00  0.00    -0.354 N 
ATOM     61  N   UNL A   1      43.062  27.208  32.332  1.00  0.00    -0.248 NA
ATOM     62  C   UNL A   1      43.250  28.175  34.423  1.00  0.00     0.031 C 
ATOM     63  C   UNL A   1      45.508  25.571  30.367  1.00  0.00     0.029 A 
ATOM     64  C   UNL A   1      44.556  25.038  31.223  1.00  0.00     0.049 A 
ATOM     65  H   UNL A   1      43.192  23.477  30.857  1.00  0.00     0.167 HD
ATOM     66  C   UNL A   1      43.760  26.323  33.113  1.00  0.00     0.074 A 
ATOM     67  C   UNL A   1      43.805  26.951  34.425  1.00  0.00     0.031 C 
ATOM     68  C   UNL A   1      44.328  25.170  32.652  1.00  0.00     0.031 A 
BRANCH  55  69
ATOM     69  C   UNL A   1      43.583  22.712  27.064  1.00  0.00    -0.014 A 
ATOM     70  C   UNL A   1      42.699  21.628  26.856  1.00  0.00     0.010 A 
ATOM     71  C   UNL A   1      44.770  22.689  26.306  1.00  0.00     0.010 A 
ATOM     72  C   UNL A   1      43.014  20.548  26.011  1.00  0.00     0.020 A 
ATOM     73  C   UNL A   1      45.099  21.614  25.457  1.00  0.00     0.020 A 
ATOM     74  C   UNL A   1      44.227  20.536  25.332  1.00  0.00     0.054 A 
BRANCH  74  75
ATOM     75  S   UNL A   1      44.656  19.096  24.315  1.00  0.00     0.124 S 
ATOM     76  O   UNL A   1      44.460  19.599  22.958  1.00  0.00    -0.237 OA
ATOM     77  O   UNL A   1      46.042  18.836  24.696  1.00  0.00    -0.237 OA
ATOM     78  O   UNL A   1      43.698  18.074  24.737  1.00  0.00    -0.744 OA
ENDBRANCH  74  75
ENDBRANCH  55  69
BRANCH  56  79
ATOM     79  C   UNL A   1      40.954  30.168  32.780  1.00  0.00    -0.014 A 
ATOM     80  C   UNL A   1      40.741  31.547  32.540  1.00  0.00     0.010 A 
ATOM     81  C   UNL A   1      39.833  29.386  33.112  1.00  0.00     0.010 A 
ATOM     82  C   UNL A   1      39.455  32.103  32.522  1.00  0.00     0.020 A 
ATOM     83  C   UNL A   1      38.537  29.945  33.117  1.00  0.00     0.020 A 
ATOM     84  C   UNL A   1      38.354  31.294  32.793  1.00  0.00     0.054 A 
BRANCH  84  85
ATOM     85  S   UNL A   1      36.683  31.968  32.507  1.00  0.00     0.124 S 
ATOM     86  O   UNL A   1      35.986  30.830  31.919  1.00  0.00    -0.237 OA
ATOM     87  O   UNL A   1      36.265  32.339  33.856  1.00  0.00    -0.237 OA
ATOM     88  O   UNL A   1      36.932  33.094  31.607  1.00  0.00    -0.744 OA
ENDBRANCH  84  85
ENDBRANCH  56  79
BRANCH  68  89
ATOM     89  C   UNL A   1      44.845  24.078  33.548  1.00  0.00    -0.014 A 
ATOM     90  C   UNL A   1      44.073  22.964  33.913  1.00  0.00     0.010 A 
ATOM     91  C   UNL A   1      46.211  24.072  33.912  1.00  0.00     0.010 A 
ATOM     92  C   UNL A   1      44.616  21.931  34.681  1.00  0.00     0.020 A 
ATOM     93  C   UNL A   1      46.775  23.021  34.634  1.00  0.00     0.020 A 
ATOM     94  C   UNL A   1      45.962  21.969  35.042  1.00  0.00     0.054 A 
BRANCH  94  95
ATOM     95  S   UNL A   1      46.676  20.602  35.985  1.00  0.00     0.124 S 
ATOM     96  O   UNL A   1      46.881  19.598  34.944  1.00  0.00    -0.237 OA
ATOM     97  O   UNL A   1      47.896  21.185  36.542  1.00  0.00    -0.237 OA
ATOM     98  O   UNL A   1      45.639  20.291  36.966  1.00  0.00    -0.744 OA
ENDBRANCH  94  95
ENDBRANCH  68  89
ENDBRANCH  42  43
ENDBRANCH  35  37
ENDBRANCH  34  35
ENDBRANCH  33  34
ENDBRANCH   1  33
TORSDOF 17
ENDMDL
