MODEL 1
REMARK VINA RESULT:     -13.0      0.000      0.000
REMARK SMILES O=C(OCCOC(=O)c1cc2c(c(S(=O)(=O)Nc3cc(C(F)(F)F)ccc3-n3cccn3)c1)CCC2)c1ccc(-c2c3nc(c(-c4ccc(S(=O)(=O)[O-])cc4)c4ccc([nH]4)c(-c4ccc(S(=O)(=O)[O-])cc4)c4nc(c(-c5ccc(S(=O)(=O)[O-])cc5)c5ccc2[nH]5)C=C4)C=C3)cc1
REMARK SMILES IDX 5 1 4 2 3 3 2 4 1 5 37 6 38 7 96 8 39 9 95 10 40 11 41 12
REMARK SMILES IDX 42 13 89 14 43 15 94 16 88 17 90 18 44 19 93 20 87 21 86 22
REMARK SMILES IDX 45 24 75 25 56 26 74 27 57 28 60 29 73 30 91 31 58 32 59 33
REMARK SMILES IDX 72 35 92 36 61 37 46 38 47 39 55 40 48 41 54 42 49 43 50 44
REMARK SMILES IDX 51 45 52 46 53 47 76 48 77 49 85 50 78 51 84 52 79 53 80 54
REMARK SMILES IDX 81 55 82 56 83 57 62 58 63 59 71 60 64 61 70 62 65 63 66 64
REMARK SMILES IDX 67 65 68 66 69 67 6 68 7 69 8 70 9 71 10 72 33 73 11 74
REMARK SMILES IDX 13 75 12 76 36 77 34 78 35 79 14 80 15 81 16 82 17 83 18 85
REMARK SMILES IDX 19 86 27 87 20 88 26 89 25 90 28 91 29 92 32 93 30 94 31 95
REMARK SMILES IDX 21 96 22 97 23 98 24 99
REMARK H PARENT 90 23 60 34 17 84
REMARK Flexibility Score: inf
ROOT
ATOM      1  C   UNL A   1      32.075  29.937  25.431  1.00  0.00     0.275 C 
ENDROOT
BRANCH   1   2
ATOM      2  C   UNL A   1      32.137  30.549  26.832  1.00  0.00     0.275 C 
BRANCH   2   3
ATOM      3  O   UNL A   1      33.354  30.365  27.583  1.00  0.00    -0.458 OA
BRANCH   3   4
ATOM      4  C   UNL A   1      34.097  31.456  27.873  1.00  0.00     0.338 C 
ATOM      5  O   UNL A   1      33.655  32.588  27.987  1.00  0.00    -0.246 OA
BRANCH   4   6
ATOM      6  C   UNL A   1      35.503  31.081  28.151  1.00  0.00     0.060 A 
ATOM      7  C   UNL A   1      35.932  29.748  28.079  1.00  0.00     0.016 A 
ATOM      8  C   UNL A   1      36.413  32.093  28.464  1.00  0.00     0.016 A 
ATOM      9  C   UNL A   1      37.245  29.419  28.382  1.00  0.00     0.010 A 
ATOM     10  C   UNL A   1      37.734  31.763  28.751  1.00  0.00     0.010 A 
ATOM     11  C   UNL A   1      38.143  30.422  28.750  1.00  0.00    -0.014 A 
BRANCH  11  12
ATOM     12  C   UNL A   1      39.517  30.024  29.083  1.00  0.00     0.031 A 
ATOM     13  C   UNL A   1      39.939  30.098  30.523  1.00  0.00     0.074 A 
ATOM     14  C   UNL A   1      40.325  29.449  28.166  1.00  0.00     0.049 A 
ATOM     15  N   UNL A   1      41.079  30.455  31.025  1.00  0.00    -0.248 NA
ATOM     16  C   UNL A   1      38.960  29.712  31.549  1.00  0.00     0.031 C 
ATOM     17  C   UNL A   1      39.976  29.069  26.791  1.00  0.00     0.029 A 
ATOM     18  N   UNL A   1      41.592  28.957  28.311  1.00  0.00    -0.354 N 
ATOM     19  C   UNL A   1      41.028  30.133  32.382  1.00  0.00     0.074 A 
ATOM     20  C   UNL A   1      39.694  29.675  32.658  1.00  0.00     0.031 C 
ATOM     21  C   UNL A   1      40.900  28.205  26.323  1.00  0.00     0.029 A 
ATOM     22  C   UNL A   1      41.958  28.067  27.308  1.00  0.00     0.049 A 
ATOM     23  H   UNL A   1      42.187  29.208  29.054  1.00  0.00     0.167 HD
ATOM     24  C   UNL A   1      42.124  30.121  33.186  1.00  0.00     0.031 A 
ATOM     25  C   UNL A   1      43.013  27.215  27.301  1.00  0.00     0.031 A 
ATOM     26  C   UNL A   1      43.149  31.005  32.717  1.00  0.00     0.049 A 
ATOM     27  C   UNL A   1      43.984  27.679  28.316  1.00  0.00     0.074 A 
ATOM     28  C   UNL A   1      43.191  32.354  32.422  1.00  0.00     0.029 A 
ATOM     29  N   UNL A   1      44.281  30.463  32.164  1.00  0.00    -0.354 N 
ATOM     30  N   UNL A   1      44.688  28.770  28.209  1.00  0.00    -0.248 NA
ATOM     31  C   UNL A   1      43.944  27.091  29.645  1.00  0.00     0.031 C 
ATOM     32  C   UNL A   1      44.059  32.454  31.298  1.00  0.00     0.029 A 
ATOM     33  C   UNL A   1      44.520  31.167  31.013  1.00  0.00     0.049 A 
ATOM     34  H   UNL A   1      44.814  29.718  32.522  1.00  0.00     0.167 HD
ATOM     35  C   UNL A   1      44.834  29.229  29.507  1.00  0.00     0.074 A 
ATOM     36  C   UNL A   1      44.476  28.092  30.349  1.00  0.00     0.031 C 
ATOM     37  C   UNL A   1      44.965  30.562  29.776  1.00  0.00     0.031 A 
BRANCH  24  38
ATOM     38  C   UNL A   1      42.392  29.006  34.166  1.00  0.00    -0.014 A 
ATOM     39  C   UNL A   1      42.431  27.677  33.694  1.00  0.00     0.010 A 
ATOM     40  C   UNL A   1      42.263  29.196  35.559  1.00  0.00     0.010 A 
ATOM     41  C   UNL A   1      42.225  26.596  34.561  1.00  0.00     0.020 A 
ATOM     42  C   UNL A   1      42.098  28.121  36.436  1.00  0.00     0.020 A 
ATOM     43  C   UNL A   1      42.026  26.831  35.921  1.00  0.00     0.054 A 
BRANCH  43  44
ATOM     44  S   UNL A   1      41.568  25.450  37.001  1.00  0.00     0.124 S 
ATOM     45  O   UNL A   1      42.727  25.370  37.882  1.00  0.00    -0.237 OA
ATOM     46  O   UNL A   1      40.334  25.931  37.618  1.00  0.00    -0.237 OA
ATOM     47  O   UNL A   1      41.401  24.336  36.070  1.00  0.00    -0.744 OA
ENDBRANCH  43  44
ENDBRANCH  24  38
BRANCH  25  48
ATOM     48  C   UNL A   1      43.136  25.904  26.618  1.00  0.00    -0.014 A 
ATOM     49  C   UNL A   1      43.832  25.786  25.401  1.00  0.00     0.010 A 
ATOM     50  C   UNL A   1      42.779  24.715  27.286  1.00  0.00     0.010 A 
ATOM     51  C   UNL A   1      44.198  24.527  24.897  1.00  0.00     0.020 A 
ATOM     52  C   UNL A   1      43.124  23.457  26.780  1.00  0.00     0.020 A 
ATOM     53  C   UNL A   1      43.855  23.370  25.599  1.00  0.00     0.054 A 
BRANCH  53  54
ATOM     54  S   UNL A   1      44.474  21.761  25.029  1.00  0.00     0.124 S 
ATOM     55  O   UNL A   1      44.601  21.967  23.590  1.00  0.00    -0.237 OA
ATOM     56  O   UNL A   1      45.729  21.624  25.762  1.00  0.00    -0.237 OA
ATOM     57  O   UNL A   1      43.423  20.825  25.430  1.00  0.00    -0.744 OA
ENDBRANCH  53  54
ENDBRANCH  25  48
BRANCH  37  58
ATOM     58  C   UNL A   1      45.296  31.511  28.647  1.00  0.00    -0.014 A 
ATOM     59  C   UNL A   1      44.387  31.853  27.628  1.00  0.00     0.010 A 
ATOM     60  C   UNL A   1      46.522  32.198  28.708  1.00  0.00     0.010 A 
ATOM     61  C   UNL A   1      44.714  32.824  26.671  1.00  0.00     0.020 A 
ATOM     62  C   UNL A   1      46.844  33.186  27.772  1.00  0.00     0.020 A 
ATOM     63  C   UNL A   1      45.943  33.483  26.749  1.00  0.00     0.054 A 
BRANCH  63  64
ATOM     64  S   UNL A   1      46.338  34.775  25.538  1.00  0.00     0.124 S 
ATOM     65  O   UNL A   1      45.409  34.482  24.450  1.00  0.00    -0.237 OA
ATOM     66  O   UNL A   1      46.074  36.007  26.277  1.00  0.00    -0.237 OA
ATOM     67  O   UNL A   1      47.747  34.541  25.226  1.00  0.00    -0.744 OA
ENDBRANCH  63  64
ENDBRANCH  37  58
ENDBRANCH  11  12
ENDBRANCH   4   6
ENDBRANCH   3   4
ENDBRANCH   2   3
ENDBRANCH   1   2
BRANCH   1  68
ATOM     68  O   UNL A   1      31.967  28.505  25.515  1.00  0.00    -0.458 OA
BRANCH  68  69
ATOM     69  C   UNL A   1      33.085  27.807  25.194  1.00  0.00     0.338 C 
ATOM     70  O   UNL A   1      34.071  28.199  24.584  1.00  0.00    -0.246 OA
BRANCH  69  71
ATOM     71  C   UNL A   1      32.865  26.412  25.593  1.00  0.00     0.061 A 
ATOM     72  C   UNL A   1      31.552  26.023  25.824  1.00  0.00     0.019 A 
ATOM     73  C   UNL A   1      33.928  25.498  25.719  1.00  0.00     0.038 A 
ATOM     74  C   UNL A   1      31.341  24.734  26.269  1.00  0.00    -0.043 A 
ATOM     75  C   UNL A   1      33.708  24.175  26.183  1.00  0.00     0.092 A 
ATOM     76  C   UNL A   1      32.405  23.833  26.531  1.00  0.00    -0.024 A 
ATOM     77  C   UNL A   1      29.999  24.129  26.561  1.00  0.00     0.036 C 
ATOM     78  C   UNL A   1      31.803  22.683  27.275  1.00  0.00     0.037 C 
ATOM     79  C   UNL A   1      30.389  22.658  26.681  1.00  0.00     0.010 C 
BRANCH  75  80
ATOM     80  S   UNL A   1      35.168  23.136  26.201  1.00  0.00     0.262 S 
ATOM     81  O   UNL A   1      36.311  24.025  26.189  1.00  0.00    -0.201 OA
ATOM     82  O   UNL A   1      35.018  22.247  27.328  1.00  0.00    -0.201 OA
BRANCH  80  83
ATOM     83  N   UNL A   1      35.319  22.094  24.895  1.00  0.00    -0.277 N 
ATOM     84  H   UNL A   1      36.225  22.029  24.513  1.00  0.00     0.180 HD
BRANCH  83  85
ATOM     85  C   UNL A   1      34.331  21.288  24.256  1.00  0.00     0.075 A 
ATOM     86  C   UNL A   1      34.445  19.912  24.553  1.00  0.00     0.042 A 
ATOM     87  C   UNL A   1      33.222  21.712  23.520  1.00  0.00     0.089 A 
ATOM     88  C   UNL A   1      33.394  19.012  24.307  1.00  0.00     0.058 A 
ATOM     89  C   UNL A   1      32.185  20.807  23.224  1.00  0.00     0.031 A 
ATOM     90  C   UNL A   1      32.267  19.471  23.622  1.00  0.00     0.015 A 
BRANCH  87  91
ATOM     91  N   UNL A   1      33.073  23.029  23.051  1.00  0.00    -0.239 N 
ATOM     92  C   UNL A   1      31.915  23.758  22.957  1.00  0.00     0.115 A 
ATOM     93  N   UNL A   1      34.155  23.744  22.651  1.00  0.00    -0.177 NA
ATOM     94  C   UNL A   1      32.236  24.908  22.274  1.00  0.00     0.042 A 
ATOM     95  C   UNL A   1      33.621  24.820  22.068  1.00  0.00     0.135 A 
ENDBRANCH  87  91
BRANCH  88  96
ATOM     96  C   UNL A   1      33.448  17.613  24.885  1.00  0.00     0.416 C 
ATOM     97  F   UNL A   1      34.714  17.164  25.066  1.00  0.00    -0.166 F 
ATOM     98  F   UNL A   1      32.825  17.539  26.094  1.00  0.00    -0.166 F 
ATOM     99  F   UNL A   1      32.824  16.693  24.097  1.00  0.00    -0.166 F 
ENDBRANCH  88  96
ENDBRANCH  83  85
ENDBRANCH  80  83
ENDBRANCH  75  80
ENDBRANCH  69  71
ENDBRANCH  68  69
ENDBRANCH   1  68
TORSDOF 19
ENDMDL
MODEL 2
REMARK VINA RESULT:     -12.7      1.899      2.938
REMARK SMILES O=C(OCCOC(=O)c1cc2c(c(S(=O)(=O)Nc3cc(C(F)(F)F)ccc3-n3cccn3)c1)CCC2)c1ccc(-c2c3nc(c(-c4ccc(S(=O)(=O)[O-])cc4)c4ccc([nH]4)c(-c4ccc(S(=O)(=O)[O-])cc4)c4nc(c(-c5ccc(S(=O)(=O)[O-])cc5)c5ccc2[nH]5)C=C4)C=C3)cc1
REMARK SMILES IDX 5 1 4 2 3 3 2 4 1 5 37 6 38 7 96 8 39 9 95 10 40 11 41 12
REMARK SMILES IDX 42 13 89 14 43 15 94 16 88 17 90 18 44 19 93 20 87 21 86 22
REMARK SMILES IDX 45 24 75 25 56 26 74 27 57 28 60 29 73 30 91 31 58 32 59 33
REMARK SMILES IDX 72 35 92 36 61 37 46 38 47 39 55 40 48 41 54 42 49 43 50 44
REMARK SMILES IDX 51 45 52 46 53 47 76 48 77 49 85 50 78 51 84 52 79 53 80 54
REMARK SMILES IDX 81 55 82 56 83 57 62 58 63 59 71 60 64 61 70 62 65 63 66 64
REMARK SMILES IDX 67 65 68 66 69 67 6 68 7 69 8 70 9 71 10 72 33 73 11 74
REMARK SMILES IDX 13 75 12 76 36 77 34 78 35 79 14 80 15 81 16 82 17 83 18 85
REMARK SMILES IDX 19 86 27 87 20 88 26 89 25 90 28 91 29 92 32 93 30 94 31 95
REMARK SMILES IDX 21 96 22 97 23 98 24 99
REMARK H PARENT 90 23 60 34 17 84
REMARK Flexibility Score: inf
ROOT
ATOM      1  C   UNL A   1      32.585  29.515  25.489  1.00  0.00     0.275 C 
ENDROOT
BRANCH   1   2
ATOM      2  C   UNL A   1      32.470  30.598  26.564  1.00  0.00     0.275 C 
BRANCH   2   3
ATOM      3  O   UNL A   1      33.366  30.514  27.689  1.00  0.00    -0.458 OA
BRANCH   3   4
ATOM      4  C   UNL A   1      34.098  31.605  28.007  1.00  0.00     0.338 C 
ATOM      5  O   UNL A   1      33.645  32.731  28.140  1.00  0.00    -0.246 OA
BRANCH   4   6
ATOM      6  C   UNL A   1      35.504  31.237  28.287  1.00  0.00     0.060 A 
ATOM      7  C   UNL A   1      35.953  29.915  28.161  1.00  0.00     0.016 A 
ATOM      8  C   UNL A   1      36.396  32.246  28.659  1.00  0.00     0.016 A 
ATOM      9  C   UNL A   1      37.267  29.591  28.467  1.00  0.00     0.010 A 
ATOM     10  C   UNL A   1      37.717  31.921  28.949  1.00  0.00     0.010 A 
ATOM     11  C   UNL A   1      38.146  30.588  28.893  1.00  0.00    -0.014 A 
BRANCH  11  12
ATOM     12  C   UNL A   1      39.520  30.194  29.227  1.00  0.00     0.031 A 
ATOM     13  C   UNL A   1      39.915  30.186  30.677  1.00  0.00     0.074 A 
ATOM     14  C   UNL A   1      40.355  29.690  28.292  1.00  0.00     0.049 A 
ATOM     15  N   UNL A   1      41.039  30.531  31.222  1.00  0.00    -0.248 NA
ATOM     16  C   UNL A   1      38.925  29.720  31.658  1.00  0.00     0.031 C 
ATOM     17  C   UNL A   1      40.038  29.390  26.890  1.00  0.00     0.029 A 
ATOM     18  N   UNL A   1      41.628  29.212  28.431  1.00  0.00    -0.354 N 
ATOM     19  C   UNL A   1      40.969  30.125  32.555  1.00  0.00     0.074 A 
ATOM     20  C   UNL A   1      39.640  29.628  32.777  1.00  0.00     0.031 C 
ATOM     21  C   UNL A   1      40.986  28.572  26.387  1.00  0.00     0.029 A 
ATOM     22  C   UNL A   1      42.029  28.392  27.383  1.00  0.00     0.049 A 
ATOM     23  H   UNL A   1      42.205  29.427  29.199  1.00  0.00     0.167 HD
ATOM     24  C   UNL A   1      42.051  30.082  33.377  1.00  0.00     0.031 A 
ATOM     25  C   UNL A   1      43.099  27.561  27.344  1.00  0.00     0.031 A 
ATOM     26  C   UNL A   1      43.068  31.011  32.983  1.00  0.00     0.049 A 
ATOM     27  C   UNL A   1      44.043  27.978  28.403  1.00  0.00     0.074 A 
ATOM     28  C   UNL A   1      43.090  32.376  32.772  1.00  0.00     0.029 A 
ATOM     29  N   UNL A   1      44.220  30.524  32.420  1.00  0.00    -0.354 N 
ATOM     30  N   UNL A   1      44.729  29.085  28.376  1.00  0.00    -0.248 NA
ATOM     31  C   UNL A   1      43.990  27.309  29.693  1.00  0.00     0.031 C 
ATOM     32  C   UNL A   1      43.977  32.560  31.673  1.00  0.00     0.029 A 
ATOM     33  C   UNL A   1      44.466  31.301  31.318  1.00  0.00     0.049 A 
ATOM     34  H   UNL A   1      44.760  29.767  32.741  1.00  0.00     0.167 HD
ATOM     35  C   UNL A   1      44.842  29.466  29.703  1.00  0.00     0.074 A 
ATOM     36  C   UNL A   1      44.491  28.273  30.467  1.00  0.00     0.031 C 
ATOM     37  C   UNL A   1      44.945  30.782  30.056  1.00  0.00     0.031 A 
BRANCH  24  38
ATOM     38  C   UNL A   1      42.322  28.914  34.292  1.00  0.00    -0.014 A 
ATOM     39  C   UNL A   1      42.593  27.651  33.725  1.00  0.00     0.010 A 
ATOM     40  C   UNL A   1      41.981  28.949  35.662  1.00  0.00     0.010 A 
ATOM     41  C   UNL A   1      42.410  26.474  34.460  1.00  0.00     0.020 A 
ATOM     42  C   UNL A   1      41.835  27.781  36.414  1.00  0.00     0.020 A 
ATOM     43  C   UNL A   1      41.999  26.549  35.791  1.00  0.00     0.054 A 
BRANCH  43  44
ATOM     44  S   UNL A   1      41.576  25.025  36.674  1.00  0.00     0.124 S 
ATOM     45  O   UNL A   1      40.350  25.416  37.362  1.00  0.00    -0.237 OA
ATOM     46  O   UNL A   1      41.414  24.065  35.585  1.00  0.00    -0.237 OA
ATOM     47  O   UNL A   1      42.738  24.798  37.531  1.00  0.00    -0.744 OA
ENDBRANCH  43  44
ENDBRANCH  24  38
BRANCH  25  48
ATOM     48  C   UNL A   1      43.258  26.297  26.584  1.00  0.00    -0.014 A 
ATOM     49  C   UNL A   1      44.272  26.157  25.618  1.00  0.00     0.010 A 
ATOM     50  C   UNL A   1      42.567  25.133  26.980  1.00  0.00     0.010 A 
ATOM     51  C   UNL A   1      44.613  24.895  25.105  1.00  0.00     0.020 A 
ATOM     52  C   UNL A   1      42.888  23.875  26.459  1.00  0.00     0.020 A 
ATOM     53  C   UNL A   1      43.928  23.758  25.542  1.00  0.00     0.054 A 
BRANCH  53  54
ATOM     54  S   UNL A   1      44.483  22.116  25.001  1.00  0.00     0.124 S 
ATOM     55  O   UNL A   1      44.607  22.288  23.557  1.00  0.00    -0.237 OA
ATOM     56  O   UNL A   1      45.739  21.948  25.728  1.00  0.00    -0.237 OA
ATOM     57  O   UNL A   1      43.402  21.228  25.428  1.00  0.00    -0.744 OA
ENDBRANCH  53  54
ENDBRANCH  25  48
BRANCH  37  58
ATOM     58  C   UNL A   1      45.278  31.804  28.994  1.00  0.00    -0.014 A 
ATOM     59  C   UNL A   1      46.592  32.109  28.593  1.00  0.00     0.010 A 
ATOM     60  C   UNL A   1      44.211  32.368  28.270  1.00  0.00     0.010 A 
ATOM     61  C   UNL A   1      46.832  32.985  27.525  1.00  0.00     0.020 A 
ATOM     62  C   UNL A   1      44.443  33.222  27.188  1.00  0.00     0.020 A 
ATOM     63  C   UNL A   1      45.754  33.538  26.831  1.00  0.00     0.054 A 
BRANCH  63  64
ATOM     64  S   UNL A   1      46.072  34.631  25.418  1.00  0.00     0.124 S 
ATOM     65  O   UNL A   1      47.495  34.419  25.170  1.00  0.00    -0.237 OA
ATOM     66  O   UNL A   1      45.170  34.111  24.393  1.00  0.00    -0.237 OA
ATOM     67  O   UNL A   1      45.723  35.959  25.920  1.00  0.00    -0.744 OA
ENDBRANCH  63  64
ENDBRANCH  37  58
ENDBRANCH  11  12
ENDBRANCH   4   6
ENDBRANCH   3   4
ENDBRANCH   2   3
ENDBRANCH   1   2
BRANCH   1  68
ATOM     68  O   UNL A   1      31.384  28.724  25.446  1.00  0.00    -0.458 OA
BRANCH  68  69
ATOM     69  C   UNL A   1      31.318  27.700  26.334  1.00  0.00     0.338 C 
ATOM     70  O   UNL A   1      31.195  27.761  27.549  1.00  0.00    -0.246 OA
BRANCH  69  71
ATOM     71  C   UNL A   1      31.560  26.456  25.593  1.00  0.00     0.061 A 
ATOM     72  C   UNL A   1      31.969  26.580  24.271  1.00  0.00     0.019 A 
ATOM     73  C   UNL A   1      31.409  25.192  26.192  1.00  0.00     0.038 A 
ATOM     74  C   UNL A   1      32.130  25.418  23.545  1.00  0.00    -0.043 A 
ATOM     75  C   UNL A   1      31.569  23.999  25.441  1.00  0.00     0.092 A 
ATOM     76  C   UNL A   1      31.856  24.136  24.085  1.00  0.00    -0.024 A 
ATOM     77  C   UNL A   1      32.574  25.348  22.113  1.00  0.00     0.036 C 
ATOM     78  C   UNL A   1      31.847  23.188  22.928  1.00  0.00     0.037 C 
ATOM     79  C   UNL A   1      32.868  23.854  21.998  1.00  0.00     0.010 C 
BRANCH  75  80
ATOM     80  S   UNL A   1      31.414  22.489  26.393  1.00  0.00     0.262 S 
ATOM     81  O   UNL A   1      31.928  22.777  27.716  1.00  0.00    -0.201 OA
ATOM     82  O   UNL A   1      30.036  22.078  26.280  1.00  0.00    -0.201 OA
BRANCH  80  83
ATOM     83  N   UNL A   1      32.267  21.175  25.791  1.00  0.00    -0.277 N 
ATOM     84  H   UNL A   1      31.760  20.332  25.744  1.00  0.00     0.180 HD
BRANCH  83  85
ATOM     85  C   UNL A   1      33.617  21.098  25.337  1.00  0.00     0.075 A 
ATOM     86  C   UNL A   1      34.281  22.345  25.324  1.00  0.00     0.042 A 
ATOM     87  C   UNL A   1      34.364  19.952  25.057  1.00  0.00     0.089 A 
ATOM     88  C   UNL A   1      35.681  22.437  25.239  1.00  0.00     0.058 A 
ATOM     89  C   UNL A   1      35.763  20.039  24.920  1.00  0.00     0.031 A 
ATOM     90  C   UNL A   1      36.416  21.269  25.019  1.00  0.00     0.015 A 
BRANCH  87  91
ATOM     91  N   UNL A   1      33.786  18.679  24.908  1.00  0.00    -0.239 N 
ATOM     92  C   UNL A   1      34.223  17.649  24.113  1.00  0.00     0.115 A 
ATOM     93  N   UNL A   1      32.681  18.338  25.618  1.00  0.00    -0.177 NA
ATOM     94  C   UNL A   1      33.241  16.686  24.155  1.00  0.00     0.042 A 
ATOM     95  C   UNL A   1      32.293  17.188  25.059  1.00  0.00     0.135 A 
ENDBRANCH  87  91
BRANCH  88  96
ATOM     96  C   UNL A   1      36.367  23.760  25.503  1.00  0.00     0.416 C 
ATOM     97  F   UNL A   1      35.532  24.822  25.388  1.00  0.00    -0.166 F 
ATOM     98  F   UNL A   1      36.905  23.813  26.753  1.00  0.00    -0.166 F 
ATOM     99  F   UNL A   1      37.404  23.995  24.651  1.00  0.00    -0.166 F 
ENDBRANCH  88  96
ENDBRANCH  83  85
ENDBRANCH  80  83
ENDBRANCH  75  80
ENDBRANCH  69  71
ENDBRANCH  68  69
ENDBRANCH   1  68
TORSDOF 19
ENDMDL
MODEL 3
REMARK VINA RESULT:     -12.6      3.621      9.389
REMARK SMILES O=C(OCCOC(=O)c1cc2c(c(S(=O)(=O)Nc3cc(C(F)(F)F)ccc3-n3cccn3)c1)CCC2)c1ccc(-c2c3nc(c(-c4ccc(S(=O)(=O)[O-])cc4)c4ccc([nH]4)c(-c4ccc(S(=O)(=O)[O-])cc4)c4nc(c(-c5ccc(S(=O)(=O)[O-])cc5)c5ccc2[nH]5)C=C4)C=C3)cc1
REMARK SMILES IDX 5 1 4 2 3 3 2 4 1 5 37 6 38 7 96 8 39 9 95 10 40 11 41 12
REMARK SMILES IDX 42 13 89 14 43 15 94 16 88 17 90 18 44 19 93 20 87 21 86 22
REMARK SMILES IDX 45 24 75 25 56 26 74 27 57 28 60 29 73 30 91 31 58 32 59 33
REMARK SMILES IDX 72 35 92 36 61 37 46 38 47 39 55 40 48 41 54 42 49 43 50 44
REMARK SMILES IDX 51 45 52 46 53 47 76 48 77 49 85 50 78 51 84 52 79 53 80 54
REMARK SMILES IDX 81 55 82 56 83 57 62 58 63 59 71 60 64 61 70 62 65 63 66 64
REMARK SMILES IDX 67 65 68 66 69 67 6 68 7 69 8 70 9 71 10 72 33 73 11 74
REMARK SMILES IDX 13 75 12 76 36 77 34 78 35 79 14 80 15 81 16 82 17 83 18 85
REMARK SMILES IDX 19 86 27 87 20 88 26 89 25 90 28 91 29 92 32 93 30 94 31 95
REMARK SMILES IDX 21 96 22 97 23 98 24 99
REMARK H PARENT 90 23 60 34 17 84
REMARK Flexibility Score: inf
ROOT
ATOM      1  C   UNL A   1      35.984  20.844  24.822  1.00  0.00     0.275 C 
ENDROOT
BRANCH   1   2
ATOM      2  C   UNL A   1      37.003  21.271  25.880  1.00  0.00     0.275 C 
BRANCH   2   3
ATOM      3  O   UNL A   1      38.187  21.954  25.424  1.00  0.00    -0.458 OA
BRANCH   3   4
ATOM      4  C   UNL A   1      39.340  21.757  26.101  1.00  0.00     0.338 C 
ATOM      5  O   UNL A   1      39.967  20.711  26.115  1.00  0.00    -0.246 OA
BRANCH   4   6
ATOM      6  C   UNL A   1      39.806  23.014  26.730  1.00  0.00     0.060 A 
ATOM      7  C   UNL A   1      40.924  23.038  27.575  1.00  0.00     0.016 A 
ATOM      8  C   UNL A   1      39.121  24.197  26.443  1.00  0.00     0.016 A 
ATOM      9  C   UNL A   1      41.316  24.222  28.182  1.00  0.00     0.010 A 
ATOM     10  C   UNL A   1      39.526  25.387  27.040  1.00  0.00     0.010 A 
ATOM     11  C   UNL A   1      40.599  25.395  27.941  1.00  0.00    -0.014 A 
BRANCH  11  12
ATOM     12  C   UNL A   1      41.037  26.620  28.623  1.00  0.00     0.031 A 
ATOM     13  C   UNL A   1      42.290  27.287  28.130  1.00  0.00     0.074 A 
ATOM     14  C   UNL A   1      40.260  27.228  29.545  1.00  0.00     0.049 A 
ATOM     15  N   UNL A   1      43.226  27.875  28.807  1.00  0.00    -0.248 NA
ATOM     16  C   UNL A   1      42.532  27.313  26.681  1.00  0.00     0.031 C 
ATOM     17  C   UNL A   1      38.900  26.849  29.947  1.00  0.00     0.029 A 
ATOM     18  N   UNL A   1      40.469  28.397  30.223  1.00  0.00    -0.354 N 
ATOM     19  C   UNL A   1      44.039  28.520  27.874  1.00  0.00     0.074 A 
ATOM     20  C   UNL A   1      43.568  28.141  26.571  1.00  0.00     0.031 C 
ATOM     21  C   UNL A   1      38.325  27.884  30.594  1.00  0.00     0.029 A 
ATOM     22  C   UNL A   1      39.308  28.941  30.758  1.00  0.00     0.049 A 
ATOM     23  H   UNL A   1      41.356  28.812  30.322  1.00  0.00     0.167 HD
ATOM     24  C   UNL A   1      44.971  29.448  28.215  1.00  0.00     0.031 A 
ATOM     25  C   UNL A   1      39.127  30.195  31.241  1.00  0.00     0.031 A 
ATOM     26  C   UNL A   1      45.452  29.267  29.552  1.00  0.00     0.049 A 
ATOM     27  C   UNL A   1      40.458  30.770  31.536  1.00  0.00     0.074 A 
ATOM     28  C   UNL A   1      46.034  28.212  30.227  1.00  0.00     0.029 A 
ATOM     29  N   UNL A   1      45.067  30.165  30.516  1.00  0.00    -0.354 N 
ATOM     30  N   UNL A   1      41.232  30.362  32.500  1.00  0.00    -0.248 NA
ATOM     31  C   UNL A   1      41.098  31.606  30.533  1.00  0.00     0.031 C 
ATOM     32  C   UNL A   1      45.516  28.297  31.551  1.00  0.00     0.029 A 
ATOM     33  C   UNL A   1      44.689  29.421  31.603  1.00  0.00     0.049 A 
ATOM     34  H   UNL A   1      45.062  31.145  30.440  1.00  0.00     0.167 HD
ATOM     35  C   UNL A   1      42.520  30.536  32.021  1.00  0.00     0.074 A 
ATOM     36  C   UNL A   1      42.376  31.424  30.872  1.00  0.00     0.031 C 
ATOM     37  C   UNL A   1      43.543  29.729  32.431  1.00  0.00     0.031 A 
BRANCH  24  38
ATOM     38  C   UNL A   1      45.134  30.742  27.456  1.00  0.00    -0.014 A 
ATOM     39  C   UNL A   1      46.414  31.097  26.980  1.00  0.00     0.010 A 
ATOM     40  C   UNL A   1      44.154  31.757  27.500  1.00  0.00     0.010 A 
ATOM     41  C   UNL A   1      46.730  32.429  26.683  1.00  0.00     0.020 A 
ATOM     42  C   UNL A   1      44.451  33.081  27.167  1.00  0.00     0.020 A 
ATOM     43  C   UNL A   1      45.753  33.415  26.812  1.00  0.00     0.054 A 
BRANCH  43  44
ATOM     44  S   UNL A   1      46.220  35.155  26.617  1.00  0.00     0.124 S 
ATOM     45  O   UNL A   1      47.099  35.093  25.455  1.00  0.00    -0.237 OA
ATOM     46  O   UNL A   1      44.929  35.803  26.401  1.00  0.00    -0.237 OA
ATOM     47  O   UNL A   1      46.869  35.474  27.886  1.00  0.00    -0.744 OA
ENDBRANCH  43  44
ENDBRANCH  24  38
BRANCH  25  48
ATOM     48  C   UNL A   1      37.884  31.004  31.265  1.00  0.00    -0.014 A 
ATOM     49  C   UNL A   1      37.001  30.940  32.358  1.00  0.00     0.010 A 
ATOM     50  C   UNL A   1      37.683  32.032  30.320  1.00  0.00     0.010 A 
ATOM     51  C   UNL A   1      35.986  31.896  32.524  1.00  0.00     0.020 A 
ATOM     52  C   UNL A   1      36.662  32.977  30.470  1.00  0.00     0.020 A 
ATOM     53  C   UNL A   1      35.833  32.919  31.586  1.00  0.00     0.054 A 
BRANCH  53  54
ATOM     54  S   UNL A   1      34.629  34.244  31.893  1.00  0.00     0.124 S 
ATOM     55  O   UNL A   1      34.216  34.610  30.542  1.00  0.00    -0.237 OA
ATOM     56  O   UNL A   1      33.617  33.573  32.704  1.00  0.00    -0.237 OA
ATOM     57  O   UNL A   1      35.408  35.260  32.600  1.00  0.00    -0.744 OA
ENDBRANCH  53  54
ENDBRANCH  25  48
BRANCH  37  58
ATOM     58  C   UNL A   1      43.354  28.869  33.659  1.00  0.00    -0.014 A 
ATOM     59  C   UNL A   1      43.630  29.309  34.967  1.00  0.00     0.010 A 
ATOM     60  C   UNL A   1      42.731  27.618  33.493  1.00  0.00     0.010 A 
ATOM     61  C   UNL A   1      43.330  28.503  36.075  1.00  0.00     0.020 A 
ATOM     62  C   UNL A   1      42.405  26.821  34.594  1.00  0.00     0.020 A 
ATOM     63  C   UNL A   1      42.720  27.262  35.879  1.00  0.00     0.054 A 
BRANCH  63  64
ATOM     64  S   UNL A   1      42.288  26.248  37.320  1.00  0.00     0.124 S 
ATOM     65  O   UNL A   1      40.904  26.636  37.576  1.00  0.00    -0.237 OA
ATOM     66  O   UNL A   1      42.479  24.885  36.830  1.00  0.00    -0.237 OA
ATOM     67  O   UNL A   1      43.246  26.668  38.342  1.00  0.00    -0.744 OA
ENDBRANCH  63  64
ENDBRANCH  37  58
ENDBRANCH  11  12
ENDBRANCH   4   6
ENDBRANCH   3   4
ENDBRANCH   2   3
ENDBRANCH   1   2
BRANCH   1  68
ATOM     68  O   UNL A   1      34.908  21.798  24.750  1.00  0.00    -0.458 OA
BRANCH  68  69
ATOM     69  C   UNL A   1      35.016  22.739  23.778  1.00  0.00     0.338 C 
ATOM     70  O   UNL A   1      35.928  22.899  22.980  1.00  0.00    -0.246 OA
BRANCH  69  71
ATOM     71  C   UNL A   1      33.879  23.656  23.924  1.00  0.00     0.061 A 
ATOM     72  C   UNL A   1      33.082  23.497  25.050  1.00  0.00     0.019 A 
ATOM     73  C   UNL A   1      33.613  24.666  22.982  1.00  0.00     0.038 A 
ATOM     74  C   UNL A   1      31.970  24.306  25.160  1.00  0.00    -0.043 A 
ATOM     75  C   UNL A   1      32.466  25.493  23.094  1.00  0.00     0.092 A 
ATOM     76  C   UNL A   1      31.605  25.243  24.159  1.00  0.00    -0.024 A 
ATOM     77  C   UNL A   1      30.999  24.291  26.304  1.00  0.00     0.036 C 
ATOM     78  C   UNL A   1      30.215  25.685  24.488  1.00  0.00     0.037 C 
ATOM     79  C   UNL A   1      30.228  25.577  26.018  1.00  0.00     0.010 C 
BRANCH  75  80
ATOM     80  S   UNL A   1      32.339  26.772  21.846  1.00  0.00     0.262 S 
ATOM     81  O   UNL A   1      33.427  26.555  20.915  1.00  0.00    -0.201 OA
ATOM     82  O   UNL A   1      30.991  26.708  21.334  1.00  0.00    -0.201 OA
BRANCH  80  83
ATOM     83  N   UNL A   1      32.466  28.344  22.419  1.00  0.00    -0.277 N 
ATOM     84  H   UNL A   1      32.891  28.983  21.801  1.00  0.00     0.180 HD
BRANCH  83  85
ATOM     85  C   UNL A   1      32.050  28.893  23.669  1.00  0.00     0.075 A 
ATOM     86  C   UNL A   1      33.037  28.815  24.676  1.00  0.00     0.042 A 
ATOM     87  C   UNL A   1      30.879  29.600  23.948  1.00  0.00     0.089 A 
ATOM     88  C   UNL A   1      32.958  29.584  25.851  1.00  0.00     0.058 A 
ATOM     89  C   UNL A   1      30.767  30.333  25.145  1.00  0.00     0.031 A 
ATOM     90  C   UNL A   1      31.802  30.332  26.084  1.00  0.00     0.015 A 
BRANCH  87  91
ATOM     91  N   UNL A   1      29.776  29.630  23.077  1.00  0.00    -0.239 N 
ATOM     92  C   UNL A   1      29.556  30.494  22.034  1.00  0.00     0.115 A 
ATOM     93  N   UNL A   1      28.782  28.714  23.194  1.00  0.00    -0.177 NA
ATOM     94  C   UNL A   1      28.272  30.257  21.600  1.00  0.00     0.042 A 
ATOM     95  C   UNL A   1      27.827  29.183  22.386  1.00  0.00     0.135 A 
ENDBRANCH  87  91
BRANCH  88  96
ATOM     96  C   UNL A   1      34.156  29.680  26.771  1.00  0.00     0.416 C 
ATOM     97  F   UNL A   1      34.436  30.953  27.145  1.00  0.00    -0.166 F 
ATOM     98  F   UNL A   1      33.977  28.962  27.914  1.00  0.00    -0.166 F 
ATOM     99  F   UNL A   1      35.295  29.189  26.206  1.00  0.00    -0.166 F 
ENDBRANCH  88  96
ENDBRANCH  83  85
ENDBRANCH  80  83
ENDBRANCH  75  80
ENDBRANCH  69  71
ENDBRANCH  68  69
ENDBRANCH   1  68
TORSDOF 19
ENDMDL
