MODEL 1
REMARK VINA RESULT:     -10.5      0.000      0.000
REMARK SMILES C[C@@H]1C(=O)NC(=O)CN1C(=O)NC1(CC(=O)OCCOC(=O)c2ccc(-c3c4nc(c(-c5ccc(S(=O)(=O)[O-])cc5)c5ccc([nH]5)c(-c5ccc(S(=O)(=O)[O-])cc5)c5nc(c(-c6ccc(S(=O)(=O)[O-])cc6)c6ccc3[nH]6)C=C5)C=C4)cc2)CCC1
REMARK SMILES IDX 18 1 17 2 15 3 16 4 14 5 13 6 83 7 85 8 84 9 12 10 10 11
REMARK SMILES IDX 11 12 9 14 1 15 2 16 3 17 4 18 5 19 8 20 6 21 7 23 19 24
REMARK SMILES IDX 20 25 21 26 22 27 23 28 24 29 82 30 25 31 81 32 26 33 27 34
REMARK SMILES IDX 28 35 75 36 29 37 80 38 74 39 76 40 30 41 79 42 73 43 72 44
REMARK SMILES IDX 31 46 61 47 42 48 60 49 43 50 46 51 59 52 77 53 44 54 45 55
REMARK SMILES IDX 58 57 78 58 47 59 32 60 33 61 41 62 34 63 40 64 35 65 36 66
REMARK SMILES IDX 37 67 38 68 39 69 62 70 63 71 71 72 64 73 70 74 65 75 66 76
REMARK SMILES IDX 67 77 68 78 69 79 48 80 49 81 57 82 50 83 56 84 51 85 52 86
REMARK SMILES IDX 53 87 54 88 55 89
REMARK H PARENT 12 13 5 22 76 45 46 56
REMARK Flexibility Score: inf
ROOT
ATOM      1  C   UNL A   1      32.671  28.696  23.980  1.00  0.00     0.274 C 
ENDROOT
BRANCH   1   2
ATOM      2  O   UNL A   1      31.579  27.755  23.715  1.00  0.00    -0.462 OA
BRANCH   2   3
ATOM      3  C   UNL A   1      31.337  26.698  22.876  1.00  0.00     0.308 C 
ATOM      4  O   UNL A   1      31.823  26.530  21.752  1.00  0.00    -0.252 OA
BRANCH   3   5
ATOM      5  C   UNL A   1      30.461  25.633  23.609  1.00  0.00     0.151 C 
BRANCH   5   6
ATOM      6  C   UNL A   1      31.356  24.956  24.607  1.00  0.00     0.052 C 
ATOM      7  C   UNL A   1      31.143  23.681  25.565  1.00  0.00     0.029 C 
ATOM      8  C   UNL A   1      31.187  25.732  26.001  1.00  0.00     0.029 C 
ATOM      9  C   UNL A   1      30.286  24.573  26.466  1.00  0.00     0.005 C 
BRANCH   6  10
ATOM     10  N   UNL A   1      32.687  24.835  23.996  1.00  0.00    -0.332 N 
ATOM     11  C   UNL A   1      33.901  24.305  23.970  1.00  0.00     0.318 C 
ATOM     12  O   UNL A   1      34.203  24.687  22.834  1.00  0.00    -0.249 OA
ATOM     13  H   UNL A   1      32.667  25.452  23.229  1.00  0.00     0.165 HD
BRANCH  11  14
ATOM     14  N   UNL A   1      34.702  23.496  24.757  1.00  0.00    -0.304 N 
ATOM     15  C   UNL A   1      34.216  21.855  26.557  1.00  0.00     0.042 C 
ATOM     16  C   UNL A   1      34.669  22.055  25.106  1.00  0.00     0.174 C 
ATOM     17  C   UNL A   1      36.079  21.356  25.000  1.00  0.00     0.249 C 
ATOM     18  O   UNL A   1      36.226  20.134  24.976  1.00  0.00    -0.272 OA
ATOM     19  N   UNL A   1      37.200  22.134  25.160  1.00  0.00    -0.293 N 
ATOM     20  C   UNL A   1      35.823  24.089  25.581  1.00  0.00     0.222 C 
ATOM     21  C   UNL A   1      37.197  23.453  25.479  1.00  0.00     0.246 C 
ATOM     22  H   UNL A   1      38.075  21.700  25.034  1.00  0.00     0.173 HD
ATOM     23  O   UNL A   1      38.236  24.028  25.801  1.00  0.00    -0.273 OA
ENDBRANCH  11  14
ENDBRANCH   6  10
ENDBRANCH   5   6
ENDBRANCH   3   5
ENDBRANCH   2   3
ENDBRANCH   1   2
BRANCH   1  24
ATOM     24  C   UNL A   1      32.535  29.460  25.426  1.00  0.00     0.275 C 
BRANCH  24  25
ATOM     25  O   UNL A   1      33.509  29.151  26.531  1.00  0.00    -0.458 OA
BRANCH  25  26
ATOM     26  C   UNL A   1      34.054  30.122  27.391  1.00  0.00     0.338 C 
ATOM     27  O   UNL A   1      33.364  31.055  27.791  1.00  0.00    -0.246 OA
BRANCH  26  28
ATOM     28  C   UNL A   1      35.590  29.996  27.894  1.00  0.00     0.060 A 
ATOM     29  C   UNL A   1      36.732  30.155  27.093  1.00  0.00     0.016 A 
ATOM     30  C   UNL A   1      35.935  29.544  29.175  1.00  0.00     0.016 A 
ATOM     31  C   UNL A   1      38.027  29.760  27.362  1.00  0.00     0.010 A 
ATOM     32  C   UNL A   1      37.311  29.284  29.546  1.00  0.00     0.010 A 
ATOM     33  C   UNL A   1      38.374  29.385  28.623  1.00  0.00    -0.014 A 
BRANCH  33  34
ATOM     34  C   UNL A   1      39.809  29.021  28.783  1.00  0.00     0.031 A 
ATOM     35  C   UNL A   1      40.724  30.013  29.428  1.00  0.00     0.074 A 
ATOM     36  C   UNL A   1      40.260  27.753  28.602  1.00  0.00     0.049 A 
ATOM     37  N   UNL A   1      42.028  30.030  29.466  1.00  0.00    -0.248 NA
ATOM     38  C   UNL A   1      40.079  31.125  30.144  1.00  0.00     0.031 C 
ATOM     39  C   UNL A   1      39.439  26.576  28.272  1.00  0.00     0.029 A 
ATOM     40  N   UNL A   1      41.527  27.224  28.711  1.00  0.00    -0.354 N 
ATOM     41  C   UNL A   1      42.362  31.212  30.113  1.00  0.00     0.074 A 
ATOM     42  C   UNL A   1      41.125  31.857  30.496  1.00  0.00     0.031 C 
ATOM     43  C   UNL A   1      40.215  25.482  28.219  1.00  0.00     0.029 A 
ATOM     44  C   UNL A   1      41.603  25.892  28.359  1.00  0.00     0.049 A 
ATOM     45  H   UNL A   1      42.305  27.746  29.011  1.00  0.00     0.167 HD
ATOM     46  C   UNL A   1      43.598  31.721  30.317  1.00  0.00     0.031 A 
ATOM     47  C   UNL A   1      42.667  25.113  28.076  1.00  0.00     0.031 A 
ATOM     48  C   UNL A   1      44.803  31.029  29.943  1.00  0.00     0.049 A 
ATOM     49  C   UNL A   1      44.028  25.749  28.119  1.00  0.00     0.074 A 
ATOM     50  C   UNL A   1      46.113  31.463  30.020  1.00  0.00     0.029 A 
ATOM     51  N   UNL A   1      44.837  29.740  29.428  1.00  0.00    -0.354 N 
ATOM     52  N   UNL A   1      44.357  26.948  28.539  1.00  0.00    -0.248 NA
ATOM     53  C   UNL A   1      45.151  24.954  27.609  1.00  0.00     0.031 C 
ATOM     54  C   UNL A   1      46.932  30.458  29.494  1.00  0.00     0.029 A 
ATOM     55  C   UNL A   1      46.141  29.372  29.150  1.00  0.00     0.049 A 
ATOM     56  H   UNL A   1      44.048  29.169  29.282  1.00  0.00     0.167 HD
ATOM     57  C   UNL A   1      45.727  27.053  28.345  1.00  0.00     0.074 A 
ATOM     58  C   UNL A   1      46.168  25.785  27.794  1.00  0.00     0.031 C 
ATOM     59  C   UNL A   1      46.547  28.105  28.593  1.00  0.00     0.031 A 
BRANCH  46  60
ATOM     60  C   UNL A   1      43.679  33.132  30.829  1.00  0.00    -0.014 A 
ATOM     61  C   UNL A   1      43.752  34.243  29.973  1.00  0.00     0.010 A 
ATOM     62  C   UNL A   1      43.728  33.337  32.221  1.00  0.00     0.010 A 
ATOM     63  C   UNL A   1      43.923  35.529  30.500  1.00  0.00     0.020 A 
ATOM     64  C   UNL A   1      43.869  34.620  32.752  1.00  0.00     0.020 A 
ATOM     65  C   UNL A   1      43.990  35.707  31.886  1.00  0.00     0.054 A 
BRANCH  65  66
ATOM     66  S   UNL A   1      44.227  37.380  32.544  1.00  0.00     0.124 S 
ATOM     67  O   UNL A   1      43.791  38.209  31.423  1.00  0.00    -0.237 OA
ATOM     68  O   UNL A   1      43.346  37.392  33.711  1.00  0.00    -0.237 OA
ATOM     69  O   UNL A   1      45.654  37.438  32.843  1.00  0.00    -0.744 OA
ENDBRANCH  65  66
ENDBRANCH  46  60
BRANCH  47  70
ATOM     70  C   UNL A   1      42.476  23.717  27.578  1.00  0.00    -0.014 A 
ATOM     71  C   UNL A   1      42.506  23.424  26.205  1.00  0.00     0.010 A 
ATOM     72  C   UNL A   1      42.275  22.659  28.490  1.00  0.00     0.010 A 
ATOM     73  C   UNL A   1      42.355  22.105  25.755  1.00  0.00     0.020 A 
ATOM     74  C   UNL A   1      42.155  21.338  28.048  1.00  0.00     0.020 A 
ATOM     75  C   UNL A   1      42.193  21.069  26.680  1.00  0.00     0.054 A 
BRANCH  75  76
ATOM     76  S   UNL A   1      42.088  19.359  26.078  1.00  0.00     0.124 S 
ATOM     77  O   UNL A   1      42.554  18.599  27.234  1.00  0.00    -0.237 OA
ATOM     78  O   UNL A   1      40.668  19.225  25.763  1.00  0.00    -0.237 OA
ATOM     79  O   UNL A   1      42.979  19.348  24.919  1.00  0.00    -0.744 OA
ENDBRANCH  75  76
ENDBRANCH  47  70
BRANCH  59  80
ATOM     80  C   UNL A   1      48.007  27.919  28.290  1.00  0.00    -0.014 A 
ATOM     81  C   UNL A   1      48.543  28.295  27.046  1.00  0.00     0.010 A 
ATOM     82  C   UNL A   1      48.861  27.420  29.289  1.00  0.00     0.010 A 
ATOM     83  C   UNL A   1      49.909  28.157  26.801  1.00  0.00     0.020 A 
ATOM     84  C   UNL A   1      50.233  27.308  29.058  1.00  0.00     0.020 A 
ATOM     85  C   UNL A   1      50.746  27.670  27.811  1.00  0.00     0.054 A 
BRANCH  85  86
ATOM     86  S   UNL A   1      52.527  27.560  27.487  1.00  0.00     0.124 S 
ATOM     87  O   UNL A   1      53.083  28.354  28.579  1.00  0.00    -0.237 OA
ATOM     88  O   UNL A   1      52.777  26.123  27.565  1.00  0.00    -0.237 OA
ATOM     89  O   UNL A   1      52.673  28.140  26.155  1.00  0.00    -0.744 OA
ENDBRANCH  85  86
ENDBRANCH  59  80
ENDBRANCH  33  34
ENDBRANCH  26  28
ENDBRANCH  25  26
ENDBRANCH  24  25
ENDBRANCH   1  24
TORSDOF 17
ENDMDL
MODEL 2
REMARK VINA RESULT:     -10.4      4.624      9.235
REMARK SMILES C[C@@H]1C(=O)NC(=O)CN1C(=O)NC1(CC(=O)OCCOC(=O)c2ccc(-c3c4nc(c(-c5ccc(S(=O)(=O)[O-])cc5)c5ccc([nH]5)c(-c5ccc(S(=O)(=O)[O-])cc5)c5nc(c(-c6ccc(S(=O)(=O)[O-])cc6)c6ccc3[nH]6)C=C5)C=C4)cc2)CCC1
REMARK SMILES IDX 18 1 17 2 15 3 16 4 14 5 13 6 83 7 85 8 84 9 12 10 10 11
REMARK SMILES IDX 11 12 9 14 1 15 2 16 3 17 4 18 5 19 8 20 6 21 7 23 19 24
REMARK SMILES IDX 20 25 21 26 22 27 23 28 24 29 82 30 25 31 81 32 26 33 27 34
REMARK SMILES IDX 28 35 75 36 29 37 80 38 74 39 76 40 30 41 79 42 73 43 72 44
REMARK SMILES IDX 31 46 61 47 42 48 60 49 43 50 46 51 59 52 77 53 44 54 45 55
REMARK SMILES IDX 58 57 78 58 47 59 32 60 33 61 41 62 34 63 40 64 35 65 36 66
REMARK SMILES IDX 37 67 38 68 39 69 62 70 63 71 71 72 64 73 70 74 65 75 66 76
REMARK SMILES IDX 67 77 68 78 69 79 48 80 49 81 57 82 50 83 56 84 51 85 52 86
REMARK SMILES IDX 53 87 54 88 55 89
REMARK H PARENT 12 13 5 22 76 45 46 56
REMARK Flexibility Score: inf
ROOT
ATOM      1  C   UNL A   1      31.439  29.236  25.153  1.00  0.00     0.274 C 
ENDROOT
BRANCH   1   2
ATOM      2  O   UNL A   1      31.740  27.834  25.456  1.00  0.00    -0.462 OA
BRANCH   2   3
ATOM      3  C   UNL A   1      31.064  26.643  25.505  1.00  0.00     0.308 C 
ATOM      4  O   UNL A   1      30.525  26.147  26.501  1.00  0.00    -0.252 OA
BRANCH   3   5
ATOM      5  C   UNL A   1      30.933  26.051  24.065  1.00  0.00     0.151 C 
BRANCH   5   6
ATOM      6  C   UNL A   1      32.308  25.600  23.662  1.00  0.00     0.052 C 
ATOM      7  C   UNL A   1      33.492  26.326  22.851  1.00  0.00     0.029 C 
ATOM      8  C   UNL A   1      32.162  24.812  22.273  1.00  0.00     0.029 C 
ATOM      9  C   UNL A   1      32.693  26.075  21.571  1.00  0.00     0.005 C 
BRANCH   6  10
ATOM     10  N   UNL A   1      32.911  24.930  24.822  1.00  0.00    -0.332 N 
ATOM     11  C   UNL A   1      33.757  24.048  25.335  1.00  0.00     0.318 C 
ATOM     12  O   UNL A   1      33.694  24.448  26.504  1.00  0.00    -0.249 OA
ATOM     13  H   UNL A   1      32.468  25.334  25.603  1.00  0.00     0.165 HD
BRANCH  11  14
ATOM     14  N   UNL A   1      34.597  23.037  24.904  1.00  0.00    -0.304 N 
ATOM     15  C   UNL A   1      36.448  22.953  23.250  1.00  0.00     0.042 C 
ATOM     16  C   UNL A   1      36.067  22.933  24.735  1.00  0.00     0.174 C 
ATOM     17  C   UNL A   1      36.667  21.592  25.309  1.00  0.00     0.249 C 
ATOM     18  O   UNL A   1      37.869  21.427  25.519  1.00  0.00    -0.272 OA
ATOM     19  N   UNL A   1      35.847  20.492  25.374  1.00  0.00    -0.293 N 
ATOM     20  C   UNL A   1      34.032  21.745  24.358  1.00  0.00     0.222 C 
ATOM     21  C   UNL A   1      34.572  20.439  24.912  1.00  0.00     0.246 C 
ATOM     22  H   UNL A   1      36.213  19.677  25.789  1.00  0.00     0.173 HD
ATOM     23  O   UNL A   1      33.975  19.367  24.824  1.00  0.00    -0.273 OA
ENDBRANCH  11  14
ENDBRANCH   6  10
ENDBRANCH   5   6
ENDBRANCH   3   5
ENDBRANCH   2   3
ENDBRANCH   1   2
BRANCH   1  24
ATOM     24  C   UNL A   1      31.998  30.282  26.287  1.00  0.00     0.275 C 
BRANCH  24  25
ATOM     25  O   UNL A   1      33.368  30.084  26.878  1.00  0.00    -0.458 OA
BRANCH  25  26
ATOM     26  C   UNL A   1      34.099  31.100  27.521  1.00  0.00     0.338 C 
ATOM     27  O   UNL A   1      33.604  32.211  27.689  1.00  0.00    -0.246 OA
BRANCH  26  28
ATOM     28  C   UNL A   1      35.590  30.801  28.082  1.00  0.00     0.060 A 
ATOM     29  C   UNL A   1      35.998  29.635  28.751  1.00  0.00     0.016 A 
ATOM     30  C   UNL A   1      36.604  31.768  28.098  1.00  0.00     0.016 A 
ATOM     31  C   UNL A   1      37.127  29.441  29.520  1.00  0.00     0.010 A 
ATOM     32  C   UNL A   1      37.875  31.529  28.752  1.00  0.00     0.010 A 
ATOM     33  C   UNL A   1      38.138  30.350  29.482  1.00  0.00    -0.014 A 
BRANCH  33  34
ATOM     34  C   UNL A   1      39.312  29.999  30.328  1.00  0.00     0.031 A 
ATOM     35  C   UNL A   1      40.325  29.047  29.776  1.00  0.00     0.074 A 
ATOM     36  C   UNL A   1      39.627  30.689  31.455  1.00  0.00     0.049 A 
ATOM     37  N   UNL A   1      41.287  28.416  30.390  1.00  0.00    -0.248 NA
ATOM     38  C   UNL A   1      40.255  28.789  28.328  1.00  0.00     0.031 C 
ATOM     39  C   UNL A   1      38.915  31.866  31.982  1.00  0.00     0.029 A 
ATOM     40  N   UNL A   1      40.660  30.527  32.352  1.00  0.00    -0.354 N 
ATOM     41  C   UNL A   1      41.866  27.600  29.429  1.00  0.00     0.074 A 
ATOM     42  C   UNL A   1      41.184  27.857  28.179  1.00  0.00     0.031 C 
ATOM     43  C   UNL A   1      39.535  32.314  33.084  1.00  0.00     0.029 A 
ATOM     44  C   UNL A   1      40.591  31.379  33.434  1.00  0.00     0.049 A 
ATOM     45  H   UNL A   1      41.378  29.865  32.232  1.00  0.00     0.167 HD
ATOM     46  C   UNL A   1      42.849  26.687  29.603  1.00  0.00     0.031 A 
ATOM     47  C   UNL A   1      41.230  31.350  34.622  1.00  0.00     0.031 A 
ATOM     48  C   UNL A   1      43.518  26.486  30.860  1.00  0.00     0.049 A 
ATOM     49  C   UNL A   1      42.180  30.213  34.875  1.00  0.00     0.074 A 
ATOM     50  C   UNL A   1      44.473  25.544  31.194  1.00  0.00     0.029 A 
ATOM     51  N   UNL A   1      43.304  27.259  31.994  1.00  0.00    -0.354 N 
ATOM     52  N   UNL A   1      42.598  29.295  34.036  1.00  0.00    -0.248 NA
ATOM     53  C   UNL A   1      42.707  30.077  36.238  1.00  0.00     0.031 C 
ATOM     54  C   UNL A   1      44.790  25.711  32.547  1.00  0.00     0.029 A 
ATOM     55  C   UNL A   1      44.082  26.797  33.039  1.00  0.00     0.049 A 
ATOM     56  H   UNL A   1      42.688  28.026  32.045  1.00  0.00     0.167 HD
ATOM     57  C   UNL A   1      43.439  28.469  34.769  1.00  0.00     0.074 A 
ATOM     58  C   UNL A   1      43.490  29.014  36.113  1.00  0.00     0.031 C 
ATOM     59  C   UNL A   1      44.104  27.356  34.369  1.00  0.00     0.031 A 
BRANCH  46  60
ATOM     60  C   UNL A   1      43.133  25.762  28.452  1.00  0.00    -0.014 A 
ATOM     61  C   UNL A   1      42.460  24.541  28.281  1.00  0.00     0.010 A 
ATOM     62  C   UNL A   1      44.143  26.120  27.540  1.00  0.00     0.010 A 
ATOM     63  C   UNL A   1      42.830  23.671  27.248  1.00  0.00     0.020 A 
ATOM     64  C   UNL A   1      44.495  25.270  26.490  1.00  0.00     0.020 A 
ATOM     65  C   UNL A   1      43.851  24.038  26.365  1.00  0.00     0.054 A 
BRANCH  65  66
ATOM     66  S   UNL A   1      44.321  22.890  25.043  1.00  0.00     0.124 S 
ATOM     67  O   UNL A   1      43.027  22.578  24.440  1.00  0.00    -0.237 OA
ATOM     68  O   UNL A   1      45.217  23.700  24.220  1.00  0.00    -0.237 OA
ATOM     69  O   UNL A   1      44.960  21.785  25.752  1.00  0.00    -0.744 OA
ENDBRANCH  65  66
ENDBRANCH  46  60
BRANCH  47  70
ATOM     70  C   UNL A   1      40.876  32.323  35.700  1.00  0.00    -0.014 A 
ATOM     71  C   UNL A   1      41.628  33.493  35.898  1.00  0.00     0.010 A 
ATOM     72  C   UNL A   1      39.763  32.087  36.533  1.00  0.00     0.010 A 
ATOM     73  C   UNL A   1      41.266  34.411  36.894  1.00  0.00     0.020 A 
ATOM     74  C   UNL A   1      39.380  33.014  37.507  1.00  0.00     0.020 A 
ATOM     75  C   UNL A   1      40.138  34.172  37.683  1.00  0.00     0.054 A 
BRANCH  75  76
ATOM     76  S   UNL A   1      39.638  35.417  38.907  1.00  0.00     0.124 S 
ATOM     77  O   UNL A   1      39.277  36.550  38.060  1.00  0.00    -0.237 OA
ATOM     78  O   UNL A   1      38.527  34.757  39.589  1.00  0.00    -0.237 OA
ATOM     79  O   UNL A   1      40.838  35.600  39.721  1.00  0.00    -0.744 OA
ENDBRANCH  75  76
ENDBRANCH  47  70
BRANCH  59  80
ATOM     80  C   UNL A   1      44.960  26.668  35.394  1.00  0.00    -0.014 A 
ATOM     81  C   UNL A   1      44.455  25.609  36.167  1.00  0.00     0.010 A 
ATOM     82  C   UNL A   1      46.307  27.047  35.536  1.00  0.00     0.010 A 
ATOM     83  C   UNL A   1      45.280  24.952  37.081  1.00  0.00     0.020 A 
ATOM     84  C   UNL A   1      47.142  26.374  36.428  1.00  0.00     0.020 A 
ATOM     85  C   UNL A   1      46.620  25.336  37.201  1.00  0.00     0.054 A 
BRANCH  85  86
ATOM     86  S   UNL A   1      47.687  24.425  38.350  1.00  0.00     0.124 S 
ATOM     87  O   UNL A   1      49.020  24.822  37.907  1.00  0.00    -0.237 OA
ATOM     88  O   UNL A   1      47.274  24.947  39.651  1.00  0.00    -0.237 OA
ATOM     89  O   UNL A   1      47.340  23.026  38.110  1.00  0.00    -0.744 OA
ENDBRANCH  85  86
ENDBRANCH  59  80
ENDBRANCH  33  34
ENDBRANCH  26  28
ENDBRANCH  25  26
ENDBRANCH  24  25
ENDBRANCH   1  24
TORSDOF 17
ENDMDL
MODEL 3
REMARK VINA RESULT:     -10.1      3.704      9.822
REMARK SMILES C[C@@H]1C(=O)NC(=O)CN1C(=O)NC1(CC(=O)OCCOC(=O)c2ccc(-c3c4nc(c(-c5ccc(S(=O)(=O)[O-])cc5)c5ccc([nH]5)c(-c5ccc(S(=O)(=O)[O-])cc5)c5nc(c(-c6ccc(S(=O)(=O)[O-])cc6)c6ccc3[nH]6)C=C5)C=C4)cc2)CCC1
REMARK SMILES IDX 18 1 17 2 15 3 16 4 14 5 13 6 83 7 85 8 84 9 12 10 10 11
REMARK SMILES IDX 11 12 9 14 1 15 2 16 3 17 4 18 5 19 8 20 6 21 7 23 19 24
REMARK SMILES IDX 20 25 21 26 22 27 23 28 24 29 82 30 25 31 81 32 26 33 27 34
REMARK SMILES IDX 28 35 75 36 29 37 80 38 74 39 76 40 30 41 79 42 73 43 72 44
REMARK SMILES IDX 31 46 61 47 42 48 60 49 43 50 46 51 59 52 77 53 44 54 45 55
REMARK SMILES IDX 58 57 78 58 47 59 32 60 33 61 41 62 34 63 40 64 35 65 36 66
REMARK SMILES IDX 37 67 38 68 39 69 62 70 63 71 71 72 64 73 70 74 65 75 66 76
REMARK SMILES IDX 67 77 68 78 69 79 48 80 49 81 57 82 50 83 56 84 51 85 52 86
REMARK SMILES IDX 53 87 54 88 55 89
REMARK H PARENT 12 13 5 22 76 45 46 56
REMARK Flexibility Score: inf
ROOT
ATOM      1  C   UNL A   1      35.728  22.712  23.562  1.00  0.00     0.274 C 
ENDROOT
BRANCH   1   2
ATOM      2  O   UNL A   1      35.211  24.072  23.741  1.00  0.00    -0.462 OA
BRANCH   2   3
ATOM      3  C   UNL A   1      34.215  24.690  24.451  1.00  0.00     0.308 C 
ATOM      4  O   UNL A   1      34.324  25.725  25.117  1.00  0.00    -0.252 OA
BRANCH   3   5
ATOM      5  C   UNL A   1      32.852  23.976  24.178  1.00  0.00     0.151 C 
BRANCH   5   6
ATOM      6  C   UNL A   1      32.269  23.639  25.520  1.00  0.00     0.052 C 
ATOM      7  C   UNL A   1      32.925  23.070  26.875  1.00  0.00     0.029 C 
ATOM      8  C   UNL A   1      31.718  22.136  25.437  1.00  0.00     0.029 C 
ATOM      9  C   UNL A   1      32.979  21.696  26.204  1.00  0.00     0.005 C 
BRANCH   6  10
ATOM     10  N   UNL A   1      31.359  24.731  25.893  1.00  0.00    -0.332 N 
ATOM     11  C   UNL A   1      30.846  25.932  25.672  1.00  0.00     0.318 C 
ATOM     12  O   UNL A   1      29.901  25.836  26.463  1.00  0.00    -0.249 OA
ATOM     13  H   UNL A   1      30.909  24.414  26.710  1.00  0.00     0.165 HD
BRANCH  11  14
ATOM     14  N   UNL A   1      31.054  27.017  24.838  1.00  0.00    -0.304 N 
ATOM     15  C   UNL A   1      31.687  27.226  22.445  1.00  0.00     0.042 C 
ATOM     16  C   UNL A   1      30.567  27.371  23.483  1.00  0.00     0.174 C 
ATOM     17  C   UNL A   1      30.074  28.866  23.369  1.00  0.00     0.249 C 
ATOM     18  O   UNL A   1      29.389  29.280  22.434  1.00  0.00    -0.272 OA
ATOM     19  N   UNL A   1      30.610  29.791  24.232  1.00  0.00    -0.293 N 
ATOM     20  C   UNL A   1      32.047  28.095  25.209  1.00  0.00     0.222 C 
ATOM     21  C   UNL A   1      31.593  29.541  25.134  1.00  0.00     0.246 C 
ATOM     22  H   UNL A   1      30.252  30.708  24.193  1.00  0.00     0.173 HD
ATOM     23  O   UNL A   1      32.156  30.460  25.727  1.00  0.00    -0.273 OA
ENDBRANCH  11  14
ENDBRANCH   6  10
ENDBRANCH   5   6
ENDBRANCH   3   5
ENDBRANCH   2   3
ENDBRANCH   1   2
BRANCH   1  24
ATOM     24  C   UNL A   1      36.429  22.099  24.913  1.00  0.00     0.275 C 
BRANCH  24  25
ATOM     25  O   UNL A   1      37.147  23.016  25.867  1.00  0.00    -0.458 OA
BRANCH  25  26
ATOM     26  C   UNL A   1      38.540  23.009  26.063  1.00  0.00     0.338 C 
ATOM     27  O   UNL A   1      39.230  22.112  25.587  1.00  0.00    -0.246 OA
BRANCH  26  28
ATOM     28  C   UNL A   1      39.253  24.209  26.888  1.00  0.00     0.060 A 
ATOM     29  C   UNL A   1      39.065  24.494  28.250  1.00  0.00     0.016 A 
ATOM     30  C   UNL A   1      40.021  25.204  26.268  1.00  0.00     0.016 A 
ATOM     31  C   UNL A   1      39.375  25.654  28.931  1.00  0.00     0.010 A 
ATOM     32  C   UNL A   1      40.510  26.354  27.000  1.00  0.00     0.010 A 
ATOM     33  C   UNL A   1      40.176  26.588  28.352  1.00  0.00    -0.014 A 
BRANCH  33  34
ATOM     34  C   UNL A   1      40.461  27.771  29.210  1.00  0.00     0.031 A 
ATOM     35  C   UNL A   1      41.795  27.855  29.882  1.00  0.00     0.074 A 
ATOM     36  C   UNL A   1      39.673  28.878  29.205  1.00  0.00     0.049 A 
ATOM     37  N   UNL A   1      42.187  28.643  30.843  1.00  0.00    -0.248 NA
ATOM     38  C   UNL A   1      42.832  26.936  29.386  1.00  0.00     0.031 C 
ATOM     39  C   UNL A   1      38.485  29.097  28.363  1.00  0.00     0.029 A 
ATOM     40  N   UNL A   1      39.774  30.058  29.909  1.00  0.00    -0.354 N 
ATOM     41  C   UNL A   1      43.481  28.242  31.145  1.00  0.00     0.074 A 
ATOM     42  C   UNL A   1      43.825  27.177  30.228  1.00  0.00     0.031 C 
ATOM     43  C   UNL A   1      37.988  30.322  28.592  1.00  0.00     0.029 A 
ATOM     44  C   UNL A   1      38.719  30.920  29.697  1.00  0.00     0.049 A 
ATOM     45  H   UNL A   1      40.527  30.266  30.507  1.00  0.00     0.167 HD
ATOM     46  C   UNL A   1      44.279  28.701  32.135  1.00  0.00     0.031 A 
ATOM     47  C   UNL A   1      38.320  32.012  30.381  1.00  0.00     0.031 A 
ATOM     48  C   UNL A   1      43.904  29.783  33.006  1.00  0.00     0.049 A 
ATOM     49  C   UNL A   1      39.110  32.398  31.600  1.00  0.00     0.074 A 
ATOM     50  C   UNL A   1      44.582  30.294  34.097  1.00  0.00     0.029 A 
ATOM     51  N   UNL A   1      42.742  30.532  32.870  1.00  0.00    -0.354 N 
ATOM     52  N   UNL A   1      40.244  31.899  32.031  1.00  0.00    -0.248 NA
ATOM     53  C   UNL A   1      38.548  33.455  32.449  1.00  0.00     0.031 C 
ATOM     54  C   UNL A   1      43.798  31.311  34.655  1.00  0.00     0.029 A 
ATOM     55  C   UNL A   1      42.664  31.478  33.874  1.00  0.00     0.049 A 
ATOM     56  H   UNL A   1      42.072  30.407  32.160  1.00  0.00     0.167 HD
ATOM     57  C   UNL A   1      40.536  32.581  33.204  1.00  0.00     0.074 A 
ATOM     58  C   UNL A   1      39.470  33.547  33.399  1.00  0.00     0.031 C 
ATOM     59  C   UNL A   1      41.586  32.420  34.047  1.00  0.00     0.031 A 
BRANCH  46  60
ATOM     60  C   UNL A   1      45.545  27.935  32.403  1.00  0.00    -0.014 A 
ATOM     61  C   UNL A   1      45.587  26.822  33.258  1.00  0.00     0.010 A 
ATOM     62  C   UNL A   1      46.737  28.383  31.803  1.00  0.00     0.010 A 
ATOM     63  C   UNL A   1      46.808  26.203  33.550  1.00  0.00     0.020 A 
ATOM     64  C   UNL A   1      47.953  27.750  32.067  1.00  0.00     0.020 A 
ATOM     65  C   UNL A   1      47.984  26.677  32.959  1.00  0.00     0.054 A 
BRANCH  65  66
ATOM     66  S   UNL A   1      49.556  25.868  33.362  1.00  0.00     0.124 S 
ATOM     67  O   UNL A   1      49.653  26.101  34.802  1.00  0.00    -0.237 OA
ATOM     68  O   UNL A   1      49.313  24.482  32.967  1.00  0.00    -0.237 OA
ATOM     69  O   UNL A   1      50.535  26.583  32.549  1.00  0.00    -0.744 OA
ENDBRANCH  65  66
ENDBRANCH  46  60
BRANCH  47  70
ATOM     70  C   UNL A   1      37.044  32.707  30.028  1.00  0.00    -0.014 A 
ATOM     71  C   UNL A   1      35.829  32.345  30.631  1.00  0.00     0.010 A 
ATOM     72  C   UNL A   1      37.045  33.756  29.085  1.00  0.00     0.010 A 
ATOM     73  C   UNL A   1      34.646  33.026  30.312  1.00  0.00     0.020 A 
ATOM     74  C   UNL A   1      35.873  34.458  28.786  1.00  0.00     0.020 A 
ATOM     75  C   UNL A   1      34.678  34.086  29.401  1.00  0.00     0.054 A 
BRANCH  75  76
ATOM     76  S   UNL A   1      33.149  35.009  29.070  1.00  0.00     0.124 S 
ATOM     77  O   UNL A   1      33.662  36.269  28.540  1.00  0.00    -0.237 OA
ATOM     78  O   UNL A   1      32.467  34.149  28.106  1.00  0.00    -0.237 OA
ATOM     79  O   UNL A   1      32.508  35.094  30.381  1.00  0.00    -0.744 OA
ENDBRANCH  75  76
ENDBRANCH  47  70
BRANCH  59  80
ATOM     80  C   UNL A   1      41.642  33.323  35.247  1.00  0.00    -0.014 A 
ATOM     81  C   UNL A   1      41.177  32.892  36.501  1.00  0.00     0.010 A 
ATOM     82  C   UNL A   1      42.228  34.596  35.126  1.00  0.00     0.010 A 
ATOM     83  C   UNL A   1      41.281  33.729  37.613  1.00  0.00     0.020 A 
ATOM     84  C   UNL A   1      42.360  35.424  36.241  1.00  0.00     0.020 A 
ATOM     85  C   UNL A   1      41.877  34.987  37.476  1.00  0.00     0.054 A 
BRANCH  85  86
ATOM     86  S   UNL A   1      42.057  36.030  38.949  1.00  0.00     0.124 S 
ATOM     87  O   UNL A   1      41.258  37.199  38.593  1.00  0.00    -0.237 OA
ATOM     88  O   UNL A   1      41.502  35.187  40.005  1.00  0.00    -0.237 OA
ATOM     89  O   UNL A   1      43.497  36.260  39.036  1.00  0.00    -0.744 OA
ENDBRANCH  85  86
ENDBRANCH  59  80
ENDBRANCH  33  34
ENDBRANCH  26  28
ENDBRANCH  25  26
ENDBRANCH  24  25
ENDBRANCH   1  24
TORSDOF 17
ENDMDL
