MODEL 1
REMARK VINA RESULT:     -10.9      0.000      0.000
REMARK SMILES C=CCc1cccc(-c2ccc([C@@H](C)C(=O)OCCOC(=O)c3ccc(-c4c5nc(c(-c6ccc(S(=O)(=O)[O-])cc6)c6ccc([nH]6)c(-c6ccc(S(=O)(=O)[O-])cc6)c6nc(c(-c7ccc(S(=O)(=O)[O-])cc7)c7ccc4[nH]7)C=C6)C=C5)cc3)cc2)c1
REMARK SMILES IDX 18 1 17 2 15 3 16 4 13 5 14 6 12 7 9 8 10 9 84 10 11 11
REMARK SMILES IDX 83 12 8 13 4 14 5 15 85 16 6 17 7 18 3 19 2 20 1 21 19 22
REMARK SMILES IDX 20 23 21 24 22 25 23 26 24 27 82 28 25 29 81 30 26 31 27 32
REMARK SMILES IDX 28 33 75 34 29 35 80 36 74 37 76 38 30 39 79 40 73 41 72 42
REMARK SMILES IDX 31 44 61 45 42 46 60 47 43 48 46 49 59 50 77 51 44 52 45 53
REMARK SMILES IDX 58 55 78 56 47 57 32 58 33 59 41 60 34 61 40 62 35 63 36 64
REMARK SMILES IDX 37 65 38 66 39 67 62 68 63 69 71 70 64 71 70 72 65 73 66 74
REMARK SMILES IDX 67 75 68 76 69 77 48 78 49 79 57 80 50 81 56 82 51 83 52 84
REMARK SMILES IDX 53 85 54 86 55 87
REMARK H PARENT 76 43 46 54
REMARK Flexibility Score: inf
ROOT
ATOM      1  C   UNL A   1      34.160  30.780  27.286  1.00  0.00     0.274 C 
ENDROOT
BRANCH   1   2
ATOM      2  O   UNL A   1      33.703  29.416  27.228  1.00  0.00    -0.462 OA
BRANCH   2   3
ATOM      3  C   UNL A   1      32.996  29.055  26.125  1.00  0.00     0.313 C 
ATOM      4  O   UNL A   1      33.012  29.674  25.065  1.00  0.00    -0.252 OA
BRANCH   3   5
ATOM      5  C   UNL A   1      32.113  27.831  26.332  1.00  0.00     0.126 C 
ATOM      6  C   UNL A   1      31.471  27.885  27.718  1.00  0.00     0.025 C 
BRANCH   5   7
ATOM      7  C   UNL A   1      32.757  26.484  26.040  1.00  0.00    -0.034 A 
ATOM      8  C   UNL A   1      33.941  23.942  25.556  1.00  0.00    -0.018 A 
ATOM      9  C   UNL A   1      34.538  25.123  25.090  1.00  0.00     0.009 A 
ATOM     10  C   UNL A   1      32.732  24.055  26.256  1.00  0.00     0.009 A 
ATOM     11  C   UNL A   1      33.959  26.375  25.329  1.00  0.00     0.005 A 
ATOM     12  C   UNL A   1      32.151  25.305  26.497  1.00  0.00     0.005 A 
BRANCH   8  13
ATOM     13  C   UNL A   1      34.581  22.632  25.346  1.00  0.00    -0.018 A 
ATOM     14  C   UNL A   1      34.434  20.236  24.814  1.00  0.00    -0.044 A 
ATOM     15  C   UNL A   1      35.823  20.135  24.996  1.00  0.00     0.004 A 
ATOM     16  C   UNL A   1      33.830  21.493  24.996  1.00  0.00     0.012 A 
ATOM     17  C   UNL A   1      36.585  21.249  25.337  1.00  0.00     0.001 A 
ATOM     18  C   UNL A   1      35.967  22.486  25.512  1.00  0.00     0.009 A 
BRANCH  14  19
ATOM     19  C   UNL A   1      33.672  18.973  24.470  1.00  0.00     0.062 C 
BRANCH  19  20
ATOM     20  C   UNL A   1      34.485  17.733  24.233  1.00  0.00    -0.030 C 
ATOM     21  C   UNL A   1      34.027  16.630  23.623  1.00  0.00     0.004 C 
ENDBRANCH  19  20
ENDBRANCH  14  19
ENDBRANCH   8  13
ENDBRANCH   5   7
ENDBRANCH   3   5
ENDBRANCH   2   3
ENDBRANCH   1   2
BRANCH   1  22
ATOM     22  C   UNL A   1      35.405  30.911  28.163  1.00  0.00     0.275 C 
BRANCH  22  23
ATOM     23  O   UNL A   1      36.225  29.732  28.079  1.00  0.00    -0.458 OA
BRANCH  23  24
ATOM     24  C   UNL A   1      36.942  29.452  29.192  1.00  0.00     0.338 C 
ATOM     25  O   UNL A   1      36.537  29.379  30.337  1.00  0.00    -0.246 OA
BRANCH  24  26
ATOM     26  C   UNL A   1      38.326  29.136  28.812  1.00  0.00     0.060 A 
ATOM     27  C   UNL A   1      39.200  28.693  29.808  1.00  0.00     0.016 A 
ATOM     28  C   UNL A   1      38.782  29.361  27.514  1.00  0.00     0.016 A 
ATOM     29  C   UNL A   1      40.545  28.489  29.515  1.00  0.00     0.010 A 
ATOM     30  C   UNL A   1      40.132  29.145  27.218  1.00  0.00     0.010 A 
ATOM     31  C   UNL A   1      41.024  28.724  28.220  1.00  0.00    -0.014 A 
BRANCH  31  32
ATOM     32  C   UNL A   1      42.469  28.570  27.930  1.00  0.00     0.031 A 
ATOM     33  C   UNL A   1      43.409  29.714  28.185  1.00  0.00     0.074 A 
ATOM     34  C   UNL A   1      42.937  27.401  27.456  1.00  0.00     0.049 A 
ATOM     35  N   UNL A   1      44.691  29.799  27.939  1.00  0.00    -0.248 NA
ATOM     36  C   UNL A   1      42.832  30.922  28.796  1.00  0.00     0.031 C 
ATOM     37  C   UNL A   1      42.129  26.205  27.208  1.00  0.00     0.029 A 
ATOM     38  N   UNL A   1      44.208  27.026  27.099  1.00  0.00    -0.354 N 
ATOM     39  C   UNL A   1      45.070  31.074  28.342  1.00  0.00     0.074 A 
ATOM     40  C   UNL A   1      43.881  31.732  28.839  1.00  0.00     0.031 C 
ATOM     41  C   UNL A   1      42.925  25.230  26.740  1.00  0.00     0.029 A 
ATOM     42  C   UNL A   1      44.287  25.743  26.617  1.00  0.00     0.049 A 
ATOM     43  H   UNL A   1      44.988  27.621  27.180  1.00  0.00     0.167 HD
ATOM     44  C   UNL A   1      46.299  31.643  28.300  1.00  0.00     0.031 A 
ATOM     45  C   UNL A   1      45.333  25.063  26.108  1.00  0.00     0.031 A 
ATOM     46  C   UNL A   1      47.479  30.985  27.806  1.00  0.00     0.049 A 
ATOM     47  C   UNL A   1      46.676  25.732  26.032  1.00  0.00     0.074 A 
ATOM     48  C   UNL A   1      48.772  31.478  27.729  1.00  0.00     0.029 A 
ATOM     49  N   UNL A   1      47.514  29.694  27.304  1.00  0.00    -0.354 N 
ATOM     50  N   UNL A   1      47.017  26.940  26.413  1.00  0.00    -0.248 NA
ATOM     51  C   UNL A   1      47.777  24.946  25.456  1.00  0.00     0.031 C 
ATOM     52  C   UNL A   1      49.579  30.496  27.144  1.00  0.00     0.029 A 
ATOM     53  C   UNL A   1      48.799  29.376  26.899  1.00  0.00     0.049 A 
ATOM     54  H   UNL A   1      46.739  29.090  27.245  1.00  0.00     0.167 HD
ATOM     55  C   UNL A   1      48.375  27.055  26.138  1.00  0.00     0.074 A 
ATOM     56  C   UNL A   1      48.796  25.788  25.572  1.00  0.00     0.031 C 
ATOM     57  C   UNL A   1      49.199  28.113  26.334  1.00  0.00     0.031 A 
BRANCH  44  58
ATOM     58  C   UNL A   1      46.416  33.069  28.768  1.00  0.00    -0.014 A 
ATOM     59  C   UNL A   1      46.217  34.145  27.885  1.00  0.00     0.010 A 
ATOM     60  C   UNL A   1      46.700  33.333  30.121  1.00  0.00     0.010 A 
ATOM     61  C   UNL A   1      46.339  35.461  28.339  1.00  0.00     0.020 A 
ATOM     62  C   UNL A   1      46.802  34.648  30.582  1.00  0.00     0.020 A 
ATOM     63  C   UNL A   1      46.638  35.704  29.683  1.00  0.00     0.054 A 
BRANCH  63  64
ATOM     64  S   UNL A   1      46.780  37.421  30.253  1.00  0.00     0.124 S 
ATOM     65  O   UNL A   1      47.822  37.944  29.371  1.00  0.00    -0.237 OA
ATOM     66  O   UNL A   1      45.439  37.950  30.021  1.00  0.00    -0.237 OA
ATOM     67  O   UNL A   1      47.161  37.290  31.657  1.00  0.00    -0.744 OA
ENDBRANCH  63  64
ENDBRANCH  44  58
BRANCH  45  68
ATOM     68  C   UNL A   1      45.138  23.677  25.608  1.00  0.00    -0.014 A 
ATOM     69  C   UNL A   1      44.826  23.439  24.258  1.00  0.00     0.010 A 
ATOM     70  C   UNL A   1      45.286  22.583  26.480  1.00  0.00     0.010 A 
ATOM     71  C   UNL A   1      44.657  22.131  23.792  1.00  0.00     0.020 A 
ATOM     72  C   UNL A   1      45.141  21.275  26.013  1.00  0.00     0.020 A 
ATOM     73  C   UNL A   1      44.818  21.057  24.673  1.00  0.00     0.054 A 
BRANCH  73  74
ATOM     74  S   UNL A   1      44.660  19.365  24.036  1.00  0.00     0.124 S 
ATOM     75  O   UNL A   1      45.901  18.751  24.497  1.00  0.00    -0.237 OA
ATOM     76  O   UNL A   1      43.441  18.892  24.687  1.00  0.00    -0.237 OA
ATOM     77  O   UNL A   1      44.552  19.555  22.591  1.00  0.00    -0.744 OA
ENDBRANCH  73  74
ENDBRANCH  45  68
BRANCH  57  78
ATOM     78  C   UNL A   1      50.645  27.939  25.958  1.00  0.00    -0.014 A 
ATOM     79  C   UNL A   1      51.625  27.707  26.939  1.00  0.00     0.010 A 
ATOM     80  C   UNL A   1      51.020  27.962  24.603  1.00  0.00     0.010 A 
ATOM     81  C   UNL A   1      52.962  27.530  26.571  1.00  0.00     0.020 A 
ATOM     82  C   UNL A   1      52.350  27.763  24.230  1.00  0.00     0.020 A 
ATOM     83  C   UNL A   1      53.317  27.562  25.219  1.00  0.00     0.054 A 
BRANCH  83  84
ATOM     84  S   UNL A   1      55.051  27.290  24.759  1.00  0.00     0.124 S 
ATOM     85  O   UNL A   1      54.921  26.472  23.556  1.00  0.00    -0.237 OA
ATOM     86  O   UNL A   1      55.546  28.648  24.544  1.00  0.00    -0.237 OA
ATOM     87  O   UNL A   1      55.612  26.606  25.921  1.00  0.00    -0.744 OA
ENDBRANCH  83  84
ENDBRANCH  57  78
ENDBRANCH  31  32
ENDBRANCH  24  26
ENDBRANCH  23  24
ENDBRANCH  22  23
ENDBRANCH   1  22
TORSDOF 18
ENDMDL
MODEL 2
REMARK VINA RESULT:     -10.9      3.190      4.047
REMARK SMILES C=CCc1cccc(-c2ccc([C@@H](C)C(=O)OCCOC(=O)c3ccc(-c4c5nc(c(-c6ccc(S(=O)(=O)[O-])cc6)c6ccc([nH]6)c(-c6ccc(S(=O)(=O)[O-])cc6)c6nc(c(-c7ccc(S(=O)(=O)[O-])cc7)c7ccc4[nH]7)C=C6)C=C5)cc3)cc2)c1
REMARK SMILES IDX 18 1 17 2 15 3 16 4 13 5 14 6 12 7 9 8 10 9 84 10 11 11
REMARK SMILES IDX 83 12 8 13 4 14 5 15 85 16 6 17 7 18 3 19 2 20 1 21 19 22
REMARK SMILES IDX 20 23 21 24 22 25 23 26 24 27 82 28 25 29 81 30 26 31 27 32
REMARK SMILES IDX 28 33 75 34 29 35 80 36 74 37 76 38 30 39 79 40 73 41 72 42
REMARK SMILES IDX 31 44 61 45 42 46 60 47 43 48 46 49 59 50 77 51 44 52 45 53
REMARK SMILES IDX 58 55 78 56 47 57 32 58 33 59 41 60 34 61 40 62 35 63 36 64
REMARK SMILES IDX 37 65 38 66 39 67 62 68 63 69 71 70 64 71 70 72 65 73 66 74
REMARK SMILES IDX 67 75 68 76 69 77 48 78 49 79 57 80 50 81 56 82 51 83 52 84
REMARK SMILES IDX 53 85 54 86 55 87
REMARK H PARENT 76 43 46 54
REMARK Flexibility Score: inf
ROOT
ATOM      1  C   UNL A   1      32.036  29.504  25.978  1.00  0.00     0.274 C 
ENDROOT
BRANCH   1   2
ATOM      2  O   UNL A   1      31.390  28.495  25.180  1.00  0.00    -0.462 OA
BRANCH   2   3
ATOM      3  C   UNL A   1      31.843  28.340  23.908  1.00  0.00     0.313 C 
ATOM      4  O   UNL A   1      31.127  28.395  22.912  1.00  0.00    -0.252 OA
BRANCH   3   5
ATOM      5  C   UNL A   1      33.330  28.022  23.818  1.00  0.00     0.126 C 
ATOM      6  C   UNL A   1      33.913  28.632  22.544  1.00  0.00     0.025 C 
BRANCH   5   7
ATOM      7  C   UNL A   1      33.712  26.560  23.992  1.00  0.00    -0.034 A 
ATOM      8  C   UNL A   1      34.475  23.843  24.366  1.00  0.00    -0.018 A 
ATOM      9  C   UNL A   1      34.069  24.319  23.110  1.00  0.00     0.009 A 
ATOM     10  C   UNL A   1      34.479  24.749  25.436  1.00  0.00     0.009 A 
ATOM     11  C   UNL A   1      33.695  25.655  22.923  1.00  0.00     0.005 A 
ATOM     12  C   UNL A   1      34.106  26.085  25.252  1.00  0.00     0.005 A 
BRANCH   8  13
ATOM     13  C   UNL A   1      34.916  22.450  24.546  1.00  0.00    -0.018 A 
ATOM     14  C   UNL A   1      34.408  20.060  24.818  1.00  0.00    -0.044 A 
ATOM     15  C   UNL A   1      35.783  19.804  24.935  1.00  0.00     0.004 A 
ATOM     16  C   UNL A   1      33.992  21.390  24.626  1.00  0.00     0.012 A 
ATOM     17  C   UNL A   1      36.714  20.836  24.853  1.00  0.00     0.001 A 
ATOM     18  C   UNL A   1      36.282  22.148  24.661  1.00  0.00     0.009 A 
BRANCH  14  19
ATOM     19  C   UNL A   1      33.457  18.886  24.945  1.00  0.00     0.062 C 
BRANCH  19  20
ATOM     20  C   UNL A   1      33.639  17.758  23.972  1.00  0.00    -0.030 C 
ATOM     21  C   UNL A   1      32.980  17.645  22.809  1.00  0.00     0.004 C 
ENDBRANCH  19  20
ENDBRANCH  14  19
ENDBRANCH   8  13
ENDBRANCH   5   7
ENDBRANCH   3   5
ENDBRANCH   2   3
ENDBRANCH   1   2
BRANCH   1  22
ATOM     22  C   UNL A   1      32.609  28.909  27.266  1.00  0.00     0.275 C 
BRANCH  22  23
ATOM     23  O   UNL A   1      34.043  29.021  27.296  1.00  0.00    -0.458 OA
BRANCH  23  24
ATOM     24  C   UNL A   1      34.517  30.157  27.859  1.00  0.00     0.338 C 
ATOM     25  O   UNL A   1      33.907  31.186  28.081  1.00  0.00    -0.246 OA
BRANCH  24  26
ATOM     26  C   UNL A   1      35.910  29.948  28.276  1.00  0.00     0.060 A 
ATOM     27  C   UNL A   1      36.916  30.099  27.318  1.00  0.00     0.016 A 
ATOM     28  C   UNL A   1      36.215  29.519  29.567  1.00  0.00     0.016 A 
ATOM     29  C   UNL A   1      38.237  29.802  27.642  1.00  0.00     0.010 A 
ATOM     30  C   UNL A   1      37.544  29.232  29.894  1.00  0.00     0.010 A 
ATOM     31  C   UNL A   1      38.560  29.355  28.929  1.00  0.00    -0.014 A 
BRANCH  31  32
ATOM     32  C   UNL A   1      39.957  28.977  29.249  1.00  0.00     0.031 A 
ATOM     33  C   UNL A   1      40.853  29.956  29.954  1.00  0.00     0.074 A 
ATOM     34  C   UNL A   1      40.412  27.754  28.922  1.00  0.00     0.049 A 
ATOM     35  N   UNL A   1      42.119  29.839  30.263  1.00  0.00    -0.248 NA
ATOM     36  C   UNL A   1      40.248  31.233  30.363  1.00  0.00     0.031 C 
ATOM     37  C   UNL A   1      39.624  26.704  28.273  1.00  0.00     0.029 A 
ATOM     38  N   UNL A   1      41.650  27.187  29.092  1.00  0.00    -0.354 N 
ATOM     39  C   UNL A   1      42.468  31.033  30.882  1.00  0.00     0.074 A 
ATOM     40  C   UNL A   1      41.285  31.866  30.895  1.00  0.00     0.031 C 
ATOM     41  C   UNL A   1      40.398  25.621  28.102  1.00  0.00     0.029 A 
ATOM     42  C   UNL A   1      41.744  25.912  28.589  1.00  0.00     0.049 A 
ATOM     43  H   UNL A   1      42.399  27.650  29.532  1.00  0.00     0.167 HD
ATOM     44  C   UNL A   1      43.668  31.402  31.393  1.00  0.00     0.031 A 
ATOM     45  C   UNL A   1      42.800  25.082  28.506  1.00  0.00     0.031 A 
ATOM     46  C   UNL A   1      44.842  30.571  31.380  1.00  0.00     0.049 A 
ATOM     47  C   UNL A   1      44.132  25.530  29.039  1.00  0.00     0.074 A 
ATOM     48  C   UNL A   1      46.104  30.853  31.879  1.00  0.00     0.029 A 
ATOM     49  N   UNL A   1      44.903  29.295  30.840  1.00  0.00    -0.354 N 
ATOM     50  N   UNL A   1      44.447  26.665  29.618  1.00  0.00    -0.248 NA
ATOM     51  C   UNL A   1      45.251  24.586  28.909  1.00  0.00     0.031 C 
ATOM     52  C   UNL A   1      46.936  29.762  31.606  1.00  0.00     0.029 A 
ATOM     53  C   UNL A   1      46.182  28.783  30.977  1.00  0.00     0.049 A 
ATOM     54  H   UNL A   1      44.148  28.822  30.421  1.00  0.00     0.167 HD
ATOM     55  C   UNL A   1      45.797  26.566  29.935  1.00  0.00     0.074 A 
ATOM     56  C   UNL A   1      46.234  25.255  29.498  1.00  0.00     0.031 C 
ATOM     57  C   UNL A   1      46.601  27.479  30.533  1.00  0.00     0.031 A 
BRANCH  44  58
ATOM     58  C   UNL A   1      43.776  32.786  31.975  1.00  0.00    -0.014 A 
ATOM     59  C   UNL A   1      44.163  33.881  31.183  1.00  0.00     0.010 A 
ATOM     60  C   UNL A   1      43.456  32.995  33.328  1.00  0.00     0.010 A 
ATOM     61  C   UNL A   1      44.265  35.156  31.745  1.00  0.00     0.020 A 
ATOM     62  C   UNL A   1      43.537  34.273  33.889  1.00  0.00     0.020 A 
ATOM     63  C   UNL A   1      43.958  35.343  33.097  1.00  0.00     0.054 A 
BRANCH  63  64
ATOM     64  S   UNL A   1      44.087  37.010  33.802  1.00  0.00     0.124 S 
ATOM     65  O   UNL A   1      43.427  37.819  32.780  1.00  0.00    -0.237 OA
ATOM     66  O   UNL A   1      43.363  36.882  35.064  1.00  0.00    -0.237 OA
ATOM     67  O   UNL A   1      45.526  37.221  33.932  1.00  0.00    -0.744 OA
ENDBRANCH  63  64
ENDBRANCH  44  58
BRANCH  45  68
ATOM     68  C   UNL A   1      42.642  23.749  27.865  1.00  0.00    -0.014 A 
ATOM     69  C   UNL A   1      42.812  23.594  26.479  1.00  0.00     0.010 A 
ATOM     70  C   UNL A   1      42.339  22.620  28.649  1.00  0.00     0.010 A 
ATOM     71  C   UNL A   1      42.674  22.335  25.886  1.00  0.00     0.020 A 
ATOM     72  C   UNL A   1      42.223  21.357  28.064  1.00  0.00     0.020 A 
ATOM     73  C   UNL A   1      42.383  21.224  26.684  1.00  0.00     0.054 A 
BRANCH  73  74
ATOM     74  S   UNL A   1      42.272  19.588  25.907  1.00  0.00     0.124 S 
ATOM     75  O   UNL A   1      40.885  19.561  25.453  1.00  0.00    -0.237 OA
ATOM     76  O   UNL A   1      43.281  19.666  24.853  1.00  0.00    -0.237 OA
ATOM     77  O   UNL A   1      42.593  18.671  26.998  1.00  0.00    -0.744 OA
ENDBRANCH  73  74
ENDBRANCH  45  68
BRANCH  57  78
ATOM     78  C   UNL A   1      48.032  27.082  30.773  1.00  0.00    -0.014 A 
ATOM     79  C   UNL A   1      49.048  27.453  29.874  1.00  0.00     0.010 A 
ATOM     80  C   UNL A   1      48.370  26.367  31.936  1.00  0.00     0.010 A 
ATOM     81  C   UNL A   1      50.375  27.091  30.122  1.00  0.00     0.020 A 
ATOM     82  C   UNL A   1      49.698  26.023  32.198  1.00  0.00     0.020 A 
ATOM     83  C   UNL A   1      50.691  26.375  31.281  1.00  0.00     0.054 A 
BRANCH  83  84
ATOM     84  S   UNL A   1      52.425  25.949  31.604  1.00  0.00     0.124 S 
ATOM     85  O   UNL A   1      53.019  26.069  30.275  1.00  0.00    -0.237 OA
ATOM     86  O   UNL A   1      52.835  26.967  32.569  1.00  0.00    -0.237 OA
ATOM     87  O   UNL A   1      52.353  24.591  32.135  1.00  0.00    -0.744 OA
ENDBRANCH  83  84
ENDBRANCH  57  78
ENDBRANCH  31  32
ENDBRANCH  24  26
ENDBRANCH  23  24
ENDBRANCH  22  23
ENDBRANCH   1  22
TORSDOF 18
ENDMDL
MODEL 3
REMARK VINA RESULT:     -10.6      6.418     10.124
REMARK SMILES C=CCc1cccc(-c2ccc([C@@H](C)C(=O)OCCOC(=O)c3ccc(-c4c5nc(c(-c6ccc(S(=O)(=O)[O-])cc6)c6ccc([nH]6)c(-c6ccc(S(=O)(=O)[O-])cc6)c6nc(c(-c7ccc(S(=O)(=O)[O-])cc7)c7ccc4[nH]7)C=C6)C=C5)cc3)cc2)c1
REMARK SMILES IDX 18 1 17 2 15 3 16 4 13 5 14 6 12 7 9 8 10 9 84 10 11 11
REMARK SMILES IDX 83 12 8 13 4 14 5 15 85 16 6 17 7 18 3 19 2 20 1 21 19 22
REMARK SMILES IDX 20 23 21 24 22 25 23 26 24 27 82 28 25 29 81 30 26 31 27 32
REMARK SMILES IDX 28 33 75 34 29 35 80 36 74 37 76 38 30 39 79 40 73 41 72 42
REMARK SMILES IDX 31 44 61 45 42 46 60 47 43 48 46 49 59 50 77 51 44 52 45 53
REMARK SMILES IDX 58 55 78 56 47 57 32 58 33 59 41 60 34 61 40 62 35 63 36 64
REMARK SMILES IDX 37 65 38 66 39 67 62 68 63 69 71 70 64 71 70 72 65 73 66 74
REMARK SMILES IDX 67 75 68 76 69 77 48 78 49 79 57 80 50 81 56 82 51 83 52 84
REMARK SMILES IDX 53 85 54 86 55 87
REMARK H PARENT 76 43 46 54
REMARK Flexibility Score: inf
ROOT
ATOM      1  C   UNL A   1      34.288  34.629  29.337  1.00  0.00     0.274 C 
ENDROOT
BRANCH   1   2
ATOM      2  O   UNL A   1      33.387  34.720  30.456  1.00  0.00    -0.462 OA
BRANCH   2   3
ATOM      3  C   UNL A   1      33.940  35.019  31.661  1.00  0.00     0.313 C 
ATOM      4  O   UNL A   1      33.903  36.132  32.177  1.00  0.00    -0.252 OA
BRANCH   3   5
ATOM      5  C   UNL A   1      34.681  33.854  32.306  1.00  0.00     0.126 C 
ATOM      6  C   UNL A   1      33.798  33.207  33.372  1.00  0.00     0.025 C 
BRANCH   5   7
ATOM      7  C   UNL A   1      36.084  34.153  32.812  1.00  0.00    -0.034 A 
ATOM      8  C   UNL A   1      38.735  34.679  33.704  1.00  0.00    -0.018 A 
ATOM      9  C   UNL A   1      37.700  34.413  34.613  1.00  0.00     0.009 A 
ATOM     10  C   UNL A   1      38.415  34.692  32.339  1.00  0.00     0.009 A 
ATOM     11  C   UNL A   1      36.397  34.152  34.178  1.00  0.00     0.005 A 
ATOM     12  C   UNL A   1      37.112  34.430  31.900  1.00  0.00     0.005 A 
BRANCH   8  13
ATOM     13  C   UNL A   1      40.116  34.903  34.165  1.00  0.00    -0.018 A 
ATOM     14  C   UNL A   1      42.533  34.507  33.963  1.00  0.00    -0.044 A 
ATOM     15  C   UNL A   1      42.737  35.312  35.095  1.00  0.00     0.004 A 
ATOM     16  C   UNL A   1      41.215  34.311  33.513  1.00  0.00     0.012 A 
ATOM     17  C   UNL A   1      41.665  35.910  35.752  1.00  0.00     0.001 A 
ATOM     18  C   UNL A   1      40.366  35.705  35.289  1.00  0.00     0.009 A 
BRANCH  14  19
ATOM     19  C   UNL A   1      43.749  33.869  33.321  1.00  0.00     0.062 C 
BRANCH  19  20
ATOM     20  C   UNL A   1      43.997  32.421  33.627  1.00  0.00    -0.030 C 
ATOM     21  C   UNL A   1      44.359  31.503  32.718  1.00  0.00     0.004 C 
ENDBRANCH  19  20
ENDBRANCH  14  19
ENDBRANCH   8  13
ENDBRANCH   5   7
ENDBRANCH   3   5
ENDBRANCH   2   3
ENDBRANCH   1   2
BRANCH   1  22
ATOM     22  C   UNL A   1      33.759  33.662  28.277  1.00  0.00     0.275 C 
BRANCH  22  23
ATOM     23  O   UNL A   1      34.836  32.956  27.635  1.00  0.00    -0.458 OA
BRANCH  23  24
ATOM     24  C   UNL A   1      34.750  31.606  27.689  1.00  0.00     0.338 C 
ATOM     25  O   UNL A   1      33.861  30.901  27.248  1.00  0.00    -0.246 OA
BRANCH  24  26
ATOM     26  C   UNL A   1      35.974  31.065  28.295  1.00  0.00     0.060 A 
ATOM     27  C   UNL A   1      35.950  29.752  28.773  1.00  0.00     0.016 A 
ATOM     28  C   UNL A   1      37.101  31.867  28.474  1.00  0.00     0.016 A 
ATOM     29  C   UNL A   1      37.050  29.238  29.452  1.00  0.00     0.010 A 
ATOM     30  C   UNL A   1      38.210  31.345  29.147  1.00  0.00     0.010 A 
ATOM     31  C   UNL A   1      38.185  30.034  29.655  1.00  0.00    -0.014 A 
BRANCH  31  32
ATOM     32  C   UNL A   1      39.327  29.503  30.436  1.00  0.00     0.031 A 
ATOM     33  C   UNL A   1      39.571  30.001  31.833  1.00  0.00     0.074 A 
ATOM     34  C   UNL A   1      40.129  28.567  29.900  1.00  0.00     0.049 A 
ATOM     35  N   UNL A   1      40.548  29.709  32.653  1.00  0.00    -0.248 NA
ATOM     36  C   UNL A   1      38.590  30.951  32.379  1.00  0.00     0.031 C 
ATOM     37  C   UNL A   1      39.968  27.976  28.569  1.00  0.00     0.029 A 
ATOM     38  N   UNL A   1      41.242  27.946  30.408  1.00  0.00    -0.354 N 
ATOM     39  C   UNL A   1      40.314  30.455  33.801  1.00  0.00     0.074 A 
ATOM     40  C   UNL A   1      39.108  31.222  33.570  1.00  0.00     0.031 C 
ATOM     41  C   UNL A   1      40.945  27.078  28.369  1.00  0.00     0.029 A 
ATOM     42  C   UNL A   1      41.824  27.059  29.535  1.00  0.00     0.049 A 
ATOM     43  H   UNL A   1      41.590  28.120  31.313  1.00  0.00     0.167 HD
ATOM     44  C   UNL A   1      41.039  30.498  34.945  1.00  0.00     0.031 A 
ATOM     45  C   UNL A   1      42.952  26.333  29.651  1.00  0.00     0.031 A 
ATOM     46  C   UNL A   1      42.237  29.734  35.172  1.00  0.00     0.049 A 
ATOM     47  C   UNL A   1      43.763  26.430  30.912  1.00  0.00     0.074 A 
ATOM     48  C   UNL A   1      43.039  29.704  36.301  1.00  0.00     0.029 A 
ATOM     49  N   UNL A   1      42.807  28.865  34.254  1.00  0.00    -0.354 N 
ATOM     50  N   UNL A   1      43.530  27.144  31.988  1.00  0.00    -0.248 NA
ATOM     51  C   UNL A   1      44.991  25.624  30.976  1.00  0.00     0.031 C 
ATOM     52  C   UNL A   1      44.115  28.845  36.050  1.00  0.00     0.029 A 
ATOM     53  C   UNL A   1      43.959  28.306  34.782  1.00  0.00     0.049 A 
ATOM     54  H   UNL A   1      42.447  28.672  33.359  1.00  0.00     0.167 HD
ATOM     55  C   UNL A   1      44.573  26.862  32.862  1.00  0.00     0.074 A 
ATOM     56  C   UNL A   1      45.430  25.901  32.197  1.00  0.00     0.031 C 
ATOM     57  C   UNL A   1      44.802  27.355  34.104  1.00  0.00     0.031 A 
BRANCH  44  58
ATOM     58  C   UNL A   1      40.573  31.436  36.025  1.00  0.00    -0.014 A 
ATOM     59  C   UNL A   1      39.210  31.554  36.349  1.00  0.00     0.010 A 
ATOM     60  C   UNL A   1      41.518  32.190  36.744  1.00  0.00     0.010 A 
ATOM     61  C   UNL A   1      38.797  32.438  37.350  1.00  0.00     0.020 A 
ATOM     62  C   UNL A   1      41.110  33.060  37.759  1.00  0.00     0.020 A 
ATOM     63  C   UNL A   1      39.749  33.191  38.043  1.00  0.00     0.054 A 
BRANCH  63  64
ATOM     64  S   UNL A   1      39.191  34.324  39.346  1.00  0.00     0.124 S 
ATOM     65  O   UNL A   1      37.969  33.670  39.808  1.00  0.00    -0.237 OA
ATOM     66  O   UNL A   1      40.306  34.307  40.288  1.00  0.00    -0.237 OA
ATOM     67  O   UNL A   1      38.993  35.589  38.644  1.00  0.00    -0.744 OA
ENDBRANCH  63  64
ENDBRANCH  44  58
BRANCH  45  68
ATOM     68  C   UNL A   1      43.390  25.468  28.523  1.00  0.00    -0.014 A 
ATOM     69  C   UNL A   1      44.440  25.869  27.679  1.00  0.00     0.010 A 
ATOM     70  C   UNL A   1      42.770  24.225  28.304  1.00  0.00     0.010 A 
ATOM     71  C   UNL A   1      44.855  25.044  26.628  1.00  0.00     0.020 A 
ATOM     72  C   UNL A   1      43.198  23.388  27.270  1.00  0.00     0.020 A 
ATOM     73  C   UNL A   1      44.232  23.807  26.432  1.00  0.00     0.054 A 
BRANCH  73  74
ATOM     74  S   UNL A   1      44.828  22.722  25.105  1.00  0.00     0.124 S 
ATOM     75  O   UNL A   1      46.003  22.110  25.718  1.00  0.00    -0.237 OA
ATOM     76  O   UNL A   1      43.691  21.831  24.887  1.00  0.00    -0.237 OA
ATOM     77  O   UNL A   1      45.103  23.647  24.008  1.00  0.00    -0.744 OA
ENDBRANCH  73  74
ENDBRANCH  45  68
BRANCH  57  78
ATOM     78  C   UNL A   1      46.013  26.845  34.836  1.00  0.00    -0.014 A 
ATOM     79  C   UNL A   1      47.239  27.529  34.772  1.00  0.00     0.010 A 
ATOM     80  C   UNL A   1      45.910  25.690  35.632  1.00  0.00     0.010 A 
ATOM     81  C   UNL A   1      48.351  27.050  35.472  1.00  0.00     0.020 A 
ATOM     82  C   UNL A   1      47.012  25.221  36.350  1.00  0.00     0.020 A 
ATOM     83  C   UNL A   1      48.231  25.897  36.254  1.00  0.00     0.054 A 
BRANCH  83  84
ATOM     84  S   UNL A   1      49.674  25.315  37.187  1.00  0.00     0.124 S 
ATOM     85  O   UNL A   1      50.445  26.544  37.351  1.00  0.00    -0.237 OA
ATOM     86  O   UNL A   1      49.076  24.780  38.408  1.00  0.00    -0.237 OA
ATOM     87  O   UNL A   1      50.273  24.316  36.306  1.00  0.00    -0.744 OA
ENDBRANCH  83  84
ENDBRANCH  57  78
ENDBRANCH  31  32
ENDBRANCH  24  26
ENDBRANCH  23  24
ENDBRANCH  22  23
ENDBRANCH   1  22
TORSDOF 18
ENDMDL
