MODEL 1
REMARK VINA RESULT:     -11.7      0.000      0.000
REMARK SMILES O=C(OCCOC(=O)[C@H](Cc1ccc(O)cc1)NC(=O)c1ccc(Cl)s1)c1ccc(-c2c3nc(c(-c4ccc(S(=O)(=O)[O-])cc4)c4ccc([nH]4)c(-c4ccc(S(=O)(=O)[O-])cc4)c4nc(c(-c5ccc(S(=O)(=O)[O-])cc5)c5ccc2[nH]5)C=C4)C=C3)cc1
REMARK SMILES IDX 4 1 3 2 2 3 1 4 27 5 28 6 86 7 29 8 85 9 30 10 31 11 32 12
REMARK SMILES IDX 79 13 33 14 84 15 78 16 80 17 34 18 83 19 77 20 76 21 35 23
REMARK SMILES IDX 65 24 46 25 64 26 47 27 50 28 63 29 81 30 48 31 49 32 62 34
REMARK SMILES IDX 82 35 51 36 36 37 37 38 45 39 38 40 44 41 39 42 40 43 41 44
REMARK SMILES IDX 42 45 43 46 66 47 67 48 75 49 68 50 74 51 69 52 70 53 71 54
REMARK SMILES IDX 72 55 73 56 52 57 53 58 61 59 54 60 60 61 55 62 56 63 57 64
REMARK SMILES IDX 58 65 59 66 5 67 6 68 7 69 8 70 9 71 18 72 19 73 20 75 21 76
REMARK SMILES IDX 22 77 26 78 23 79 24 80 25 81 10 82 11 83 12 84 17 85 13 86
REMARK SMILES IDX 16 87 14 88 15 89
REMARK H PARENT 80 22 50 33 18 74 15 90
REMARK Flexibility Score: inf
ROOT
ATOM      1  C   UNL A   1      33.341  30.662  27.237  1.00  0.00     0.275 C 
ENDROOT
BRANCH   1   2
ATOM      2  O   UNL A   1      32.959  32.043  27.365  1.00  0.00    -0.458 OA
BRANCH   2   3
ATOM      3  C   UNL A   1      33.438  32.994  28.202  1.00  0.00     0.338 C 
ATOM      4  O   UNL A   1      32.880  34.092  28.189  1.00  0.00    -0.246 OA
BRANCH   3   5
ATOM      5  C   UNL A   1      34.699  32.867  29.020  1.00  0.00     0.060 A 
ATOM      6  C   UNL A   1      34.904  32.110  30.163  1.00  0.00     0.016 A 
ATOM      7  C   UNL A   1      35.838  33.443  28.451  1.00  0.00     0.016 A 
ATOM      8  C   UNL A   1      36.202  31.707  30.514  1.00  0.00     0.010 A 
ATOM      9  C   UNL A   1      37.112  32.898  28.668  1.00  0.00     0.010 A 
ATOM     10  C   UNL A   1      37.295  31.923  29.647  1.00  0.00    -0.014 A 
BRANCH  10  11
ATOM     11  C   UNL A   1      38.832  31.137  29.835  1.00  0.00     0.031 A 
ATOM     12  C   UNL A   1      38.990  31.842  31.545  1.00  0.00     0.074 A 
ATOM     13  C   UNL A   1      39.847  29.777  28.961  1.00  0.00     0.049 A 
ATOM     14  N   UNL A   1      39.513  31.191  32.573  1.00  0.00    -0.248 NA
ATOM     15  C   UNL A   1      38.568  33.200  31.936  1.00  0.00     0.031 C 
ATOM     16  C   UNL A   1      39.560  28.621  27.730  1.00  0.00     0.029 A 
ATOM     17  N   UNL A   1      41.118  28.964  29.316  1.00  0.00    -0.354 N 
ATOM     18  C   UNL A   1      39.692  32.070  33.592  1.00  0.00     0.074 A 
ATOM     19  C   UNL A   1      38.962  33.260  33.212  1.00  0.00     0.031 C 
ATOM     20  C   UNL A   1      40.487  27.670  27.615  1.00  0.00     0.029 A 
ATOM     21  C   UNL A   1      41.441  27.828  28.654  1.00  0.00     0.049 A 
ATOM     22  H   UNL A   1      41.705  29.282  30.040  1.00  0.00     0.167 HD
ATOM     23  C   UNL A   1      40.499  31.900  34.665  1.00  0.00     0.031 A 
ATOM     24  C   UNL A   1      42.423  26.972  28.973  1.00  0.00     0.031 A 
ATOM     25  C   UNL A   1      41.503  30.850  34.826  1.00  0.00     0.049 A 
ATOM     26  C   UNL A   1      43.063  27.100  30.333  1.00  0.00     0.074 A 
ATOM     27  C   UNL A   1      42.373  30.697  35.891  1.00  0.00     0.029 A 
ATOM     28  N   UNL A   1      41.864  29.852  33.900  1.00  0.00    -0.354 N 
ATOM     29  N   UNL A   1      42.723  27.879  31.347  1.00  0.00    -0.248 NA
ATOM     30  C   UNL A   1      44.172  26.195  30.604  1.00  0.00     0.031 C 
ATOM     31  C   UNL A   1      43.324  29.726  35.555  1.00  0.00     0.029 A 
ATOM     32  C   UNL A   1      43.020  29.179  34.311  1.00  0.00     0.049 A 
ATOM     33  H   UNL A   1      41.368  29.654  33.072  1.00  0.00     0.167 HD
ATOM     34  C   UNL A   1      43.599  27.573  32.387  1.00  0.00     0.074 A 
ATOM     35  C   UNL A   1      44.418  26.472  31.876  1.00  0.00     0.031 C 
ATOM     36  C   UNL A   1      43.767  28.115  33.632  1.00  0.00     0.031 A 
BRANCH  23  37
ATOM     37  C   UNL A   1      40.326  32.938  35.734  1.00  0.00    -0.014 A 
ATOM     38  C   UNL A   1      39.343  32.724  36.719  1.00  0.00     0.010 A 
ATOM     39  C   UNL A   1      41.120  34.094  35.790  1.00  0.00     0.010 A 
ATOM     40  C   UNL A   1      39.147  33.653  37.736  1.00  0.00     0.020 A 
ATOM     41  C   UNL A   1      40.943  35.019  36.825  1.00  0.00     0.020 A 
ATOM     42  C   UNL A   1      39.952  34.793  37.787  1.00  0.00     0.054 A 
BRANCH  42  43
ATOM     43  S   UNL A   1      39.696  35.948  39.159  1.00  0.00     0.124 S 
ATOM     44  O   UNL A   1      41.026  36.001  39.761  1.00  0.00    -0.237 OA
ATOM     45  O   UNL A   1      39.270  37.163  38.470  1.00  0.00    -0.237 OA
ATOM     46  O   UNL A   1      38.669  35.301  39.972  1.00  0.00    -0.744 OA
ENDBRANCH  42  43
ENDBRANCH  23  37
BRANCH  24  47
ATOM     47  C   UNL A   1      42.813  26.000  27.930  1.00  0.00    -0.014 A 
ATOM     48  C   UNL A   1      43.764  26.278  26.942  1.00  0.00     0.010 A 
ATOM     49  C   UNL A   1      42.293  24.689  28.045  1.00  0.00     0.010 A 
ATOM     50  C   UNL A   1      44.195  25.254  26.091  1.00  0.00     0.020 A 
ATOM     51  C   UNL A   1      42.747  23.663  27.226  1.00  0.00     0.020 A 
ATOM     52  C   UNL A   1      43.691  23.955  26.246  1.00  0.00     0.054 A 
BRANCH  52  53
ATOM     53  S   UNL A   1      44.320  22.632  25.181  1.00  0.00     0.124 S 
ATOM     54  O   UNL A   1      45.431  22.113  25.972  1.00  0.00    -0.237 OA
ATOM     55  O   UNL A   1      43.161  21.751  25.057  1.00  0.00    -0.237 OA
ATOM     56  O   UNL A   1      44.699  23.328  23.952  1.00  0.00    -0.744 OA
ENDBRANCH  52  53
ENDBRANCH  24  47
BRANCH  36  57
ATOM     57  C   UNL A   1      44.912  27.494  34.426  1.00  0.00    -0.014 A 
ATOM     58  C   UNL A   1      44.705  26.396  35.289  1.00  0.00     0.010 A 
ATOM     59  C   UNL A   1      46.206  28.038  34.323  1.00  0.00     0.010 A 
ATOM     60  C   UNL A   1      45.744  25.920  36.098  1.00  0.00     0.020 A 
ATOM     61  C   UNL A   1      47.258  27.531  35.093  1.00  0.00     0.020 A 
ATOM     62  C   UNL A   1      47.012  26.499  35.999  1.00  0.00     0.054 A 
BRANCH  62  63
ATOM     63  S   UNL A   1      48.340  25.880  37.070  1.00  0.00     0.124 S 
ATOM     64  O   UNL A   1      48.145  26.668  38.283  1.00  0.00    -0.237 OA
ATOM     65  O   UNL A   1      48.023  24.458  37.185  1.00  0.00    -0.237 OA
ATOM     66  O   UNL A   1      49.558  26.183  36.321  1.00  0.00    -0.744 OA
ENDBRANCH  62  63
ENDBRANCH  36  57
ENDBRANCH  10  11
ENDBRANCH   3   5
ENDBRANCH   2   3
ENDBRANCH   1   2
BRANCH   1  67
ATOM     67  C   UNL A   1      32.464  29.835  26.289  1.00  0.00     0.274 C 
BRANCH  67  68
ATOM     68  O   UNL A   1      32.700  28.428  26.431  1.00  0.00    -0.461 OA
BRANCH  68  69
ATOM     69  C   UNL A   1      31.670  27.639  26.879  1.00  0.00     0.329 C 
ATOM     70  O   UNL A   1      31.047  27.824  27.915  1.00  0.00    -0.250 OA
BRANCH  69  71
ATOM     71  C   UNL A   1      31.527  26.423  25.952  1.00  0.00     0.197 C 
BRANCH  71  72
ATOM     72  N   UNL A   1      31.501  25.296  26.836  1.00  0.00    -0.338 N 
ATOM     73  C   UNL A   1      31.477  23.973  26.553  1.00  0.00     0.262 C 
ATOM     74  H   UNL A   1      31.502  25.517  27.796  1.00  0.00     0.164 HD
ATOM     75  O   UNL A   1      30.974  23.338  27.488  1.00  0.00    -0.268 OA
BRANCH  73  76
ATOM     76  C   UNL A   1      31.922  23.355  25.250  1.00  0.00     0.093 A 
ATOM     77  C   UNL A   1      31.597  23.665  23.438  1.00  0.00     0.027 A 
ATOM     78  S   UNL A   1      34.168  22.831  25.623  1.00  0.00    -0.118 S 
ATOM     79  C   UNL A   1      33.259  23.504  22.322  1.00  0.00     0.033 A 
ATOM     80  C   UNL A   1      34.740  23.043  23.371  1.00  0.00     0.094 A 
ATOM     81  Cl  UNL A   1      36.481  23.000  23.252  1.00  0.00    -0.072 Cl
ENDBRANCH  73  76
ENDBRANCH  71  72
BRANCH  71  82
ATOM     82  C   UNL A   1      30.266  26.440  25.046  1.00  0.00     0.072 C 
BRANCH  82  83
ATOM     83  C   UNL A   1      30.218  27.524  23.968  1.00  0.00    -0.045 A 
ATOM     84  C   UNL A   1      31.354  28.019  23.311  1.00  0.00     0.007 A 
ATOM     85  C   UNL A   1      28.979  28.009  23.538  1.00  0.00     0.007 A 
ATOM     86  C   UNL A   1      31.239  28.990  22.294  1.00  0.00     0.046 A 
ATOM     87  C   UNL A   1      28.859  29.041  22.601  1.00  0.00     0.046 A 
ATOM     88  C   UNL A   1      29.992  29.512  21.967  1.00  0.00     0.115 A 
BRANCH  88  89
ATOM     89  O   UNL A   1      29.820  30.455  20.997  1.00  0.00    -0.508 OA
ATOM     90  H   UNL A   1      30.055  31.347  21.164  1.00  0.00     0.293 HD
ENDBRANCH  88  89
ENDBRANCH  82  83
ENDBRANCH  71  82
ENDBRANCH  69  71
ENDBRANCH  68  69
ENDBRANCH  67  68
ENDBRANCH   1  67
TORSDOF 19
ENDMDL
MODEL 2
REMARK VINA RESULT:     -11.4      2.293      3.039
REMARK SMILES O=C(OCCOC(=O)[C@H](Cc1ccc(O)cc1)NC(=O)c1ccc(Cl)s1)c1ccc(-c2c3nc(c(-c4ccc(S(=O)(=O)[O-])cc4)c4ccc([nH]4)c(-c4ccc(S(=O)(=O)[O-])cc4)c4nc(c(-c5ccc(S(=O)(=O)[O-])cc5)c5ccc2[nH]5)C=C4)C=C3)cc1
REMARK SMILES IDX 4 1 3 2 2 3 1 4 27 5 28 6 86 7 29 8 85 9 30 10 31 11 32 12
REMARK SMILES IDX 79 13 33 14 84 15 78 16 80 17 34 18 83 19 77 20 76 21 35 23
REMARK SMILES IDX 65 24 46 25 64 26 47 27 50 28 63 29 81 30 48 31 49 32 62 34
REMARK SMILES IDX 82 35 51 36 36 37 37 38 45 39 38 40 44 41 39 42 40 43 41 44
REMARK SMILES IDX 42 45 43 46 66 47 67 48 75 49 68 50 74 51 69 52 70 53 71 54
REMARK SMILES IDX 72 55 73 56 52 57 53 58 61 59 54 60 60 61 55 62 56 63 57 64
REMARK SMILES IDX 58 65 59 66 5 67 6 68 7 69 8 70 9 71 18 72 19 73 20 75 21 76
REMARK SMILES IDX 22 77 26 78 23 79 24 80 25 81 10 82 11 83 12 84 17 85 13 86
REMARK SMILES IDX 16 87 14 88 15 89
REMARK H PARENT 80 22 50 33 18 74 15 90
REMARK Flexibility Score: inf
ROOT
ATOM      1  C   UNL A   1      33.333  29.512  25.903  1.00  0.00     0.275 C 
ENDROOT
BRANCH   1   2
ATOM      2  O   UNL A   1      33.621  29.930  27.249  1.00  0.00    -0.458 OA
BRANCH   2   3
ATOM      3  C   UNL A   1      34.491  30.869  27.691  1.00  0.00     0.338 C 
ATOM      4  O   UNL A   1      34.323  32.025  27.297  1.00  0.00    -0.246 OA
BRANCH   3   5
ATOM      5  C   UNL A   1      35.739  30.583  28.487  1.00  0.00     0.060 A 
ATOM      6  C   UNL A   1      35.882  29.744  29.581  1.00  0.00     0.016 A 
ATOM      7  C   UNL A   1      36.922  31.089  27.940  1.00  0.00     0.016 A 
ATOM      8  C   UNL A   1      37.141  29.208  29.893  1.00  0.00     0.010 A 
ATOM      9  C   UNL A   1      38.143  30.422  28.112  1.00  0.00     0.010 A 
ATOM     10  C   UNL A   1      38.244  29.378  29.029  1.00  0.00    -0.014 A 
BRANCH  10  11
ATOM     11  C   UNL A   1      39.707  28.449  29.154  1.00  0.00     0.031 A 
ATOM     12  C   UNL A   1      40.169  29.374  30.697  1.00  0.00     0.074 A 
ATOM     13  C   UNL A   1      40.451  26.864  28.396  1.00  0.00     0.049 A 
ATOM     14  N   UNL A   1      40.761  28.823  31.745  1.00  0.00    -0.248 NA
ATOM     15  C   UNL A   1      39.942  30.816  30.911  1.00  0.00     0.031 C 
ATOM     16  C   UNL A   1      39.882  25.582  27.411  1.00  0.00     0.029 A 
ATOM     17  N   UNL A   1      41.670  25.965  28.720  1.00  0.00    -0.354 N 
ATOM     18  C   UNL A   1      41.166  29.815  32.579  1.00  0.00     0.074 A 
ATOM     19  C   UNL A   1      40.513  31.015  32.104  1.00  0.00     0.031 C 
ATOM     20  C   UNL A   1      40.685  24.520  27.340  1.00  0.00     0.029 A 
ATOM     21  C   UNL A   1      41.784  24.714  28.216  1.00  0.00     0.049 A 
ATOM     22  H   UNL A   1      42.381  26.314  29.307  1.00  0.00     0.167 HD
ATOM     23  C   UNL A   1      42.092  29.709  33.560  1.00  0.00     0.031 A 
ATOM     24  C   UNL A   1      42.711  23.802  28.549  1.00  0.00     0.031 A 
ATOM     25  C   UNL A   1      42.999  28.582  33.766  1.00  0.00     0.049 A 
ATOM     26  C   UNL A   1      43.542  24.052  29.782  1.00  0.00     0.074 A 
ATOM     27  C   UNL A   1      43.989  28.484  34.728  1.00  0.00     0.029 A 
ATOM     28  N   UNL A   1      43.127  27.422  32.976  1.00  0.00    -0.354 N 
ATOM     29  N   UNL A   1      43.425  25.006  30.691  1.00  0.00    -0.248 NA
ATOM     30  C   UNL A   1      44.581  23.069  30.060  1.00  0.00     0.031 C 
ATOM     31  C   UNL A   1      44.783  27.366  34.441  1.00  0.00     0.029 A 
ATOM     32  C   UNL A   1      44.256  26.683  33.348  1.00  0.00     0.049 A 
ATOM     33  H   UNL A   1      42.505  27.165  32.258  1.00  0.00     0.167 HD
ATOM     34  C   UNL A   1      44.401  24.754  31.653  1.00  0.00     0.074 A 
ATOM     35  C   UNL A   1      45.028  23.499  31.231  1.00  0.00     0.031 C 
ATOM     36  C   UNL A   1      44.793  25.448  32.764  1.00  0.00     0.031 A 
BRANCH  23  37
ATOM     37  C   UNL A   1      42.173  30.906  34.460  1.00  0.00    -0.014 A 
ATOM     38  C   UNL A   1      41.257  31.003  35.525  1.00  0.00     0.010 A 
ATOM     39  C   UNL A   1      43.137  31.911  34.285  1.00  0.00     0.010 A 
ATOM     40  C   UNL A   1      41.294  32.090  36.393  1.00  0.00     0.020 A 
ATOM     41  C   UNL A   1      43.193  32.994  35.169  1.00  0.00     0.020 A 
ATOM     42  C   UNL A   1      42.266  33.077  36.214  1.00  0.00     0.054 A 
BRANCH  42  43
ATOM     43  S   UNL A   1      42.309  34.446  37.399  1.00  0.00     0.124 S 
ATOM     44  O   UNL A   1      41.303  35.352  36.849  1.00  0.00    -0.237 OA
ATOM     45  O   UNL A   1      41.943  33.789  38.651  1.00  0.00    -0.237 OA
ATOM     46  O   UNL A   1      43.686  34.926  37.327  1.00  0.00    -0.744 OA
ENDBRANCH  42  43
ENDBRANCH  23  37
BRANCH  24  47
ATOM     47  C   UNL A   1      42.854  22.647  27.637  1.00  0.00    -0.014 A 
ATOM     48  C   UNL A   1      43.814  22.590  26.621  1.00  0.00     0.010 A 
ATOM     49  C   UNL A   1      42.069  21.505  27.917  1.00  0.00     0.010 A 
ATOM     50  C   UNL A   1      43.992  21.399  25.906  1.00  0.00     0.020 A 
ATOM     51  C   UNL A   1      42.269  20.311  27.235  1.00  0.00     0.020 A 
ATOM     52  C   UNL A   1      43.226  20.269  26.225  1.00  0.00     0.054 A 
BRANCH  52  53
ATOM     53  S   UNL A   1      43.528  18.721  25.335  1.00  0.00     0.124 S 
ATOM     54  O   UNL A   1      44.816  18.307  25.882  1.00  0.00    -0.237 OA
ATOM     55  O   UNL A   1      42.379  17.906  25.727  1.00  0.00    -0.237 OA
ATOM     56  O   UNL A   1      43.545  19.126  23.931  1.00  0.00    -0.744 OA
ENDBRANCH  52  53
ENDBRANCH  24  47
BRANCH  36  57
ATOM     57  C   UNL A   1      45.969  24.818  33.504  1.00  0.00    -0.014 A 
ATOM     58  C   UNL A   1      47.303  25.182  33.220  1.00  0.00     0.010 A 
ATOM     59  C   UNL A   1      45.730  23.828  34.475  1.00  0.00     0.010 A 
ATOM     60  C   UNL A   1      48.369  24.505  33.823  1.00  0.00     0.020 A 
ATOM     61  C   UNL A   1      46.794  23.186  35.117  1.00  0.00     0.020 A 
ATOM     62  C   UNL A   1      48.105  23.504  34.763  1.00  0.00     0.054 A 
BRANCH  62  63
ATOM     63  S   UNL A   1      49.501  22.626  35.519  1.00  0.00     0.124 S 
ATOM     64  O   UNL A   1      49.455  23.110  36.896  1.00  0.00    -0.237 OA
ATOM     65  O   UNL A   1      49.136  21.223  35.333  1.00  0.00    -0.237 OA
ATOM     66  O   UNL A   1      50.654  23.073  34.741  1.00  0.00    -0.744 OA
ENDBRANCH  62  63
ENDBRANCH  36  57
ENDBRANCH  10  11
ENDBRANCH   3   5
ENDBRANCH   2   3
ENDBRANCH   1   2
BRANCH   1  67
ATOM     67  C   UNL A   1      33.654  28.043  25.600  1.00  0.00     0.274 C 
BRANCH  67  68
ATOM     68  O   UNL A   1      33.148  27.165  26.614  1.00  0.00    -0.461 OA
BRANCH  68  69
ATOM     69  C   UNL A   1      31.787  27.033  26.737  1.00  0.00     0.329 C 
ATOM     70  O   UNL A   1      31.088  27.687  27.498  1.00  0.00    -0.250 OA
BRANCH  69  71
ATOM     71  C   UNL A   1      31.315  25.849  25.880  1.00  0.00     0.197 C 
BRANCH  71  72
ATOM     72  N   UNL A   1      31.118  24.782  26.816  1.00  0.00    -0.338 N 
ATOM     73  C   UNL A   1      31.650  23.538  26.835  1.00  0.00     0.262 C 
ATOM     74  H   UNL A   1      30.503  24.985  27.557  1.00  0.00     0.164 HD
ATOM     75  O   UNL A   1      30.915  22.761  27.457  1.00  0.00    -0.268 OA
BRANCH  73  76
ATOM     76  C   UNL A   1      32.920  23.125  26.132  1.00  0.00     0.093 A 
ATOM     77  C   UNL A   1      34.737  23.085  26.556  1.00  0.00     0.027 A 
ATOM     78  S   UNL A   1      32.295  21.217  24.936  1.00  0.00    -0.118 S 
ATOM     79  C   UNL A   1      35.640  21.412  25.910  1.00  0.00     0.033 A 
ATOM     80  C   UNL A   1      34.439  20.301  24.998  1.00  0.00     0.094 A 
ATOM     81  Cl  UNL A   1      34.339  18.655  24.424  1.00  0.00    -0.072 Cl
ENDBRANCH  73  76
ENDBRANCH  71  72
BRANCH  71  82
ATOM     82  C   UNL A   1      30.021  26.111  25.064  1.00  0.00     0.072 C 
BRANCH  82  83
ATOM     83  C   UNL A   1      30.090  27.224  24.016  1.00  0.00    -0.045 A 
ATOM     84  C   UNL A   1      31.276  27.623  23.384  1.00  0.00     0.007 A 
ATOM     85  C   UNL A   1      28.909  27.838  23.589  1.00  0.00     0.007 A 
ATOM     86  C   UNL A   1      31.268  28.628  22.393  1.00  0.00     0.046 A 
ATOM     87  C   UNL A   1      28.901  28.901  22.680  1.00  0.00     0.046 A 
ATOM     88  C   UNL A   1      30.081  29.277  22.069  1.00  0.00     0.115 A 
BRANCH  88  89
ATOM     89  O   UNL A   1      30.013  30.258  21.125  1.00  0.00    -0.508 OA
ATOM     90  H   UNL A   1      30.752  30.813  20.971  1.00  0.00     0.293 HD
ENDBRANCH  88  89
ENDBRANCH  82  83
ENDBRANCH  71  82
ENDBRANCH  69  71
ENDBRANCH  68  69
ENDBRANCH  67  68
ENDBRANCH   1  67
TORSDOF 19
ENDMDL
MODEL 3
REMARK VINA RESULT:     -11.4      3.096      9.226
REMARK SMILES O=C(OCCOC(=O)[C@H](Cc1ccc(O)cc1)NC(=O)c1ccc(Cl)s1)c1ccc(-c2c3nc(c(-c4ccc(S(=O)(=O)[O-])cc4)c4ccc([nH]4)c(-c4ccc(S(=O)(=O)[O-])cc4)c4nc(c(-c5ccc(S(=O)(=O)[O-])cc5)c5ccc2[nH]5)C=C4)C=C3)cc1
REMARK SMILES IDX 4 1 3 2 2 3 1 4 27 5 28 6 86 7 29 8 85 9 30 10 31 11 32 12
REMARK SMILES IDX 79 13 33 14 84 15 78 16 80 17 34 18 83 19 77 20 76 21 35 23
REMARK SMILES IDX 65 24 46 25 64 26 47 27 50 28 63 29 81 30 48 31 49 32 62 34
REMARK SMILES IDX 82 35 51 36 36 37 37 38 45 39 38 40 44 41 39 42 40 43 41 44
REMARK SMILES IDX 42 45 43 46 66 47 67 48 75 49 68 50 74 51 69 52 70 53 71 54
REMARK SMILES IDX 72 55 73 56 52 57 53 58 61 59 54 60 60 61 55 62 56 63 57 64
REMARK SMILES IDX 58 65 59 66 5 67 6 68 7 69 8 70 9 71 18 72 19 73 20 75 21 76
REMARK SMILES IDX 22 77 26 78 23 79 24 80 25 81 10 82 11 83 12 84 17 85 13 86
REMARK SMILES IDX 16 87 14 88 15 89
REMARK H PARENT 80 22 50 33 18 74 15 90
REMARK Flexibility Score: inf
ROOT
ATOM      1  C   UNL A   1      37.768  23.446  25.812  1.00  0.00     0.275 C 
ENDROOT
BRANCH   1   2
ATOM      2  O   UNL A   1      38.970  23.360  26.598  1.00  0.00    -0.458 OA
BRANCH   2   3
ATOM      3  C   UNL A   1      39.928  24.294  26.810  1.00  0.00     0.338 C 
ATOM      4  O   UNL A   1      41.068  24.033  26.422  1.00  0.00    -0.246 OA
BRANCH   3   5
ATOM      5  C   UNL A   1      39.744  25.548  27.627  1.00  0.00     0.060 A 
ATOM      6  C   UNL A   1      38.933  25.736  28.735  1.00  0.00     0.016 A 
ATOM      7  C   UNL A   1      40.635  26.585  27.333  1.00  0.00     0.016 A 
ATOM      8  C   UNL A   1      39.228  26.752  29.657  1.00  0.00     0.010 A 
ATOM      9  C   UNL A   1      41.062  27.476  28.328  1.00  0.00     0.010 A 
ATOM     10  C   UNL A   1      40.424  27.496  29.567  1.00  0.00    -0.014 A 
BRANCH  10  11
ATOM     11  C   UNL A   1      41.028  28.492  30.856  1.00  0.00     0.031 A 
ATOM     12  C   UNL A   1      39.597  29.655  30.635  1.00  0.00     0.074 A 
ATOM     13  C   UNL A   1      42.314  28.370  32.260  1.00  0.00     0.049 A 
ATOM     14  N   UNL A   1      38.970  30.260  31.632  1.00  0.00    -0.248 NA
ATOM     15  C   UNL A   1      39.021  30.040  29.333  1.00  0.00     0.031 C 
ATOM     16  C   UNL A   1      43.273  27.130  32.952  1.00  0.00     0.029 A 
ATOM     17  N   UNL A   1      42.643  29.214  33.517  1.00  0.00    -0.354 N 
ATOM     18  C   UNL A   1      38.150  31.208  31.110  1.00  0.00     0.074 A 
ATOM     19  C   UNL A   1      38.099  30.940  29.690  1.00  0.00     0.031 C 
ATOM     20  C   UNL A   1      43.847  27.437  34.115  1.00  0.00     0.029 A 
ATOM     21  C   UNL A   1      43.403  28.721  34.524  1.00  0.00     0.049 A 
ATOM     22  H   UNL A   1      42.291  30.131  33.585  1.00  0.00     0.167 HD
ATOM     23  C   UNL A   1      37.610  32.257  31.775  1.00  0.00     0.031 A 
ATOM     24  C   UNL A   1      43.622  29.301  35.714  1.00  0.00     0.031 A 
ATOM     25  C   UNL A   1      37.982  32.705  33.115  1.00  0.00     0.049 A 
ATOM     26  C   UNL A   1      42.745  30.462  36.110  1.00  0.00     0.074 A 
ATOM     27  C   UNL A   1      37.482  33.808  33.784  1.00  0.00     0.029 A 
ATOM     28  N   UNL A   1      38.989  32.183  33.952  1.00  0.00    -0.354 N 
ATOM     29  N   UNL A   1      41.678  30.951  35.501  1.00  0.00    -0.248 NA
ATOM     30  C   UNL A   1      43.070  31.102  37.378  1.00  0.00     0.031 C 
ATOM     31  C   UNL A   1      38.261  34.028  34.928  1.00  0.00     0.029 A 
ATOM     32  C   UNL A   1      39.209  33.017  35.054  1.00  0.00     0.049 A 
ATOM     33  H   UNL A   1      39.473  31.343  33.783  1.00  0.00     0.167 HD
ATOM     34  C   UNL A   1      41.205  31.985  36.306  1.00  0.00     0.074 A 
ATOM     35  C   UNL A   1      42.074  31.970  37.484  1.00  0.00     0.031 C 
ATOM     36  C   UNL A   1      40.189  32.886  36.138  1.00  0.00     0.031 A 
BRANCH  23  37
ATOM     37  C   UNL A   1      36.572  33.008  30.998  1.00  0.00    -0.014 A 
ATOM     38  C   UNL A   1      35.221  32.851  31.364  1.00  0.00     0.010 A 
ATOM     39  C   UNL A   1      36.905  33.869  29.940  1.00  0.00     0.010 A 
ATOM     40  C   UNL A   1      34.219  33.531  30.678  1.00  0.00     0.020 A 
ATOM     41  C   UNL A   1      35.902  34.573  29.264  1.00  0.00     0.020 A 
ATOM     42  C   UNL A   1      34.565  34.393  29.636  1.00  0.00     0.054 A 
BRANCH  42  43
ATOM     43  S   UNL A   1      33.232  35.297  28.808  1.00  0.00     0.124 S 
ATOM     44  O   UNL A   1      32.577  34.237  28.046  1.00  0.00    -0.237 OA
ATOM     45  O   UNL A   1      32.466  35.826  29.933  1.00  0.00    -0.237 OA
ATOM     46  O   UNL A   1      33.934  36.298  28.008  1.00  0.00    -0.744 OA
ENDBRANCH  42  43
ENDBRANCH  23  37
BRANCH  24  47
ATOM     47  C   UNL A   1      44.743  28.761  36.512  1.00  0.00    -0.014 A 
ATOM     48  C   UNL A   1      46.042  29.278  36.454  1.00  0.00     0.010 A 
ATOM     49  C   UNL A   1      44.431  27.773  37.474  1.00  0.00     0.010 A 
ATOM     50  C   UNL A   1      47.009  28.819  37.356  1.00  0.00     0.020 A 
ATOM     51  C   UNL A   1      45.379  27.342  38.394  1.00  0.00     0.020 A 
ATOM     52  C   UNL A   1      46.668  27.864  38.323  1.00  0.00     0.054 A 
BRANCH  52  53
ATOM     53  S   UNL A   1      47.917  27.342  39.526  1.00  0.00     0.124 S 
ATOM     54  O   UNL A   1      48.169  28.581  40.254  1.00  0.00    -0.237 OA
ATOM     55  O   UNL A   1      47.218  26.298  40.271  1.00  0.00    -0.237 OA
ATOM     56  O   UNL A   1      49.022  26.870  38.694  1.00  0.00    -0.744 OA
ENDBRANCH  52  53
ENDBRANCH  24  47
BRANCH  36  57
ATOM     57  C   UNL A   1      40.069  33.899  37.271  1.00  0.00    -0.014 A 
ATOM     58  C   UNL A   1      39.187  33.698  38.355  1.00  0.00     0.010 A 
ATOM     59  C   UNL A   1      40.831  35.082  37.232  1.00  0.00     0.010 A 
ATOM     60  C   UNL A   1      39.004  34.695  39.320  1.00  0.00     0.020 A 
ATOM     61  C   UNL A   1      40.687  36.059  38.222  1.00  0.00     0.020 A 
ATOM     62  C   UNL A   1      39.752  35.874  39.240  1.00  0.00     0.054 A 
BRANCH  62  63
ATOM     63  S   UNL A   1      39.486  37.162  40.490  1.00  0.00     0.124 S 
ATOM     64  O   UNL A   1      38.877  36.407  41.581  1.00  0.00    -0.237 OA
ATOM     65  O   UNL A   1      40.841  37.649  40.741  1.00  0.00    -0.237 OA
ATOM     66  O   UNL A   1      38.601  38.114  39.823  1.00  0.00    -0.744 OA
ENDBRANCH  62  63
ENDBRANCH  36  57
ENDBRANCH  10  11
ENDBRANCH   3   5
ENDBRANCH   2   3
ENDBRANCH   1   2
BRANCH   1  67
ATOM     67  C   UNL A   1      37.148  22.097  25.431  1.00  0.00     0.274 C 
BRANCH  67  68
ATOM     68  O   UNL A   1      35.826  22.246  24.898  1.00  0.00    -0.461 OA
BRANCH  68  69
ATOM     69  C   UNL A   1      34.761  22.119  25.755  1.00  0.00     0.329 C 
ATOM     70  O   UNL A   1      34.840  21.741  26.915  1.00  0.00    -0.250 OA
BRANCH  69  71
ATOM     71  C   UNL A   1      33.459  22.387  24.987  1.00  0.00     0.197 C 
BRANCH  71  72
ATOM     72  N   UNL A   1      33.884  22.705  23.655  1.00  0.00    -0.338 N 
ATOM     73  C   UNL A   1      33.281  23.462  22.710  1.00  0.00     0.262 C 
ATOM     74  H   UNL A   1      34.748  22.312  23.388  1.00  0.00     0.164 HD
ATOM     75  O   UNL A   1      33.653  23.124  21.580  1.00  0.00    -0.268 OA
BRANCH  73  76
ATOM     76  C   UNL A   1      32.237  24.518  22.979  1.00  0.00     0.093 A 
ATOM     77  C   UNL A   1      30.447  24.530  23.509  1.00  0.00     0.027 A 
ATOM     78  S   UNL A   1      33.434  26.228  24.028  1.00  0.00    -0.118 S 
ATOM     79  C   UNL A   1      30.053  25.971  24.851  1.00  0.00     0.033 A 
ATOM     80  C   UNL A   1      31.582  26.986  25.225  1.00  0.00     0.094 A 
ATOM     81  Cl  UNL A   1      32.141  28.145  26.406  1.00  0.00    -0.072 Cl
ENDBRANCH  73  76
ENDBRANCH  71  72
BRANCH  71  82
ATOM     82  C   UNL A   1      32.454  21.204  24.975  1.00  0.00     0.072 C 
BRANCH  82  83
ATOM     83  C   UNL A   1      32.962  19.885  24.390  1.00  0.00    -0.045 A 
ATOM     84  C   UNL A   1      34.065  19.183  24.898  1.00  0.00     0.007 A 
ATOM     85  C   UNL A   1      32.259  19.284  23.342  1.00  0.00     0.007 A 
ATOM     86  C   UNL A   1      34.459  17.948  24.340  1.00  0.00     0.046 A 
ATOM     87  C   UNL A   1      32.696  18.111  22.719  1.00  0.00     0.046 A 
ATOM     88  C   UNL A   1      33.785  17.436  23.236  1.00  0.00     0.115 A 
BRANCH  88  89
ATOM     89  O   UNL A   1      34.123  16.252  22.652  1.00  0.00    -0.508 OA
ATOM     90  H   UNL A   1      34.977  15.890  22.786  1.00  0.00     0.293 HD
ENDBRANCH  88  89
ENDBRANCH  82  83
ENDBRANCH  71  82
ENDBRANCH  69  71
ENDBRANCH  68  69
ENDBRANCH  67  68
ENDBRANCH   1  67
TORSDOF 19
ENDMDL
