MODEL 1
REMARK VINA RESULT:     -11.1      0.000      0.000
REMARK SMILES O=C(COc1ccc(-c2cc3cc(Br)ccc3oc2=O)cc1)OCCOC(=O)c1ccc(-c2c3nc(c(-c4ccc(S(=O)(=O)[O-])cc4)c4ccc([nH]4)c(-c4ccc(S(=O)(=O)[O-])cc4)c4nc(c(-c5ccc(S(=O)(=O)[O-])cc5)c5ccc2[nH]5)C=C4)C=C3)cc1
REMARK SMILES IDX 24 1 23 2 2 3 1 4 3 5 4 6 5 7 6 8 22 9 7 10 21 11 8 12 9 13
REMARK SMILES IDX 10 14 19 15 11 16 18 17 20 18 12 19 17 20 13 21 16 22 14 23
REMARK SMILES IDX 15 24 25 25 26 26 27 27 28 28 29 29 30 30 88 31 31 32 87 33
REMARK SMILES IDX 32 34 33 35 34 36 81 37 35 38 86 39 80 40 82 41 36 42 85 43
REMARK SMILES IDX 79 44 78 45 37 47 67 48 48 49 66 50 49 51 52 52 65 53 83 54
REMARK SMILES IDX 50 55 51 56 64 58 84 59 53 60 38 61 39 62 47 63 40 64 46 65
REMARK SMILES IDX 41 66 42 67 43 68 44 69 45 70 68 71 69 72 77 73 70 74 76 75
REMARK SMILES IDX 71 76 72 77 73 78 74 79 75 80 54 81 55 82 63 83 56 84 62 85
REMARK SMILES IDX 57 86 58 87 59 88 60 89 61 90
REMARK H PARENT 82 46 52 57
REMARK Flexibility Score: inf
ROOT
ATOM      1  C   UNL A   1      32.129  28.483  26.186  1.00  0.00     0.274 C 
ENDROOT
BRANCH   1   2
ATOM      2  O   UNL A   1      33.092  28.124  25.179  1.00  0.00    -0.460 OA
BRANCH   2   3
ATOM      3  C   UNL A   1      33.062  28.634  23.925  1.00  0.00     0.344 C 
ATOM      4  O   UNL A   1      34.113  28.777  23.301  1.00  0.00    -0.248 OA
BRANCH   3   5
ATOM      5  C   UNL A   1      31.704  28.988  23.303  1.00  0.00     0.351 C 
BRANCH   5   6
ATOM      6  O   UNL A   1      31.191  28.129  22.306  1.00  0.00    -0.482 OA
BRANCH   6   7
ATOM      7  C   UNL A   1      30.906  26.851  22.698  1.00  0.00     0.120 A 
ATOM      8  C   UNL A   1      29.962  26.742  23.715  1.00  0.00     0.047 A 
ATOM      9  C   UNL A   1      31.527  25.700  22.224  1.00  0.00     0.047 A 
ATOM     10  C   UNL A   1      29.771  25.523  24.368  1.00  0.00     0.013 A 
ATOM     11  C   UNL A   1      31.320  24.478  22.860  1.00  0.00     0.013 A 
ATOM     12  C   UNL A   1      30.546  24.408  24.022  1.00  0.00    -0.011 A 
BRANCH  12  13
ATOM     13  C   UNL A   1      30.715  23.324  25.043  1.00  0.00     0.068 A 
ATOM     14  C   UNL A   1      31.674  22.365  24.995  1.00  0.00     0.028 A 
ATOM     15  C   UNL A   1      30.781  23.899  26.443  1.00  0.00     0.344 A 
ATOM     16  C   UNL A   1      33.032  22.938  25.144  1.00  0.00     0.019 A 
ATOM     17  O   UNL A   1      32.031  24.476  26.736  1.00  0.00    -0.422 OA
ATOM     18  O   UNL A   1      29.823  23.953  27.203  1.00  0.00    -0.246 OA
ATOM     19  C   UNL A   1      34.130  22.496  24.413  1.00  0.00     0.027 A 
ATOM     20  C   UNL A   1      33.143  24.076  25.958  1.00  0.00     0.138 A 
ATOM     21  C   UNL A   1      35.306  23.249  24.451  1.00  0.00     0.018 A 
ATOM     22  C   UNL A   1      34.305  24.835  25.989  1.00  0.00     0.049 A 
ATOM     23  Br  UNL A   1      36.794  22.701  23.420  1.00  0.00    -0.051 Br
ATOM     24  C   UNL A   1      35.390  24.423  25.213  1.00  0.00     0.019 A 
ENDBRANCH  12  13
ENDBRANCH   6   7
ENDBRANCH   5   6
ENDBRANCH   3   5
ENDBRANCH   2   3
ENDBRANCH   1   2
BRANCH   1  25
ATOM     25  C   UNL A   1      32.531  29.780  26.900  1.00  0.00     0.275 C 
BRANCH  25  26
ATOM     26  O   UNL A   1      33.693  29.552  27.723  1.00  0.00    -0.458 OA
BRANCH  26  27
ATOM     27  C   UNL A   1      34.421  30.643  28.085  1.00  0.00     0.338 C 
ATOM     28  O   UNL A   1      33.993  31.749  28.333  1.00  0.00    -0.246 OA
BRANCH  27  29
ATOM     29  C   UNL A   1      35.815  30.198  28.351  1.00  0.00     0.060 A 
ATOM     30  C   UNL A   1      36.135  29.724  29.631  1.00  0.00     0.016 A 
ATOM     31  C   UNL A   1      36.776  30.166  27.336  1.00  0.00     0.016 A 
ATOM     32  C   UNL A   1      37.413  29.214  29.894  1.00  0.00     0.010 A 
ATOM     33  C   UNL A   1      38.056  29.671  27.605  1.00  0.00     0.010 A 
ATOM     34  C   UNL A   1      38.387  29.200  28.886  1.00  0.00    -0.014 A 
BRANCH  34  35
ATOM     35  C   UNL A   1      39.788  28.804  29.183  1.00  0.00     0.031 A 
ATOM     36  C   UNL A   1      40.722  29.824  29.776  1.00  0.00     0.074 A 
ATOM     37  C   UNL A   1      40.243  27.569  28.894  1.00  0.00     0.049 A 
ATOM     38  N   UNL A   1      41.995  29.716  30.053  1.00  0.00    -0.248 NA
ATOM     39  C   UNL A   1      40.143  31.140  30.095  1.00  0.00     0.031 C 
ATOM     40  C   UNL A   1      39.445  26.478  28.337  1.00  0.00     0.029 A 
ATOM     41  N   UNL A   1      41.504  27.037  29.014  1.00  0.00    -0.354 N 
ATOM     42  C   UNL A   1      42.372  30.944  30.580  1.00  0.00     0.074 A 
ATOM     43  C   UNL A   1      41.198  31.791  30.564  1.00  0.00     0.031 C 
ATOM     44  C   UNL A   1      40.244  25.410  28.144  1.00  0.00     0.029 A 
ATOM     45  C   UNL A   1      41.610  25.751  28.537  1.00  0.00     0.049 A 
ATOM     46  H   UNL A   1      42.261  27.529  29.407  1.00  0.00     0.167 HD
ATOM     47  C   UNL A   1      43.584  31.335  31.040  1.00  0.00     0.031 A 
ATOM     48  C   UNL A   1      42.688  24.951  28.408  1.00  0.00     0.031 A 
ATOM     49  C   UNL A   1      44.762  30.510  31.043  1.00  0.00     0.049 A 
ATOM     50  C   UNL A   1      44.046  25.443  28.847  1.00  0.00     0.074 A 
ATOM     51  C   UNL A   1      46.022  30.817  31.526  1.00  0.00     0.029 A 
ATOM     52  N   UNL A   1      44.834  29.229  30.524  1.00  0.00    -0.354 N 
ATOM     53  N   UNL A   1      44.370  26.586  29.402  1.00  0.00    -0.248 NA
ATOM     54  C   UNL A   1      45.184  24.534  28.638  1.00  0.00     0.031 C 
ATOM     55  C   UNL A   1      46.871  29.741  31.247  1.00  0.00     0.029 A 
ATOM     56  C   UNL A   1      46.126  28.746  30.638  1.00  0.00     0.049 A 
ATOM     57  H   UNL A   1      44.077  28.734  30.131  1.00  0.00     0.167 HD
ATOM     58  C   UNL A   1      45.743  26.520  29.631  1.00  0.00     0.074 A 
ATOM     59  C   UNL A   1      46.185  25.223  29.167  1.00  0.00     0.031 C 
ATOM     60  C   UNL A   1      46.562  27.454  30.174  1.00  0.00     0.031 A 
BRANCH  47  61
ATOM     61  C   UNL A   1      43.710  32.738  31.564  1.00  0.00    -0.014 A 
ATOM     62  C   UNL A   1      44.075  33.796  30.713  1.00  0.00     0.010 A 
ATOM     63  C   UNL A   1      43.391  33.010  32.906  1.00  0.00     0.010 A 
ATOM     64  C   UNL A   1      44.137  35.103  31.202  1.00  0.00     0.020 A 
ATOM     65  C   UNL A   1      43.433  34.319  33.393  1.00  0.00     0.020 A 
ATOM     66  C   UNL A   1      43.814  35.356  32.540  1.00  0.00     0.054 A 
BRANCH  66  67
ATOM     67  S   UNL A   1      43.857  37.068  33.135  1.00  0.00     0.124 S 
ATOM     68  O   UNL A   1      45.116  37.099  33.873  1.00  0.00    -0.237 OA
ATOM     69  O   UNL A   1      43.836  37.840  31.895  1.00  0.00    -0.237 OA
ATOM     70  O   UNL A   1      42.653  37.180  33.954  1.00  0.00    -0.744 OA
ENDBRANCH  66  67
ENDBRANCH  47  61
BRANCH  48  71
ATOM     71  C   UNL A   1      42.555  23.602  27.792  1.00  0.00    -0.014 A 
ATOM     72  C   UNL A   1      42.294  22.472  28.588  1.00  0.00     0.010 A 
ATOM     73  C   UNL A   1      42.745  23.434  26.409  1.00  0.00     0.010 A 
ATOM     74  C   UNL A   1      42.260  21.196  28.016  1.00  0.00     0.020 A 
ATOM     75  C   UNL A   1      42.684  22.164  25.829  1.00  0.00     0.020 A 
ATOM     76  C   UNL A   1      42.461  21.050  26.640  1.00  0.00     0.054 A 
BRANCH  76  77
ATOM     77  S   UNL A   1      42.396  19.389  25.913  1.00  0.00     0.124 S 
ATOM     78  O   UNL A   1      43.314  19.517  24.785  1.00  0.00    -0.237 OA
ATOM     79  O   UNL A   1      42.855  18.542  27.011  1.00  0.00    -0.237 OA
ATOM     80  O   UNL A   1      40.988  19.228  25.559  1.00  0.00    -0.744 OA
ENDBRANCH  76  77
ENDBRANCH  48  71
BRANCH  60  81
ATOM     81  C   UNL A   1      48.020  27.108  30.323  1.00  0.00    -0.014 A 
ATOM     82  C   UNL A   1      48.962  27.506  29.357  1.00  0.00     0.010 A 
ATOM     83  C   UNL A   1      48.465  26.435  31.476  1.00  0.00     0.010 A 
ATOM     84  C   UNL A   1      50.318  27.214  29.530  1.00  0.00     0.020 A 
ATOM     85  C   UNL A   1      49.824  26.163  31.664  1.00  0.00     0.020 A 
ATOM     86  C   UNL A   1      50.741  26.545  30.682  1.00  0.00     0.054 A 
BRANCH  86  87
ATOM     87  S   UNL A   1      52.512  26.226  30.910  1.00  0.00     0.124 S 
ATOM     88  O   UNL A   1      52.974  26.083  29.532  1.00  0.00    -0.237 OA
ATOM     89  O   UNL A   1      52.970  27.426  31.605  1.00  0.00    -0.237 OA
ATOM     90  O   UNL A   1      52.544  25.002  31.708  1.00  0.00    -0.744 OA
ENDBRANCH  86  87
ENDBRANCH  60  81
ENDBRANCH  34  35
ENDBRANCH  27  29
ENDBRANCH  26  27
ENDBRANCH  25  26
ENDBRANCH   1  25
TORSDOF 17
ENDMDL
MODEL 2
REMARK VINA RESULT:     -11.0      4.724     11.646
REMARK SMILES O=C(COc1ccc(-c2cc3cc(Br)ccc3oc2=O)cc1)OCCOC(=O)c1ccc(-c2c3nc(c(-c4ccc(S(=O)(=O)[O-])cc4)c4ccc([nH]4)c(-c4ccc(S(=O)(=O)[O-])cc4)c4nc(c(-c5ccc(S(=O)(=O)[O-])cc5)c5ccc2[nH]5)C=C4)C=C3)cc1
REMARK SMILES IDX 24 1 23 2 2 3 1 4 3 5 4 6 5 7 6 8 22 9 7 10 21 11 8 12 9 13
REMARK SMILES IDX 10 14 19 15 11 16 18 17 20 18 12 19 17 20 13 21 16 22 14 23
REMARK SMILES IDX 15 24 25 25 26 26 27 27 28 28 29 29 30 30 88 31 31 32 87 33
REMARK SMILES IDX 32 34 33 35 34 36 81 37 35 38 86 39 80 40 82 41 36 42 85 43
REMARK SMILES IDX 79 44 78 45 37 47 67 48 48 49 66 50 49 51 52 52 65 53 83 54
REMARK SMILES IDX 50 55 51 56 64 58 84 59 53 60 38 61 39 62 47 63 40 64 46 65
REMARK SMILES IDX 41 66 42 67 43 68 44 69 45 70 68 71 69 72 77 73 70 74 76 75
REMARK SMILES IDX 71 76 72 77 73 78 74 79 75 80 54 81 55 82 63 83 56 84 62 85
REMARK SMILES IDX 57 86 58 87 59 88 60 89 61 90
REMARK H PARENT 82 46 52 57
REMARK Flexibility Score: inf
ROOT
ATOM      1  C   UNL A   1      41.692  20.573  26.131  1.00  0.00     0.274 C 
ENDROOT
BRANCH   1   2
ATOM      2  O   UNL A   1      42.222  19.391  25.503  1.00  0.00    -0.460 OA
BRANCH   2   3
ATOM      3  C   UNL A   1      43.547  19.210  25.288  1.00  0.00     0.344 C 
ATOM      4  O   UNL A   1      43.971  18.088  25.015  1.00  0.00    -0.248 OA
BRANCH   3   5
ATOM      5  C   UNL A   1      44.480  20.427  25.357  1.00  0.00     0.351 C 
BRANCH   5   6
ATOM      6  O   UNL A   1      44.633  21.208  24.191  1.00  0.00    -0.482 OA
BRANCH   6   7
ATOM      7  C   UNL A   1      44.796  22.552  24.381  1.00  0.00     0.120 A 
ATOM      8  C   UNL A   1      46.107  22.963  24.601  1.00  0.00     0.047 A 
ATOM      9  C   UNL A   1      43.772  23.491  24.446  1.00  0.00     0.047 A 
ATOM     10  C   UNL A   1      46.371  24.258  25.052  1.00  0.00     0.013 A 
ATOM     11  C   UNL A   1      44.036  24.791  24.874  1.00  0.00     0.013 A 
ATOM     12  C   UNL A   1      45.317  25.144  25.310  1.00  0.00    -0.011 A 
BRANCH  12  13
ATOM     13  C   UNL A   1      45.564  26.272  26.266  1.00  0.00     0.068 A 
ATOM     14  C   UNL A   1      46.674  26.399  27.035  1.00  0.00     0.028 A 
ATOM     15  C   UNL A   1      45.384  27.613  25.584  1.00  0.00     0.344 A 
ATOM     16  C   UNL A   1      47.889  26.613  26.217  1.00  0.00     0.019 A 
ATOM     17  O   UNL A   1      46.478  27.961  24.770  1.00  0.00    -0.422 OA
ATOM     18  O   UNL A   1      44.358  28.276  25.647  1.00  0.00    -0.246 OA
ATOM     19  C   UNL A   1      49.118  26.026  26.507  1.00  0.00     0.027 A 
ATOM     20  C   UNL A   1      47.717  27.325  25.019  1.00  0.00     0.138 A 
ATOM     21  C   UNL A   1      50.135  26.099  25.553  1.00  0.00     0.018 A 
ATOM     22  C   UNL A   1      48.721  27.388  24.063  1.00  0.00     0.049 A 
ATOM     23  Br  UNL A   1      51.794  25.259  25.899  1.00  0.00    -0.051 Br
ATOM     24  C   UNL A   1      49.936  26.753  24.329  1.00  0.00     0.019 A 
ENDBRANCH  12  13
ENDBRANCH   6   7
ENDBRANCH   5   6
ENDBRANCH   3   5
ENDBRANCH   2   3
ENDBRANCH   1   2
BRANCH   1  25
ATOM     25  C   UNL A   1      40.159  20.597  26.064  1.00  0.00     0.275 C 
BRANCH  25  26
ATOM     26  O   UNL A   1      39.645  21.666  26.883  1.00  0.00    -0.458 OA
BRANCH  26  27
ATOM     27  C   UNL A   1      38.990  22.675  26.246  1.00  0.00     0.338 C 
ATOM     28  O   UNL A   1      38.086  22.561  25.447  1.00  0.00    -0.246 OA
BRANCH  27  29
ATOM     29  C   UNL A   1      39.414  23.960  26.864  1.00  0.00     0.060 A 
ATOM     30  C   UNL A   1      40.173  24.854  26.097  1.00  0.00     0.016 A 
ATOM     31  C   UNL A   1      39.000  24.322  28.149  1.00  0.00     0.016 A 
ATOM     32  C   UNL A   1      40.513  26.111  26.613  1.00  0.00     0.010 A 
ATOM     33  C   UNL A   1      39.355  25.571  28.669  1.00  0.00     0.010 A 
ATOM     34  C   UNL A   1      40.121  26.471  27.909  1.00  0.00    -0.014 A 
BRANCH  34  35
ATOM     35  C   UNL A   1      40.597  27.734  28.529  1.00  0.00     0.031 A 
ATOM     36  C   UNL A   1      42.006  27.800  29.054  1.00  0.00     0.074 A 
ATOM     37  C   UNL A   1      39.783  28.798  28.666  1.00  0.00     0.049 A 
ATOM     38  N   UNL A   1      42.608  28.774  29.687  1.00  0.00    -0.248 NA
ATOM     39  C   UNL A   1      42.846  26.610  28.838  1.00  0.00     0.031 C 
ATOM     40  C   UNL A   1      38.404  28.881  28.187  1.00  0.00     0.029 A 
ATOM     41  N   UNL A   1      40.001  30.013  29.272  1.00  0.00    -0.354 N 
ATOM     42  C   UNL A   1      43.894  28.319  29.945  1.00  0.00     0.074 A 
ATOM     43  C   UNL A   1      43.981  26.973  29.419  1.00  0.00     0.031 C 
ATOM     44  C   UNL A   1      37.892  30.076  28.538  1.00  0.00     0.029 A 
ATOM     45  C   UNL A   1      38.895  30.830  29.288  1.00  0.00     0.049 A 
ATOM     46  H   UNL A   1      40.869  30.273  29.658  1.00  0.00     0.167 HD
ATOM     47  C   UNL A   1      44.914  28.961  30.560  1.00  0.00     0.031 A 
ATOM     48  C   UNL A   1      38.706  32.036  29.861  1.00  0.00     0.031 A 
ATOM     49  C   UNL A   1      44.835  30.289  31.103  1.00  0.00     0.049 A 
ATOM     50  C   UNL A   1      39.835  32.693  30.619  1.00  0.00     0.074 A 
ATOM     51  C   UNL A   1      45.835  31.029  31.710  1.00  0.00     0.029 A 
ATOM     52  N   UNL A   1      43.691  31.070  31.125  1.00  0.00    -0.354 N 
ATOM     53  N   UNL A   1      41.064  32.274  30.796  1.00  0.00    -0.248 NA
ATOM     54  C   UNL A   1      39.545  33.988  31.254  1.00  0.00     0.031 C 
ATOM     55  C   UNL A   1      45.281  32.235  32.151  1.00  0.00     0.029 A 
ATOM     56  C   UNL A   1      43.950  32.266  31.772  1.00  0.00     0.049 A 
ATOM     57  H   UNL A   1      42.822  30.811  30.739  1.00  0.00     0.167 HD
ATOM     58  C   UNL A   1      41.699  33.265  31.542  1.00  0.00     0.074 A 
ATOM     59  C   UNL A   1      40.724  34.309  31.770  1.00  0.00     0.031 C 
ATOM     60  C   UNL A   1      42.975  33.303  31.997  1.00  0.00     0.031 A 
BRANCH  47  61
ATOM     61  C   UNL A   1      46.216  28.223  30.703  1.00  0.00    -0.014 A 
ATOM     62  C   UNL A   1      46.328  27.119  31.566  1.00  0.00     0.010 A 
ATOM     63  C   UNL A   1      47.317  28.595  29.912  1.00  0.00     0.010 A 
ATOM     64  C   UNL A   1      47.529  26.409  31.649  1.00  0.00     0.020 A 
ATOM     65  C   UNL A   1      48.513  27.876  29.978  1.00  0.00     0.020 A 
ATOM     66  C   UNL A   1      48.613  26.793  30.854  1.00  0.00     0.054 A 
BRANCH  66  67
ATOM     67  S   UNL A   1      50.144  25.825  30.947  1.00  0.00     0.124 S 
ATOM     68  O   UNL A   1      51.144  26.864  31.173  1.00  0.00    -0.237 OA
ATOM     69  O   UNL A   1      49.894  24.937  32.079  1.00  0.00    -0.237 OA
ATOM     70  O   UNL A   1      50.217  25.165  29.646  1.00  0.00    -0.744 OA
ENDBRANCH  66  67
ENDBRANCH  47  61
BRANCH  48  71
ATOM     71  C   UNL A   1      37.377  32.703  29.791  1.00  0.00    -0.014 A 
ATOM     72  C   UNL A   1      37.039  33.520  28.698  1.00  0.00     0.010 A 
ATOM     73  C   UNL A   1      36.461  32.567  30.851  1.00  0.00     0.010 A 
ATOM     74  C   UNL A   1      35.825  34.215  28.681  1.00  0.00     0.020 A 
ATOM     75  C   UNL A   1      35.236  33.238  30.825  1.00  0.00     0.020 A 
ATOM     76  C   UNL A   1      34.934  34.073  29.748  1.00  0.00     0.054 A 
BRANCH  76  77
ATOM     77  S   UNL A   1      33.357  34.969  29.702  1.00  0.00     0.124 S 
ATOM     78  O   UNL A   1      32.580  34.165  28.763  1.00  0.00    -0.237 OA
ATOM     79  O   UNL A   1      32.919  34.917  31.094  1.00  0.00    -0.237 OA
ATOM     80  O   UNL A   1      33.735  36.297  29.226  1.00  0.00    -0.744 OA
ENDBRANCH  76  77
ENDBRANCH  48  71
BRANCH  60  81
ATOM     81  C   UNL A   1      43.409  34.519  32.771  1.00  0.00    -0.014 A 
ATOM     82  C   UNL A   1      43.322  34.555  34.175  1.00  0.00     0.010 A 
ATOM     83  C   UNL A   1      43.972  35.616  32.093  1.00  0.00     0.010 A 
ATOM     84  C   UNL A   1      43.768  35.676  34.882  1.00  0.00     0.020 A 
ATOM     85  C   UNL A   1      44.442  36.728  32.799  1.00  0.00     0.020 A 
ATOM     86  C   UNL A   1      44.325  36.755  34.190  1.00  0.00     0.054 A 
BRANCH  86  87
ATOM     87  S   UNL A   1      44.947  38.174  35.134  1.00  0.00     0.124 S 
ATOM     88  O   UNL A   1      46.081  38.605  34.323  1.00  0.00    -0.237 OA
ATOM     89  O   UNL A   1      43.802  39.081  35.147  1.00  0.00    -0.237 OA
ATOM     90  O   UNL A   1      45.292  37.601  36.434  1.00  0.00    -0.744 OA
ENDBRANCH  86  87
ENDBRANCH  60  81
ENDBRANCH  34  35
ENDBRANCH  27  29
ENDBRANCH  26  27
ENDBRANCH  25  26
ENDBRANCH   1  25
TORSDOF 17
ENDMDL
MODEL 3
REMARK VINA RESULT:     -11.0      4.695     10.003
REMARK SMILES O=C(COc1ccc(-c2cc3cc(Br)ccc3oc2=O)cc1)OCCOC(=O)c1ccc(-c2c3nc(c(-c4ccc(S(=O)(=O)[O-])cc4)c4ccc([nH]4)c(-c4ccc(S(=O)(=O)[O-])cc4)c4nc(c(-c5ccc(S(=O)(=O)[O-])cc5)c5ccc2[nH]5)C=C4)C=C3)cc1
REMARK SMILES IDX 24 1 23 2 2 3 1 4 3 5 4 6 5 7 6 8 22 9 7 10 21 11 8 12 9 13
REMARK SMILES IDX 10 14 19 15 11 16 18 17 20 18 12 19 17 20 13 21 16 22 14 23
REMARK SMILES IDX 15 24 25 25 26 26 27 27 28 28 29 29 30 30 88 31 31 32 87 33
REMARK SMILES IDX 32 34 33 35 34 36 81 37 35 38 86 39 80 40 82 41 36 42 85 43
REMARK SMILES IDX 79 44 78 45 37 47 67 48 48 49 66 50 49 51 52 52 65 53 83 54
REMARK SMILES IDX 50 55 51 56 64 58 84 59 53 60 38 61 39 62 47 63 40 64 46 65
REMARK SMILES IDX 41 66 42 67 43 68 44 69 45 70 68 71 69 72 77 73 70 74 76 75
REMARK SMILES IDX 71 76 72 77 73 78 74 79 75 80 54 81 55 82 63 83 56 84 62 85
REMARK SMILES IDX 57 86 58 87 59 88 60 89 61 90
REMARK H PARENT 82 46 52 57
REMARK Flexibility Score: inf
ROOT
ATOM      1  C   UNL A   1      42.592  22.091  26.131  1.00  0.00     0.274 C 
ENDROOT
BRANCH   1   2
ATOM      2  O   UNL A   1      41.351  21.532  25.662  1.00  0.00    -0.460 OA
BRANCH   2   3
ATOM      3  C   UNL A   1      40.201  21.611  26.373  1.00  0.00     0.344 C 
ATOM      4  O   UNL A   1      40.246  21.599  27.602  1.00  0.00    -0.248 OA
BRANCH   3   5
ATOM      5  C   UNL A   1      38.872  21.748  25.618  1.00  0.00     0.351 C 
BRANCH   5   6
ATOM      6  O   UNL A   1      37.958  22.728  26.064  1.00  0.00    -0.482 OA
BRANCH   6   7
ATOM      7  C   UNL A   1      36.993  23.104  25.172  1.00  0.00     0.120 A 
ATOM      8  C   UNL A   1      36.157  24.130  25.603  1.00  0.00     0.047 A 
ATOM      9  C   UNL A   1      36.749  22.503  23.941  1.00  0.00     0.047 A 
ATOM     10  C   UNL A   1      34.991  24.430  24.896  1.00  0.00     0.013 A 
ATOM     11  C   UNL A   1      35.598  22.817  23.222  1.00  0.00     0.013 A 
ATOM     12  C   UNL A   1      34.642  23.684  23.762  1.00  0.00    -0.011 A 
BRANCH  12  13
ATOM     13  C   UNL A   1      33.198  23.648  23.360  1.00  0.00     0.068 A 
ATOM     14  C   UNL A   1      32.599  22.601  22.740  1.00  0.00     0.028 A 
ATOM     15  C   UNL A   1      32.299  24.003  24.527  1.00  0.00     0.344 A 
ATOM     16  C   UNL A   1      32.553  21.401  23.607  1.00  0.00     0.019 A 
ATOM     17  O   UNL A   1      32.150  22.942  25.441  1.00  0.00    -0.422 OA
ATOM     18  O   UNL A   1      31.835  25.119  24.713  1.00  0.00    -0.246 OA
ATOM     19  C   UNL A   1      32.773  20.110  23.135  1.00  0.00     0.027 A 
ATOM     20  C   UNL A   1      32.429  21.632  24.986  1.00  0.00     0.138 A 
ATOM     21  C   UNL A   1      32.941  19.079  24.062  1.00  0.00     0.018 A 
ATOM     22  C   UNL A   1      32.609  20.613  25.911  1.00  0.00     0.049 A 
ATOM     23  Br  UNL A   1      33.299  17.327  23.447  1.00  0.00    -0.051 Br
ATOM     24  C   UNL A   1      32.884  19.327  25.440  1.00  0.00     0.019 A 
ENDBRANCH  12  13
ENDBRANCH   6   7
ENDBRANCH   5   6
ENDBRANCH   3   5
ENDBRANCH   2   3
ENDBRANCH   1   2
BRANCH   1  25
ATOM     25  C   UNL A   1      42.861  23.460  25.491  1.00  0.00     0.275 C 
BRANCH  25  26
ATOM     26  O   UNL A   1      41.996  24.456  26.073  1.00  0.00    -0.458 OA
BRANCH  26  27
ATOM     27  C   UNL A   1      42.317  25.760  25.855  1.00  0.00     0.338 C 
ATOM     28  O   UNL A   1      42.582  26.272  24.788  1.00  0.00    -0.246 OA
BRANCH  27  29
ATOM     29  C   UNL A   1      42.069  26.512  27.114  1.00  0.00     0.060 A 
ATOM     30  C   UNL A   1      41.152  25.990  28.036  1.00  0.00     0.016 A 
ATOM     31  C   UNL A   1      42.788  27.670  27.425  1.00  0.00     0.016 A 
ATOM     32  C   UNL A   1      40.958  26.622  29.271  1.00  0.00     0.010 A 
ATOM     33  C   UNL A   1      42.582  28.308  28.652  1.00  0.00     0.010 A 
ATOM     34  C   UNL A   1      41.660  27.795  29.580  1.00  0.00    -0.014 A 
BRANCH  34  35
ATOM     35  C   UNL A   1      41.360  28.562  30.817  1.00  0.00     0.031 A 
ATOM     36  C   UNL A   1      40.236  29.562  30.798  1.00  0.00     0.074 A 
ATOM     37  C   UNL A   1      42.099  28.408  31.933  1.00  0.00     0.049 A 
ATOM     38  N   UNL A   1      39.843  30.382  31.739  1.00  0.00    -0.248 NA
ATOM     39  C   UNL A   1      39.453  29.649  29.555  1.00  0.00     0.031 C 
ATOM     40  C   UNL A   1      43.203  27.463  32.098  1.00  0.00     0.029 A 
ATOM     41  N   UNL A   1      42.038  29.068  33.137  1.00  0.00    -0.354 N 
ATOM     42  C   UNL A   1      38.770  31.082  31.204  1.00  0.00     0.074 A 
ATOM     43  C   UNL A   1      38.585  30.606  29.850  1.00  0.00     0.031 C 
ATOM     44  C   UNL A   1      43.730  27.621  33.328  1.00  0.00     0.029 A 
ATOM     45  C   UNL A   1      43.020  28.692  34.025  1.00  0.00     0.049 A 
ATOM     46  H   UNL A   1      41.354  29.744  33.345  1.00  0.00     0.167 HD
ATOM     47  C   UNL A   1      38.002  32.033  31.787  1.00  0.00     0.031 A 
ATOM     48  C   UNL A   1      43.326  29.174  35.246  1.00  0.00     0.031 A 
ATOM     49  C   UNL A   1      38.188  32.527  33.124  1.00  0.00     0.049 A 
ATOM     50  C   UNL A   1      42.509  30.297  35.838  1.00  0.00     0.074 A 
ATOM     51  C   UNL A   1      37.430  33.464  33.804  1.00  0.00     0.029 A 
ATOM     52  N   UNL A   1      39.210  32.144  33.976  1.00  0.00    -0.354 N 
ATOM     53  N   UNL A   1      41.456  30.902  35.343  1.00  0.00    -0.248 NA
ATOM     54  C   UNL A   1      42.925  30.801  37.156  1.00  0.00     0.031 C 
ATOM     55  C   UNL A   1      38.028  33.691  35.048  1.00  0.00     0.029 A 
ATOM     56  C   UNL A   1      39.127  32.856  35.161  1.00  0.00     0.049 A 
ATOM     57  H   UNL A   1      39.894  31.466  33.770  1.00  0.00     0.167 HD
ATOM     58  C   UNL A   1      41.073  31.839  36.299  1.00  0.00     0.074 A 
ATOM     59  C   UNL A   1      41.995  31.712  37.407  1.00  0.00     0.031 C 
ATOM     60  C   UNL A   1      40.049  32.726  36.260  1.00  0.00     0.031 A 
BRANCH  47  61
ATOM     61  C   UNL A   1      36.891  32.628  30.968  1.00  0.00    -0.014 A 
ATOM     62  C   UNL A   1      35.568  32.173  31.110  1.00  0.00     0.010 A 
ATOM     63  C   UNL A   1      37.163  33.700  30.101  1.00  0.00     0.010 A 
ATOM     64  C   UNL A   1      34.537  32.772  30.381  1.00  0.00     0.020 A 
ATOM     65  C   UNL A   1      36.132  34.314  29.386  1.00  0.00     0.020 A 
ATOM     66  C   UNL A   1      34.826  33.839  29.524  1.00  0.00     0.054 A 
BRANCH  66  67
ATOM     67  S   UNL A   1      33.461  34.627  28.627  1.00  0.00     0.124 S 
ATOM     68  O   UNL A   1      32.564  35.005  29.716  1.00  0.00    -0.237 OA
ATOM     69  O   UNL A   1      34.122  35.735  27.944  1.00  0.00    -0.237 OA
ATOM     70  O   UNL A   1      32.964  33.567  27.752  1.00  0.00    -0.744 OA
ENDBRANCH  66  67
ENDBRANCH  47  61
BRANCH  48  71
ATOM     71  C   UNL A   1      44.495  28.636  35.996  1.00  0.00    -0.014 A 
ATOM     72  C   UNL A   1      44.344  27.555  36.883  1.00  0.00     0.010 A 
ATOM     73  C   UNL A   1      45.757  29.243  35.867  1.00  0.00     0.010 A 
ATOM     74  C   UNL A   1      45.426  27.113  37.651  1.00  0.00     0.020 A 
ATOM     75  C   UNL A   1      46.847  28.787  36.613  1.00  0.00     0.020 A 
ATOM     76  C   UNL A   1      46.670  27.736  37.515  1.00  0.00     0.054 A 
BRANCH  76  77
ATOM     77  S   UNL A   1      48.066  27.139  38.508  1.00  0.00     0.124 S 
ATOM     78  O   UNL A   1      48.193  25.758  38.051  1.00  0.00    -0.237 OA
ATOM     79  O   UNL A   1      49.146  28.039  38.112  1.00  0.00    -0.237 OA
ATOM     80  O   UNL A   1      47.600  27.304  39.882  1.00  0.00    -0.744 OA
ENDBRANCH  76  77
ENDBRANCH  48  71
BRANCH  60  81
ATOM     81  C   UNL A   1      39.847  33.620  37.455  1.00  0.00    -0.014 A 
ATOM     82  C   UNL A   1      40.394  34.916  37.491  1.00  0.00     0.010 A 
ATOM     83  C   UNL A   1      39.047  33.185  38.528  1.00  0.00     0.010 A 
ATOM     84  C   UNL A   1      40.163  35.750  38.590  1.00  0.00     0.020 A 
ATOM     85  C   UNL A   1      38.794  34.025  39.616  1.00  0.00     0.020 A 
ATOM     86  C   UNL A   1      39.364  35.299  39.646  1.00  0.00     0.054 A 
BRANCH  86  87
ATOM     87  S   UNL A   1      39.035  36.419  41.034  1.00  0.00     0.124 S 
ATOM     88  O   UNL A   1      37.964  35.722  41.740  1.00  0.00    -0.237 OA
ATOM     89  O   UNL A   1      40.320  36.463  41.727  1.00  0.00    -0.237 OA
ATOM     90  O   UNL A   1      38.642  37.669  40.385  1.00  0.00    -0.744 OA
ENDBRANCH  86  87
ENDBRANCH  60  81
ENDBRANCH  34  35
ENDBRANCH  27  29
ENDBRANCH  26  27
ENDBRANCH  25  26
ENDBRANCH   1  25
TORSDOF 17
ENDMDL
