MODEL 1
REMARK VINA RESULT:     -11.4      0.000      0.000
REMARK SMILES CCC(CC)([NH2+]CC(=O)Nc1ccc(C)cc1)C(=O)OCCOC(=O)c1ccc(-c2c3nc(c(-c4ccc(S(=O)(=O)[O-])cc4)c4ccc([nH]4)c(-c4ccc(S(=O)(=O)[O-])cc4)c4nc(c(-c5ccc(S(=O)(=O)[O-])cc5)c5ccc2[nH]5)C=C4)C=C3)cc1
REMARK SMILES IDX 21 1 20 2 18 3 19 4 3 5 2 6 1 7 4 8 5 9 6 10 7 13 8 14 9 15
REMARK SMILES IDX 10 16 11 18 12 19 17 20 13 21 16 22 14 23 15 24 22 25 23 26
REMARK SMILES IDX 24 27 25 28 26 29 27 30 85 31 28 32 84 33 29 34 30 35 31 36
REMARK SMILES IDX 78 37 32 38 83 39 77 40 79 41 33 42 82 43 76 44 75 45 34 47
REMARK SMILES IDX 64 48 45 49 63 50 46 51 49 52 62 53 80 54 47 55 48 56 61 58
REMARK SMILES IDX 81 59 50 60 35 61 36 62 44 63 37 64 43 65 38 66 39 67 40 68
REMARK SMILES IDX 41 69 42 70 65 71 66 72 74 73 67 74 73 75 68 76 69 77 70 78
REMARK SMILES IDX 71 79 72 80 51 81 52 82 60 83 53 84 59 85 54 86 55 87 56 88
REMARK SMILES IDX 57 89 58 90
REMARK H PARENT 6 11 6 12 10 17 79 46 49 57
REMARK Flexibility Score: inf
ROOT
ATOM      1  C   UNL A   1      33.050  29.591  25.864  1.00  0.00     0.274 C 
ENDROOT
BRANCH   1   2
ATOM      2  O   UNL A   1      33.626  28.626  24.758  1.00  0.00    -0.457 OA
BRANCH   2   3
ATOM      3  C   UNL A   1      32.893  27.463  24.668  1.00  0.00     0.368 C 
ATOM      4  O   UNL A   1      33.509  26.541  25.224  1.00  0.00    -0.245 OA
BRANCH   3   5
ATOM      5  C   UNL A   1      31.237  27.108  23.892  1.00  0.00     0.194 C 
BRANCH   5   6
ATOM      6  C   UNL A   1      31.139  25.940  22.791  1.00  0.00     0.077 C 
ATOM      7  C   UNL A   1      32.206  25.881  21.585  1.00  0.00     0.011 C 
ENDBRANCH   5   6
BRANCH   5   8
ATOM      8  C   UNL A   1      29.773  27.909  23.508  1.00  0.00     0.077 C 
ATOM      9  C   UNL A   1      29.761  29.118  22.536  1.00  0.00     0.011 C 
ENDBRANCH   5   8
BRANCH   5  10
ATOM     10  N   UNL A   1      30.743  27.083  25.277  1.00  0.00    -0.324 N 
ATOM     11  H   UNL A   1      30.011  27.783  25.397  1.00  0.00     0.347 HD
ATOM     12  H   UNL A   1      31.499  27.293  25.929  1.00  0.00     0.347 HD
BRANCH  10  13
ATOM     13  C   UNL A   1      30.156  25.634  25.557  1.00  0.00     0.363 C 
BRANCH  13  14
ATOM     14  C   UNL A   1      31.162  24.164  26.002  1.00  0.00     0.279 C 
ATOM     15  O   UNL A   1      31.116  23.919  27.221  1.00  0.00    -0.268 OA
ATOM     16  N   UNL A   1      32.131  23.378  24.952  1.00  0.00    -0.321 N 
ATOM     17  H   UNL A   1      32.428  24.043  24.291  1.00  0.00     0.170 HD
BRANCH  16  18
ATOM     18  C   UNL A   1      32.993  21.599  24.419  1.00  0.00     0.041 A 
ATOM     19  C   UNL A   1      32.379  20.548  23.539  1.00  0.00     0.026 A 
ATOM     20  C   UNL A   1      34.218  20.842  24.963  1.00  0.00     0.026 A 
ATOM     21  C   UNL A   1      32.559  19.182  23.584  1.00  0.00     0.005 A 
ATOM     22  C   UNL A   1      34.532  19.459  24.810  1.00  0.00     0.005 A 
ATOM     23  C   UNL A   1      33.649  18.620  24.171  1.00  0.00    -0.051 A 
ATOM     24  C   UNL A   1      33.859  17.195  23.821  1.00  0.00     0.044 C 
ENDBRANCH  16  18
ENDBRANCH  13  14
ENDBRANCH  10  13
ENDBRANCH   5  10
ENDBRANCH   3   5
ENDBRANCH   2   3
ENDBRANCH   1   2
BRANCH   1  25
ATOM     25  C   UNL A   1      33.962  30.144  27.019  1.00  0.00     0.275 C 
BRANCH  25  26
ATOM     26  O   UNL A   1      35.189  29.474  27.202  1.00  0.00    -0.458 OA
BRANCH  26  27
ATOM     27  C   UNL A   1      36.033  30.351  27.740  1.00  0.00     0.338 C 
ATOM     28  O   UNL A   1      35.867  31.553  27.816  1.00  0.00    -0.246 OA
BRANCH  27  29
ATOM     29  C   UNL A   1      37.120  29.581  28.408  1.00  0.00     0.060 A 
ATOM     30  C   UNL A   1      36.600  29.303  30.127  1.00  0.00     0.016 A 
ATOM     31  C   UNL A   1      38.894  29.720  27.953  1.00  0.00     0.016 A 
ATOM     32  C   UNL A   1      37.804  29.492  31.485  1.00  0.00     0.010 A 
ATOM     33  C   UNL A   1      40.123  29.818  29.339  1.00  0.00     0.010 A 
ATOM     34  C   UNL A   1      39.509  29.790  31.066  1.00  0.00    -0.014 A 
BRANCH  34  35
ATOM     35  C   UNL A   1      40.330  30.501  32.032  1.00  0.00     0.031 A 
ATOM     36  C   UNL A   1      41.303  29.503  32.536  1.00  0.00     0.074 A 
ATOM     37  C   UNL A   1      40.217  31.866  31.886  1.00  0.00     0.049 A 
ATOM     38  N   UNL A   1      41.985  29.549  33.631  1.00  0.00    -0.248 NA
ATOM     39  C   UNL A   1      41.468  28.141  31.935  1.00  0.00     0.031 C 
ATOM     40  C   UNL A   1      41.155  32.971  31.668  1.00  0.00     0.029 A 
ATOM     41  N   UNL A   1      39.001  32.586  31.803  1.00  0.00    -0.354 N 
ATOM     42  C   UNL A   1      43.101  28.824  33.256  1.00  0.00     0.074 A 
ATOM     43  C   UNL A   1      42.574  27.702  32.538  1.00  0.00     0.031 C 
ATOM     44  C   UNL A   1      40.539  34.178  31.790  1.00  0.00     0.029 A 
ATOM     45  C   UNL A   1      39.112  33.964  32.038  1.00  0.00     0.049 A 
ATOM     46  H   UNL A   1      38.141  32.151  31.598  1.00  0.00     0.167 HD
ATOM     47  C   UNL A   1      44.228  29.539  32.939  1.00  0.00     0.031 A 
ATOM     48  C   UNL A   1      38.309  34.571  32.957  1.00  0.00     0.031 A 
ATOM     49  C   UNL A   1      44.048  30.996  33.157  1.00  0.00     0.049 A 
ATOM     50  C   UNL A   1      39.144  34.407  34.207  1.00  0.00     0.074 A 
ATOM     51  C   UNL A   1      44.320  32.151  32.448  1.00  0.00     0.029 A 
ATOM     52  N   UNL A   1      43.247  31.417  34.216  1.00  0.00    -0.354 N 
ATOM     53  N   UNL A   1      40.024  33.444  34.348  1.00  0.00    -0.248 NA
ATOM     54  C   UNL A   1      39.277  35.453  35.210  1.00  0.00     0.031 C 
ATOM     55  C   UNL A   1      43.717  33.255  33.156  1.00  0.00     0.029 A 
ATOM     56  C   UNL A   1      42.969  32.759  34.217  1.00  0.00     0.049 A 
ATOM     57  H   UNL A   1      42.909  30.801  34.905  1.00  0.00     0.167 HD
ATOM     58  C   UNL A   1      40.977  33.853  35.223  1.00  0.00     0.074 A 
ATOM     59  C   UNL A   1      40.422  35.073  35.802  1.00  0.00     0.031 C 
ATOM     60  C   UNL A   1      42.224  33.311  35.351  1.00  0.00     0.031 A 
BRANCH  47  61
ATOM     61  C   UNL A   1      45.461  28.940  32.296  1.00  0.00    -0.014 A 
ATOM     62  C   UNL A   1      45.533  29.016  30.893  1.00  0.00     0.010 A 
ATOM     63  C   UNL A   1      46.585  28.386  32.950  1.00  0.00     0.010 A 
ATOM     64  C   UNL A   1      46.675  28.637  30.184  1.00  0.00     0.020 A 
ATOM     65  C   UNL A   1      47.751  28.018  32.251  1.00  0.00     0.020 A 
ATOM     66  C   UNL A   1      47.792  28.170  30.870  1.00  0.00     0.054 A 
BRANCH  66  67
ATOM     67  S   UNL A   1      49.296  27.832  29.920  1.00  0.00     0.124 S 
ATOM     68  O   UNL A   1      49.439  29.047  29.120  1.00  0.00    -0.237 OA
ATOM     69  O   UNL A   1      50.294  27.649  30.971  1.00  0.00    -0.237 OA
ATOM     70  O   UNL A   1      48.969  26.626  29.162  1.00  0.00    -0.744 OA
ENDBRANCH  66  67
ENDBRANCH  47  61
BRANCH  48  71
ATOM     71  C   UNL A   1      36.812  34.353  32.797  1.00  0.00    -0.014 A 
ATOM     72  C   UNL A   1      35.931  34.629  33.883  1.00  0.00     0.010 A 
ATOM     73  C   UNL A   1      36.217  34.229  31.532  1.00  0.00     0.010 A 
ATOM     74  C   UNL A   1      34.560  34.940  33.683  1.00  0.00     0.020 A 
ATOM     75  C   UNL A   1      34.854  34.549  31.320  1.00  0.00     0.020 A 
ATOM     76  C   UNL A   1      34.043  34.963  32.386  1.00  0.00     0.054 A 
BRANCH  76  77
ATOM     77  S   UNL A   1      32.520  35.967  32.035  1.00  0.00     0.124 S 
ATOM     78  O   UNL A   1      32.552  36.101  30.585  1.00  0.00    -0.237 OA
ATOM     79  O   UNL A   1      31.451  35.117  32.553  1.00  0.00    -0.237 OA
ATOM     80  O   UNL A   1      32.769  37.194  32.789  1.00  0.00    -0.744 OA
ENDBRANCH  76  77
ENDBRANCH  48  71
BRANCH  60  81
ATOM     81  C   UNL A   1      42.806  33.141  36.727  1.00  0.00    -0.014 A 
ATOM     82  C   UNL A   1      42.204  32.369  37.726  1.00  0.00     0.010 A 
ATOM     83  C   UNL A   1      44.094  33.658  37.003  1.00  0.00     0.010 A 
ATOM     84  C   UNL A   1      42.781  32.247  38.980  1.00  0.00     0.020 A 
ATOM     85  C   UNL A   1      44.730  33.455  38.217  1.00  0.00     0.020 A 
ATOM     86  C   UNL A   1      44.035  32.800  39.218  1.00  0.00     0.054 A 
BRANCH  86  87
ATOM     87  S   UNL A   1      44.726  32.664  40.865  1.00  0.00     0.124 S 
ATOM     88  O   UNL A   1      44.090  33.793  41.540  1.00  0.00    -0.237 OA
ATOM     89  O   UNL A   1      44.268  31.341  41.285  1.00  0.00    -0.237 OA
ATOM     90  O   UNL A   1      46.165  32.787  40.653  1.00  0.00    -0.744 OA
ENDBRANCH  86  87
ENDBRANCH  60  81
ENDBRANCH  34  35
ENDBRANCH  27  29
ENDBRANCH  26  27
ENDBRANCH  25  26
ENDBRANCH   1  25
TORSDOF 20
ENDMDL
MODEL 2
REMARK VINA RESULT:     -11.3      4.809      7.983
REMARK SMILES CCC(CC)([NH2+]CC(=O)Nc1ccc(C)cc1)C(=O)OCCOC(=O)c1ccc(-c2c3nc(c(-c4ccc(S(=O)(=O)[O-])cc4)c4ccc([nH]4)c(-c4ccc(S(=O)(=O)[O-])cc4)c4nc(c(-c5ccc(S(=O)(=O)[O-])cc5)c5ccc2[nH]5)C=C4)C=C3)cc1
REMARK SMILES IDX 21 1 20 2 18 3 19 4 3 5 2 6 1 7 4 8 5 9 6 10 7 13 8 14 9 15
REMARK SMILES IDX 10 16 11 18 12 19 17 20 13 21 16 22 14 23 15 24 22 25 23 26
REMARK SMILES IDX 24 27 25 28 26 29 27 30 85 31 28 32 84 33 29 34 30 35 31 36
REMARK SMILES IDX 78 37 32 38 83 39 77 40 79 41 33 42 82 43 76 44 75 45 34 47
REMARK SMILES IDX 64 48 45 49 63 50 46 51 49 52 62 53 80 54 47 55 48 56 61 58
REMARK SMILES IDX 81 59 50 60 35 61 36 62 44 63 37 64 43 65 38 66 39 67 40 68
REMARK SMILES IDX 41 69 42 70 65 71 66 72 74 73 67 74 73 75 68 76 69 77 70 78
REMARK SMILES IDX 71 79 72 80 51 81 52 82 60 83 53 84 59 85 54 86 55 87 56 88
REMARK SMILES IDX 57 89 58 90
REMARK H PARENT 6 11 6 12 10 17 79 46 49 57
REMARK Flexibility Score: inf
ROOT
ATOM      1  C   UNL A   1      34.391  29.317  27.597  1.00  0.00     0.274 C 
ENDROOT
BRANCH   1   2
ATOM      2  O   UNL A   1      34.440  28.319  26.377  1.00  0.00    -0.457 OA
BRANCH   2   3
ATOM      3  C   UNL A   1      33.180  28.053  25.889  1.00  0.00     0.368 C 
ATOM      4  O   UNL A   1      32.330  28.568  26.631  1.00  0.00    -0.245 OA
BRANCH   3   5
ATOM      5  C   UNL A   1      32.616  27.104  24.387  1.00  0.00     0.194 C 
BRANCH   5   6
ATOM      6  C   UNL A   1      33.517  27.166  23.056  1.00  0.00     0.077 C 
ATOM      7  C   UNL A   1      34.025  28.589  22.496  1.00  0.00     0.011 C 
ENDBRANCH   5   6
BRANCH   5   8
ATOM      8  C   UNL A   1      31.171  26.544  23.659  1.00  0.00     0.077 C 
ATOM      9  C   UNL A   1      29.871  27.389  23.721  1.00  0.00     0.011 C 
ENDBRANCH   5   8
BRANCH   5  10
ATOM     10  N   UNL A   1      32.466  25.977  25.320  1.00  0.00    -0.324 N 
ATOM     11  H   UNL A   1      31.542  26.006  25.753  1.00  0.00     0.347 HD
ATOM     12  H   UNL A   1      33.168  26.029  26.058  1.00  0.00     0.347 HD
BRANCH  10  13
ATOM     13  C   UNL A   1      32.633  24.634  24.490  1.00  0.00     0.363 C 
BRANCH  13  14
ATOM     14  C   UNL A   1      34.054  23.481  24.637  1.00  0.00     0.279 C 
ATOM     15  O   UNL A   1      33.850  22.410  24.037  1.00  0.00    -0.268 OA
ATOM     16  N   UNL A   1      35.355  23.762  25.580  1.00  0.00    -0.321 N 
ATOM     17  H   UNL A   1      35.044  24.318  26.329  1.00  0.00     0.170 HD
BRANCH  16  18
ATOM     18  C   UNL A   1      37.357  23.452  25.872  1.00  0.00     0.041 A 
ATOM     19  C   UNL A   1      38.111  22.191  25.561  1.00  0.00     0.026 A 
ATOM     20  C   UNL A   1      38.416  24.232  26.672  1.00  0.00     0.026 A 
ATOM     21  C   UNL A   1      39.215  21.673  26.202  1.00  0.00     0.005 A 
ATOM     22  C   UNL A   1      39.679  23.765  27.142  1.00  0.00     0.005 A 
ATOM     23  C   UNL A   1      40.038  22.450  26.956  1.00  0.00    -0.051 A 
ATOM     24  C   UNL A   1      41.345  21.824  27.269  1.00  0.00     0.044 C 
ENDBRANCH  16  18
ENDBRANCH  13  14
ENDBRANCH  10  13
ENDBRANCH   5  10
ENDBRANCH   3   5
ENDBRANCH   2   3
ENDBRANCH   1   2
BRANCH   1  25
ATOM     25  C   UNL A   1      35.678  30.079  28.079  1.00  0.00     0.275 C 
BRANCH  25  26
ATOM     26  O   UNL A   1      36.128  29.755  29.376  1.00  0.00    -0.458 OA
BRANCH  26  27
ATOM     27  C   UNL A   1      37.415  30.092  29.435  1.00  0.00     0.338 C 
ATOM     28  O   UNL A   1      37.857  31.209  29.627  1.00  0.00    -0.246 OA
BRANCH  27  29
ATOM     29  C   UNL A   1      38.213  28.834  29.421  1.00  0.00     0.060 A 
ATOM     30  C   UNL A   1      39.293  28.869  30.882  1.00  0.00     0.016 A 
ATOM     31  C   UNL A   1      38.707  27.958  27.884  1.00  0.00     0.016 A 
ATOM     32  C   UNL A   1      41.030  28.327  30.744  1.00  0.00     0.010 A 
ATOM     33  C   UNL A   1      40.448  27.325  27.787  1.00  0.00     0.010 A 
ATOM     34  C   UNL A   1      41.574  27.621  29.204  1.00  0.00    -0.014 A 
BRANCH  34  35
ATOM     35  C   UNL A   1      42.984  27.732  28.867  1.00  0.00     0.031 A 
ATOM     36  C   UNL A   1      43.517  26.350  28.933  1.00  0.00     0.074 A 
ATOM     37  C   UNL A   1      43.265  28.929  28.248  1.00  0.00     0.049 A 
ATOM     38  N   UNL A   1      44.747  25.985  29.064  1.00  0.00    -0.248 NA
ATOM     39  C   UNL A   1      42.647  25.141  29.089  1.00  0.00     0.031 C 
ATOM     40  C   UNL A   1      43.886  29.327  26.982  1.00  0.00     0.029 A 
ATOM     41  N   UNL A   1      42.874  30.208  28.715  1.00  0.00    -0.354 N 
ATOM     42  C   UNL A   1      44.715  24.768  28.409  1.00  0.00     0.074 A 
ATOM     43  C   UNL A   1      43.507  24.147  28.868  1.00  0.00     0.031 C 
ATOM     44  C   UNL A   1      44.103  30.669  26.932  1.00  0.00     0.029 A 
ATOM     45  C   UNL A   1      43.577  31.284  28.152  1.00  0.00     0.049 A 
ATOM     46  H   UNL A   1      42.163  30.332  29.386  1.00  0.00     0.167 HD
ATOM     47  C   UNL A   1      45.212  24.737  27.130  1.00  0.00     0.031 A 
ATOM     48  C   UNL A   1      44.163  32.216  28.955  1.00  0.00     0.031 A 
ATOM     49  C   UNL A   1      45.791  26.042  26.723  1.00  0.00     0.049 A 
ATOM     50  C   UNL A   1      45.521  31.587  29.164  1.00  0.00     0.074 A 
ATOM     51  C   UNL A   1      45.718  26.863  25.613  1.00  0.00     0.029 A 
ATOM     52  N   UNL A   1      46.432  26.816  27.688  1.00  0.00    -0.354 N 
ATOM     53  N   UNL A   1      45.724  30.294  29.072  1.00  0.00    -0.248 NA
ATOM     54  C   UNL A   1      46.755  32.360  29.173  1.00  0.00     0.031 C 
ATOM     55  C   UNL A   1      46.388  28.101  25.935  1.00  0.00     0.029 A 
ATOM     56  C   UNL A   1      46.749  28.084  27.276  1.00  0.00     0.049 A 
ATOM     57  H   UNL A   1      46.638  26.480  28.589  1.00  0.00     0.167 HD
ATOM     58  C   UNL A   1      47.020  30.083  28.729  1.00  0.00     0.074 A 
ATOM     59  C   UNL A   1      47.645  31.393  28.892  1.00  0.00     0.031 C 
ATOM     60  C   UNL A   1      47.522  28.935  28.186  1.00  0.00     0.031 A 
BRANCH  47  61
ATOM     61  C   UNL A   1      45.053  23.566  26.185  1.00  0.00    -0.014 A 
ATOM     62  C   UNL A   1      45.973  22.513  26.334  1.00  0.00     0.010 A 
ATOM     63  C   UNL A   1      44.036  23.376  25.220  1.00  0.00     0.010 A 
ATOM     64  C   UNL A   1      45.852  21.313  25.630  1.00  0.00     0.020 A 
ATOM     65  C   UNL A   1      43.891  22.164  24.517  1.00  0.00     0.020 A 
ATOM     66  C   UNL A   1      44.792  21.131  24.748  1.00  0.00     0.054 A 
BRANCH  66  67
ATOM     67  S   UNL A   1      44.597  19.507  23.971  1.00  0.00     0.124 S 
ATOM     68  O   UNL A   1      45.832  18.829  24.353  1.00  0.00    -0.237 OA
ATOM     69  O   UNL A   1      43.381  19.004  24.605  1.00  0.00    -0.237 OA
ATOM     70  O   UNL A   1      44.471  19.812  22.547  1.00  0.00    -0.744 OA
ENDBRANCH  66  67
ENDBRANCH  47  61
BRANCH  48  71
ATOM     71  C   UNL A   1      43.267  32.875  29.993  1.00  0.00    -0.014 A 
ATOM     72  C   UNL A   1      42.107  33.594  29.581  1.00  0.00     0.010 A 
ATOM     73  C   UNL A   1      43.325  32.518  31.349  1.00  0.00     0.010 A 
ATOM     74  C   UNL A   1      40.992  33.786  30.439  1.00  0.00     0.020 A 
ATOM     75  C   UNL A   1      42.213  32.694  32.210  1.00  0.00     0.020 A 
ATOM     76  C   UNL A   1      41.028  33.272  31.737  1.00  0.00     0.054 A 
BRANCH  76  77
ATOM     77  S   UNL A   1      39.430  32.923  32.618  1.00  0.00     0.124 S 
ATOM     78  O   UNL A   1      39.643  33.539  33.921  1.00  0.00    -0.237 OA
ATOM     79  O   UNL A   1      38.447  33.595  31.772  1.00  0.00    -0.237 OA
ATOM     80  O   UNL A   1      39.375  31.463  32.609  1.00  0.00    -0.744 OA
ENDBRANCH  76  77
ENDBRANCH  48  71
BRANCH  60  81
ATOM     81  C   UNL A   1      48.866  28.440  28.644  1.00  0.00    -0.014 A 
ATOM     82  C   UNL A   1      49.100  27.925  29.923  1.00  0.00     0.010 A 
ATOM     83  C   UNL A   1      49.925  28.346  27.710  1.00  0.00     0.010 A 
ATOM     84  C   UNL A   1      50.360  27.484  30.297  1.00  0.00     0.020 A 
ATOM     85  C   UNL A   1      51.159  27.810  28.039  1.00  0.00     0.020 A 
ATOM     86  C   UNL A   1      51.382  27.440  29.353  1.00  0.00     0.054 A 
BRANCH  86  87
ATOM     87  S   UNL A   1      53.008  26.911  29.886  1.00  0.00     0.124 S 
ATOM     88  O   UNL A   1      52.671  25.955  30.939  1.00  0.00    -0.237 OA
ATOM     89  O   UNL A   1      53.562  26.332  28.664  1.00  0.00    -0.237 OA
ATOM     90  O   UNL A   1      53.647  28.144  30.338  1.00  0.00    -0.744 OA
ENDBRANCH  86  87
ENDBRANCH  60  81
ENDBRANCH  34  35
ENDBRANCH  27  29
ENDBRANCH  26  27
ENDBRANCH  25  26
ENDBRANCH   1  25
TORSDOF 20
ENDMDL
MODEL 3
REMARK VINA RESULT:     -11.0      4.920     10.812
REMARK SMILES CCC(CC)([NH2+]CC(=O)Nc1ccc(C)cc1)C(=O)OCCOC(=O)c1ccc(-c2c3nc(c(-c4ccc(S(=O)(=O)[O-])cc4)c4ccc([nH]4)c(-c4ccc(S(=O)(=O)[O-])cc4)c4nc(c(-c5ccc(S(=O)(=O)[O-])cc5)c5ccc2[nH]5)C=C4)C=C3)cc1
REMARK SMILES IDX 21 1 20 2 18 3 19 4 3 5 2 6 1 7 4 8 5 9 6 10 7 13 8 14 9 15
REMARK SMILES IDX 10 16 11 18 12 19 17 20 13 21 16 22 14 23 15 24 22 25 23 26
REMARK SMILES IDX 24 27 25 28 26 29 27 30 85 31 28 32 84 33 29 34 30 35 31 36
REMARK SMILES IDX 78 37 32 38 83 39 77 40 79 41 33 42 82 43 76 44 75 45 34 47
REMARK SMILES IDX 64 48 45 49 63 50 46 51 49 52 62 53 80 54 47 55 48 56 61 58
REMARK SMILES IDX 81 59 50 60 35 61 36 62 44 63 37 64 43 65 38 66 39 67 40 68
REMARK SMILES IDX 41 69 42 70 65 71 66 72 74 73 67 74 73 75 68 76 69 77 70 78
REMARK SMILES IDX 71 79 72 80 51 81 52 82 60 83 53 84 59 85 54 86 55 87 56 88
REMARK SMILES IDX 57 89 58 90
REMARK H PARENT 6 11 6 12 10 17 79 46 49 57
REMARK Flexibility Score: inf
ROOT
ATOM      1  C   UNL A   1      43.821  25.041  25.584  1.00  0.00     0.274 C 
ENDROOT
BRANCH   1   2
ATOM      2  O   UNL A   1      44.008  23.542  26.036  1.00  0.00    -0.457 OA
BRANCH   2   3
ATOM      3  C   UNL A   1      43.005  22.735  25.545  1.00  0.00     0.368 C 
ATOM      4  O   UNL A   1      42.980  22.812  24.308  1.00  0.00    -0.245 OA
BRANCH   3   5
ATOM      5  C   UNL A   1      41.780  21.629  26.410  1.00  0.00     0.194 C 
BRANCH   5   6
ATOM      6  C   UNL A   1      42.190  20.100  26.690  1.00  0.00     0.077 C 
ATOM      7  C   UNL A   1      42.611  19.143  25.464  1.00  0.00     0.011 C 
ENDBRANCH   5   6
BRANCH   5   8
ATOM      8  C   UNL A   1      40.089  21.453  26.608  1.00  0.00     0.077 C 
ATOM      9  C   UNL A   1      39.177  21.131  25.395  1.00  0.00     0.011 C 
ENDBRANCH   5   8
BRANCH   5  10
ATOM     10  N   UNL A   1      41.679  22.726  27.384  1.00  0.00    -0.324 N 
ATOM     11  H   UNL A   1      40.698  22.933  27.574  1.00  0.00     0.347 HD
ATOM     12  H   UNL A   1      42.120  23.570  27.017  1.00  0.00     0.347 HD
BRANCH  10  13
ATOM     13  C   UNL A   1      42.402  22.260  28.718  1.00  0.00     0.363 C 
BRANCH  13  14
ATOM     14  C   UNL A   1      43.224  23.384  29.914  1.00  0.00     0.279 C 
ATOM     15  O   UNL A   1      43.442  24.507  29.423  1.00  0.00    -0.268 OA
ATOM     16  N   UNL A   1      43.756  22.914  31.381  1.00  0.00    -0.321 N 
ATOM     17  H   UNL A   1      43.988  21.961  31.304  1.00  0.00     0.170 HD
BRANCH  16  18
ATOM     18  C   UNL A   1      44.149  23.456  33.316  1.00  0.00     0.041 A 
ATOM     19  C   UNL A   1      43.146  23.537  34.432  1.00  0.00     0.026 A 
ATOM     20  C   UNL A   1      45.367  24.132  33.972  1.00  0.00     0.026 A 
ATOM     21  C   UNL A   1      43.141  24.385  35.518  1.00  0.00     0.005 A 
ATOM     22  C   UNL A   1      45.422  24.816  35.222  1.00  0.00     0.005 A 
ATOM     23  C   UNL A   1      44.274  24.995  35.958  1.00  0.00    -0.051 A 
ATOM     24  C   UNL A   1      44.161  25.572  37.320  1.00  0.00     0.044 C 
ENDBRANCH  16  18
ENDBRANCH  13  14
ENDBRANCH  10  13
ENDBRANCH   5  10
ENDBRANCH   3   5
ENDBRANCH   2   3
ENDBRANCH   1   2
BRANCH   1  25
ATOM     25  C   UNL A   1      42.604  25.899  26.087  1.00  0.00     0.275 C 
BRANCH  25  26
ATOM     26  O   UNL A   1      42.870  26.754  27.177  1.00  0.00    -0.458 OA
BRANCH  26  27
ATOM     27  C   UNL A   1      43.344  27.891  26.670  1.00  0.00     0.338 C 
ATOM     28  O   UNL A   1      44.297  28.001  25.923  1.00  0.00    -0.246 OA
BRANCH  27  29
ATOM     29  C   UNL A   1      42.385  28.976  27.019  1.00  0.00     0.060 A 
ATOM     30  C   UNL A   1      43.364  30.379  27.631  1.00  0.00     0.016 A 
ATOM     31  C   UNL A   1      40.673  28.670  27.611  1.00  0.00     0.016 A 
ATOM     32  C   UNL A   1      42.799  31.317  29.091  1.00  0.00     0.010 A 
ATOM     33  C   UNL A   1      40.070  29.693  29.036  1.00  0.00     0.010 A 
ATOM     34  C   UNL A   1      41.205  30.925  29.781  1.00  0.00    -0.014 A 
BRANCH  34  35
ATOM     35  C   UNL A   1      40.993  31.194  31.194  1.00  0.00     0.031 A 
ATOM     36  C   UNL A   1      40.347  32.527  31.250  1.00  0.00     0.074 A 
ATOM     37  C   UNL A   1      41.082  30.046  31.948  1.00  0.00     0.049 A 
ATOM     38  N   UNL A   1      40.289  33.334  32.255  1.00  0.00    -0.248 NA
ATOM     39  C   UNL A   1      39.847  33.249  30.036  1.00  0.00     0.031 C 
ATOM     40  C   UNL A   1      40.209  29.356  32.902  1.00  0.00     0.029 A 
ATOM     41  N   UNL A   1      42.134  29.101  31.886  1.00  0.00    -0.354 N 
ATOM     42  C   UNL A   1      39.100  33.985  31.980  1.00  0.00     0.074 A 
ATOM     43  C   UNL A   1      39.158  34.256  30.574  1.00  0.00     0.031 C 
ATOM     44  C   UNL A   1      40.859  28.338  33.527  1.00  0.00     0.029 A 
ATOM     45  C   UNL A   1      42.214  28.231  32.984  1.00  0.00     0.049 A 
ATOM     46  H   UNL A   1      42.764  29.058  31.129  1.00  0.00     0.167 HD
ATOM     47  C   UNL A   1      37.995  33.587  32.689  1.00  0.00     0.031 A 
ATOM     48  C   UNL A   1      43.390  28.080  33.656  1.00  0.00     0.031 A 
ATOM     49  C   UNL A   1      38.325  32.563  33.712  1.00  0.00     0.049 A 
ATOM     50  C   UNL A   1      43.265  29.182  34.684  1.00  0.00     0.074 A 
ATOM     51  C   UNL A   1      37.793  31.352  34.118  1.00  0.00     0.029 A 
ATOM     52  N   UNL A   1      39.558  32.635  34.353  1.00  0.00    -0.354 N 
ATOM     53  N   UNL A   1      42.524  30.247  34.492  1.00  0.00    -0.248 NA
ATOM     54  C   UNL A   1      43.686  29.021  36.068  1.00  0.00     0.031 C 
ATOM     55  C   UNL A   1      38.715  30.761  35.059  1.00  0.00     0.029 A 
ATOM     56  C   UNL A   1      39.862  31.542  35.122  1.00  0.00     0.049 A 
ATOM     57  H   UNL A   1      40.162  33.407  34.261  1.00  0.00     0.167 HD
ATOM     58  C   UNL A   1      42.139  30.730  35.700  1.00  0.00     0.074 A 
ATOM     59  C   UNL A   1      42.961  29.989  36.653  1.00  0.00     0.031 C 
ATOM     60  C   UNL A   1      41.090  31.576  35.921  1.00  0.00     0.031 A 
BRANCH  47  61
ATOM     61  C   UNL A   1      36.580  34.018  32.369  1.00  0.00    -0.014 A 
ATOM     62  C   UNL A   1      35.976  34.904  33.278  1.00  0.00     0.010 A 
ATOM     63  C   UNL A   1      35.825  33.692  31.218  1.00  0.00     0.010 A 
ATOM     64  C   UNL A   1      34.734  35.494  33.031  1.00  0.00     0.020 A 
ATOM     65  C   UNL A   1      34.581  34.294  30.946  1.00  0.00     0.020 A 
ATOM     66  C   UNL A   1      34.056  35.211  31.849  1.00  0.00     0.054 A 
BRANCH  66  67
ATOM     67  S   UNL A   1      32.523  36.112  31.509  1.00  0.00     0.124 S 
ATOM     68  O   UNL A   1      32.804  37.429  32.073  1.00  0.00    -0.237 OA
ATOM     69  O   UNL A   1      32.446  36.055  30.051  1.00  0.00    -0.237 OA
ATOM     70  O   UNL A   1      31.499  35.341  32.212  1.00  0.00    -0.744 OA
ENDBRANCH  66  67
ENDBRANCH  47  61
BRANCH  48  71
ATOM     71  C   UNL A   1      44.606  27.716  32.819  1.00  0.00    -0.014 A 
ATOM     72  C   UNL A   1      44.514  26.687  31.837  1.00  0.00     0.010 A 
ATOM     73  C   UNL A   1      45.713  28.572  32.716  1.00  0.00     0.010 A 
ATOM     74  C   UNL A   1      45.382  26.632  30.714  1.00  0.00     0.020 A 
ATOM     75  C   UNL A   1      46.578  28.534  31.594  1.00  0.00     0.020 A 
ATOM     76  C   UNL A   1      46.374  27.604  30.566  1.00  0.00     0.054 A 
BRANCH  76  77
ATOM     77  S   UNL A   1      47.053  27.954  28.873  1.00  0.00     0.124 S 
ATOM     78  O   UNL A   1      46.488  29.262  28.566  1.00  0.00    -0.237 OA
ATOM     79  O   UNL A   1      48.496  27.944  29.100  1.00  0.00    -0.237 OA
ATOM     80  O   UNL A   1      46.532  26.839  28.085  1.00  0.00    -0.744 OA
ENDBRANCH  76  77
ENDBRANCH  48  71
BRANCH  60  81
ATOM     81  C   UNL A   1      41.247  32.683  36.927  1.00  0.00    -0.014 A 
ATOM     82  C   UNL A   1      40.543  32.728  38.135  1.00  0.00     0.010 A 
ATOM     83  C   UNL A   1      42.250  33.661  36.731  1.00  0.00     0.010 A 
ATOM     84  C   UNL A   1      40.722  33.774  39.027  1.00  0.00     0.020 A 
ATOM     85  C   UNL A   1      42.513  34.652  37.663  1.00  0.00     0.020 A 
ATOM     86  C   UNL A   1      41.699  34.733  38.778  1.00  0.00     0.054 A 
BRANCH  86  87
ATOM     87  S   UNL A   1      41.865  36.095  39.929  1.00  0.00     0.124 S 
ATOM     88  O   UNL A   1      41.353  37.209  39.136  1.00  0.00    -0.237 OA
ATOM     89  O   UNL A   1      41.015  35.669  41.039  1.00  0.00    -0.237 OA
ATOM     90  O   UNL A   1      43.295  36.135  40.220  1.00  0.00    -0.744 OA
ENDBRANCH  86  87
ENDBRANCH  60  81
ENDBRANCH  34  35
ENDBRANCH  27  29
ENDBRANCH  26  27
ENDBRANCH  25  26
ENDBRANCH   1  25
TORSDOF 20
ENDMDL
