MODEL 1
REMARK VINA RESULT:      -9.6      0.000      0.000
REMARK SMILES COCCOCC[C@@H]1CCC[C@]1([NH3+])C(=O)OCCOC(=O)c1ccc(-c2c3nc(c(-c4ccc(S(=O)(=O)[O-])cc4)c4ccc([nH]4)c(-c4ccc(S(=O)(=O)[O-])cc4)c4nc(c(-c5ccc(S(=O)(=O)[O-])cc5)c5ccc2[nH]5)C=C4)C=C3)cc1
REMARK SMILES IDX 16 1 14 2 15 3 12 4 8 5 9 6 10 7 11 8 7 9 6 10 5 11 4 12
REMARK SMILES IDX 3 13 2 14 1 15 13 16 17 20 18 21 19 22 20 23 21 24 22 25
REMARK SMILES IDX 23 26 81 27 24 28 80 29 25 30 26 31 27 32 74 33 28 34 79 35
REMARK SMILES IDX 73 36 75 37 29 38 78 39 72 40 71 41 30 43 60 44 41 45 59 46
REMARK SMILES IDX 42 47 45 48 58 49 76 50 43 51 44 52 57 54 77 55 46 56 31 57
REMARK SMILES IDX 32 58 40 59 33 60 39 61 34 62 35 63 36 64 37 65 38 66 61 67
REMARK SMILES IDX 62 68 70 69 63 70 69 71 64 72 65 73 66 74 67 75 68 76 47 77
REMARK SMILES IDX 48 78 56 79 49 80 55 81 50 82 51 83 52 84 53 85 54 86
REMARK H PARENT 13 17 13 18 13 19 75 42 45 53
REMARK Flexibility Score: inf
ROOT
ATOM      1  O   UNL A   1      36.037  24.073  25.086  1.00  0.00    -0.457 OA
ENDROOT
BRANCH   1   2
ATOM      2  C   UNL A   1      35.469  23.554  23.979  1.00  0.00     0.368 C 
ATOM      3  O   UNL A   1      36.135  23.355  22.961  1.00  0.00    -0.245 OA
BRANCH   2   4
ATOM      4  C   UNL A   1      33.826  23.321  23.976  1.00  0.00     0.195 C 
ATOM      5  C   UNL A   1      32.798  22.069  23.855  1.00  0.00     0.065 C 
ATOM      6  C   UNL A   1      32.399  21.891  22.373  1.00  0.00     0.011 C 
ATOM      7  C   UNL A   1      33.070  23.027  21.635  1.00  0.00     0.008 C 
ATOM      8  C   UNL A   1      33.357  24.096  22.687  1.00  0.00     0.081 C 
BRANCH   5   9
ATOM      9  C   UNL A   1      32.426  20.850  24.788  1.00  0.00     0.039 C 
BRANCH   9  10
ATOM     10  C   UNL A   1      32.847  19.355  24.787  1.00  0.00     0.161 C 
BRANCH  10  11
ATOM     11  O   UNL A   1      32.414  18.462  25.795  1.00  0.00    -0.379 OA
BRANCH  11  12
ATOM     12  C   UNL A   1      32.485  17.129  25.379  1.00  0.00     0.188 C 
BRANCH  12  13
ATOM     13  C   UNL A   1      33.623  16.772  24.394  1.00  0.00     0.188 C 
BRANCH  13  14
ATOM     14  O   UNL A   1      34.286  15.545  24.631  1.00  0.00    -0.382 OA
ATOM     15  C   UNL A   1      35.481  15.759  25.356  1.00  0.00     0.195 C 
ENDBRANCH  13  14
ENDBRANCH  12  13
ENDBRANCH  11  12
ENDBRANCH  10  11
ENDBRANCH   9  10
ENDBRANCH   5   9
BRANCH   4  16
ATOM     16  N   UNL A   1      33.408  24.105  25.184  1.00  0.00    -0.343 N 
ATOM     17  H   UNL A   1      34.072  23.942  25.941  1.00  0.00     0.345 HD
ATOM     18  H   UNL A   1      32.479  23.805  25.478  1.00  0.00     0.345 HD
ATOM     19  H   UNL A   1      33.389  25.098  24.955  1.00  0.00     0.345 HD
ENDBRANCH   4  16
ENDBRANCH   2   4
ENDBRANCH   1   2
BRANCH   1  20
ATOM     20  C   UNL A   1      36.600  23.279  26.182  1.00  0.00     0.274 C 
BRANCH  20  21
ATOM     21  C   UNL A   1      38.094  22.972  25.938  1.00  0.00     0.275 C 
BRANCH  21  22
ATOM     22  O   UNL A   1      38.803  24.202  26.115  1.00  0.00    -0.458 OA
BRANCH  22  23
ATOM     23  C   UNL A   1      39.965  24.197  26.815  1.00  0.00     0.338 C 
ATOM     24  O   UNL A   1      40.856  23.380  26.759  1.00  0.00    -0.246 OA
BRANCH  23  25
ATOM     25  C   UNL A   1      39.987  25.453  27.611  1.00  0.00     0.060 A 
ATOM     26  C   UNL A   1      39.233  25.537  28.784  1.00  0.00     0.016 A 
ATOM     27  C   UNL A   1      40.720  26.558  27.190  1.00  0.00     0.016 A 
ATOM     28  C   UNL A   1      39.208  26.705  29.536  1.00  0.00     0.010 A 
ATOM     29  C   UNL A   1      40.790  27.690  28.018  1.00  0.00     0.010 A 
ATOM     30  C   UNL A   1      40.058  27.764  29.219  1.00  0.00    -0.014 A 
BRANCH  30  31
ATOM     31  C   UNL A   1      40.265  28.884  30.184  1.00  0.00     0.031 A 
ATOM     32  C   UNL A   1      41.302  28.778  31.271  1.00  0.00     0.074 A 
ATOM     33  C   UNL A   1      39.450  29.962  30.148  1.00  0.00     0.049 A 
ATOM     34  N   UNL A   1      41.416  29.474  32.372  1.00  0.00    -0.248 NA
ATOM     35  C   UNL A   1      42.331  27.737  31.110  1.00  0.00     0.031 C 
ATOM     36  C   UNL A   1      38.427  30.238  29.130  1.00  0.00     0.029 A 
ATOM     37  N   UNL A   1      39.332  31.028  31.010  1.00  0.00    -0.354 N 
ATOM     38  C   UNL A   1      42.482  28.916  33.069  1.00  0.00     0.074 A 
ATOM     39  C   UNL A   1      42.979  27.819  32.264  1.00  0.00     0.031 C 
ATOM     40  C   UNL A   1      37.809  31.390  29.413  1.00  0.00     0.029 A 
ATOM     41  C   UNL A   1      38.295  31.879  30.693  1.00  0.00     0.049 A 
ATOM     42  H   UNL A   1      39.930  31.169  31.780  1.00  0.00     0.167 HD
ATOM     43  C   UNL A   1      42.988  29.280  34.273  1.00  0.00     0.031 A 
ATOM     44  C   UNL A   1      37.732  32.892  31.376  1.00  0.00     0.031 A 
ATOM     45  C   UNL A   1      42.495  30.390  35.050  1.00  0.00     0.049 A 
ATOM     46  C   UNL A   1      38.262  33.230  32.738  1.00  0.00     0.074 A 
ATOM     47  C   UNL A   1      42.958  30.857  36.269  1.00  0.00     0.029 A 
ATOM     48  N   UNL A   1      41.436  31.211  34.689  1.00  0.00    -0.354 N 
ATOM     49  N   UNL A   1      39.249  32.673  33.399  1.00  0.00    -0.248 NA
ATOM     50  C   UNL A   1      37.599  34.329  33.452  1.00  0.00     0.031 C 
ATOM     51  C   UNL A   1      42.137  31.912  36.676  1.00  0.00     0.029 A 
ATOM     52  C   UNL A   1      41.215  32.161  35.673  1.00  0.00     0.049 A 
ATOM     53  H   UNL A   1      40.918  31.130  33.855  1.00  0.00     0.167 HD
ATOM     54  C   UNL A   1      39.347  33.379  34.591  1.00  0.00     0.074 A 
ATOM     55  C   UNL A   1      38.332  34.411  34.553  1.00  0.00     0.031 C 
ATOM     56  C   UNL A   1      40.205  33.189  35.623  1.00  0.00     0.031 A 
BRANCH  43  57
ATOM     57  C   UNL A   1      44.105  28.449  34.856  1.00  0.00    -0.014 A 
ATOM     58  C   UNL A   1      45.449  28.852  34.774  1.00  0.00     0.010 A 
ATOM     59  C   UNL A   1      43.792  27.270  35.562  1.00  0.00     0.010 A 
ATOM     60  C   UNL A   1      46.458  28.078  35.355  1.00  0.00     0.020 A 
ATOM     61  C   UNL A   1      44.794  26.510  36.173  1.00  0.00     0.020 A 
ATOM     62  C   UNL A   1      46.125  26.913  36.053  1.00  0.00     0.054 A 
BRANCH  62  63
ATOM     63  S   UNL A   1      47.454  25.950  36.825  1.00  0.00     0.124 S 
ATOM     64  O   UNL A   1      48.194  25.471  35.661  1.00  0.00    -0.237 OA
ATOM     65  O   UNL A   1      48.140  26.950  37.638  1.00  0.00    -0.237 OA
ATOM     66  O   UNL A   1      46.745  24.918  37.578  1.00  0.00    -0.744 OA
ENDBRANCH  62  63
ENDBRANCH  43  57
BRANCH  44  67
ATOM     67  C   UNL A   1      36.564  33.622  30.805  1.00  0.00    -0.014 A 
ATOM     68  C   UNL A   1      35.452  33.929  31.608  1.00  0.00     0.010 A 
ATOM     69  C   UNL A   1      36.560  34.023  29.454  1.00  0.00     0.010 A 
ATOM     70  C   UNL A   1      34.352  34.601  31.068  1.00  0.00     0.020 A 
ATOM     71  C   UNL A   1      35.480  34.732  28.921  1.00  0.00     0.020 A 
ATOM     72  C   UNL A   1      34.375  35.002  29.729  1.00  0.00     0.054 A 
BRANCH  72  73
ATOM     73  S   UNL A   1      32.952  35.911  29.066  1.00  0.00     0.124 S 
ATOM     74  O   UNL A   1      33.592  37.070  28.452  1.00  0.00    -0.237 OA
ATOM     75  O   UNL A   1      32.367  34.945  28.140  1.00  0.00    -0.237 OA
ATOM     76  O   UNL A   1      32.144  36.197  30.250  1.00  0.00    -0.744 OA
ENDBRANCH  72  73
ENDBRANCH  44  67
BRANCH  56  77
ATOM     77  C   UNL A   1      40.128  34.158  36.773  1.00  0.00    -0.014 A 
ATOM     78  C   UNL A   1      39.233  33.969  37.841  1.00  0.00     0.010 A 
ATOM     79  C   UNL A   1      41.003  35.262  36.800  1.00  0.00     0.010 A 
ATOM     80  C   UNL A   1      39.192  34.884  38.897  1.00  0.00     0.020 A 
ATOM     81  C   UNL A   1      40.990  36.156  37.872  1.00  0.00     0.020 A 
ATOM     82  C   UNL A   1      40.074  35.969  38.908  1.00  0.00     0.054 A 
BRANCH  82  83
ATOM     83  S   UNL A   1      40.032  37.112  40.314  1.00  0.00     0.124 S 
ATOM     84  O   UNL A   1      40.950  36.473  41.254  1.00  0.00    -0.237 OA
ATOM     85  O   UNL A   1      40.507  38.360  39.723  1.00  0.00    -0.237 OA
ATOM     86  O   UNL A   1      38.628  37.115  40.719  1.00  0.00    -0.744 OA
ENDBRANCH  82  83
ENDBRANCH  56  77
ENDBRANCH  30  31
ENDBRANCH  23  25
ENDBRANCH  22  23
ENDBRANCH  21  22
ENDBRANCH  20  21
ENDBRANCH   1  20
TORSDOF 21
ENDMDL
MODEL 2
REMARK VINA RESULT:      -9.5      2.849      9.727
REMARK SMILES COCCOCC[C@@H]1CCC[C@]1([NH3+])C(=O)OCCOC(=O)c1ccc(-c2c3nc(c(-c4ccc(S(=O)(=O)[O-])cc4)c4ccc([nH]4)c(-c4ccc(S(=O)(=O)[O-])cc4)c4nc(c(-c5ccc(S(=O)(=O)[O-])cc5)c5ccc2[nH]5)C=C4)C=C3)cc1
REMARK SMILES IDX 16 1 14 2 15 3 12 4 8 5 9 6 10 7 11 8 7 9 6 10 5 11 4 12
REMARK SMILES IDX 3 13 2 14 1 15 13 16 17 20 18 21 19 22 20 23 21 24 22 25
REMARK SMILES IDX 23 26 81 27 24 28 80 29 25 30 26 31 27 32 74 33 28 34 79 35
REMARK SMILES IDX 73 36 75 37 29 38 78 39 72 40 71 41 30 43 60 44 41 45 59 46
REMARK SMILES IDX 42 47 45 48 58 49 76 50 43 51 44 52 57 54 77 55 46 56 31 57
REMARK SMILES IDX 32 58 40 59 33 60 39 61 34 62 35 63 36 64 37 65 38 66 61 67
REMARK SMILES IDX 62 68 70 69 63 70 69 71 64 72 65 73 66 74 67 75 68 76 47 77
REMARK SMILES IDX 48 78 56 79 49 80 55 81 50 82 51 83 52 84 53 85 54 86
REMARK H PARENT 13 17 13 18 13 19 75 42 45 53
REMARK Flexibility Score: inf
ROOT
ATOM      1  O   UNL A   1      44.224  24.435  26.892  1.00  0.00    -0.457 OA
ENDROOT
BRANCH   1   2
ATOM      2  C   UNL A   1      44.253  23.097  27.055  1.00  0.00     0.368 C 
ATOM      3  O   UNL A   1      44.829  22.591  28.020  1.00  0.00    -0.245 OA
BRANCH   2   4
ATOM      4  C   UNL A   1      43.617  22.145  25.855  1.00  0.00     0.195 C 
ATOM      5  C   UNL A   1      42.949  20.670  25.728  1.00  0.00     0.065 C 
ATOM      6  C   UNL A   1      44.052  19.651  25.367  1.00  0.00     0.011 C 
ATOM      7  C   UNL A   1      45.312  20.466  25.189  1.00  0.00     0.008 C 
ATOM      8  C   UNL A   1      44.849  21.893  24.906  1.00  0.00     0.081 C 
BRANCH   5   9
ATOM      9  C   UNL A   1      41.591  20.026  26.214  1.00  0.00     0.039 C 
BRANCH   9  10
ATOM     10  C   UNL A   1      40.175  20.613  26.463  1.00  0.00     0.161 C 
BRANCH  10  11
ATOM     11  O   UNL A   1      39.772  21.844  25.895  1.00  0.00    -0.379 OA
BRANCH  11  12
ATOM     12  C   UNL A   1      39.646  22.849  26.859  1.00  0.00     0.188 C 
BRANCH  12  13
ATOM     13  C   UNL A   1      38.593  23.947  26.579  1.00  0.00     0.188 C 
BRANCH  13  14
ATOM     14  O   UNL A   1      37.710  23.701  25.502  1.00  0.00    -0.382 OA
ATOM     15  C   UNL A   1      36.428  23.349  25.982  1.00  0.00     0.195 C 
ENDBRANCH  13  14
ENDBRANCH  12  13
ENDBRANCH  11  12
ENDBRANCH  10  11
ENDBRANCH   9  10
ENDBRANCH   5   9
BRANCH   4  16
ATOM     16  N   UNL A   1      42.680  23.100  25.177  1.00  0.00    -0.343 N 
ATOM     17  H   UNL A   1      42.742  24.013  25.627  1.00  0.00     0.345 HD
ATOM     18  H   UNL A   1      41.725  22.750  25.252  1.00  0.00     0.345 HD
ATOM     19  H   UNL A   1      42.935  23.187  24.194  1.00  0.00     0.345 HD
ENDBRANCH   4  16
ENDBRANCH   2   4
ENDBRANCH   1   2
BRANCH   1  20
ATOM     20  C   UNL A   1      45.358  25.241  26.434  1.00  0.00     0.274 C 
BRANCH  20  21
ATOM     21  C   UNL A   1      44.923  26.254  25.353  1.00  0.00     0.275 C 
BRANCH  21  22
ATOM     22  O   UNL A   1      43.493  26.224  25.309  1.00  0.00    -0.458 OA
BRANCH  22  23
ATOM     23  C   UNL A   1      42.810  27.395  25.293  1.00  0.00     0.338 C 
ATOM     24  O   UNL A   1      42.430  28.013  24.325  1.00  0.00    -0.246 OA
BRANCH  23  25
ATOM     25  C   UNL A   1      42.525  27.741  26.710  1.00  0.00     0.060 A 
ATOM     26  C   UNL A   1      43.008  28.942  27.235  1.00  0.00     0.016 A 
ATOM     27  C   UNL A   1      41.814  26.874  27.533  1.00  0.00     0.016 A 
ATOM     28  C   UNL A   1      42.784  29.283  28.563  1.00  0.00     0.010 A 
ATOM     29  C   UNL A   1      41.484  27.280  28.836  1.00  0.00     0.010 A 
ATOM     30  C   UNL A   1      41.940  28.507  29.357  1.00  0.00    -0.014 A 
BRANCH  30  31
ATOM     31  C   UNL A   1      41.449  29.021  30.670  1.00  0.00     0.031 A 
ATOM     32  C   UNL A   1      40.220  29.886  30.743  1.00  0.00     0.074 A 
ATOM     33  C   UNL A   1      42.169  28.792  31.792  1.00  0.00     0.049 A 
ATOM     34  N   UNL A   1      39.825  30.677  31.708  1.00  0.00    -0.248 NA
ATOM     35  C   UNL A   1      39.331  29.881  29.569  1.00  0.00     0.031 C 
ATOM     36  C   UNL A   1      43.357  27.936  31.897  1.00  0.00     0.029 A 
ATOM     37  N   UNL A   1      42.021  29.285  33.069  1.00  0.00    -0.354 N 
ATOM     38  C   UNL A   1      38.683  31.314  31.235  1.00  0.00     0.074 A 
ATOM     39  C   UNL A   1      38.451  30.819  29.894  1.00  0.00     0.031 C 
ATOM     40  C   UNL A   1      43.811  27.947  33.156  1.00  0.00     0.029 A 
ATOM     41  C   UNL A   1      43.031  28.904  33.924  1.00  0.00     0.049 A 
ATOM     42  H   UNL A   1      41.266  29.854  33.344  1.00  0.00     0.167 HD
ATOM     43  C   UNL A   1      37.910  32.235  31.861  1.00  0.00     0.031 A 
ATOM     44  C   UNL A   1      43.359  29.323  35.161  1.00  0.00     0.031 A 
ATOM     45  C   UNL A   1      38.141  32.700  33.207  1.00  0.00     0.049 A 
ATOM     46  C   UNL A   1      42.532  30.396  35.804  1.00  0.00     0.074 A 
ATOM     47  C   UNL A   1      37.398  33.611  33.940  1.00  0.00     0.029 A 
ATOM     48  N   UNL A   1      39.185  32.292  34.024  1.00  0.00    -0.354 N 
ATOM     49  N   UNL A   1      41.474  31.014  35.334  1.00  0.00    -0.248 NA
ATOM     50  C   UNL A   1      42.943  30.835  37.144  1.00  0.00     0.031 C 
ATOM     51  C   UNL A   1      38.032  33.804  35.171  1.00  0.00     0.029 A 
ATOM     52  C   UNL A   1      39.122  32.952  35.241  1.00  0.00     0.049 A 
ATOM     53  H   UNL A   1      39.871  31.630  33.776  1.00  0.00     0.167 HD
ATOM     54  C   UNL A   1      41.074  31.888  36.336  1.00  0.00     0.074 A 
ATOM     55  C   UNL A   1      41.992  31.708  37.441  1.00  0.00     0.031 C 
ATOM     56  C   UNL A   1      40.037  32.761  36.338  1.00  0.00     0.031 A 
BRANCH  43  57
ATOM     57  C   UNL A   1      36.763  32.844  31.091  1.00  0.00    -0.014 A 
ATOM     58  C   UNL A   1      35.425  32.529  31.382  1.00  0.00     0.010 A 
ATOM     59  C   UNL A   1      37.033  33.805  30.097  1.00  0.00     0.010 A 
ATOM     60  C   UNL A   1      34.383  33.136  30.674  1.00  0.00     0.020 A 
ATOM     61  C   UNL A   1      35.994  34.439  29.409  1.00  0.00     0.020 A 
ATOM     62  C   UNL A   1      34.673  34.089  29.693  1.00  0.00     0.054 A 
BRANCH  62  63
ATOM     63  S   UNL A   1      33.298  34.884  28.816  1.00  0.00     0.124 S 
ATOM     64  O   UNL A   1      32.440  35.305  29.921  1.00  0.00    -0.237 OA
ATOM     65  O   UNL A   1      33.964  35.963  28.092  1.00  0.00    -0.237 OA
ATOM     66  O   UNL A   1      32.755  33.817  27.980  1.00  0.00    -0.744 OA
ENDBRANCH  62  63
ENDBRANCH  43  57
BRANCH  44  67
ATOM     67  C   UNL A   1      44.561  28.767  35.846  1.00  0.00    -0.014 A 
ATOM     68  C   UNL A   1      45.825  29.351  35.657  1.00  0.00     0.010 A 
ATOM     69  C   UNL A   1      44.447  27.652  36.700  1.00  0.00     0.010 A 
ATOM     70  C   UNL A   1      46.953  28.820  36.289  1.00  0.00     0.020 A 
ATOM     71  C   UNL A   1      45.565  27.144  37.367  1.00  0.00     0.020 A 
ATOM     72  C   UNL A   1      46.815  27.723  37.143  1.00  0.00     0.054 A 
BRANCH  72  73
ATOM     73  S   UNL A   1      48.289  27.082  37.984  1.00  0.00     0.124 S 
ATOM     74  O   UNL A   1      48.579  28.146  38.940  1.00  0.00    -0.237 OA
ATOM     75  O   UNL A   1      47.803  25.829  38.558  1.00  0.00    -0.237 OA
ATOM     76  O   UNL A   1      49.262  26.929  36.904  1.00  0.00    -0.744 OA
ENDBRANCH  72  73
ENDBRANCH  44  67
BRANCH  56  77
ATOM     77  C   UNL A   1      39.796  33.544  37.602  1.00  0.00    -0.014 A 
ATOM     78  C   UNL A   1      40.320  34.837  37.781  1.00  0.00     0.010 A 
ATOM     79  C   UNL A   1      38.992  32.984  38.614  1.00  0.00     0.010 A 
ATOM     80  C   UNL A   1      40.072  35.540  38.963  1.00  0.00     0.020 A 
ATOM     81  C   UNL A   1      38.711  33.700  39.779  1.00  0.00     0.020 A 
ATOM     82  C   UNL A   1      39.265  34.969  39.952  1.00  0.00     0.054 A 
BRANCH  82  83
ATOM     83  S   UNL A   1      38.919  35.924  41.454  1.00  0.00     0.124 S 
ATOM     84  O   UNL A   1      38.923  37.296  40.952  1.00  0.00    -0.237 OA
ATOM     85  O   UNL A   1      37.615  35.409  41.865  1.00  0.00    -0.237 OA
ATOM     86  O   UNL A   1      40.026  35.584  42.346  1.00  0.00    -0.744 OA
ENDBRANCH  82  83
ENDBRANCH  56  77
ENDBRANCH  30  31
ENDBRANCH  23  25
ENDBRANCH  22  23
ENDBRANCH  21  22
ENDBRANCH  20  21
ENDBRANCH   1  20
TORSDOF 21
ENDMDL
MODEL 3
REMARK VINA RESULT:      -9.5      3.635      8.973
REMARK SMILES COCCOCC[C@@H]1CCC[C@]1([NH3+])C(=O)OCCOC(=O)c1ccc(-c2c3nc(c(-c4ccc(S(=O)(=O)[O-])cc4)c4ccc([nH]4)c(-c4ccc(S(=O)(=O)[O-])cc4)c4nc(c(-c5ccc(S(=O)(=O)[O-])cc5)c5ccc2[nH]5)C=C4)C=C3)cc1
REMARK SMILES IDX 16 1 14 2 15 3 12 4 8 5 9 6 10 7 11 8 7 9 6 10 5 11 4 12
REMARK SMILES IDX 3 13 2 14 1 15 13 16 17 20 18 21 19 22 20 23 21 24 22 25
REMARK SMILES IDX 23 26 81 27 24 28 80 29 25 30 26 31 27 32 74 33 28 34 79 35
REMARK SMILES IDX 73 36 75 37 29 38 78 39 72 40 71 41 30 43 60 44 41 45 59 46
REMARK SMILES IDX 42 47 45 48 58 49 76 50 43 51 44 52 57 54 77 55 46 56 31 57
REMARK SMILES IDX 32 58 40 59 33 60 39 61 34 62 35 63 36 64 37 65 38 66 61 67
REMARK SMILES IDX 62 68 70 69 63 70 69 71 64 72 65 73 66 74 67 75 68 76 47 77
REMARK SMILES IDX 48 78 56 79 49 80 55 81 50 82 51 83 52 84 53 85 54 86
REMARK H PARENT 13 17 13 18 13 19 75 42 45 53
REMARK Flexibility Score: inf
ROOT
ATOM      1  O   UNL A   1      33.493  28.745  27.460  1.00  0.00    -0.457 OA
ENDROOT
BRANCH   1   2
ATOM      2  C   UNL A   1      32.274  28.245  27.177  1.00  0.00     0.368 C 
ATOM      3  O   UNL A   1      31.376  28.252  28.022  1.00  0.00    -0.245 OA
BRANCH   2   4
ATOM      4  C   UNL A   1      32.054  27.493  25.715  1.00  0.00     0.195 C 
ATOM      5  C   UNL A   1      30.828  27.217  24.686  1.00  0.00     0.065 C 
ATOM      6  C   UNL A   1      30.205  25.840  25.008  1.00  0.00     0.011 C 
ATOM      7  C   UNL A   1      31.059  25.259  26.111  1.00  0.00     0.008 C 
ATOM      8  C   UNL A   1      32.398  25.988  26.030  1.00  0.00     0.081 C 
BRANCH   5   9
ATOM      9  C   UNL A   1      29.954  28.129  23.738  1.00  0.00     0.039 C 
BRANCH   9  10
ATOM     10  C   UNL A   1      30.169  28.661  22.294  1.00  0.00     0.161 C 
BRANCH  10  11
ATOM     11  O   UNL A   1      29.202  29.465  21.648  1.00  0.00    -0.379 OA
BRANCH  11  12
ATOM     12  C   UNL A   1      29.312  30.811  22.011  1.00  0.00     0.188 C 
BRANCH  12  13
ATOM     13  C   UNL A   1      28.032  31.486  22.558  1.00  0.00     0.188 C 
BRANCH  13  14
ATOM     14  O   UNL A   1      27.696  32.735  21.985  1.00  0.00    -0.382 OA
ATOM     15  C   UNL A   1      27.867  32.699  20.582  1.00  0.00     0.195 C 
ENDBRANCH  13  14
ENDBRANCH  12  13
ENDBRANCH  11  12
ENDBRANCH  10  11
ENDBRANCH   9  10
ENDBRANCH   5   9
BRANCH   4  16
ATOM     16  N   UNL A   1      33.171  28.078  24.903  1.00  0.00    -0.343 N 
ATOM     17  H   UNL A   1      33.941  27.411  24.856  1.00  0.00     0.345 HD
ATOM     18  H   UNL A   1      33.494  28.940  25.343  1.00  0.00     0.345 HD
ATOM     19  H   UNL A   1      32.837  28.281  23.961  1.00  0.00     0.345 HD
ENDBRANCH   4  16
ENDBRANCH   2   4
ENDBRANCH   1   2
BRANCH   1  20
ATOM     20  C   UNL A   1      33.973  30.061  27.027  1.00  0.00     0.274 C 
BRANCH  20  21
ATOM     21  C   UNL A   1      32.982  31.175  27.427  1.00  0.00     0.275 C 
BRANCH  21  22
ATOM     22  O   UNL A   1      33.666  32.420  27.250  1.00  0.00    -0.458 OA
BRANCH  22  23
ATOM     23  C   UNL A   1      33.589  33.357  28.228  1.00  0.00     0.338 C 
ATOM     24  O   UNL A   1      32.681  34.128  28.440  1.00  0.00    -0.246 OA
BRANCH  23  25
ATOM     25  C   UNL A   1      34.806  33.196  29.067  1.00  0.00     0.060 A 
ATOM     26  C   UNL A   1      34.776  32.329  30.162  1.00  0.00     0.016 A 
ATOM     27  C   UNL A   1      35.964  33.919  28.801  1.00  0.00     0.016 A 
ATOM     28  C   UNL A   1      35.885  32.176  30.984  1.00  0.00     0.010 A 
ATOM     29  C   UNL A   1      37.119  33.667  29.558  1.00  0.00     0.010 A 
ATOM     30  C   UNL A   1      37.101  32.767  30.642  1.00  0.00    -0.014 A 
BRANCH  30  31
ATOM     31  C   UNL A   1      38.361  32.364  31.334  1.00  0.00     0.031 A 
ATOM     32  C   UNL A   1      39.218  31.256  30.783  1.00  0.00     0.074 A 
ATOM     33  C   UNL A   1      38.686  32.930  32.519  1.00  0.00     0.049 A 
ATOM     34  N   UNL A   1      40.146  30.556  31.384  1.00  0.00    -0.248 NA
ATOM     35  C   UNL A   1      38.985  30.867  29.383  1.00  0.00     0.031 C 
ATOM     36  C   UNL A   1      37.986  34.048  33.164  1.00  0.00     0.029 A 
ATOM     37  N   UNL A   1      39.685  32.624  33.415  1.00  0.00    -0.354 N 
ATOM     38  C   UNL A   1      40.561  29.601  30.462  1.00  0.00     0.074 A 
ATOM     39  C   UNL A   1      39.778  29.810  29.262  1.00  0.00     0.031 C 
ATOM     40  C   UNL A   1      38.581  34.342  34.326  1.00  0.00     0.029 A 
ATOM     41  C   UNL A   1      39.624  33.362  34.577  1.00  0.00     0.049 A 
ATOM     42  H   UNL A   1      40.375  31.943  33.243  1.00  0.00     0.167 HD
ATOM     43  C   UNL A   1      41.498  28.633  30.612  1.00  0.00     0.031 A 
ATOM     44  C   UNL A   1      40.269  33.231  35.752  1.00  0.00     0.031 A 
ATOM     45  C   UNL A   1      42.286  28.454  31.807  1.00  0.00     0.049 A 
ATOM     46  C   UNL A   1      41.249  32.108  35.919  1.00  0.00     0.074 A 
ATOM     47  C   UNL A   1      43.281  27.521  32.048  1.00  0.00     0.029 A 
ATOM     48  N   UNL A   1      42.176  29.221  32.959  1.00  0.00    -0.354 N 
ATOM     49  N   UNL A   1      41.608  31.192  35.050  1.00  0.00    -0.248 NA
ATOM     50  C   UNL A   1      41.909  31.995  37.226  1.00  0.00     0.031 C 
ATOM     51  C   UNL A   1      43.721  27.678  33.365  1.00  0.00     0.029 A 
ATOM     52  C   UNL A   1      43.064  28.764  33.919  1.00  0.00     0.049 A 
ATOM     53  H   UNL A   1      41.558  29.978  33.075  1.00  0.00     0.167 HD
ATOM     54  C   UNL A   1      42.562  30.417  35.697  1.00  0.00     0.074 A 
ATOM     55  C   UNL A   1      42.735  30.980  37.019  1.00  0.00     0.031 C 
ATOM     56  C   UNL A   1      43.234  29.335  35.232  1.00  0.00     0.031 A 
BRANCH  43  57
ATOM     57  C   UNL A   1      41.702  27.659  29.478  1.00  0.00    -0.014 A 
ATOM     58  C   UNL A   1      42.790  27.767  28.594  1.00  0.00     0.010 A 
ATOM     59  C   UNL A   1      40.820  26.568  29.339  1.00  0.00     0.010 A 
ATOM     60  C   UNL A   1      42.971  26.827  27.575  1.00  0.00     0.020 A 
ATOM     61  C   UNL A   1      41.016  25.608  28.342  1.00  0.00     0.020 A 
ATOM     62  C   UNL A   1      42.085  25.752  27.456  1.00  0.00     0.054 A 
BRANCH  62  63
ATOM     63  S   UNL A   1      42.368  24.531  26.145  1.00  0.00     0.124 S 
ATOM     64  O   UNL A   1      43.690  24.016  26.493  1.00  0.00    -0.237 OA
ATOM     65  O   UNL A   1      41.261  23.598  26.334  1.00  0.00    -0.237 OA
ATOM     66  O   UNL A   1      42.312  25.319  24.916  1.00  0.00    -0.744 OA
ENDBRANCH  62  63
ENDBRANCH  43  57
BRANCH  44  67
ATOM     67  C   UNL A   1      39.962  34.156  36.880  1.00  0.00    -0.014 A 
ATOM     68  C   UNL A   1      40.424  35.484  36.860  1.00  0.00     0.010 A 
ATOM     69  C   UNL A   1      39.199  33.718  37.980  1.00  0.00     0.010 A 
ATOM     70  C   UNL A   1      40.148  36.346  37.925  1.00  0.00     0.020 A 
ATOM     71  C   UNL A   1      38.884  34.589  39.027  1.00  0.00     0.020 A 
ATOM     72  C   UNL A   1      39.376  35.895  38.999  1.00  0.00     0.054 A 
BRANCH  72  73
ATOM     73  S   UNL A   1      38.997  37.048  40.346  1.00  0.00     0.124 S 
ATOM     74  O   UNL A   1      40.298  37.198  40.991  1.00  0.00    -0.237 OA
ATOM     75  O   UNL A   1      38.507  38.221  39.627  1.00  0.00    -0.237 OA
ATOM     76  O   UNL A   1      37.987  36.340  41.131  1.00  0.00    -0.744 OA
ENDBRANCH  72  73
ENDBRANCH  44  67
BRANCH  56  77
ATOM     77  C   UNL A   1      44.272  28.726  36.137  1.00  0.00    -0.014 A 
ATOM     78  C   UNL A   1      43.956  27.686  37.029  1.00  0.00     0.010 A 
ATOM     79  C   UNL A   1      45.602  29.182  36.060  1.00  0.00     0.010 A 
ATOM     80  C   UNL A   1      44.944  27.137  37.851  1.00  0.00     0.020 A 
ATOM     81  C   UNL A   1      46.599  28.609  36.853  1.00  0.00     0.020 A 
ATOM     82  C   UNL A   1      46.260  27.599  37.754  1.00  0.00     0.054 A 
BRANCH  82  83
ATOM     83  S   UNL A   1      47.531  26.834  38.797  1.00  0.00     0.124 S 
ATOM     84  O   UNL A   1      47.434  25.428  38.416  1.00  0.00    -0.237 OA
ATOM     85  O   UNL A   1      48.748  27.519  38.368  1.00  0.00    -0.237 OA
ATOM     86  O   UNL A   1      47.097  27.143  40.158  1.00  0.00    -0.744 OA
ENDBRANCH  82  83
ENDBRANCH  56  77
ENDBRANCH  30  31
ENDBRANCH  23  25
ENDBRANCH  22  23
ENDBRANCH  21  22
ENDBRANCH  20  21
ENDBRANCH   1  20
TORSDOF 21
ENDMDL
