MODEL 1
REMARK VINA RESULT:     -10.1      0.000      0.000
REMARK SMILES CN(CC(=O)OCCOC(=O)c1ccc(-c2c3nc(c(-c4ccc(S(=O)(=O)[O-])cc4)c4ccc([nH]4)c(-c4ccc(S(=O)(=O)[O-])cc4)c4nc(c(-c5ccc(S(=O)(=O)[O-])cc5)c5ccc2[nH]5)C=C4)C=C3)cc1)C(=O)N[C@@H]1C[C@H]1c1ccccc1
REMARK SMILES IDX 7 1 6 2 4 3 5 4 3 5 2 6 1 7 72 8 73 9 74 10 75 12 76 13
REMARK SMILES IDX 77 14 78 15 79 16 83 17 80 18 82 19 81 20 8 21 9 22 10 23
REMARK SMILES IDX 11 24 12 25 13 26 71 27 14 28 70 29 15 30 16 31 17 32 64 33
REMARK SMILES IDX 18 34 69 35 63 36 65 37 19 38 68 39 62 40 61 41 20 43 50 44
REMARK SMILES IDX 31 45 49 46 32 47 35 48 48 49 66 50 33 51 34 52 47 54 67 55
REMARK SMILES IDX 36 56 21 57 22 58 30 59 23 60 29 61 24 62 25 63 26 64 27 65
REMARK SMILES IDX 28 66 51 67 52 68 60 69 53 70 59 71 54 72 55 73 56 74 57 75
REMARK SMILES IDX 58 76 37 77 38 78 46 79 39 80 45 81 40 82 41 83 42 84 43 85
REMARK SMILES IDX 44 86
REMARK H PARENT 74 11 65 42 35 53
REMARK Flexibility Score: inf
ROOT
ATOM      1  C   UNL A   1      32.137  28.625  26.768  1.00  0.00     0.274 C 
ENDROOT
BRANCH   1   2
ATOM      2  O   UNL A   1      33.255  27.851  26.331  1.00  0.00    -0.461 OA
BRANCH   2   3
ATOM      3  C   UNL A   1      33.082  27.413  25.054  1.00  0.00     0.325 C 
ATOM      4  O   UNL A   1      33.091  28.174  24.094  1.00  0.00    -0.250 OA
BRANCH   3   5
ATOM      5  C   UNL A   1      32.989  25.872  24.938  1.00  0.00     0.243 C 
BRANCH   5   6
ATOM      6  N   UNL A   1      32.277  25.313  23.788  1.00  0.00    -0.317 N 
ATOM      7  C   UNL A   1      33.193  24.813  22.762  1.00  0.00     0.149 C 
BRANCH   6   8
ATOM      8  C   UNL A   1      30.981  24.891  23.681  1.00  0.00     0.317 C 
ATOM      9  O   UNL A   1      30.759  23.694  23.433  1.00  0.00    -0.249 OA
ATOM     10  N   UNL A   1      29.838  25.604  23.793  1.00  0.00    -0.335 N 
ATOM     11  H   UNL A   1      29.081  24.977  23.743  1.00  0.00     0.165 HD
BRANCH  10  12
ATOM     12  C   UNL A   1      29.303  26.940  23.960  1.00  0.00     0.092 C 
ATOM     13  C   UNL A   1      27.801  27.044  23.795  1.00  0.00     0.036 C 
ATOM     14  C   UNL A   1      28.659  27.796  22.811  1.00  0.00     0.044 C 
BRANCH  14  15
ATOM     15  C   UNL A   1      28.477  29.349  22.741  1.00  0.00    -0.043 A 
ATOM     16  C   UNL A   1      27.615  30.082  23.579  1.00  0.00     0.004 A 
ATOM     17  C   UNL A   1      29.089  30.137  21.746  1.00  0.00     0.004 A 
ATOM     18  C   UNL A   1      27.526  31.493  23.535  1.00  0.00     0.000 A 
ATOM     19  C   UNL A   1      29.078  31.541  21.733  1.00  0.00     0.000 A 
ATOM     20  C   UNL A   1      28.302  32.226  22.647  1.00  0.00     0.000 A 
ENDBRANCH  14  15
ENDBRANCH  10  12
ENDBRANCH   6   8
ENDBRANCH   5   6
ENDBRANCH   3   5
ENDBRANCH   2   3
ENDBRANCH   1   2
BRANCH   1  21
ATOM     21  C   UNL A   1      32.568  30.065  26.919  1.00  0.00     0.275 C 
BRANCH  21  22
ATOM     22  O   UNL A   1      33.983  30.267  27.188  1.00  0.00    -0.458 OA
BRANCH  22  23
ATOM     23  C   UNL A   1      34.545  31.093  28.099  1.00  0.00     0.338 C 
ATOM     24  O   UNL A   1      34.011  32.057  28.615  1.00  0.00    -0.246 OA
BRANCH  23  25
ATOM     25  C   UNL A   1      35.925  30.540  28.387  1.00  0.00     0.060 A 
ATOM     26  C   UNL A   1      36.884  30.353  27.382  1.00  0.00     0.016 A 
ATOM     27  C   UNL A   1      36.231  30.067  29.666  1.00  0.00     0.016 A 
ATOM     28  C   UNL A   1      38.098  29.671  27.647  1.00  0.00     0.010 A 
ATOM     29  C   UNL A   1      37.427  29.363  29.931  1.00  0.00     0.010 A 
ATOM     30  C   UNL A   1      38.395  29.171  28.930  1.00  0.00    -0.014 A 
BRANCH  30  31
ATOM     31  C   UNL A   1      39.816  28.870  29.320  1.00  0.00     0.031 A 
ATOM     32  C   UNL A   1      40.782  29.818  29.996  1.00  0.00     0.074 A 
ATOM     33  C   UNL A   1      40.258  27.641  28.981  1.00  0.00     0.049 A 
ATOM     34  N   UNL A   1      41.996  29.569  30.440  1.00  0.00    -0.248 NA
ATOM     35  C   UNL A   1      40.362  31.212  30.188  1.00  0.00     0.031 C 
ATOM     36  C   UNL A   1      39.454  26.637  28.278  1.00  0.00     0.029 A 
ATOM     37  N   UNL A   1      41.473  27.030  29.157  1.00  0.00    -0.354 N 
ATOM     38  C   UNL A   1      42.482  30.759  30.979  1.00  0.00     0.074 A 
ATOM     39  C   UNL A   1      41.435  31.745  30.773  1.00  0.00     0.031 C 
ATOM     40  C   UNL A   1      40.197  25.545  28.068  1.00  0.00     0.029 A 
ATOM     41  C   UNL A   1      41.526  25.762  28.627  1.00  0.00     0.049 A 
ATOM     42  H   UNL A   1      42.233  27.456  29.618  1.00  0.00     0.167 HD
ATOM     43  C   UNL A   1      43.678  31.002  31.586  1.00  0.00     0.031 A 
ATOM     44  C   UNL A   1      42.513  24.850  28.595  1.00  0.00     0.031 A 
ATOM     45  C   UNL A   1      44.731  30.020  31.763  1.00  0.00     0.049 A 
ATOM     46  C   UNL A   1      43.807  25.130  29.288  1.00  0.00     0.074 A 
ATOM     47  C   UNL A   1      45.924  30.150  32.462  1.00  0.00     0.029 A 
ATOM     48  N   UNL A   1      44.741  28.745  31.218  1.00  0.00    -0.354 N 
ATOM     49  N   UNL A   1      44.182  26.220  29.910  1.00  0.00    -0.248 NA
ATOM     50  C   UNL A   1      44.793  24.043  29.307  1.00  0.00     0.031 C 
ATOM     51  C   UNL A   1      46.676  28.980  32.289  1.00  0.00     0.029 A 
ATOM     52  C   UNL A   1      45.930  28.095  31.531  1.00  0.00     0.049 A 
ATOM     53  H   UNL A   1      44.011  28.354  30.686  1.00  0.00     0.167 HD
ATOM     54  C   UNL A   1      45.448  25.945  30.411  1.00  0.00     0.074 A 
ATOM     55  C   UNL A   1      45.761  24.580  30.035  1.00  0.00     0.031 C 
ATOM     56  C   UNL A   1      46.270  26.756  31.122  1.00  0.00     0.031 A 
BRANCH  43  57
ATOM     57  C   UNL A   1      43.948  32.388  32.141  1.00  0.00    -0.014 A 
ATOM     58  C   UNL A   1      44.475  33.405  31.323  1.00  0.00     0.010 A 
ATOM     59  C   UNL A   1      43.530  32.725  33.444  1.00  0.00     0.010 A 
ATOM     60  C   UNL A   1      44.604  34.715  31.804  1.00  0.00     0.020 A 
ATOM     61  C   UNL A   1      43.637  34.038  33.922  1.00  0.00     0.020 A 
ATOM     62  C   UNL A   1      44.187  35.024  33.102  1.00  0.00     0.054 A 
BRANCH  62  63
ATOM     63  S   UNL A   1      44.327  36.741  33.682  1.00  0.00     0.124 S 
ATOM     64  O   UNL A   1      45.308  37.294  32.749  1.00  0.00    -0.237 OA
ATOM     65  O   UNL A   1      42.965  37.246  33.532  1.00  0.00    -0.237 OA
ATOM     66  O   UNL A   1      44.790  36.607  35.061  1.00  0.00    -0.744 OA
ENDBRANCH  62  63
ENDBRANCH  43  57
BRANCH  44  67
ATOM     67  C   UNL A   1      42.258  23.557  27.912  1.00  0.00    -0.014 A 
ATOM     68  C   UNL A   1      42.714  23.346  26.600  1.00  0.00     0.010 A 
ATOM     69  C   UNL A   1      41.661  22.496  28.617  1.00  0.00     0.010 A 
ATOM     70  C   UNL A   1      42.582  22.091  26.005  1.00  0.00     0.020 A 
ATOM     71  C   UNL A   1      41.548  21.234  28.032  1.00  0.00     0.020 A 
ATOM     72  C   UNL A   1      42.007  21.041  26.728  1.00  0.00     0.054 A 
BRANCH  72  73
ATOM     73  S   UNL A   1      41.942  19.392  25.973  1.00  0.00     0.124 S 
ATOM     74  O   UNL A   1      42.839  19.547  24.832  1.00  0.00    -0.237 OA
ATOM     75  O   UNL A   1      42.428  18.531  27.048  1.00  0.00    -0.237 OA
ATOM     76  O   UNL A   1      40.529  19.225  25.643  1.00  0.00    -0.744 OA
ENDBRANCH  72  73
ENDBRANCH  44  67
BRANCH  56  77
ATOM     77  C   UNL A   1      47.600  26.176  31.529  1.00  0.00    -0.014 A 
ATOM     78  C   UNL A   1      48.706  26.222  30.659  1.00  0.00     0.010 A 
ATOM     79  C   UNL A   1      47.742  25.550  32.780  1.00  0.00     0.010 A 
ATOM     80  C   UNL A   1      49.910  25.606  31.010  1.00  0.00     0.020 A 
ATOM     81  C   UNL A   1      48.953  24.953  33.145  1.00  0.00     0.020 A 
ATOM     82  C   UNL A   1      50.023  24.964  32.247  1.00  0.00     0.054 A 
BRANCH  82  83
ATOM     83  S   UNL A   1      51.591  24.160  32.677  1.00  0.00     0.124 S 
ATOM     84  O   UNL A   1      52.540  24.874  31.827  1.00  0.00    -0.237 OA
ATOM     85  O   UNL A   1      51.709  24.424  34.108  1.00  0.00    -0.237 OA
ATOM     86  O   UNL A   1      51.369  22.759  32.324  1.00  0.00    -0.744 OA
ENDBRANCH  82  83
ENDBRANCH  56  77
ENDBRANCH  30  31
ENDBRANCH  23  25
ENDBRANCH  22  23
ENDBRANCH  21  22
ENDBRANCH   1  21
TORSDOF 18
ENDMDL
MODEL 2
REMARK VINA RESULT:     -10.0      1.167      8.400
REMARK SMILES CN(CC(=O)OCCOC(=O)c1ccc(-c2c3nc(c(-c4ccc(S(=O)(=O)[O-])cc4)c4ccc([nH]4)c(-c4ccc(S(=O)(=O)[O-])cc4)c4nc(c(-c5ccc(S(=O)(=O)[O-])cc5)c5ccc2[nH]5)C=C4)C=C3)cc1)C(=O)N[C@@H]1C[C@H]1c1ccccc1
REMARK SMILES IDX 7 1 6 2 4 3 5 4 3 5 2 6 1 7 72 8 73 9 74 10 75 12 76 13
REMARK SMILES IDX 77 14 78 15 79 16 83 17 80 18 82 19 81 20 8 21 9 22 10 23
REMARK SMILES IDX 11 24 12 25 13 26 71 27 14 28 70 29 15 30 16 31 17 32 64 33
REMARK SMILES IDX 18 34 69 35 63 36 65 37 19 38 68 39 62 40 61 41 20 43 50 44
REMARK SMILES IDX 31 45 49 46 32 47 35 48 48 49 66 50 33 51 34 52 47 54 67 55
REMARK SMILES IDX 36 56 21 57 22 58 30 59 23 60 29 61 24 62 25 63 26 64 27 65
REMARK SMILES IDX 28 66 51 67 52 68 60 69 53 70 59 71 54 72 55 73 56 74 57 75
REMARK SMILES IDX 58 76 37 77 38 78 46 79 39 80 45 81 40 82 41 83 42 84 43 85
REMARK SMILES IDX 44 86
REMARK H PARENT 74 11 65 42 35 53
REMARK Flexibility Score: inf
ROOT
ATOM      1  C   UNL A   1      33.011  27.105  26.065  1.00  0.00     0.274 C 
ENDROOT
BRANCH   1   2
ATOM      2  O   UNL A   1      33.942  26.547  25.137  1.00  0.00    -0.461 OA
BRANCH   2   3
ATOM      3  C   UNL A   1      33.871  25.188  25.124  1.00  0.00     0.325 C 
ATOM      4  O   UNL A   1      33.585  24.538  26.123  1.00  0.00    -0.250 OA
BRANCH   3   5
ATOM      5  C   UNL A   1      34.072  24.573  23.717  1.00  0.00     0.243 C 
BRANCH   5   6
ATOM      6  N   UNL A   1      32.959  24.652  22.770  1.00  0.00    -0.317 N 
ATOM      7  C   UNL A   1      31.737  24.046  23.303  1.00  0.00     0.149 C 
BRANCH   6   8
ATOM      8  C   UNL A   1      32.792  25.461  21.680  1.00  0.00     0.317 C 
ATOM      9  O   UNL A   1      33.257  25.096  20.587  1.00  0.00    -0.249 OA
ATOM     10  N   UNL A   1      32.185  26.665  21.594  1.00  0.00    -0.335 N 
ATOM     11  H   UNL A   1      32.172  26.933  20.647  1.00  0.00     0.165 HD
BRANCH  10  12
ATOM     12  C   UNL A   1      31.546  27.711  22.365  1.00  0.00     0.092 C 
ATOM     13  C   UNL A   1      30.368  27.253  23.199  1.00  0.00     0.036 C 
ATOM     14  C   UNL A   1      30.094  28.253  22.107  1.00  0.00     0.044 C 
BRANCH  14  15
ATOM     15  C   UNL A   1      29.480  29.629  22.533  1.00  0.00    -0.043 A 
ATOM     16  C   UNL A   1      29.724  30.255  23.770  1.00  0.00     0.004 A 
ATOM     17  C   UNL A   1      28.533  30.310  21.743  1.00  0.00     0.004 A 
ATOM     18  C   UNL A   1      29.209  31.531  24.094  1.00  0.00     0.000 A 
ATOM     19  C   UNL A   1      28.071  31.609  22.008  1.00  0.00     0.000 A 
ATOM     20  C   UNL A   1      28.426  32.232  23.187  1.00  0.00     0.000 A 
ENDBRANCH  14  15
ENDBRANCH  10  12
ENDBRANCH   6   8
ENDBRANCH   5   6
ENDBRANCH   3   5
ENDBRANCH   2   3
ENDBRANCH   1   2
BRANCH   1  21
ATOM     21  C   UNL A   1      33.002  28.607  25.906  1.00  0.00     0.275 C 
BRANCH  21  22
ATOM     22  O   UNL A   1      34.224  29.285  26.310  1.00  0.00    -0.458 OA
BRANCH  22  23
ATOM     23  C   UNL A   1      34.431  30.033  27.416  1.00  0.00     0.338 C 
ATOM     24  O   UNL A   1      33.613  30.756  27.953  1.00  0.00    -0.246 OA
BRANCH  23  25
ATOM     25  C   UNL A   1      35.843  29.738  27.876  1.00  0.00     0.060 A 
ATOM     26  C   UNL A   1      36.152  29.443  29.211  1.00  0.00     0.016 A 
ATOM     27  C   UNL A   1      36.910  29.887  26.986  1.00  0.00     0.016 A 
ATOM     28  C   UNL A   1      37.497  29.346  29.647  1.00  0.00     0.010 A 
ATOM     29  C   UNL A   1      38.254  29.819  27.418  1.00  0.00     0.010 A 
ATOM     30  C   UNL A   1      38.573  29.524  28.755  1.00  0.00    -0.014 A 
BRANCH  30  31
ATOM     31  C   UNL A   1      39.937  28.988  29.091  1.00  0.00     0.031 A 
ATOM     32  C   UNL A   1      40.477  27.620  28.735  1.00  0.00     0.074 A 
ATOM     33  C   UNL A   1      40.717  29.813  29.819  1.00  0.00     0.049 A 
ATOM     34  N   UNL A   1      41.691  27.145  28.923  1.00  0.00    -0.248 NA
ATOM     35  C   UNL A   1      39.561  26.656  28.114  1.00  0.00     0.031 C 
ATOM     36  C   UNL A   1      40.310  31.144  30.280  1.00  0.00     0.029 A 
ATOM     37  N   UNL A   1      41.989  29.665  30.313  1.00  0.00    -0.354 N 
ATOM     38  C   UNL A   1      41.697  25.842  28.431  1.00  0.00     0.074 A 
ATOM     39  C   UNL A   1      40.345  25.587  27.964  1.00  0.00     0.031 C 
ATOM     40  C   UNL A   1      41.300  31.683  31.000  1.00  0.00     0.029 A 
ATOM     41  C   UNL A   1      42.416  30.746  31.046  1.00  0.00     0.049 A 
ATOM     42  H   UNL A   1      42.541  28.864  30.157  1.00  0.00     0.167 HD
ATOM     43  C   UNL A   1      42.726  24.950  28.373  1.00  0.00     0.031 A 
ATOM     44  C   UNL A   1      43.576  30.990  31.682  1.00  0.00     0.031 A 
ATOM     45  C   UNL A   1      44.067  25.200  28.867  1.00  0.00     0.049 A 
ATOM     46  C   UNL A   1      44.698  30.008  31.584  1.00  0.00     0.074 A 
ATOM     47  C   UNL A   1      45.194  24.398  28.748  1.00  0.00     0.029 A 
ATOM     48  N   UNL A   1      44.460  26.312  29.597  1.00  0.00    -0.354 N 
ATOM     49  N   UNL A   1      44.713  28.840  30.990  1.00  0.00    -0.248 NA
ATOM     50  C   UNL A   1      45.969  30.395  32.207  1.00  0.00     0.031 C 
ATOM     51  C   UNL A   1      46.247  24.995  29.455  1.00  0.00     0.029 A 
ATOM     52  C   UNL A   1      45.796  26.199  29.966  1.00  0.00     0.049 A 
ATOM     53  H   UNL A   1      43.878  27.073  29.821  1.00  0.00     0.167 HD
ATOM     54  C   UNL A   1      46.004  28.355  31.156  1.00  0.00     0.074 A 
ATOM     55  C   UNL A   1      46.742  29.367  31.886  1.00  0.00     0.031 C 
ATOM     56  C   UNL A   1      46.525  27.177  30.733  1.00  0.00     0.031 A 
BRANCH  43  57
ATOM     57  C   UNL A   1      42.484  23.595  27.736  1.00  0.00    -0.014 A 
ATOM     58  C   UNL A   1      42.925  23.320  26.427  1.00  0.00     0.010 A 
ATOM     59  C   UNL A   1      41.953  22.536  28.500  1.00  0.00     0.010 A 
ATOM     60  C   UNL A   1      42.814  22.030  25.890  1.00  0.00     0.020 A 
ATOM     61  C   UNL A   1      41.860  21.239  27.975  1.00  0.00     0.020 A 
ATOM     62  C   UNL A   1      42.279  20.997  26.666  1.00  0.00     0.054 A 
BRANCH  62  63
ATOM     63  S   UNL A   1      42.186  19.327  25.957  1.00  0.00     0.124 S 
ATOM     64  O   UNL A   1      40.751  19.179  25.722  1.00  0.00    -0.237 OA
ATOM     65  O   UNL A   1      43.009  19.439  24.755  1.00  0.00    -0.237 OA
ATOM     66  O   UNL A   1      42.735  18.470  27.005  1.00  0.00    -0.744 OA
ENDBRANCH  62  63
ENDBRANCH  43  57
BRANCH  44  67
ATOM     67  C   UNL A   1      43.721  32.269  32.421  1.00  0.00    -0.014 A 
ATOM     68  C   UNL A   1      43.920  33.472  31.724  1.00  0.00     0.010 A 
ATOM     69  C   UNL A   1      43.545  32.297  33.817  1.00  0.00     0.010 A 
ATOM     70  C   UNL A   1      43.933  34.686  32.411  1.00  0.00     0.020 A 
ATOM     71  C   UNL A   1      43.535  33.512  34.503  1.00  0.00     0.020 A 
ATOM     72  C   UNL A   1      43.733  34.699  33.796  1.00  0.00     0.054 A 
BRANCH  72  73
ATOM     73  S   UNL A   1      43.649  36.296  34.653  1.00  0.00     0.124 S 
ATOM     74  O   UNL A   1      42.723  36.005  35.743  1.00  0.00    -0.237 OA
ATOM     75  O   UNL A   1      45.038  36.521  35.045  1.00  0.00    -0.237 OA
ATOM     76  O   UNL A   1      43.145  37.206  33.627  1.00  0.00    -0.744 OA
ENDBRANCH  72  73
ENDBRANCH  44  67
BRANCH  56  77
ATOM     77  C   UNL A   1      47.972  26.923  31.068  1.00  0.00    -0.014 A 
ATOM     78  C   UNL A   1      49.001  27.392  30.231  1.00  0.00     0.010 A 
ATOM     79  C   UNL A   1      48.310  26.183  32.215  1.00  0.00     0.010 A 
ATOM     80  C   UNL A   1      50.336  27.078  30.503  1.00  0.00     0.020 A 
ATOM     81  C   UNL A   1      49.646  25.887  32.505  1.00  0.00     0.020 A 
ATOM     82  C   UNL A   1      50.649  26.317  31.633  1.00  0.00     0.054 A 
BRANCH  82  83
ATOM     83  S   UNL A   1      52.386  25.911  31.961  1.00  0.00     0.124 S 
ATOM     84  O   UNL A   1      52.290  24.538  32.449  1.00  0.00    -0.237 OA
ATOM     85  O   UNL A   1      53.010  26.069  30.650  1.00  0.00    -0.237 OA
ATOM     86  O   UNL A   1      52.790  26.900  32.959  1.00  0.00    -0.744 OA
ENDBRANCH  82  83
ENDBRANCH  56  77
ENDBRANCH  30  31
ENDBRANCH  23  25
ENDBRANCH  22  23
ENDBRANCH  21  22
ENDBRANCH   1  21
TORSDOF 18
ENDMDL
MODEL 3
REMARK VINA RESULT:      -9.8      2.056      4.143
REMARK SMILES CN(CC(=O)OCCOC(=O)c1ccc(-c2c3nc(c(-c4ccc(S(=O)(=O)[O-])cc4)c4ccc([nH]4)c(-c4ccc(S(=O)(=O)[O-])cc4)c4nc(c(-c5ccc(S(=O)(=O)[O-])cc5)c5ccc2[nH]5)C=C4)C=C3)cc1)C(=O)N[C@@H]1C[C@H]1c1ccccc1
REMARK SMILES IDX 7 1 6 2 4 3 5 4 3 5 2 6 1 7 72 8 73 9 74 10 75 12 76 13
REMARK SMILES IDX 77 14 78 15 79 16 83 17 80 18 82 19 81 20 8 21 9 22 10 23
REMARK SMILES IDX 11 24 12 25 13 26 71 27 14 28 70 29 15 30 16 31 17 32 64 33
REMARK SMILES IDX 18 34 69 35 63 36 65 37 19 38 68 39 62 40 61 41 20 43 50 44
REMARK SMILES IDX 31 45 49 46 32 47 35 48 48 49 66 50 33 51 34 52 47 54 67 55
REMARK SMILES IDX 36 56 21 57 22 58 30 59 23 60 29 61 24 62 25 63 26 64 27 65
REMARK SMILES IDX 28 66 51 67 52 68 60 69 53 70 59 71 54 72 55 73 56 74 57 75
REMARK SMILES IDX 58 76 37 77 38 78 46 79 39 80 45 81 40 82 41 83 42 84 43 85
REMARK SMILES IDX 44 86
REMARK H PARENT 74 11 65 42 35 53
REMARK Flexibility Score: inf
ROOT
ATOM      1  C   UNL A   1      32.590  28.701  25.611  1.00  0.00     0.274 C 
ENDROOT
BRANCH   1   2
ATOM      2  O   UNL A   1      31.240  28.237  25.558  1.00  0.00    -0.461 OA
BRANCH   2   3
ATOM      3  C   UNL A   1      30.970  27.642  24.364  1.00  0.00     0.325 C 
ATOM      4  O   UNL A   1      30.839  28.283  23.328  1.00  0.00    -0.250 OA
BRANCH   3   5
ATOM      5  C   UNL A   1      30.961  26.096  24.434  1.00  0.00     0.243 C 
BRANCH   5   6
ATOM      6  N   UNL A   1      32.114  25.379  23.886  1.00  0.00    -0.317 N 
ATOM      7  C   UNL A   1      32.221  25.532  22.435  1.00  0.00     0.149 C 
BRANCH   6   8
ATOM      8  C   UNL A   1      33.234  24.912  24.516  1.00  0.00     0.317 C 
ATOM      9  O   UNL A   1      33.870  25.681  25.257  1.00  0.00    -0.249 OA
ATOM     10  N   UNL A   1      33.804  23.688  24.451  1.00  0.00    -0.335 N 
ATOM     11  H   UNL A   1      34.552  23.665  25.092  1.00  0.00     0.165 HD
BRANCH  10  12
ATOM     12  C   UNL A   1      33.733  22.397  23.798  1.00  0.00     0.092 C 
ATOM     13  C   UNL A   1      32.343  21.984  23.362  1.00  0.00     0.036 C 
ATOM     14  C   UNL A   1      33.025  21.129  24.396  1.00  0.00     0.044 C 
BRANCH  14  15
ATOM     15  C   UNL A   1      33.263  19.624  24.039  1.00  0.00    -0.043 A 
ATOM     16  C   UNL A   1      32.407  18.860  23.223  1.00  0.00     0.004 A 
ATOM     17  C   UNL A   1      34.311  18.869  24.604  1.00  0.00     0.004 A 
ATOM     18  C   UNL A   1      32.688  17.522  22.864  1.00  0.00     0.000 A 
ATOM     19  C   UNL A   1      34.653  17.568  24.202  1.00  0.00     0.000 A 
ATOM     20  C   UNL A   1      33.843  16.894  23.311  1.00  0.00     0.000 A 
ENDBRANCH  14  15
ENDBRANCH  10  12
ENDBRANCH   6   8
ENDBRANCH   5   6
ENDBRANCH   3   5
ENDBRANCH   2   3
ENDBRANCH   1   2
BRANCH   1  21
ATOM     21  C   UNL A   1      32.717  29.712  26.726  1.00  0.00     0.275 C 
BRANCH  21  22
ATOM     22  O   UNL A   1      34.047  30.270  26.914  1.00  0.00    -0.458 OA
BRANCH  22  23
ATOM     23  C   UNL A   1      34.513  30.962  27.977  1.00  0.00     0.338 C 
ATOM     24  O   UNL A   1      33.901  31.805  28.606  1.00  0.00    -0.246 OA
BRANCH  23  25
ATOM     25  C   UNL A   1      35.903  30.430  28.259  1.00  0.00     0.060 A 
ATOM     26  C   UNL A   1      36.875  30.300  27.258  1.00  0.00     0.016 A 
ATOM     27  C   UNL A   1      36.210  29.922  29.525  1.00  0.00     0.016 A 
ATOM     28  C   UNL A   1      38.102  29.637  27.511  1.00  0.00     0.010 A 
ATOM     29  C   UNL A   1      37.419  29.237  29.777  1.00  0.00     0.010 A 
ATOM     30  C   UNL A   1      38.400  29.100  28.779  1.00  0.00    -0.014 A 
BRANCH  30  31
ATOM     31  C   UNL A   1      39.823  28.819  29.172  1.00  0.00     0.031 A 
ATOM     32  C   UNL A   1      40.782  29.786  29.831  1.00  0.00     0.074 A 
ATOM     33  C   UNL A   1      40.276  27.588  28.852  1.00  0.00     0.049 A 
ATOM     34  N   UNL A   1      41.999  29.556  30.277  1.00  0.00    -0.248 NA
ATOM     35  C   UNL A   1      40.350  31.179  30.000  1.00  0.00     0.031 C 
ATOM     36  C   UNL A   1      39.480  26.565  28.167  1.00  0.00     0.029 A 
ATOM     37  N   UNL A   1      41.497  26.990  29.037  1.00  0.00    -0.354 N 
ATOM     38  C   UNL A   1      42.475  30.758  30.796  1.00  0.00     0.074 A 
ATOM     39  C   UNL A   1      41.418  31.731  30.575  1.00  0.00     0.031 C 
ATOM     40  C   UNL A   1      40.233  25.477  27.975  1.00  0.00     0.029 A 
ATOM     41  C   UNL A   1      41.560  25.715  28.528  1.00  0.00     0.049 A 
ATOM     42  H   UNL A   1      42.253  27.431  29.489  1.00  0.00     0.167 HD
ATOM     43  C   UNL A   1      43.669  31.022  31.397  1.00  0.00     0.031 A 
ATOM     44  C   UNL A   1      42.555  24.811  28.510  1.00  0.00     0.031 A 
ATOM     45  C   UNL A   1      44.732  30.052  31.588  1.00  0.00     0.049 A 
ATOM     46  C   UNL A   1      43.847  25.114  29.196  1.00  0.00     0.074 A 
ATOM     47  C   UNL A   1      45.924  30.205  32.283  1.00  0.00     0.029 A 
ATOM     48  N   UNL A   1      44.752  28.768  31.065  1.00  0.00    -0.354 N 
ATOM     49  N   UNL A   1      44.214  26.217  29.799  1.00  0.00    -0.248 NA
ATOM     50  C   UNL A   1      44.843  24.037  29.232  1.00  0.00     0.031 C 
ATOM     51  C   UNL A   1      46.686  29.038  32.129  1.00  0.00     0.029 A 
ATOM     52  C   UNL A   1      45.947  28.135  31.386  1.00  0.00     0.049 A 
ATOM     53  H   UNL A   1      44.025  28.362  30.540  1.00  0.00     0.167 HD
ATOM     54  C   UNL A   1      45.483  25.962  30.302  1.00  0.00     0.074 A 
ATOM     55  C   UNL A   1      45.808  24.594  29.949  1.00  0.00     0.031 C 
ATOM     56  C   UNL A   1      46.299  26.792  30.999  1.00  0.00     0.031 A 
BRANCH  43  57
ATOM     57  C   UNL A   1      43.928  32.419  31.928  1.00  0.00    -0.014 A 
ATOM     58  C   UNL A   1      43.627  32.754  33.262  1.00  0.00     0.010 A 
ATOM     59  C   UNL A   1      44.620  33.361  31.139  1.00  0.00     0.010 A 
ATOM     60  C   UNL A   1      43.985  34.005  33.783  1.00  0.00     0.020 A 
ATOM     61  C   UNL A   1      44.999  34.605  31.664  1.00  0.00     0.020 A 
ATOM     62  C   UNL A   1      44.666  34.925  32.980  1.00  0.00     0.054 A 
BRANCH  62  63
ATOM     63  S   UNL A   1      45.154  36.522  33.698  1.00  0.00     0.124 S 
ATOM     64  O   UNL A   1      46.338  36.857  32.908  1.00  0.00    -0.237 OA
ATOM     65  O   UNL A   1      43.981  37.358  33.454  1.00  0.00    -0.237 OA
ATOM     66  O   UNL A   1      45.412  36.211  35.102  1.00  0.00    -0.744 OA
ENDBRANCH  62  63
ENDBRANCH  43  57
BRANCH  44  67
ATOM     67  C   UNL A   1      42.311  23.505  27.848  1.00  0.00    -0.014 A 
ATOM     68  C   UNL A   1      42.611  23.332  26.486  1.00  0.00     0.010 A 
ATOM     69  C   UNL A   1      41.888  22.400  28.609  1.00  0.00     0.010 A 
ATOM     70  C   UNL A   1      42.497  22.073  25.897  1.00  0.00     0.020 A 
ATOM     71  C   UNL A   1      41.795  21.135  28.028  1.00  0.00     0.020 A 
ATOM     72  C   UNL A   1      42.097  20.980  26.674  1.00  0.00     0.054 A 
BRANCH  72  73
ATOM     73  S   UNL A   1      42.058  19.334  25.914  1.00  0.00     0.124 S 
ATOM     74  O   UNL A   1      42.921  19.518  24.751  1.00  0.00    -0.237 OA
ATOM     75  O   UNL A   1      42.593  18.481  26.972  1.00  0.00    -0.237 OA
ATOM     76  O   UNL A   1      40.642  19.130  25.617  1.00  0.00    -0.744 OA
ENDBRANCH  72  73
ENDBRANCH  44  67
BRANCH  56  77
ATOM     77  C   UNL A   1      47.634  26.231  31.413  1.00  0.00    -0.014 A 
ATOM     78  C   UNL A   1      47.817  25.667  32.690  1.00  0.00     0.010 A 
ATOM     79  C   UNL A   1      48.728  26.291  30.531  1.00  0.00     0.010 A 
ATOM     80  C   UNL A   1      49.080  25.227  33.097  1.00  0.00     0.020 A 
ATOM     81  C   UNL A   1      49.988  25.829  30.926  1.00  0.00     0.020 A 
ATOM     82  C   UNL A   1      50.161  25.322  32.216  1.00  0.00     0.054 A 
BRANCH  82  83
ATOM     83  S   UNL A   1      51.794  24.756  32.768  1.00  0.00     0.124 S 
ATOM     84  O   UNL A   1      52.687  25.491  31.877  1.00  0.00    -0.237 OA
ATOM     85  O   UNL A   1      51.824  25.171  34.168  1.00  0.00    -0.237 OA
ATOM     86  O   UNL A   1      51.749  23.311  32.555  1.00  0.00    -0.744 OA
ENDBRANCH  82  83
ENDBRANCH  56  77
ENDBRANCH  30  31
ENDBRANCH  23  25
ENDBRANCH  22  23
ENDBRANCH  21  22
ENDBRANCH   1  21
TORSDOF 18
ENDMDL
