MODEL 1
REMARK VINA RESULT:     -11.6      0.000      0.000
REMARK SMILES C/C=C(\C)[C@H]1C(C)=C[C@H]2CC[C@@H](OS(=O)(=O)[O-])[C@@H](C)[C@H]2[C@H]1/C=C/C=C/C(=O)OCCOC(=O)c1ccc(-c2c3nc(c(-c4ccc(S(=O)(=O)[O-])cc4)c4ccc([nH]4)c(-c4ccc(S(=O)(=O)[O-])cc4)c4nc(c(-c5ccc(S(=O)(=O)[O-])cc5)c5ccc2[nH]5)C=C4)C=C3)cc1
REMARK SMILES IDX 29 1 28 2 26 3 27 4 25 5 24 6 23 7 22 8 21 9 5 10 6 11 7 12
REMARK SMILES IDX 8 13 20 14 9 15 18 16 10 17 12 18 19 19 11 20 3 21 1 22 2 23
REMARK SMILES IDX 4 24 13 25 14 26 15 27 16 28 17 29 30 30 31 31 32 32 33 33
REMARK SMILES IDX 34 34 35 35 93 36 36 37 92 38 37 39 38 40 39 41 86 42 40 43
REMARK SMILES IDX 91 44 85 45 87 46 41 47 90 48 84 49 83 50 42 52 72 53 53 54
REMARK SMILES IDX 71 55 54 56 57 57 70 58 88 59 55 60 56 61 69 63 89 64 58 65
REMARK SMILES IDX 43 66 44 67 52 68 45 69 51 70 46 71 47 72 48 73 49 74 50 75
REMARK SMILES IDX 73 76 74 77 82 78 75 79 81 80 76 81 77 82 78 83 79 84 80 85
REMARK SMILES IDX 59 86 60 87 68 88 61 89 67 90 62 91 63 92 64 93 65 94 66 95
REMARK H PARENT 87 51 57 62
REMARK Flexibility Score: inf
ROOT
ATOM      1  C   UNL A   1      39.753  21.478  26.159  1.00  0.00     0.275 C 
ENDROOT
BRANCH   1   2
ATOM      2  O   UNL A   1      38.432  22.040  26.097  1.00  0.00    -0.459 OA
BRANCH   2   3
ATOM      3  C   UNL A   1      37.662  21.548  25.103  1.00  0.00     0.330 C 
ATOM      4  O   UNL A   1      37.732  20.427  24.618  1.00  0.00    -0.247 OA
BRANCH   3   5
ATOM      5  C   UNL A   1      36.609  22.482  24.687  1.00  0.00     0.093 C 
ATOM      6  C   UNL A   1      36.173  22.754  23.445  1.00  0.00     0.007 C 
BRANCH   6   7
ATOM      7  C   UNL A   1      35.077  23.693  23.325  1.00  0.00    -0.004 C 
ATOM      8  C   UNL A   1      33.891  23.298  22.842  1.00  0.00    -0.022 C 
BRANCH   8   9
ATOM      9  C   UNL A   1      32.527  23.802  23.303  1.00  0.00     0.027 C 
ATOM     10  C   UNL A   1      31.841  22.929  24.470  1.00  0.00     0.047 C 
ATOM     11  C   UNL A   1      30.798  23.727  25.287  1.00  0.00    -0.069 C 
ATOM     12  C   UNL A   1      30.235  23.143  26.554  1.00  0.00     0.040 C 
ATOM     13  C   UNL A   1      30.348  24.936  24.891  1.00  0.00    -0.024 C 
ATOM     14  C   UNL A   1      32.383  25.355  23.515  1.00  0.00     0.009 C 
ATOM     15  C   UNL A   1      30.886  25.678  23.702  1.00  0.00     0.016 C 
ATOM     16  C   UNL A   1      33.286  26.087  24.578  1.00  0.00     0.021 C 
ATOM     17  C   UNL A   1      30.645  27.196  23.762  1.00  0.00     0.011 C 
ATOM     18  C   UNL A   1      33.004  27.614  24.554  1.00  0.00     0.141 C 
ATOM     19  C   UNL A   1      33.261  25.576  26.022  1.00  0.00     0.011 C 
ATOM     20  C   UNL A   1      31.521  27.927  24.774  1.00  0.00     0.034 C 
BRANCH  10  21
ATOM     21  C   UNL A   1      32.722  21.936  25.307  1.00  0.00    -0.070 C 
ATOM     22  C   UNL A   1      34.416  21.456  27.180  1.00  0.00     0.035 C 
ATOM     23  C   UNL A   1      33.391  22.255  26.437  1.00  0.00    -0.031 C 
ATOM     24  C   UNL A   1      32.929  20.570  24.689  1.00  0.00     0.040 C 
ENDBRANCH  10  21
BRANCH  18  25
ATOM     25  O   UNL A   1      33.942  28.276  25.400  1.00  0.00    -0.276 OA
BRANCH  25  26
ATOM     26  S   UNL A   1      33.522  29.227  26.642  1.00  0.00     0.217 S 
ATOM     27  O   UNL A   1      32.978  30.463  26.124  1.00  0.00    -0.213 OA
ATOM     28  O   UNL A   1      32.810  28.455  27.632  1.00  0.00    -0.213 OA
ATOM     29  O   UNL A   1      34.945  29.598  27.292  1.00  0.00    -0.726 OA
ENDBRANCH  25  26
ENDBRANCH  18  25
ENDBRANCH   8   9
ENDBRANCH   6   7
ENDBRANCH   3   5
ENDBRANCH   2   3
ENDBRANCH   1   2
BRANCH   1  30
ATOM     30  C   UNL A   1      40.748  22.523  26.671  1.00  0.00     0.275 C 
BRANCH  30  31
ATOM     31  O   UNL A   1      40.192  23.855  26.659  1.00  0.00    -0.458 OA
BRANCH  31  32
ATOM     32  C   UNL A   1      41.081  24.856  26.453  1.00  0.00     0.338 C 
ATOM     33  O   UNL A   1      41.757  25.048  25.456  1.00  0.00    -0.246 OA
BRANCH  32  34
ATOM     34  C   UNL A   1      41.083  25.773  27.604  1.00  0.00     0.060 A 
ATOM     35  C   UNL A   1      39.998  25.757  28.484  1.00  0.00     0.016 A 
ATOM     36  C   UNL A   1      42.097  26.722  27.748  1.00  0.00     0.016 A 
ATOM     37  C   UNL A   1      39.910  26.706  29.501  1.00  0.00     0.010 A 
ATOM     38  C   UNL A   1      42.017  27.660  28.784  1.00  0.00     0.010 A 
ATOM     39  C   UNL A   1      40.915  27.670  29.658  1.00  0.00    -0.014 A 
BRANCH  39  40
ATOM     40  C   UNL A   1      40.803  28.698  30.726  1.00  0.00     0.031 A 
ATOM     41  C   UNL A   1      41.689  28.629  31.940  1.00  0.00     0.074 A 
ATOM     42  C   UNL A   1      39.904  29.694  30.602  1.00  0.00     0.049 A 
ATOM     43  N   UNL A   1      41.693  29.391  33.004  1.00  0.00    -0.248 NA
ATOM     44  C   UNL A   1      42.700  27.560  31.967  1.00  0.00     0.031 C 
ATOM     45  C   UNL A   1      39.009  29.886  29.459  1.00  0.00     0.029 A 
ATOM     46  N   UNL A   1      39.590  30.729  31.447  1.00  0.00    -0.354 N 
ATOM     47  C   UNL A   1      42.686  28.885  33.834  1.00  0.00     0.074 A 
ATOM     48  C   UNL A   1      43.250  27.735  33.161  1.00  0.00     0.031 C 
ATOM     49  C   UNL A   1      38.252  30.974  29.672  1.00  0.00     0.029 A 
ATOM     50  C   UNL A   1      38.565  31.524  30.988  1.00  0.00     0.049 A 
ATOM     51  H   UNL A   1      40.052  30.887  32.302  1.00  0.00     0.167 HD
ATOM     52  C   UNL A   1      43.091  29.339  35.045  1.00  0.00     0.031 A 
ATOM     53  C   UNL A   1      37.928  32.558  31.570  1.00  0.00     0.031 A 
ATOM     54  C   UNL A   1      42.523  30.486  35.709  1.00  0.00     0.049 A 
ATOM     55  C   UNL A   1      38.355  33.003  32.943  1.00  0.00     0.074 A 
ATOM     56  C   UNL A   1      42.885  31.040  36.924  1.00  0.00     0.029 A 
ATOM     57  N   UNL A   1      41.473  31.248  35.220  1.00  0.00    -0.354 N 
ATOM     58  N   UNL A   1      39.316  32.530  33.701  1.00  0.00    -0.248 NA
ATOM     59  C   UNL A   1      37.618  34.127  33.537  1.00  0.00     0.031 C 
ATOM     60  C   UNL A   1      42.009  32.094  37.203  1.00  0.00     0.029 A 
ATOM     61  C   UNL A   1      41.152  32.247  36.125  1.00  0.00     0.049 A 
ATOM     62  H   UNL A   1      41.021  31.101  34.358  1.00  0.00     0.167 HD
ATOM     63  C   UNL A   1      39.319  33.318  34.846  1.00  0.00     0.074 A 
ATOM     64  C   UNL A   1      38.277  34.309  34.674  1.00  0.00     0.031 C 
ATOM     65  C   UNL A   1      40.114  33.230  35.941  1.00  0.00     0.031 A 
BRANCH  52  66
ATOM     66  C   UNL A   1      44.179  28.578  35.759  1.00  0.00    -0.014 A 
ATOM     67  C   UNL A   1      45.535  28.923  35.615  1.00  0.00     0.010 A 
ATOM     68  C   UNL A   1      43.831  27.543  36.649  1.00  0.00     0.010 A 
ATOM     69  C   UNL A   1      46.522  28.231  36.323  1.00  0.00     0.020 A 
ATOM     70  C   UNL A   1      44.812  26.868  37.382  1.00  0.00     0.020 A 
ATOM     71  C   UNL A   1      46.154  27.209  37.205  1.00  0.00     0.054 A 
BRANCH  71  72
ATOM     72  S   UNL A   1      47.453  26.359  38.142  1.00  0.00     0.124 S 
ATOM     73  O   UNL A   1      47.122  26.725  39.518  1.00  0.00    -0.237 OA
ATOM     74  O   UNL A   1      47.232  24.958  37.795  1.00  0.00    -0.237 OA
ATOM     75  O   UNL A   1      48.691  26.939  37.626  1.00  0.00    -0.744 OA
ENDBRANCH  71  72
ENDBRANCH  52  66
BRANCH  53  76
ATOM     76  C   UNL A   1      36.791  33.223  30.871  1.00  0.00    -0.014 A 
ATOM     77  C   UNL A   1      37.014  34.052  29.758  1.00  0.00     0.010 A 
ATOM     78  C   UNL A   1      35.473  33.034  31.328  1.00  0.00     0.010 A 
ATOM     79  C   UNL A   1      35.944  34.699  29.133  1.00  0.00     0.020 A 
ATOM     80  C   UNL A   1      34.398  33.651  30.684  1.00  0.00     0.020 A 
ATOM     81  C   UNL A   1      34.642  34.493  29.599  1.00  0.00     0.054 A 
BRANCH  81  82
ATOM     82  S   UNL A   1      33.268  35.316  28.748  1.00  0.00     0.124 S 
ATOM     83  O   UNL A   1      33.965  36.296  27.922  1.00  0.00    -0.237 OA
ATOM     84  O   UNL A   1      32.639  34.212  28.028  1.00  0.00    -0.237 OA
ATOM     85  O   UNL A   1      32.472  35.871  29.841  1.00  0.00    -0.744 OA
ENDBRANCH  81  82
ENDBRANCH  53  76
BRANCH  65  86
ATOM     86  C   UNL A   1      39.924  34.261  37.024  1.00  0.00    -0.014 A 
ATOM     87  C   UNL A   1      40.575  35.507  36.978  1.00  0.00     0.010 A 
ATOM     88  C   UNL A   1      39.033  33.995  38.081  1.00  0.00     0.010 A 
ATOM     89  C   UNL A   1      40.364  36.452  37.985  1.00  0.00     0.020 A 
ATOM     90  C   UNL A   1      38.794  34.950  39.071  1.00  0.00     0.020 A 
ATOM     91  C   UNL A   1      39.473  36.168  39.025  1.00  0.00     0.054 A 
BRANCH  91  92
ATOM     92  S   UNL A   1      39.183  37.431  40.295  1.00  0.00     0.124 S 
ATOM     93  O   UNL A   1      40.515  38.007  40.460  1.00  0.00    -0.237 OA
ATOM     94  O   UNL A   1      38.195  38.301  39.661  1.00  0.00    -0.237 OA
ATOM     95  O   UNL A   1      38.691  36.667  41.438  1.00  0.00    -0.744 OA
ENDBRANCH  91  92
ENDBRANCH  65  86
ENDBRANCH  39  40
ENDBRANCH  32  34
ENDBRANCH  31  32
ENDBRANCH  30  31
ENDBRANCH   1  30
TORSDOF 19
ENDMDL
MODEL 2
REMARK VINA RESULT:     -11.3      6.286     11.833
REMARK SMILES C/C=C(\C)[C@H]1C(C)=C[C@H]2CC[C@@H](OS(=O)(=O)[O-])[C@@H](C)[C@H]2[C@H]1/C=C/C=C/C(=O)OCCOC(=O)c1ccc(-c2c3nc(c(-c4ccc(S(=O)(=O)[O-])cc4)c4ccc([nH]4)c(-c4ccc(S(=O)(=O)[O-])cc4)c4nc(c(-c5ccc(S(=O)(=O)[O-])cc5)c5ccc2[nH]5)C=C4)C=C3)cc1
REMARK SMILES IDX 29 1 28 2 26 3 27 4 25 5 24 6 23 7 22 8 21 9 5 10 6 11 7 12
REMARK SMILES IDX 8 13 20 14 9 15 18 16 10 17 12 18 19 19 11 20 3 21 1 22 2 23
REMARK SMILES IDX 4 24 13 25 14 26 15 27 16 28 17 29 30 30 31 31 32 32 33 33
REMARK SMILES IDX 34 34 35 35 93 36 36 37 92 38 37 39 38 40 39 41 86 42 40 43
REMARK SMILES IDX 91 44 85 45 87 46 41 47 90 48 84 49 83 50 42 52 72 53 53 54
REMARK SMILES IDX 71 55 54 56 57 57 70 58 88 59 55 60 56 61 69 63 89 64 58 65
REMARK SMILES IDX 43 66 44 67 52 68 45 69 51 70 46 71 47 72 48 73 49 74 50 75
REMARK SMILES IDX 73 76 74 77 82 78 75 79 81 80 76 81 77 82 78 83 79 84 80 85
REMARK SMILES IDX 59 86 60 87 68 88 61 89 67 90 62 91 63 92 64 93 65 94 66 95
REMARK H PARENT 87 51 57 62
REMARK Flexibility Score: inf
ROOT
ATOM      1  C   UNL A   1      33.455  30.954  27.236  1.00  0.00     0.275 C 
ENDROOT
BRANCH   1   2
ATOM      2  O   UNL A   1      32.227  30.216  27.354  1.00  0.00    -0.459 OA
BRANCH   2   3
ATOM      3  C   UNL A   1      31.703  29.812  26.177  1.00  0.00     0.330 C 
ATOM      4  O   UNL A   1      31.307  30.534  25.273  1.00  0.00    -0.247 OA
BRANCH   3   5
ATOM      5  C   UNL A   1      31.734  28.353  26.015  1.00  0.00     0.093 C 
ATOM      6  C   UNL A   1      32.144  27.420  26.891  1.00  0.00     0.007 C 
BRANCH   6   7
ATOM      7  C   UNL A   1      32.020  26.037  26.484  1.00  0.00    -0.004 C 
ATOM      8  C   UNL A   1      31.197  25.691  25.484  1.00  0.00    -0.022 C 
BRANCH   8   9
ATOM      9  C   UNL A   1      31.449  24.588  24.461  1.00  0.00     0.027 C 
ATOM     10  C   UNL A   1      31.672  25.102  22.950  1.00  0.00     0.047 C 
ATOM     11  C   UNL A   1      32.457  24.094  22.080  1.00  0.00    -0.069 C 
ATOM     12  C   UNL A   1      32.954  24.508  20.721  1.00  0.00     0.040 C 
ATOM     13  C   UNL A   1      32.698  22.829  22.485  1.00  0.00    -0.024 C 
ATOM     14  C   UNL A   1      32.442  23.444  24.887  1.00  0.00     0.009 C 
ATOM     15  C   UNL A   1      32.342  22.308  23.847  1.00  0.00     0.016 C 
ATOM     16  C   UNL A   1      33.937  23.796  25.238  1.00  0.00     0.021 C 
ATOM     17  C   UNL A   1      33.170  21.084  24.274  1.00  0.00     0.011 C 
ATOM     18  C   UNL A   1      34.693  22.517  25.688  1.00  0.00     0.141 C 
ATOM     19  C   UNL A   1      34.766  24.552  24.196  1.00  0.00     0.011 C 
ATOM     20  C   UNL A   1      34.616  21.406  24.636  1.00  0.00     0.034 C 
BRANCH  10  21
ATOM     21  C   UNL A   1      32.018  26.611  22.695  1.00  0.00    -0.070 C 
ATOM     22  C   UNL A   1      33.626  28.612  22.844  1.00  0.00     0.035 C 
ATOM     23  C   UNL A   1      33.241  27.165  22.851  1.00  0.00    -0.031 C 
ATOM     24  C   UNL A   1      30.836  27.509  22.394  1.00  0.00     0.040 C 
ENDBRANCH  10  21
BRANCH  18  25
ATOM     25  O   UNL A   1      35.989  22.880  26.158  1.00  0.00    -0.276 OA
BRANCH  25  26
ATOM     26  S   UNL A   1      37.369  22.444  25.429  1.00  0.00     0.217 S 
ATOM     27  O   UNL A   1      37.639  21.055  25.728  1.00  0.00    -0.213 OA
ATOM     28  O   UNL A   1      37.380  22.931  24.071  1.00  0.00    -0.213 OA
ATOM     29  O   UNL A   1      38.470  23.301  26.228  1.00  0.00    -0.726 OA
ENDBRANCH  25  26
ENDBRANCH  18  25
ENDBRANCH   8   9
ENDBRANCH   6   7
ENDBRANCH   3   5
ENDBRANCH   2   3
ENDBRANCH   1   2
BRANCH   1  30
ATOM     30  C   UNL A   1      34.619  30.135  27.797  1.00  0.00     0.275 C 
BRANCH  30  31
ATOM     31  O   UNL A   1      35.747  30.963  28.151  1.00  0.00    -0.458 OA
BRANCH  31  32
ATOM     32  C   UNL A   1      36.354  30.653  29.321  1.00  0.00     0.338 C 
ATOM     33  O   UNL A   1      35.887  30.758  30.443  1.00  0.00    -0.246 OA
BRANCH  32  34
ATOM     34  C   UNL A   1      37.683  30.076  29.064  1.00  0.00     0.060 A 
ATOM     35  C   UNL A   1      38.584  29.953  30.125  1.00  0.00     0.016 A 
ATOM     36  C   UNL A   1      38.077  29.764  27.762  1.00  0.00     0.016 A 
ATOM     37  C   UNL A   1      39.893  29.538  29.885  1.00  0.00     0.010 A 
ATOM     38  C   UNL A   1      39.385  29.326  27.527  1.00  0.00     0.010 A 
ATOM     39  C   UNL A   1      40.309  29.226  28.583  1.00  0.00    -0.014 A 
BRANCH  39  40
ATOM     40  C   UNL A   1      41.713  28.811  28.327  1.00  0.00     0.031 A 
ATOM     41  C   UNL A   1      42.819  29.832  28.341  1.00  0.00     0.074 A 
ATOM     42  C   UNL A   1      41.992  27.517  28.082  1.00  0.00     0.049 A 
ATOM     43  N   UNL A   1      44.091  29.675  28.075  1.00  0.00    -0.248 NA
ATOM     44  C   UNL A   1      42.447  31.211  28.696  1.00  0.00     0.031 C 
ATOM     45  C   UNL A   1      41.011  26.429  28.070  1.00  0.00     0.029 A 
ATOM     46  N   UNL A   1      43.181  26.895  27.791  1.00  0.00    -0.354 N 
ATOM     47  C   UNL A   1      44.667  30.933  28.208  1.00  0.00     0.074 A 
ATOM     48  C   UNL A   1      43.603  31.848  28.557  1.00  0.00     0.031 C 
ATOM     49  C   UNL A   1      41.640  25.275  27.792  1.00  0.00     0.029 A 
ATOM     50  C   UNL A   1      43.053  25.547  27.549  1.00  0.00     0.049 A 
ATOM     51  H   UNL A   1      44.044  27.369  27.756  1.00  0.00     0.167 HD
ATOM     52  C   UNL A   1      45.966  31.290  28.054  1.00  0.00     0.031 A 
ATOM     53  C   UNL A   1      43.962  24.637  27.149  1.00  0.00     0.031 A 
ATOM     54  C   UNL A   1      47.020  30.371  27.706  1.00  0.00     0.049 A 
ATOM     55  C   UNL A   1      45.385  25.072  26.925  1.00  0.00     0.074 A 
ATOM     56  C   UNL A   1      48.371  30.631  27.556  1.00  0.00     0.029 A 
ATOM     57  N   UNL A   1      46.844  29.020  27.449  1.00  0.00    -0.354 N 
ATOM     58  N   UNL A   1      45.918  26.261  27.082  1.00  0.00    -0.248 NA
ATOM     59  C   UNL A   1      46.332  24.043  26.475  1.00  0.00     0.031 C 
ATOM     60  C   UNL A   1      49.001  29.455  27.139  1.00  0.00     0.029 A 
ATOM     61  C   UNL A   1      48.056  28.441  27.107  1.00  0.00     0.049 A 
ATOM     62  H   UNL A   1      45.985  28.541  27.500  1.00  0.00     0.167 HD
ATOM     63  C   UNL A   1      47.268  26.114  26.782  1.00  0.00     0.074 A 
ATOM     64  C   UNL A   1      47.473  24.719  26.451  1.00  0.00     0.031 C 
ATOM     65  C   UNL A   1      48.249  27.050  26.783  1.00  0.00     0.031 A 
BRANCH  52  66
ATOM     66  C   UNL A   1      46.325  32.745  28.224  1.00  0.00    -0.014 A 
ATOM     67  C   UNL A   1      46.739  33.260  29.465  1.00  0.00     0.010 A 
ATOM     68  C   UNL A   1      46.317  33.595  27.101  1.00  0.00     0.010 A 
ATOM     69  C   UNL A   1      47.110  34.603  29.585  1.00  0.00     0.020 A 
ATOM     70  C   UNL A   1      46.716  34.930  27.211  1.00  0.00     0.020 A 
ATOM     71  C   UNL A   1      47.100  35.429  28.456  1.00  0.00     0.054 A 
BRANCH  71  72
ATOM     72  S   UNL A   1      47.629  37.154  28.636  1.00  0.00     0.124 S 
ATOM     73  O   UNL A   1      47.231  37.728  27.353  1.00  0.00    -0.237 OA
ATOM     74  O   UNL A   1      46.858  37.606  29.792  1.00  0.00    -0.237 OA
ATOM     75  O   UNL A   1      49.070  37.056  28.852  1.00  0.00    -0.744 OA
ENDBRANCH  71  72
ENDBRANCH  52  66
BRANCH  53  76
ATOM     76  C   UNL A   1      43.546  23.227  26.898  1.00  0.00    -0.014 A 
ATOM     77  C   UNL A   1      43.028  22.432  27.935  1.00  0.00     0.010 A 
ATOM     78  C   UNL A   1      43.678  22.670  25.613  1.00  0.00     0.010 A 
ATOM     79  C   UNL A   1      42.675  21.101  27.697  1.00  0.00     0.020 A 
ATOM     80  C   UNL A   1      43.293  21.350  25.363  1.00  0.00     0.020 A 
ATOM     81  C   UNL A   1      42.809  20.568  26.411  1.00  0.00     0.054 A 
BRANCH  81  82
ATOM     82  S   UNL A   1      42.311  18.849  26.121  1.00  0.00     0.124 S 
ATOM     83  O   UNL A   1      43.197  18.456  25.030  1.00  0.00    -0.237 OA
ATOM     84  O   UNL A   1      42.579  18.223  27.413  1.00  0.00    -0.237 OA
ATOM     85  O   UNL A   1      40.896  18.956  25.771  1.00  0.00    -0.744 OA
ENDBRANCH  81  82
ENDBRANCH  53  76
BRANCH  65  86
ATOM     86  C   UNL A   1      49.649  26.592  26.460  1.00  0.00    -0.014 A 
ATOM     87  C   UNL A   1      50.436  25.909  27.404  1.00  0.00     0.010 A 
ATOM     88  C   UNL A   1      50.163  26.805  25.167  1.00  0.00     0.010 A 
ATOM     89  C   UNL A   1      51.723  25.477  27.071  1.00  0.00     0.020 A 
ATOM     90  C   UNL A   1      51.435  26.344  24.820  1.00  0.00     0.020 A 
ATOM     91  C   UNL A   1      52.213  25.696  25.780  1.00  0.00     0.054 A 
BRANCH  91  92
ATOM     92  S   UNL A   1      53.869  25.086  25.360  1.00  0.00     0.124 S 
ATOM     93  O   UNL A   1      54.036  25.573  23.994  1.00  0.00    -0.237 OA
ATOM     94  O   UNL A   1      54.712  25.730  26.366  1.00  0.00    -0.237 OA
ATOM     95  O   UNL A   1      53.749  23.636  25.493  1.00  0.00    -0.744 OA
ENDBRANCH  91  92
ENDBRANCH  65  86
ENDBRANCH  39  40
ENDBRANCH  32  34
ENDBRANCH  31  32
ENDBRANCH  30  31
ENDBRANCH   1  30
TORSDOF 19
ENDMDL
MODEL 3
REMARK VINA RESULT:     -11.2      0.435      7.915
REMARK SMILES C/C=C(\C)[C@H]1C(C)=C[C@H]2CC[C@@H](OS(=O)(=O)[O-])[C@@H](C)[C@H]2[C@H]1/C=C/C=C/C(=O)OCCOC(=O)c1ccc(-c2c3nc(c(-c4ccc(S(=O)(=O)[O-])cc4)c4ccc([nH]4)c(-c4ccc(S(=O)(=O)[O-])cc4)c4nc(c(-c5ccc(S(=O)(=O)[O-])cc5)c5ccc2[nH]5)C=C4)C=C3)cc1
REMARK SMILES IDX 29 1 28 2 26 3 27 4 25 5 24 6 23 7 22 8 21 9 5 10 6 11 7 12
REMARK SMILES IDX 8 13 20 14 9 15 18 16 10 17 12 18 19 19 11 20 3 21 1 22 2 23
REMARK SMILES IDX 4 24 13 25 14 26 15 27 16 28 17 29 30 30 31 31 32 32 33 33
REMARK SMILES IDX 34 34 35 35 93 36 36 37 92 38 37 39 38 40 39 41 86 42 40 43
REMARK SMILES IDX 91 44 85 45 87 46 41 47 90 48 84 49 83 50 42 52 72 53 53 54
REMARK SMILES IDX 71 55 54 56 57 57 70 58 88 59 55 60 56 61 69 63 89 64 58 65
REMARK SMILES IDX 43 66 44 67 52 68 45 69 51 70 46 71 47 72 48 73 49 74 50 75
REMARK SMILES IDX 73 76 74 77 82 78 75 79 81 80 76 81 77 82 78 83 79 84 80 85
REMARK SMILES IDX 59 86 60 87 68 88 61 89 67 90 62 91 63 92 64 93 65 94 66 95
REMARK H PARENT 87 51 57 62
REMARK Flexibility Score: inf
ROOT
ATOM      1  C   UNL A   1      39.962  21.569  26.140  1.00  0.00     0.275 C 
ENDROOT
BRANCH   1   2
ATOM      2  O   UNL A   1      38.624  22.094  26.172  1.00  0.00    -0.459 OA
BRANCH   2   3
ATOM      3  C   UNL A   1      37.814  21.618  25.202  1.00  0.00     0.330 C 
ATOM      4  O   UNL A   1      37.840  20.492  24.723  1.00  0.00    -0.247 OA
BRANCH   3   5
ATOM      5  C   UNL A   1      36.777  22.578  24.808  1.00  0.00     0.093 C 
ATOM      6  C   UNL A   1      36.077  22.633  23.662  1.00  0.00     0.007 C 
BRANCH   6   7
ATOM      7  C   UNL A   1      35.071  23.668  23.555  1.00  0.00    -0.004 C 
ATOM      8  C   UNL A   1      33.883  23.410  22.990  1.00  0.00    -0.022 C 
BRANCH   8   9
ATOM      9  C   UNL A   1      32.544  23.999  23.419  1.00  0.00     0.027 C 
ATOM     10  C   UNL A   1      31.758  23.150  24.541  1.00  0.00     0.047 C 
ATOM     11  C   UNL A   1      30.747  24.001  25.343  1.00  0.00    -0.069 C 
ATOM     12  C   UNL A   1      30.101  23.430  26.577  1.00  0.00     0.040 C 
ATOM     13  C   UNL A   1      30.396  25.248  24.964  1.00  0.00    -0.024 C 
ATOM     14  C   UNL A   1      32.501  25.553  23.665  1.00  0.00     0.009 C 
ATOM     15  C   UNL A   1      31.025  25.977  23.812  1.00  0.00     0.016 C 
ATOM     16  C   UNL A   1      33.416  26.194  24.775  1.00  0.00     0.021 C 
ATOM     17  C   UNL A   1      30.889  27.506  23.902  1.00  0.00     0.011 C 
ATOM     18  C   UNL A   1      33.243  27.738  24.781  1.00  0.00     0.141 C 
ATOM     19  C   UNL A   1      33.307  25.654  26.204  1.00  0.00     0.011 C 
ATOM     20  C   UNL A   1      31.779  28.150  24.960  1.00  0.00     0.034 C 
BRANCH  10  21
ATOM     21  C   UNL A   1      32.539  22.079  25.380  1.00  0.00    -0.070 C 
ATOM     22  C   UNL A   1      34.223  21.442  27.215  1.00  0.00     0.035 C 
ATOM     23  C   UNL A   1      33.280  22.342  26.480  1.00  0.00    -0.031 C 
ATOM     24  C   UNL A   1      32.556  20.681  24.798  1.00  0.00     0.040 C 
ENDBRANCH  10  21
BRANCH  18  25
ATOM     25  O   UNL A   1      34.196  28.312  25.673  1.00  0.00    -0.276 OA
BRANCH  25  26
ATOM     26  S   UNL A   1      33.797  29.144  27.005  1.00  0.00     0.217 S 
ATOM     27  O   UNL A   1      32.641  28.526  27.616  1.00  0.00    -0.213 OA
ATOM     28  O   UNL A   1      34.983  29.434  27.774  1.00  0.00    -0.213 OA
ATOM     29  O   UNL A   1      33.293  30.547  26.401  1.00  0.00    -0.726 OA
ENDBRANCH  25  26
ENDBRANCH  18  25
ENDBRANCH   8   9
ENDBRANCH   6   7
ENDBRANCH   3   5
ENDBRANCH   2   3
ENDBRANCH   1   2
BRANCH   1  30
ATOM     30  C   UNL A   1      40.973  22.685  26.414  1.00  0.00     0.275 C 
BRANCH  30  31
ATOM     31  O   UNL A   1      40.329  23.936  26.734  1.00  0.00    -0.458 OA
BRANCH  31  32
ATOM     32  C   UNL A   1      41.073  25.047  26.516  1.00  0.00     0.338 C 
ATOM     33  O   UNL A   1      41.800  25.271  25.563  1.00  0.00    -0.246 OA
BRANCH  32  34
ATOM     34  C   UNL A   1      40.833  26.033  27.582  1.00  0.00     0.060 A 
ATOM     35  C   UNL A   1      41.745  27.076  27.757  1.00  0.00     0.016 A 
ATOM     36  C   UNL A   1      39.774  25.863  28.475  1.00  0.00     0.016 A 
ATOM     37  C   UNL A   1      41.616  27.943  28.840  1.00  0.00     0.010 A 
ATOM     38  C   UNL A   1      39.633  26.748  29.550  1.00  0.00     0.010 A 
ATOM     39  C   UNL A   1      40.562  27.785  29.751  1.00  0.00    -0.014 A 
BRANCH  39  40
ATOM     40  C   UNL A   1      40.444  28.693  30.922  1.00  0.00     0.031 A 
ATOM     41  C   UNL A   1      39.409  29.786  30.931  1.00  0.00     0.074 A 
ATOM     42  C   UNL A   1      41.268  28.534  31.976  1.00  0.00     0.049 A 
ATOM     43  N   UNL A   1      39.199  30.715  31.828  1.00  0.00    -0.248 NA
ATOM     44  C   UNL A   1      38.493  29.845  29.781  1.00  0.00     0.031 C 
ATOM     45  C   UNL A   1      42.292  27.494  32.097  1.00  0.00     0.029 A 
ATOM     46  N   UNL A   1      41.380  29.248  33.143  1.00  0.00    -0.354 N 
ATOM     47  C   UNL A   1      38.145  31.482  31.344  1.00  0.00     0.074 A 
ATOM     48  C   UNL A   1      37.773  30.923  30.063  1.00  0.00     0.031 C 
ATOM     49  C   UNL A   1      42.923  27.636  33.274  1.00  0.00     0.029 A 
ATOM     50  C   UNL A   1      42.390  28.806  33.965  1.00  0.00     0.049 A 
ATOM     51  H   UNL A   1      40.793  30.006  33.369  1.00  0.00     0.167 HD
ATOM     52  C   UNL A   1      37.544  32.553  31.917  1.00  0.00     0.031 A 
ATOM     53  C   UNL A   1      42.856  29.302  35.127  1.00  0.00     0.031 A 
ATOM     54  C   UNL A   1      37.921  33.104  33.195  1.00  0.00     0.049 A 
ATOM     55  C   UNL A   1      42.211  30.529  35.712  1.00  0.00     0.074 A 
ATOM     56  C   UNL A   1      37.354  34.168  33.872  1.00  0.00     0.029 A 
ATOM     57  N   UNL A   1      38.963  32.640  33.983  1.00  0.00    -0.354 N 
ATOM     58  N   UNL A   1      41.197  31.225  35.253  1.00  0.00    -0.248 NA
ATOM     59  C   UNL A   1      42.767  31.036  36.974  1.00  0.00     0.031 C 
ATOM     60  C   UNL A   1      38.095  34.393  35.036  1.00  0.00     0.029 A 
ATOM     61  C   UNL A   1      39.077  33.418  35.124  1.00  0.00     0.049 A 
ATOM     62  H   UNL A   1      39.539  31.872  33.766  1.00  0.00     0.167 HD
ATOM     63  C   UNL A   1      40.974  32.231  36.187  1.00  0.00     0.074 A 
ATOM     64  C   UNL A   1      41.947  32.043  37.244  1.00  0.00     0.031 C 
ATOM     65  C   UNL A   1      40.047  33.220  36.171  1.00  0.00     0.031 A 
BRANCH  52  66
ATOM     66  C   UNL A   1      36.433  33.232  31.157  1.00  0.00    -0.014 A 
ATOM     67  C   UNL A   1      35.141  33.359  31.698  1.00  0.00     0.010 A 
ATOM     68  C   UNL A   1      36.709  33.820  29.907  1.00  0.00     0.010 A 
ATOM     69  C   UNL A   1      34.140  34.033  30.992  1.00  0.00     0.020 A 
ATOM     70  C   UNL A   1      35.719  34.521  29.211  1.00  0.00     0.020 A 
ATOM     71  C   UNL A   1      34.437  34.613  29.754  1.00  0.00     0.054 A 
BRANCH  71  72
ATOM     72  S   UNL A   1      33.129  35.519  28.882  1.00  0.00     0.124 S 
ATOM     73  O   UNL A   1      32.334  36.043  29.990  1.00  0.00    -0.237 OA
ATOM     74  O   UNL A   1      33.882  36.515  28.124  1.00  0.00    -0.237 OA
ATOM     75  O   UNL A   1      32.471  34.493  28.077  1.00  0.00    -0.744 OA
ENDBRANCH  71  72
ENDBRANCH  52  66
BRANCH  53  76
ATOM     76  C   UNL A   1      44.020  28.658  35.800  1.00  0.00    -0.014 A 
ATOM     77  C   UNL A   1      45.336  29.042  35.491  1.00  0.00     0.010 A 
ATOM     78  C   UNL A   1      43.812  27.642  36.752  1.00  0.00     0.010 A 
ATOM     79  C   UNL A   1      46.421  28.407  36.102  1.00  0.00     0.020 A 
ATOM     80  C   UNL A   1      44.893  27.029  37.391  1.00  0.00     0.020 A 
ATOM     81  C   UNL A   1      46.193  27.404  37.050  1.00  0.00     0.054 A 
BRANCH  81  82
ATOM     82  S   UNL A   1      47.616  26.619  37.854  1.00  0.00     0.124 S 
ATOM     83  O   UNL A   1      48.737  27.207  37.129  1.00  0.00    -0.237 OA
ATOM     84  O   UNL A   1      47.465  27.047  39.243  1.00  0.00    -0.237 OA
ATOM     85  O   UNL A   1      47.397  25.193  37.622  1.00  0.00    -0.744 OA
ENDBRANCH  81  82
ENDBRANCH  53  76
BRANCH  65  86
ATOM     86  C   UNL A   1      40.003  34.153  37.355  1.00  0.00    -0.014 A 
ATOM     87  C   UNL A   1      40.685  35.383  37.348  1.00  0.00     0.010 A 
ATOM     88  C   UNL A   1      39.220  33.811  38.473  1.00  0.00     0.010 A 
ATOM     89  C   UNL A   1      40.610  36.237  38.452  1.00  0.00     0.020 A 
ATOM     90  C   UNL A   1      39.116  34.677  39.564  1.00  0.00     0.020 A 
ATOM     91  C   UNL A   1      39.824  35.879  39.552  1.00  0.00     0.054 A 
BRANCH  91  92
ATOM     92  S   UNL A   1      39.709  37.028  40.952  1.00  0.00     0.124 S 
ATOM     93  O   UNL A   1      38.598  36.466  41.715  1.00  0.00    -0.237 OA
ATOM     94  O   UNL A   1      41.025  36.905  41.576  1.00  0.00    -0.237 OA
ATOM     95  O   UNL A   1      39.442  38.318  40.322  1.00  0.00    -0.744 OA
ENDBRANCH  91  92
ENDBRANCH  65  86
ENDBRANCH  39  40
ENDBRANCH  32  34
ENDBRANCH  31  32
ENDBRANCH  30  31
ENDBRANCH   1  30
TORSDOF 19
ENDMDL
