MODEL 1
REMARK VINA RESULT:     -10.1      0.000      0.000
REMARK SMILES C[C@H]([NH2+]CCc1ccc([N+](=O)[O-])cc1)[C@@H](C)C(=O)OCCOC(=O)c1ccc(-c2c3nc(c(-c4ccc(S(=O)(=O)[O-])cc4)c4ccc([nH]4)c(-c4ccc(S(=O)(=O)[O-])cc4)c4nc(c(-c5ccc(S(=O)(=O)[O-])cc5)c5ccc2[nH]5)C=C4)C=C3)cc1
REMARK SMILES IDX 19 1 17 2 18 3 15 4 16 5 2 6 1 7 3 8 4 11 5 12 6 13 7 14
REMARK SMILES IDX 14 15 8 16 13 17 9 18 10 19 11 20 12 21 20 22 21 23 22 24
REMARK SMILES IDX 23 25 24 26 25 27 26 28 84 29 27 30 83 31 28 32 29 33 30 34
REMARK SMILES IDX 77 35 31 36 82 37 76 38 78 39 32 40 81 41 75 42 74 43 33 45
REMARK SMILES IDX 63 46 44 47 62 48 45 49 48 50 61 51 79 52 46 53 47 54 60 56
REMARK SMILES IDX 80 57 49 58 34 59 35 60 43 61 36 62 42 63 37 64 38 65 39 66
REMARK SMILES IDX 40 67 41 68 64 69 65 70 73 71 66 72 72 73 67 74 68 75 69 76
REMARK SMILES IDX 70 77 71 78 50 79 51 80 59 81 52 82 58 83 53 84 54 85 55 86
REMARK SMILES IDX 56 87 57 88
REMARK H PARENT 3 9 3 10 78 44 48 55
REMARK Flexibility Score: inf
ROOT
ATOM      1  O   UNL A   1      33.370  26.837  25.743  1.00  0.00    -0.462 OA
ENDROOT
BRANCH   1   2
ATOM      2  C   UNL A   1      32.245  26.078  25.754  1.00  0.00     0.314 C 
ATOM      3  O   UNL A   1      31.560  25.873  26.753  1.00  0.00    -0.252 OA
BRANCH   2   4
ATOM      4  C   UNL A   1      31.894  25.452  24.417  1.00  0.00     0.154 C 
ATOM      5  C   UNL A   1      30.362  25.441  24.330  1.00  0.00     0.026 C 
BRANCH   4   6
ATOM      6  C   UNL A   1      32.532  24.078  24.061  1.00  0.00     0.193 C 
ATOM      7  C   UNL A   1      33.114  24.043  22.640  1.00  0.00     0.076 C 
BRANCH   6   8
ATOM      8  N   UNL A   1      31.490  23.044  24.283  1.00  0.00    -0.343 N 
ATOM      9  H   UNL A   1      31.532  22.395  23.497  1.00  0.00     0.346 HD
ATOM     10  H   UNL A   1      30.618  23.567  24.370  1.00  0.00     0.346 HD
BRANCH   8  11
ATOM     11  C   UNL A   1      31.576  22.254  25.511  1.00  0.00     0.265 C 
BRANCH  11  12
ATOM     12  C   UNL A   1      33.023  21.799  25.786  1.00  0.00     0.097 C 
BRANCH  12  13
ATOM     13  C   UNL A   1      33.368  20.417  25.268  1.00  0.00    -0.042 A 
ATOM     14  C   UNL A   1      32.341  19.508  24.969  1.00  0.00     0.011 A 
ATOM     15  C   UNL A   1      34.703  20.022  25.080  1.00  0.00     0.011 A 
ATOM     16  C   UNL A   1      32.634  18.229  24.490  1.00  0.00     0.086 A 
ATOM     17  C   UNL A   1      35.008  18.746  24.596  1.00  0.00     0.086 A 
ATOM     18  C   UNL A   1      33.969  17.851  24.307  1.00  0.00     0.269 A 
BRANCH  18  19
ATOM     19  N   UNL A   1      34.278  16.502  23.815  1.00  0.00     0.062 N 
ATOM     20  O   UNL A   1      34.176  16.298  22.594  1.00  0.00    -0.258 OA
ATOM     21  O   UNL A   1      34.615  15.648  24.644  1.00  0.00    -0.258 OA
ENDBRANCH  18  19
ENDBRANCH  12  13
ENDBRANCH  11  12
ENDBRANCH   8  11
ENDBRANCH   6   8
ENDBRANCH   4   6
ENDBRANCH   2   4
ENDBRANCH   1   2
BRANCH   1  22
ATOM     22  C   UNL A   1      33.151  28.223  25.407  1.00  0.00     0.274 C 
BRANCH  22  23
ATOM     23  C   UNL A   1      32.687  29.013  26.633  1.00  0.00     0.275 C 
BRANCH  23  24
ATOM     24  O   UNL A   1      33.686  28.953  27.667  1.00  0.00    -0.458 OA
BRANCH  24  25
ATOM     25  C   UNL A   1      34.354  30.105  27.915  1.00  0.00     0.338 C 
ATOM     26  O   UNL A   1      33.909  31.237  27.843  1.00  0.00    -0.246 OA
BRANCH  25  27
ATOM     27  C   UNL A   1      35.758  29.806  28.264  1.00  0.00     0.060 A 
ATOM     28  C   UNL A   1      36.133  29.452  29.563  1.00  0.00     0.016 A 
ATOM     29  C   UNL A   1      36.726  29.929  27.267  1.00  0.00     0.016 A 
ATOM     30  C   UNL A   1      37.478  29.234  29.871  1.00  0.00     0.010 A 
ATOM     31  C   UNL A   1      38.062  29.647  27.562  1.00  0.00     0.010 A 
ATOM     32  C   UNL A   1      38.452  29.299  28.866  1.00  0.00    -0.014 A 
BRANCH  32  33
ATOM     33  C   UNL A   1      39.874  28.961  29.133  1.00  0.00     0.031 A 
ATOM     34  C   UNL A   1      40.834  30.026  29.588  1.00  0.00     0.074 A 
ATOM     35  C   UNL A   1      40.320  27.716  28.875  1.00  0.00     0.049 A 
ATOM     36  N   UNL A   1      42.140  29.988  29.648  1.00  0.00    -0.248 NA
ATOM     37  C   UNL A   1      40.246  31.304  30.021  1.00  0.00     0.031 C 
ATOM     38  C   UNL A   1      39.489  26.586  28.453  1.00  0.00     0.029 A 
ATOM     39  N   UNL A   1      41.593  27.199  28.901  1.00  0.00    -0.354 N 
ATOM     40  C   UNL A   1      42.535  31.245  30.089  1.00  0.00     0.074 A 
ATOM     41  C   UNL A   1      41.330  32.026  30.277  1.00  0.00     0.031 C 
ATOM     42  C   UNL A   1      40.271  25.514  28.253  1.00  0.00     0.029 A 
ATOM     43  C   UNL A   1      41.663  25.898  28.463  1.00  0.00     0.049 A 
ATOM     44  H   UNL A   1      42.377  27.710  29.205  1.00  0.00     0.167 HD
ATOM     45  C   UNL A   1      43.790  31.707  30.308  1.00  0.00     0.031 A 
ATOM     46  C   UNL A   1      42.727  25.114  28.201  1.00  0.00     0.031 A 
ATOM     47  C   UNL A   1      44.983  30.923  30.125  1.00  0.00     0.049 A 
ATOM     48  C   UNL A   1      44.111  25.669  28.386  1.00  0.00     0.074 A 
ATOM     49  C   UNL A   1      46.298  31.290  30.351  1.00  0.00     0.029 A 
ATOM     50  N   UNL A   1      45.007  29.614  29.666  1.00  0.00    -0.354 N 
ATOM     51  N   UNL A   1      44.469  26.860  28.801  1.00  0.00    -0.248 NA
ATOM     52  C   UNL A   1      45.232  24.781  28.052  1.00  0.00     0.031 C 
ATOM     53  C   UNL A   1      47.121  30.220  29.982  1.00  0.00     0.029 A 
ATOM     54  C   UNL A   1      46.314  29.170  29.571  1.00  0.00     0.049 A 
ATOM     55  H   UNL A   1      44.211  29.080  29.441  1.00  0.00     0.167 HD
ATOM     56  C   UNL A   1      45.858  26.862  28.786  1.00  0.00     0.074 A 
ATOM     57  C   UNL A   1      46.276  25.549  28.338  1.00  0.00     0.031 C 
ATOM     58  C   UNL A   1      46.712  27.864  29.111  1.00  0.00     0.031 A 
BRANCH  45  59
ATOM     59  C   UNL A   1      43.942  33.142  30.736  1.00  0.00    -0.014 A 
ATOM     60  C   UNL A   1      44.036  34.181  29.794  1.00  0.00     0.010 A 
ATOM     61  C   UNL A   1      43.943  33.460  32.108  1.00  0.00     0.010 A 
ATOM     62  C   UNL A   1      44.164  35.509  30.215  1.00  0.00     0.020 A 
ATOM     63  C   UNL A   1      44.049  34.787  32.533  1.00  0.00     0.020 A 
ATOM     64  C   UNL A   1      44.176  35.802  31.583  1.00  0.00     0.054 A 
BRANCH  64  65
ATOM     65  S   UNL A   1      44.328  37.534  32.103  1.00  0.00     0.124 S 
ATOM     66  O   UNL A   1      45.742  37.614  32.466  1.00  0.00    -0.237 OA
ATOM     67  O   UNL A   1      43.949  38.267  30.899  1.00  0.00    -0.237 OA
ATOM     68  O   UNL A   1      43.392  37.646  33.219  1.00  0.00    -0.744 OA
ENDBRANCH  64  65
ENDBRANCH  45  59
BRANCH  46  69
ATOM     69  C   UNL A   1      42.516  23.738  27.676  1.00  0.00    -0.014 A 
ATOM     70  C   UNL A   1      42.536  23.490  26.294  1.00  0.00     0.010 A 
ATOM     71  C   UNL A   1      42.323  22.662  28.563  1.00  0.00     0.010 A 
ATOM     72  C   UNL A   1      42.365  22.190  25.807  1.00  0.00     0.020 A 
ATOM     73  C   UNL A   1      42.178  21.359  28.082  1.00  0.00     0.020 A 
ATOM     74  C   UNL A   1      42.191  21.132  26.704  1.00  0.00     0.054 A 
BRANCH  74  75
ATOM     75  S   UNL A   1      42.041  19.444  26.056  1.00  0.00     0.124 S 
ATOM     76  O   UNL A   1      42.532  18.646  27.174  1.00  0.00    -0.237 OA
ATOM     77  O   UNL A   1      40.611  19.334  25.779  1.00  0.00    -0.237 OA
ATOM     78  O   UNL A   1      42.896  19.457  24.871  1.00  0.00    -0.744 OA
ENDBRANCH  74  75
ENDBRANCH  46  69
BRANCH  58  79
ATOM     79  C   UNL A   1      48.184  27.576  29.004  1.00  0.00    -0.014 A 
ATOM     80  C   UNL A   1      48.915  27.976  27.873  1.00  0.00     0.010 A 
ATOM     81  C   UNL A   1      48.853  26.956  30.074  1.00  0.00     0.010 A 
ATOM     82  C   UNL A   1      50.292  27.746  27.806  1.00  0.00     0.020 A 
ATOM     83  C   UNL A   1      50.233  26.742  30.020  1.00  0.00     0.020 A 
ATOM     84  C   UNL A   1      50.941  27.131  28.881  1.00  0.00     0.054 A 
BRANCH  84  85
ATOM     85  S   UNL A   1      52.739  26.897  28.796  1.00  0.00     0.124 S 
ATOM     86  O   UNL A   1      52.876  26.012  27.643  1.00  0.00    -0.237 OA
ATOM     87  O   UNL A   1      53.233  28.259  28.606  1.00  0.00    -0.237 OA
ATOM     88  O   UNL A   1      53.070  26.297  30.086  1.00  0.00    -0.744 OA
ENDBRANCH  84  85
ENDBRANCH  58  79
ENDBRANCH  32  33
ENDBRANCH  25  27
ENDBRANCH  24  25
ENDBRANCH  23  24
ENDBRANCH  22  23
ENDBRANCH   1  22
TORSDOF 20
ENDMDL
MODEL 2
REMARK VINA RESULT:      -9.7      4.183      7.386
REMARK SMILES C[C@H]([NH2+]CCc1ccc([N+](=O)[O-])cc1)[C@@H](C)C(=O)OCCOC(=O)c1ccc(-c2c3nc(c(-c4ccc(S(=O)(=O)[O-])cc4)c4ccc([nH]4)c(-c4ccc(S(=O)(=O)[O-])cc4)c4nc(c(-c5ccc(S(=O)(=O)[O-])cc5)c5ccc2[nH]5)C=C4)C=C3)cc1
REMARK SMILES IDX 19 1 17 2 18 3 15 4 16 5 2 6 1 7 3 8 4 11 5 12 6 13 7 14
REMARK SMILES IDX 14 15 8 16 13 17 9 18 10 19 11 20 12 21 20 22 21 23 22 24
REMARK SMILES IDX 23 25 24 26 25 27 26 28 84 29 27 30 83 31 28 32 29 33 30 34
REMARK SMILES IDX 77 35 31 36 82 37 76 38 78 39 32 40 81 41 75 42 74 43 33 45
REMARK SMILES IDX 63 46 44 47 62 48 45 49 48 50 61 51 79 52 46 53 47 54 60 56
REMARK SMILES IDX 80 57 49 58 34 59 35 60 43 61 36 62 42 63 37 64 38 65 39 66
REMARK SMILES IDX 40 67 41 68 64 69 65 70 73 71 66 72 72 73 67 74 68 75 69 76
REMARK SMILES IDX 70 77 71 78 50 79 51 80 59 81 52 82 58 83 53 84 54 85 55 86
REMARK SMILES IDX 56 87 57 88
REMARK H PARENT 3 9 3 10 78 44 48 55
REMARK Flexibility Score: inf
ROOT
ATOM      1  O   UNL A   1      33.691  33.882  29.331  1.00  0.00    -0.462 OA
ENDROOT
BRANCH   1   2
ATOM      2  C   UNL A   1      33.167  35.073  29.717  1.00  0.00     0.314 C 
ATOM      3  O   UNL A   1      32.654  35.883  28.950  1.00  0.00    -0.252 OA
BRANCH   2   4
ATOM      4  C   UNL A   1      33.289  35.363  31.202  1.00  0.00     0.154 C 
ATOM      5  C   UNL A   1      33.245  36.889  31.353  1.00  0.00     0.026 C 
BRANCH   4   6
ATOM      6  C   UNL A   1      34.465  34.709  31.982  1.00  0.00     0.193 C 
ATOM      7  C   UNL A   1      34.713  35.369  33.348  1.00  0.00     0.076 C 
BRANCH   6   8
ATOM      8  N   UNL A   1      35.655  34.757  31.096  1.00  0.00    -0.343 N 
ATOM      9  H   UNL A   1      36.367  35.314  31.570  1.00  0.00     0.346 HD
ATOM     10  H   UNL A   1      35.310  35.146  30.218  1.00  0.00     0.346 HD
BRANCH   8  11
ATOM     11  C   UNL A   1      36.270  33.482  30.724  1.00  0.00     0.265 C 
BRANCH  11  12
ATOM     12  C   UNL A   1      37.788  33.492  30.992  1.00  0.00     0.097 C 
BRANCH  12  13
ATOM     13  C   UNL A   1      38.207  32.892  32.319  1.00  0.00    -0.042 A 
ATOM     14  C   UNL A   1      37.783  31.599  32.664  1.00  0.00     0.011 A 
ATOM     15  C   UNL A   1      39.015  33.606  33.219  1.00  0.00     0.011 A 
ATOM     16  C   UNL A   1      38.156  31.024  33.881  1.00  0.00     0.086 A 
ATOM     17  C   UNL A   1      39.398  33.039  34.438  1.00  0.00     0.086 A 
ATOM     18  C   UNL A   1      38.963  31.748  34.766  1.00  0.00     0.269 A 
BRANCH  18  19
ATOM     19  N   UNL A   1      39.346  31.149  36.051  1.00  0.00     0.062 N 
ATOM     20  O   UNL A   1      39.940  31.872  36.867  1.00  0.00    -0.258 OA
ATOM     21  O   UNL A   1      39.060  29.961  36.243  1.00  0.00    -0.258 OA
ENDBRANCH  18  19
ENDBRANCH  12  13
ENDBRANCH  11  12
ENDBRANCH   8  11
ENDBRANCH   6   8
ENDBRANCH   4   6
ENDBRANCH   2   4
ENDBRANCH   1   2
BRANCH   1  22
ATOM     22  C   UNL A   1      33.410  33.523  27.962  1.00  0.00     0.274 C 
BRANCH  22  23
ATOM     23  C   UNL A   1      33.390  32.002  27.792  1.00  0.00     0.275 C 
BRANCH  23  24
ATOM     24  O   UNL A   1      34.735  31.493  27.740  1.00  0.00    -0.458 OA
BRANCH  24  25
ATOM     25  C   UNL A   1      34.868  30.153  27.882  1.00  0.00     0.338 C 
ATOM     26  O   UNL A   1      33.995  29.313  27.747  1.00  0.00    -0.246 OA
BRANCH  25  27
ATOM     27  C   UNL A   1      36.254  29.825  28.273  1.00  0.00     0.060 A 
ATOM     28  C   UNL A   1      36.571  29.400  29.568  1.00  0.00     0.016 A 
ATOM     29  C   UNL A   1      37.265  29.990  27.326  1.00  0.00     0.016 A 
ATOM     30  C   UNL A   1      37.900  29.155  29.921  1.00  0.00     0.010 A 
ATOM     31  C   UNL A   1      38.585  29.682  27.662  1.00  0.00     0.010 A 
ATOM     32  C   UNL A   1      38.917  29.263  28.962  1.00  0.00    -0.014 A 
BRANCH  32  33
ATOM     33  C   UNL A   1      40.324  28.900  29.271  1.00  0.00     0.031 A 
ATOM     34  C   UNL A   1      41.281  29.940  29.785  1.00  0.00     0.074 A 
ATOM     35  C   UNL A   1      40.763  27.655  29.000  1.00  0.00     0.049 A 
ATOM     36  N   UNL A   1      42.583  29.883  29.890  1.00  0.00    -0.248 NA
ATOM     37  C   UNL A   1      40.695  31.216  30.227  1.00  0.00     0.031 C 
ATOM     38  C   UNL A   1      39.932  26.546  28.522  1.00  0.00     0.029 A 
ATOM     39  N   UNL A   1      42.027  27.120  29.059  1.00  0.00    -0.354 N 
ATOM     40  C   UNL A   1      42.979  31.124  30.374  1.00  0.00     0.074 A 
ATOM     41  C   UNL A   1      41.778  31.916  30.538  1.00  0.00     0.031 C 
ATOM     42  C   UNL A   1      40.707  25.469  28.325  1.00  0.00     0.029 A 
ATOM     43  C   UNL A   1      42.095  25.828  28.592  1.00  0.00     0.049 A 
ATOM     44  H   UNL A   1      42.806  27.612  29.402  1.00  0.00     0.167 HD
ATOM     45  C   UNL A   1      44.231  31.563  30.648  1.00  0.00     0.031 A 
ATOM     46  C   UNL A   1      43.157  25.035  28.350  1.00  0.00     0.031 A 
ATOM     47  C   UNL A   1      45.420  30.766  30.489  1.00  0.00     0.049 A 
ATOM     48  C   UNL A   1      44.541  25.567  28.597  1.00  0.00     0.074 A 
ATOM     49  C   UNL A   1      46.730  31.110  30.770  1.00  0.00     0.029 A 
ATOM     50  N   UNL A   1      45.443  29.469  30.000  1.00  0.00    -0.354 N 
ATOM     51  N   UNL A   1      44.900  26.743  29.052  1.00  0.00    -0.248 NA
ATOM     52  C   UNL A   1      45.662  24.671  28.282  1.00  0.00     0.031 C 
ATOM     53  C   UNL A   1      47.551  30.038  30.404  1.00  0.00     0.029 A 
ATOM     54  C   UNL A   1      46.747  29.008  29.941  1.00  0.00     0.049 A 
ATOM     55  H   UNL A   1      44.649  28.951  29.735  1.00  0.00     0.167 HD
ATOM     56  C   UNL A   1      46.288  26.726  29.086  1.00  0.00     0.074 A 
ATOM     57  C   UNL A   1      46.705  25.418  28.622  1.00  0.00     0.031 C 
ATOM     58  C   UNL A   1      47.143  27.708  29.465  1.00  0.00     0.031 A 
BRANCH  45  59
ATOM     59  C   UNL A   1      44.387  32.985  31.115  1.00  0.00    -0.014 A 
ATOM     60  C   UNL A   1      44.510  34.046  30.202  1.00  0.00     0.010 A 
ATOM     61  C   UNL A   1      44.360  33.269  32.494  1.00  0.00     0.010 A 
ATOM     62  C   UNL A   1      44.641  35.362  30.658  1.00  0.00     0.020 A 
ATOM     63  C   UNL A   1      44.469  34.585  32.954  1.00  0.00     0.020 A 
ATOM     64  C   UNL A   1      44.626  35.621  32.033  1.00  0.00     0.054 A 
BRANCH  64  65
ATOM     65  S   UNL A   1      44.782  37.338  32.599  1.00  0.00     0.124 S 
ATOM     66  O   UNL A   1      45.658  37.192  33.761  1.00  0.00    -0.237 OA
ATOM     67  O   UNL A   1      45.379  38.006  31.446  1.00  0.00    -0.237 OA
ATOM     68  O   UNL A   1      43.408  37.731  32.901  1.00  0.00    -0.744 OA
ENDBRANCH  64  65
ENDBRANCH  45  59
BRANCH  46  69
ATOM     69  C   UNL A   1      42.947  23.675  27.786  1.00  0.00    -0.014 A 
ATOM     70  C   UNL A   1      42.587  22.604  28.621  1.00  0.00     0.010 A 
ATOM     71  C   UNL A   1      43.077  23.452  26.403  1.00  0.00     0.010 A 
ATOM     72  C   UNL A   1      42.363  21.333  28.082  1.00  0.00     0.020 A 
ATOM     73  C   UNL A   1      42.829  22.189  25.858  1.00  0.00     0.020 A 
ATOM     74  C   UNL A   1      42.482  21.134  26.704  1.00  0.00     0.054 A 
BRANCH  74  75
ATOM     75  S   UNL A   1      42.118  19.496  26.016  1.00  0.00     0.124 S 
ATOM     76  O   UNL A   1      42.617  18.610  27.063  1.00  0.00    -0.237 OA
ATOM     77  O   UNL A   1      40.667  19.532  25.855  1.00  0.00    -0.237 OA
ATOM     78  O   UNL A   1      42.873  19.476  24.765  1.00  0.00    -0.744 OA
ENDBRANCH  74  75
ENDBRANCH  46  69
BRANCH  58  79
ATOM     79  C   UNL A   1      48.614  27.402  29.403  1.00  0.00    -0.014 A 
ATOM     80  C   UNL A   1      49.351  27.645  28.232  1.00  0.00     0.010 A 
ATOM     81  C   UNL A   1      49.277  26.927  30.549  1.00  0.00     0.010 A 
ATOM     82  C   UNL A   1      50.727  27.403  28.201  1.00  0.00     0.020 A 
ATOM     83  C   UNL A   1      50.655  26.703  30.529  1.00  0.00     0.020 A 
ATOM     84  C   UNL A   1      51.370  26.933  29.351  1.00  0.00     0.054 A 
BRANCH  84  85
ATOM     85  S   UNL A   1      53.166  26.683  29.306  1.00  0.00     0.124 S 
ATOM     86  O   UNL A   1      53.343  25.978  28.040  1.00  0.00    -0.237 OA
ATOM     87  O   UNL A   1      53.684  28.048  29.343  1.00  0.00    -0.237 OA
ATOM     88  O   UNL A   1      53.435  25.889  30.504  1.00  0.00    -0.744 OA
ENDBRANCH  84  85
ENDBRANCH  58  79
ENDBRANCH  32  33
ENDBRANCH  25  27
ENDBRANCH  24  25
ENDBRANCH  23  24
ENDBRANCH  22  23
ENDBRANCH   1  22
TORSDOF 20
ENDMDL
MODEL 3
REMARK VINA RESULT:      -9.5      5.621     10.858
REMARK SMILES C[C@H]([NH2+]CCc1ccc([N+](=O)[O-])cc1)[C@@H](C)C(=O)OCCOC(=O)c1ccc(-c2c3nc(c(-c4ccc(S(=O)(=O)[O-])cc4)c4ccc([nH]4)c(-c4ccc(S(=O)(=O)[O-])cc4)c4nc(c(-c5ccc(S(=O)(=O)[O-])cc5)c5ccc2[nH]5)C=C4)C=C3)cc1
REMARK SMILES IDX 19 1 17 2 18 3 15 4 16 5 2 6 1 7 3 8 4 11 5 12 6 13 7 14
REMARK SMILES IDX 14 15 8 16 13 17 9 18 10 19 11 20 12 21 20 22 21 23 22 24
REMARK SMILES IDX 23 25 24 26 25 27 26 28 84 29 27 30 83 31 28 32 29 33 30 34
REMARK SMILES IDX 77 35 31 36 82 37 76 38 78 39 32 40 81 41 75 42 74 43 33 45
REMARK SMILES IDX 63 46 44 47 62 48 45 49 48 50 61 51 79 52 46 53 47 54 60 56
REMARK SMILES IDX 80 57 49 58 34 59 35 60 43 61 36 62 42 63 37 64 38 65 39 66
REMARK SMILES IDX 40 67 41 68 64 69 65 70 73 71 66 72 72 73 67 74 68 75 69 76
REMARK SMILES IDX 70 77 71 78 50 79 51 80 59 81 52 82 58 83 53 84 54 85 55 86
REMARK SMILES IDX 56 87 57 88
REMARK H PARENT 3 9 3 10 78 44 48 55
REMARK Flexibility Score: inf
ROOT
ATOM      1  O   UNL A   1      32.006  30.707  26.794  1.00  0.00    -0.462 OA
ENDROOT
BRANCH   1   2
ATOM      2  C   UNL A   1      32.532  29.601  26.211  1.00  0.00     0.314 C 
ATOM      3  O   UNL A   1      33.601  29.580  25.609  1.00  0.00    -0.252 OA
BRANCH   2   4
ATOM      4  C   UNL A   1      31.669  28.357  26.327  1.00  0.00     0.154 C 
ATOM      5  C   UNL A   1      31.646  27.980  27.814  1.00  0.00     0.026 C 
BRANCH   4   6
ATOM      6  C   UNL A   1      31.993  27.151  25.399  1.00  0.00     0.193 C 
ATOM      7  C   UNL A   1      33.212  26.345  25.875  1.00  0.00     0.076 C 
BRANCH   6   8
ATOM      8  N   UNL A   1      32.160  27.690  24.027  1.00  0.00    -0.343 N 
ATOM      9  H   UNL A   1      33.070  28.150  23.988  1.00  0.00     0.346 HD
ATOM     10  H   UNL A   1      31.356  28.303  23.888  1.00  0.00     0.346 HD
BRANCH   8  11
ATOM     11  C   UNL A   1      32.101  26.738  22.917  1.00  0.00     0.265 C 
BRANCH  11  12
ATOM     12  C   UNL A   1      30.714  26.748  22.244  1.00  0.00     0.097 C 
BRANCH  12  13
ATOM     13  C   UNL A   1      29.909  28.016  22.455  1.00  0.00    -0.042 A 
ATOM     14  C   UNL A   1      30.425  29.248  22.025  1.00  0.00     0.011 A 
ATOM     15  C   UNL A   1      28.651  27.985  23.077  1.00  0.00     0.011 A 
ATOM     16  C   UNL A   1      29.703  30.429  22.208  1.00  0.00     0.086 A 
ATOM     17  C   UNL A   1      27.917  29.161  23.261  1.00  0.00     0.086 A 
ATOM     18  C   UNL A   1      28.450  30.382  22.828  1.00  0.00     0.269 A 
BRANCH  18  19
ATOM     19  N   UNL A   1      27.695  31.625  23.031  1.00  0.00     0.062 N 
ATOM     20  O   UNL A   1      26.915  31.673  23.996  1.00  0.00    -0.258 OA
ATOM     21  O   UNL A   1      27.875  32.548  22.227  1.00  0.00    -0.258 OA
ENDBRANCH  18  19
ENDBRANCH  12  13
ENDBRANCH  11  12
ENDBRANCH   8  11
ENDBRANCH   6   8
ENDBRANCH   4   6
ENDBRANCH   2   4
ENDBRANCH   1   2
BRANCH   1  22
ATOM     22  C   UNL A   1      32.984  31.608  27.354  1.00  0.00     0.274 C 
BRANCH  22  23
ATOM     23  C   UNL A   1      32.460  33.046  27.358  1.00  0.00     0.275 C 
BRANCH  23  24
ATOM     24  O   UNL A   1      33.495  33.949  27.786  1.00  0.00    -0.458 OA
BRANCH  24  25
ATOM     25  C   UNL A   1      33.436  34.351  29.077  1.00  0.00     0.338 C 
ATOM     26  O   UNL A   1      32.555  35.015  29.597  1.00  0.00    -0.246 OA
BRANCH  25  27
ATOM     27  C   UNL A   1      34.641  33.896  29.801  1.00  0.00     0.060 A 
ATOM     28  C   UNL A   1      34.558  33.029  30.895  1.00  0.00     0.016 A 
ATOM     29  C   UNL A   1      35.881  34.389  29.394  1.00  0.00     0.016 A 
ATOM     30  C   UNL A   1      35.712  32.665  31.592  1.00  0.00     0.010 A 
ATOM     31  C   UNL A   1      37.040  33.973  30.052  1.00  0.00     0.010 A 
ATOM     32  C   UNL A   1      36.968  33.109  31.159  1.00  0.00    -0.014 A 
BRANCH  32  33
ATOM     33  C   UNL A   1      38.225  32.651  31.806  1.00  0.00     0.031 A 
ATOM     34  C   UNL A   1      39.010  31.512  31.216  1.00  0.00     0.074 A 
ATOM     35  C   UNL A   1      38.608  33.200  32.975  1.00  0.00     0.049 A 
ATOM     36  N   UNL A   1      39.986  30.821  31.745  1.00  0.00    -0.248 NA
ATOM     37  C   UNL A   1      38.638  31.087  29.856  1.00  0.00     0.031 C 
ATOM     38  C   UNL A   1      37.950  34.327  33.641  1.00  0.00     0.029 A 
ATOM     39  N   UNL A   1      39.630  32.863  33.829  1.00  0.00    -0.354 N 
ATOM     40  C   UNL A   1      40.323  29.857  30.802  1.00  0.00     0.074 A 
ATOM     41  C   UNL A   1      39.443  30.049  29.669  1.00  0.00     0.031 C 
ATOM     42  C   UNL A   1      38.578  34.582  34.799  1.00  0.00     0.029 A 
ATOM     43  C   UNL A   1      39.635  33.595  34.992  1.00  0.00     0.049 A 
ATOM     44  H   UNL A   1      40.295  32.166  33.627  1.00  0.00     0.167 HD
ATOM     45  C   UNL A   1      41.274  28.895  30.881  1.00  0.00     0.031 A 
ATOM     46  C   UNL A   1      40.365  33.458  36.116  1.00  0.00     0.031 A 
ATOM     47  C   UNL A   1      42.150  28.716  32.010  1.00  0.00     0.049 A 
ATOM     48  C   UNL A   1      41.367  32.343  36.207  1.00  0.00     0.074 A 
ATOM     49  C   UNL A   1      43.167  27.791  32.171  1.00  0.00     0.029 A 
ATOM     50  N   UNL A   1      42.109  29.472  33.171  1.00  0.00    -0.354 N 
ATOM     51  N   UNL A   1      41.673  31.437  35.309  1.00  0.00    -0.248 NA
ATOM     52  C   UNL A   1      42.110  32.219  37.469  1.00  0.00     0.031 C 
ATOM     53  C   UNL A   1      43.708  27.956  33.451  1.00  0.00     0.029 A 
ATOM     54  C   UNL A   1      43.060  29.015  34.067  1.00  0.00     0.049 A 
ATOM     55  H   UNL A   1      41.494  30.223  33.335  1.00  0.00     0.167 HD
ATOM     56  C   UNL A   1      42.650  30.642  35.894  1.00  0.00     0.074 A 
ATOM     57  C   UNL A   1      42.897  31.182  37.216  1.00  0.00     0.031 C 
ATOM     58  C   UNL A   1      43.283  29.557  35.383  1.00  0.00     0.031 A 
BRANCH  45  59
ATOM     59  C   UNL A   1      41.395  27.936  29.728  1.00  0.00    -0.014 A 
ATOM     60  C   UNL A   1      40.396  26.984  29.460  1.00  0.00     0.010 A 
ATOM     61  C   UNL A   1      42.507  28.021  28.869  1.00  0.00     0.010 A 
ATOM     62  C   UNL A   1      40.523  26.111  28.375  1.00  0.00     0.020 A 
ATOM     63  C   UNL A   1      42.628  27.164  27.771  1.00  0.00     0.020 A 
ATOM     64  C   UNL A   1      41.643  26.202  27.542  1.00  0.00     0.054 A 
BRANCH  64  65
ATOM     65  S   UNL A   1      41.777  25.067  26.132  1.00  0.00     0.124 S 
ATOM     66  O   UNL A   1      43.224  24.881  26.035  1.00  0.00    -0.237 OA
ATOM     67  O   UNL A   1      41.024  23.901  26.584  1.00  0.00    -0.237 OA
ATOM     68  O   UNL A   1      41.169  25.809  25.029  1.00  0.00    -0.744 OA
ENDBRANCH  64  65
ENDBRANCH  45  59
BRANCH  46  69
ATOM     69  C   UNL A   1      40.126  34.371  37.265  1.00  0.00    -0.014 A 
ATOM     70  C   UNL A   1      40.745  35.631  37.318  1.00  0.00     0.010 A 
ATOM     71  C   UNL A   1      39.250  33.994  38.301  1.00  0.00     0.010 A 
ATOM     72  C   UNL A   1      40.495  36.497  38.387  1.00  0.00     0.020 A 
ATOM     73  C   UNL A   1      38.979  34.868  39.358  1.00  0.00     0.020 A 
ATOM     74  C   UNL A   1      39.611  36.112  39.398  1.00  0.00     0.054 A 
BRANCH  74  75
ATOM     75  S   UNL A   1      39.246  37.277  40.739  1.00  0.00     0.124 S 
ATOM     76  O   UNL A   1      38.708  36.395  41.769  1.00  0.00    -0.237 OA
ATOM     77  O   UNL A   1      40.555  37.858  41.023  1.00  0.00    -0.237 OA
ATOM     78  O   UNL A   1      38.284  38.199  40.137  1.00  0.00    -0.744 OA
ENDBRANCH  74  75
ENDBRANCH  46  69
BRANCH  58  79
ATOM     79  C   UNL A   1      44.313  28.888  36.251  1.00  0.00    -0.014 A 
ATOM     80  C   UNL A   1      43.979  27.771  37.034  1.00  0.00     0.010 A 
ATOM     81  C   UNL A   1      45.643  29.345  36.234  1.00  0.00     0.010 A 
ATOM     82  C   UNL A   1      44.955  27.128  37.799  1.00  0.00     0.020 A 
ATOM     83  C   UNL A   1      46.627  28.693  36.982  1.00  0.00     0.020 A 
ATOM     84  C   UNL A   1      46.273  27.594  37.768  1.00  0.00     0.054 A 
BRANCH  84  85
ATOM     85  S   UNL A   1      47.535  26.707  38.723  1.00  0.00     0.124 S 
ATOM     86  O   UNL A   1      48.515  27.758  38.981  1.00  0.00    -0.237 OA
ATOM     87  O   UNL A   1      46.790  26.243  39.890  1.00  0.00    -0.237 OA
ATOM     88  O   UNL A   1      47.978  25.651  37.815  1.00  0.00    -0.744 OA
ENDBRANCH  84  85
ENDBRANCH  58  79
ENDBRANCH  32  33
ENDBRANCH  25  27
ENDBRANCH  24  25
ENDBRANCH  23  24
ENDBRANCH  22  23
ENDBRANCH   1  22
TORSDOF 20
ENDMDL
