MODEL 1
REMARK VINA RESULT:     -10.4      0.000      0.000
REMARK SMILES O=C(C[NH+]1CC(c2nc(-c3cccs3)no2)C1)OCCOC(=O)c1ccc(-c2c3nc(c(-c4ccc(S(=O)(=O)[O-])cc4)c4ccc([nH]4)c(-c4ccc(S(=O)(=O)[O-])cc4)c4nc(c(-c5ccc(S(=O)(=O)[O-])cc5)c5ccc2[nH]5)C=C4)C=C3)cc1
REMARK SMILES IDX 19 1 18 2 2 3 1 4 3 5 4 6 5 7 17 8 6 10 7 11 8 12 16 13 9 14
REMARK SMILES IDX 15 15 10 16 11 17 14 18 12 19 13 20 20 21 21 22 22 23 23 24
REMARK SMILES IDX 24 25 25 26 83 27 26 28 82 29 27 30 28 31 29 32 76 33 30 34
REMARK SMILES IDX 81 35 75 36 77 37 31 38 80 39 74 40 73 41 32 43 62 44 43 45
REMARK SMILES IDX 61 46 44 47 47 48 60 49 78 50 45 51 46 52 59 54 79 55 48 56
REMARK SMILES IDX 33 57 34 58 42 59 35 60 41 61 36 62 37 63 38 64 39 65 40 66
REMARK SMILES IDX 63 67 64 68 72 69 65 70 71 71 66 72 67 73 68 74 69 75 70 76
REMARK SMILES IDX 49 77 50 78 58 79 51 80 57 81 52 82 53 83 54 84 55 85 56 86
REMARK H PARENT 4 9 77 42 47 53
REMARK Flexibility Score: inf
ROOT
ATOM      1  C   UNL A   1      34.281  31.480  28.011  1.00  0.00     0.274 C 
ENDROOT
BRANCH   1   2
ATOM      2  O   UNL A   1      34.013  30.463  27.030  1.00  0.00    -0.458 OA
BRANCH   2   3
ATOM      3  C   UNL A   1      32.850  29.752  27.069  1.00  0.00     0.361 C 
ATOM      4  O   UNL A   1      31.777  30.314  26.857  1.00  0.00    -0.245 OA
BRANCH   3   5
ATOM      5  C   UNL A   1      32.952  28.303  27.548  1.00  0.00     0.386 C 
BRANCH   5   6
ATOM      6  N   UNL A   1      32.790  27.331  26.452  1.00  0.00    -0.324 N 
ATOM      7  C   UNL A   1      31.373  26.966  26.236  1.00  0.00     0.282 C 
ATOM      8  C   UNL A   1      32.752  28.062  25.157  1.00  0.00     0.282 C 
ATOM      9  H   UNL A   1      33.483  26.614  26.667  1.00  0.00     0.348 HD
ATOM     10  C   UNL A   1      31.604  27.115  24.712  1.00  0.00     0.188 C 
BRANCH  10  11
ATOM     11  C   UNL A   1      30.491  27.844  23.986  1.00  0.00     0.241 A 
ATOM     12  N   UNL A   1      30.585  29.087  23.577  1.00  0.00    -0.190 NA
ATOM     13  O   UNL A   1      29.271  27.287  23.708  1.00  0.00    -0.338 OA
ATOM     14  C   UNL A   1      29.331  29.334  23.067  1.00  0.00     0.212 A 
ATOM     15  N   UNL A   1      28.515  28.270  23.077  1.00  0.00    -0.056 NA
BRANCH  14  16
ATOM     16  C   UNL A   1      28.921  30.694  22.608  1.00  0.00     0.075 A 
ATOM     17  C   UNL A   1      28.937  31.804  23.428  1.00  0.00     0.024 A 
ATOM     18  S   UNL A   1      28.338  31.062  21.047  1.00  0.00    -0.140 S 
ATOM     19  C   UNL A   1      28.419  32.960  22.774  1.00  0.00     0.012 A 
ATOM     20  C   UNL A   1      28.051  32.694  21.475  1.00  0.00     0.065 A 
ENDBRANCH  14  16
ENDBRANCH  10  11
ENDBRANCH   5   6
ENDBRANCH   3   5
ENDBRANCH   2   3
ENDBRANCH   1   2
BRANCH   1  21
ATOM     21  C   UNL A   1      35.603  31.277  28.757  1.00  0.00     0.275 C 
BRANCH  21  22
ATOM     22  O   UNL A   1      36.116  29.948  28.578  1.00  0.00    -0.458 OA
BRANCH  22  23
ATOM     23  C   UNL A   1      36.880  29.503  29.610  1.00  0.00     0.338 C 
ATOM     24  O   UNL A   1      36.502  29.280  30.748  1.00  0.00    -0.246 OA
BRANCH  23  25
ATOM     25  C   UNL A   1      38.229  29.148  29.117  1.00  0.00     0.060 A 
ATOM     26  C   UNL A   1      39.148  28.648  30.047  1.00  0.00     0.016 A 
ATOM     27  C   UNL A   1      38.600  29.313  27.779  1.00  0.00     0.016 A 
ATOM     28  C   UNL A   1      40.453  28.351  29.651  1.00  0.00     0.010 A 
ATOM     29  C   UNL A   1      39.911  29.019  27.385  1.00  0.00     0.010 A 
ATOM     30  C   UNL A   1      40.852  28.565  28.325  1.00  0.00    -0.014 A 
BRANCH  30  31
ATOM     31  C   UNL A   1      42.285  28.443  27.959  1.00  0.00     0.031 A 
ATOM     32  C   UNL A   1      43.197  29.623  28.168  1.00  0.00     0.074 A 
ATOM     33  C   UNL A   1      42.781  27.294  27.466  1.00  0.00     0.049 A 
ATOM     34  N   UNL A   1      44.482  29.726  27.943  1.00  0.00    -0.248 NA
ATOM     35  C   UNL A   1      42.578  30.847  28.702  1.00  0.00     0.031 C 
ATOM     36  C   UNL A   1      42.015  26.070  27.237  1.00  0.00     0.029 A 
ATOM     37  N   UNL A   1      44.055  26.974  27.068  1.00  0.00    -0.354 N 
ATOM     38  C   UNL A   1      44.828  31.019  28.314  1.00  0.00     0.074 A 
ATOM     39  C   UNL A   1      43.611  31.676  28.741  1.00  0.00     0.031 C 
ATOM     40  C   UNL A   1      42.836  25.131  26.734  1.00  0.00     0.029 A 
ATOM     41  C   UNL A   1      44.178  25.692  26.586  1.00  0.00     0.049 A 
ATOM     42  H   UNL A   1      44.810  27.603  27.123  1.00  0.00     0.167 HD
ATOM     43  C   UNL A   1      46.048  31.607  28.311  1.00  0.00     0.031 A 
ATOM     44  C   UNL A   1      45.249  25.048  26.078  1.00  0.00     0.031 A 
ATOM     45  C   UNL A   1      47.258  30.969  27.866  1.00  0.00     0.049 A 
ATOM     46  C   UNL A   1      46.581  25.749  26.013  1.00  0.00     0.074 A 
ATOM     47  C   UNL A   1      48.543  31.482  27.847  1.00  0.00     0.029 A 
ATOM     48  N   UNL A   1      47.332  29.685  27.349  1.00  0.00    -0.354 N 
ATOM     49  N   UNL A   1      46.900  26.955  26.416  1.00  0.00    -0.248 NA
ATOM     50  C   UNL A   1      47.702  24.992  25.433  1.00  0.00     0.031 C 
ATOM     51  C   UNL A   1      49.386  30.527  27.268  1.00  0.00     0.029 A 
ATOM     52  C   UNL A   1      48.635  29.400  26.978  1.00  0.00     0.049 A 
ATOM     53  H   UNL A   1      46.570  29.068  27.259  1.00  0.00     0.167 HD
ATOM     54  C   UNL A   1      48.263  27.091  26.164  1.00  0.00     0.074 A 
ATOM     55  C   UNL A   1      48.709  25.842  25.584  1.00  0.00     0.031 C 
ATOM     56  C   UNL A   1      49.071  28.154  26.398  1.00  0.00     0.031 A 
BRANCH  43  57
ATOM     57  C   UNL A   1      46.126  33.033  28.784  1.00  0.00    -0.014 A 
ATOM     58  C   UNL A   1      46.373  33.335  30.136  1.00  0.00     0.010 A 
ATOM     59  C   UNL A   1      45.976  34.083  27.862  1.00  0.00     0.010 A 
ATOM     60  C   UNL A   1      46.428  34.663  30.564  1.00  0.00     0.020 A 
ATOM     61  C   UNL A   1      46.055  35.414  28.282  1.00  0.00     0.020 A 
ATOM     62  C   UNL A   1      46.263  35.695  29.634  1.00  0.00     0.054 A 
BRANCH  62  63
ATOM     63  S   UNL A   1      46.347  37.412  30.214  1.00  0.00     0.124 S 
ATOM     64  O   UNL A   1      45.439  37.386  31.358  1.00  0.00    -0.237 OA
ATOM     65  O   UNL A   1      47.762  37.572  30.540  1.00  0.00    -0.237 OA
ATOM     66  O   UNL A   1      45.882  38.188  29.068  1.00  0.00    -0.744 OA
ENDBRANCH  62  63
ENDBRANCH  43  57
BRANCH  44  67
ATOM     67  C   UNL A   1      45.105  23.654  25.576  1.00  0.00    -0.014 A 
ATOM     68  C   UNL A   1      44.526  23.400  24.321  1.00  0.00     0.010 A 
ATOM     69  C   UNL A   1      45.538  22.572  26.363  1.00  0.00     0.010 A 
ATOM     70  C   UNL A   1      44.365  22.086  23.870  1.00  0.00     0.020 A 
ATOM     71  C   UNL A   1      45.401  21.259  25.905  1.00  0.00     0.020 A 
ATOM     72  C   UNL A   1      44.804  21.024  24.664  1.00  0.00     0.054 A 
BRANCH  72  73
ATOM     73  S   UNL A   1      44.625  19.329  24.043  1.00  0.00     0.124 S 
ATOM     74  O   UNL A   1      43.375  18.907  24.666  1.00  0.00    -0.237 OA
ATOM     75  O   UNL A   1      44.577  19.526  22.596  1.00  0.00    -0.237 OA
ATOM     76  O   UNL A   1      45.828  18.658  24.531  1.00  0.00    -0.744 OA
ENDBRANCH  72  73
ENDBRANCH  44  67
BRANCH  56  77
ATOM     77  C   UNL A   1      50.531  28.013  26.054  1.00  0.00    -0.014 A 
ATOM     78  C   UNL A   1      51.462  27.550  27.000  1.00  0.00     0.010 A 
ATOM     79  C   UNL A   1      50.966  28.287  24.744  1.00  0.00     0.010 A 
ATOM     80  C   UNL A   1      52.806  27.390  26.650  1.00  0.00     0.020 A 
ATOM     81  C   UNL A   1      52.304  28.105  24.383  1.00  0.00     0.020 A 
ATOM     82  C   UNL A   1      53.220  27.669  25.343  1.00  0.00     0.054 A 
BRANCH  82  83
ATOM     83  S   UNL A   1      54.958  27.406  24.898  1.00  0.00     0.124 S 
ATOM     84  O   UNL A   1      54.855  26.403  23.842  1.00  0.00    -0.237 OA
ATOM     85  O   UNL A   1      55.384  28.734  24.463  1.00  0.00    -0.237 OA
ATOM     86  O   UNL A   1      55.568  26.941  26.142  1.00  0.00    -0.744 OA
ENDBRANCH  82  83
ENDBRANCH  56  77
ENDBRANCH  30  31
ENDBRANCH  23  25
ENDBRANCH  22  23
ENDBRANCH  21  22
ENDBRANCH   1  21
TORSDOF 17
ENDMDL
MODEL 2
REMARK VINA RESULT:     -10.4      4.435     10.443
REMARK SMILES O=C(C[NH+]1CC(c2nc(-c3cccs3)no2)C1)OCCOC(=O)c1ccc(-c2c3nc(c(-c4ccc(S(=O)(=O)[O-])cc4)c4ccc([nH]4)c(-c4ccc(S(=O)(=O)[O-])cc4)c4nc(c(-c5ccc(S(=O)(=O)[O-])cc5)c5ccc2[nH]5)C=C4)C=C3)cc1
REMARK SMILES IDX 19 1 18 2 2 3 1 4 3 5 4 6 5 7 17 8 6 10 7 11 8 12 16 13 9 14
REMARK SMILES IDX 15 15 10 16 11 17 14 18 12 19 13 20 20 21 21 22 22 23 23 24
REMARK SMILES IDX 24 25 25 26 83 27 26 28 82 29 27 30 28 31 29 32 76 33 30 34
REMARK SMILES IDX 81 35 75 36 77 37 31 38 80 39 74 40 73 41 32 43 62 44 43 45
REMARK SMILES IDX 61 46 44 47 47 48 60 49 78 50 45 51 46 52 59 54 79 55 48 56
REMARK SMILES IDX 33 57 34 58 42 59 35 60 41 61 36 62 37 63 38 64 39 65 40 66
REMARK SMILES IDX 63 67 64 68 72 69 65 70 71 71 66 72 67 73 68 74 69 75 70 76
REMARK SMILES IDX 49 77 50 78 58 79 51 80 57 81 52 82 53 83 54 84 55 85 56 86
REMARK H PARENT 4 9 77 42 47 53
REMARK Flexibility Score: inf
ROOT
ATOM      1  C   UNL A   1      36.022  21.344  25.791  1.00  0.00     0.274 C 
ENDROOT
BRANCH   1   2
ATOM      2  O   UNL A   1      35.241  20.459  24.968  1.00  0.00    -0.458 OA
BRANCH   2   3
ATOM      3  C   UNL A   1      33.879  20.510  24.991  1.00  0.00     0.361 C 
ATOM      4  O   UNL A   1      33.244  19.695  25.656  1.00  0.00    -0.245 OA
BRANCH   3   5
ATOM      5  C   UNL A   1      33.217  21.501  24.033  1.00  0.00     0.386 C 
BRANCH   5   6
ATOM      6  N   UNL A   1      32.182  22.320  24.690  1.00  0.00    -0.324 N 
ATOM      7  C   UNL A   1      32.745  23.183  25.751  1.00  0.00     0.282 C 
ATOM      8  C   UNL A   1      31.948  23.546  23.880  1.00  0.00     0.282 C 
ATOM      9  H   UNL A   1      31.448  21.645  24.905  1.00  0.00     0.348 HD
ATOM     10  C   UNL A   1      31.886  24.351  25.207  1.00  0.00     0.188 C 
BRANCH  10  11
ATOM     11  C   UNL A   1      32.622  25.673  25.124  1.00  0.00     0.241 A 
ATOM     12  N   UNL A   1      32.667  26.542  26.107  1.00  0.00    -0.190 NA
ATOM     13  O   UNL A   1      33.291  26.104  24.009  1.00  0.00    -0.338 OA
ATOM     14  C   UNL A   1      33.355  27.595  25.550  1.00  0.00     0.212 A 
ATOM     15  N   UNL A   1      33.796  27.366  24.304  1.00  0.00    -0.056 NA
BRANCH  14  16
ATOM     16  C   UNL A   1      33.525  28.892  26.269  1.00  0.00     0.075 A 
ATOM     17  C   UNL A   1      34.671  29.228  26.959  1.00  0.00     0.024 A 
ATOM     18  S   UNL A   1      32.332  30.108  26.383  1.00  0.00    -0.140 S 
ATOM     19  C   UNL A   1      34.548  30.482  27.627  1.00  0.00     0.012 A 
ATOM     20  C   UNL A   1      33.321  31.065  27.401  1.00  0.00     0.065 A 
ENDBRANCH  14  16
ENDBRANCH  10  11
ENDBRANCH   5   6
ENDBRANCH   3   5
ENDBRANCH   2   3
ENDBRANCH   1   2
BRANCH   1  21
ATOM     21  C   UNL A   1      37.482  21.467  25.344  1.00  0.00     0.275 C 
BRANCH  21  22
ATOM     22  O   UNL A   1      38.010  22.775  25.606  1.00  0.00    -0.458 OA
BRANCH  22  23
ATOM     23  C   UNL A   1      39.193  22.775  26.274  1.00  0.00     0.338 C 
ATOM     24  O   UNL A   1      40.027  21.884  26.270  1.00  0.00    -0.246 OA
BRANCH  23  25
ATOM     25  C   UNL A   1      39.424  24.103  26.883  1.00  0.00     0.060 A 
ATOM     26  C   UNL A   1      40.103  25.057  26.116  1.00  0.00     0.016 A 
ATOM     27  C   UNL A   1      39.003  24.412  28.179  1.00  0.00     0.016 A 
ATOM     28  C   UNL A   1      40.400  26.308  26.658  1.00  0.00     0.010 A 
ATOM     29  C   UNL A   1      39.305  25.665  28.723  1.00  0.00     0.010 A 
ATOM     30  C   UNL A   1      40.032  26.608  27.977  1.00  0.00    -0.014 A 
BRANCH  30  31
ATOM     31  C   UNL A   1      40.527  27.855  28.614  1.00  0.00     0.031 A 
ATOM     32  C   UNL A   1      41.968  27.935  29.041  1.00  0.00     0.074 A 
ATOM     33  C   UNL A   1      39.716  28.913  28.793  1.00  0.00     0.049 A 
ATOM     34  N   UNL A   1      42.614  28.933  29.590  1.00  0.00    -0.248 NA
ATOM     35  C   UNL A   1      42.790  26.734  28.821  1.00  0.00     0.031 C 
ATOM     36  C   UNL A   1      38.308  28.977  28.403  1.00  0.00     0.029 A 
ATOM     37  N   UNL A   1      39.967  30.141  29.353  1.00  0.00    -0.354 N 
ATOM     38  C   UNL A   1      43.915  28.484  29.773  1.00  0.00     0.074 A 
ATOM     39  C   UNL A   1      43.959  27.113  29.314  1.00  0.00     0.031 C 
ATOM     40  C   UNL A   1      37.818  30.183  28.741  1.00  0.00     0.029 A 
ATOM     41  C   UNL A   1      38.869  30.967  29.388  1.00  0.00     0.049 A 
ATOM     42  H   UNL A   1      40.850  30.404  29.698  1.00  0.00     0.167 HD
ATOM     43  C   UNL A   1      44.984  29.155  30.268  1.00  0.00     0.031 A 
ATOM     44  C   UNL A   1      38.727  32.211  29.890  1.00  0.00     0.031 A 
ATOM     45  C   UNL A   1      44.944  30.509  30.748  1.00  0.00     0.049 A 
ATOM     46  C   UNL A   1      39.912  32.908  30.507  1.00  0.00     0.074 A 
ATOM     47  C   UNL A   1      45.983  31.275  31.248  1.00  0.00     0.029 A 
ATOM     48  N   UNL A   1      43.805  31.297  30.802  1.00  0.00    -0.354 N 
ATOM     49  N   UNL A   1      41.148  32.488  30.625  1.00  0.00    -0.248 NA
ATOM     50  C   UNL A   1      39.681  34.257  31.048  1.00  0.00     0.031 C 
ATOM     51  C   UNL A   1      45.461  32.508  31.655  1.00  0.00     0.029 A 
ATOM     52  C   UNL A   1      44.109  32.529  31.357  1.00  0.00     0.049 A 
ATOM     53  H   UNL A   1      42.913  31.021  30.493  1.00  0.00     0.167 HD
ATOM     54  C   UNL A   1      41.847  33.530  31.228  1.00  0.00     0.074 A 
ATOM     55  C   UNL A   1      40.900  34.603  31.441  1.00  0.00     0.031 C 
ATOM     56  C   UNL A   1      43.159  33.592  31.569  1.00  0.00     0.031 A 
BRANCH  43  57
ATOM     57  C   UNL A   1      46.290  28.410  30.338  1.00  0.00    -0.014 A 
ATOM     58  C   UNL A   1      46.652  27.689  31.490  1.00  0.00     0.010 A 
ATOM     59  C   UNL A   1      47.153  28.410  29.228  1.00  0.00     0.010 A 
ATOM     60  C   UNL A   1      47.874  27.014  31.546  1.00  0.00     0.020 A 
ATOM     61  C   UNL A   1      48.365  27.715  29.270  1.00  0.00     0.020 A 
ATOM     62  C   UNL A   1      48.726  27.037  30.437  1.00  0.00     0.054 A 
BRANCH  62  63
ATOM     63  S   UNL A   1      50.303  26.145  30.532  1.00  0.00     0.124 S 
ATOM     64  O   UNL A   1      50.586  25.886  29.123  1.00  0.00    -0.237 OA
ATOM     65  O   UNL A   1      51.181  27.115  31.180  1.00  0.00    -0.237 OA
ATOM     66  O   UNL A   1      49.985  24.965  31.331  1.00  0.00    -0.744 OA
ENDBRANCH  62  63
ENDBRANCH  43  57
BRANCH  44  67
ATOM     67  C   UNL A   1      37.399  32.882  29.842  1.00  0.00    -0.014 A 
ATOM     68  C   UNL A   1      36.956  33.511  28.665  1.00  0.00     0.010 A 
ATOM     69  C   UNL A   1      36.577  32.906  30.983  1.00  0.00     0.010 A 
ATOM     70  C   UNL A   1      35.722  34.168  28.637  1.00  0.00     0.020 A 
ATOM     71  C   UNL A   1      35.333  33.540  30.951  1.00  0.00     0.020 A 
ATOM     72  C   UNL A   1      34.918  34.178  29.780  1.00  0.00     0.054 A 
BRANCH  72  73
ATOM     73  S   UNL A   1      33.302  34.999  29.710  1.00  0.00     0.124 S 
ATOM     74  O   UNL A   1      33.658  36.331  29.234  1.00  0.00    -0.237 OA
ATOM     75  O   UNL A   1      32.564  34.165  28.764  1.00  0.00    -0.237 OA
ATOM     76  O   UNL A   1      32.825  34.932  31.089  1.00  0.00    -0.744 OA
ENDBRANCH  72  73
ENDBRANCH  44  67
BRANCH  56  77
ATOM     77  C   UNL A   1      43.662  34.871  32.185  1.00  0.00    -0.014 A 
ATOM     78  C   UNL A   1      44.089  35.947  31.387  1.00  0.00     0.010 A 
ATOM     79  C   UNL A   1      43.646  35.022  33.585  1.00  0.00     0.010 A 
ATOM     80  C   UNL A   1      44.517  37.139  31.978  1.00  0.00     0.020 A 
ATOM     81  C   UNL A   1      44.050  36.220  34.178  1.00  0.00     0.020 A 
ATOM     82  C   UNL A   1      44.495  37.269  33.371  1.00  0.00     0.054 A 
BRANCH  82  83
ATOM     83  S   UNL A   1      45.008  38.843  34.112  1.00  0.00     0.124 S 
ATOM     84  O   UNL A   1      45.217  39.681  32.935  1.00  0.00    -0.237 OA
ATOM     85  O   UNL A   1      43.857  39.200  34.939  1.00  0.00    -0.237 OA
ATOM     86  O   UNL A   1      46.217  38.499  34.856  1.00  0.00    -0.744 OA
ENDBRANCH  82  83
ENDBRANCH  56  77
ENDBRANCH  30  31
ENDBRANCH  23  25
ENDBRANCH  22  23
ENDBRANCH  21  22
ENDBRANCH   1  21
TORSDOF 17
ENDMDL
MODEL 3
REMARK VINA RESULT:     -10.1      4.695     10.483
REMARK SMILES O=C(C[NH+]1CC(c2nc(-c3cccs3)no2)C1)OCCOC(=O)c1ccc(-c2c3nc(c(-c4ccc(S(=O)(=O)[O-])cc4)c4ccc([nH]4)c(-c4ccc(S(=O)(=O)[O-])cc4)c4nc(c(-c5ccc(S(=O)(=O)[O-])cc5)c5ccc2[nH]5)C=C4)C=C3)cc1
REMARK SMILES IDX 19 1 18 2 2 3 1 4 3 5 4 6 5 7 17 8 6 10 7 11 8 12 16 13 9 14
REMARK SMILES IDX 15 15 10 16 11 17 14 18 12 19 13 20 20 21 21 22 22 23 23 24
REMARK SMILES IDX 24 25 25 26 83 27 26 28 82 29 27 30 28 31 29 32 76 33 30 34
REMARK SMILES IDX 81 35 75 36 77 37 31 38 80 39 74 40 73 41 32 43 62 44 43 45
REMARK SMILES IDX 61 46 44 47 47 48 60 49 78 50 45 51 46 52 59 54 79 55 48 56
REMARK SMILES IDX 33 57 34 58 42 59 35 60 41 61 36 62 37 63 38 64 39 65 40 66
REMARK SMILES IDX 63 67 64 68 72 69 65 70 71 71 66 72 67 73 68 74 69 75 70 76
REMARK SMILES IDX 49 77 50 78 58 79 51 80 57 81 52 82 53 83 54 84 55 85 56 86
REMARK H PARENT 4 9 77 42 47 53
REMARK Flexibility Score: inf
ROOT
ATOM      1  C   UNL A   1      36.120  21.432  25.662  1.00  0.00     0.274 C 
ENDROOT
BRANCH   1   2
ATOM      2  O   UNL A   1      35.399  20.352  25.044  1.00  0.00    -0.458 OA
BRANCH   2   3
ATOM      3  C   UNL A   1      34.087  20.499  24.703  1.00  0.00     0.361 C 
ATOM      4  O   UNL A   1      33.340  19.523  24.693  1.00  0.00    -0.245 OA
BRANCH   3   5
ATOM      5  C   UNL A   1      33.667  21.875  24.184  1.00  0.00     0.386 C 
BRANCH   5   6
ATOM      6  N   UNL A   1      32.574  22.470  24.975  1.00  0.00    -0.324 N 
ATOM      7  C   UNL A   1      32.808  23.902  25.261  1.00  0.00     0.282 C 
ATOM      8  C   UNL A   1      31.478  22.880  24.055  1.00  0.00     0.282 C 
ATOM      9  H   UNL A   1      32.443  21.804  25.736  1.00  0.00     0.348 HD
ATOM     10  C   UNL A   1      31.331  24.181  24.890  1.00  0.00     0.188 C 
BRANCH  10  11
ATOM     11  C   UNL A   1      31.131  25.410  24.027  1.00  0.00     0.241 A 
ATOM     12  N   UNL A   1      30.192  26.302  24.241  1.00  0.00    -0.190 NA
ATOM     13  O   UNL A   1      31.893  25.700  22.926  1.00  0.00    -0.338 OA
ATOM     14  C   UNL A   1      30.345  27.163  23.178  1.00  0.00     0.212 A 
ATOM     15  N   UNL A   1      31.384  26.875  22.382  1.00  0.00    -0.056 NA
BRANCH  14  16
ATOM     16  C   UNL A   1      29.383  28.276  22.923  1.00  0.00     0.075 A 
ATOM     17  C   UNL A   1      28.045  28.208  23.251  1.00  0.00     0.024 A 
ATOM     18  S   UNL A   1      29.778  29.750  22.158  1.00  0.00    -0.140 S 
ATOM     19  C   UNL A   1      27.328  29.365  22.826  1.00  0.00     0.012 A 
ATOM     20  C   UNL A   1      28.151  30.282  22.212  1.00  0.00     0.065 A 
ENDBRANCH  14  16
ENDBRANCH  10  11
ENDBRANCH   5   6
ENDBRANCH   3   5
ENDBRANCH   2   3
ENDBRANCH   1   2
BRANCH   1  21
ATOM     21  C   UNL A   1      37.614  21.443  25.325  1.00  0.00     0.275 C 
BRANCH  21  22
ATOM     22  O   UNL A   1      38.180  22.755  25.457  1.00  0.00    -0.458 OA
BRANCH  22  23
ATOM     23  C   UNL A   1      39.379  22.783  26.097  1.00  0.00     0.338 C 
ATOM     24  O   UNL A   1      40.268  21.953  26.005  1.00  0.00    -0.246 OA
BRANCH  23  25
ATOM     25  C   UNL A   1      39.538  24.073  26.802  1.00  0.00     0.060 A 
ATOM     26  C   UNL A   1      40.261  25.081  26.152  1.00  0.00     0.016 A 
ATOM     27  C   UNL A   1      39.011  24.295  28.077  1.00  0.00     0.016 A 
ATOM     28  C   UNL A   1      40.494  26.299  26.793  1.00  0.00     0.010 A 
ATOM     29  C   UNL A   1      39.249  25.516  28.720  1.00  0.00     0.010 A 
ATOM     30  C   UNL A   1      40.018  26.512  28.093  1.00  0.00    -0.014 A 
BRANCH  30  31
ATOM     31  C   UNL A   1      40.440  27.722  28.843  1.00  0.00     0.031 A 
ATOM     32  C   UNL A   1      41.808  27.752  29.471  1.00  0.00     0.074 A 
ATOM     33  C   UNL A   1      39.631  28.791  28.949  1.00  0.00     0.049 A 
ATOM     34  N   UNL A   1      42.388  28.713  30.145  1.00  0.00    -0.248 NA
ATOM     35  C   UNL A   1      42.630  26.540  29.320  1.00  0.00     0.031 C 
ATOM     36  C   UNL A   1      38.294  28.903  28.369  1.00  0.00     0.029 A 
ATOM     37  N   UNL A   1      39.823  29.991  29.588  1.00  0.00    -0.354 N 
ATOM     38  C   UNL A   1      43.642  28.227  30.491  1.00  0.00     0.074 A 
ATOM     39  C   UNL A   1      43.725  26.873  29.987  1.00  0.00     0.031 C 
ATOM     40  C   UNL A   1      37.783  30.107  28.683  1.00  0.00     0.029 A 
ATOM     41  C   UNL A   1      38.746  30.841  29.502  1.00  0.00     0.049 A 
ATOM     42  H   UNL A   1      40.654  30.220  30.064  1.00  0.00     0.167 HD
ATOM     43  C   UNL A   1      44.642  28.853  31.157  1.00  0.00     0.031 A 
ATOM     44  C   UNL A   1      38.557  32.068  30.029  1.00  0.00     0.031 A 
ATOM     45  C   UNL A   1      44.559  30.189  31.681  1.00  0.00     0.049 A 
ATOM     46  C   UNL A   1      39.656  32.714  30.833  1.00  0.00     0.074 A 
ATOM     47  C   UNL A   1      45.531  30.911  32.352  1.00  0.00     0.029 A 
ATOM     48  N   UNL A   1      43.439  31.001  31.607  1.00  0.00    -0.354 N 
ATOM     49  N   UNL A   1      40.855  32.260  31.106  1.00  0.00    -0.248 NA
ATOM     50  C   UNL A   1      39.376  34.046  31.391  1.00  0.00     0.031 C 
ATOM     51  C   UNL A   1      44.980  32.140  32.731  1.00  0.00     0.029 A 
ATOM     52  C   UNL A   1      43.683  32.204  32.247  1.00  0.00     0.049 A 
ATOM     53  H   UNL A   1      42.594  30.758  31.164  1.00  0.00     0.167 HD
ATOM     54  C   UNL A   1      41.481  33.262  31.843  1.00  0.00     0.074 A 
ATOM     55  C   UNL A   1      40.533  34.349  31.964  1.00  0.00     0.031 C 
ATOM     56  C   UNL A   1      42.732  33.281  32.366  1.00  0.00     0.031 A 
BRANCH  43  57
ATOM     57  C   UNL A   1      45.912  28.076  31.379  1.00  0.00    -0.014 A 
ATOM     58  C   UNL A   1      46.920  28.040  30.399  1.00  0.00     0.010 A 
ATOM     59  C   UNL A   1      46.110  27.396  32.594  1.00  0.00     0.010 A 
ATOM     60  C   UNL A   1      48.087  27.303  30.613  1.00  0.00     0.020 A 
ATOM     61  C   UNL A   1      47.287  26.678  32.822  1.00  0.00     0.020 A 
ATOM     62  C   UNL A   1      48.260  26.621  31.822  1.00  0.00     0.054 A 
BRANCH  62  63
ATOM     63  S   UNL A   1      49.789  25.679  32.079  1.00  0.00     0.124 S 
ATOM     64  O   UNL A   1      49.376  24.707  33.088  1.00  0.00    -0.237 OA
ATOM     65  O   UNL A   1      50.054  25.131  30.751  1.00  0.00    -0.237 OA
ATOM     66  O   UNL A   1      50.743  26.685  32.537  1.00  0.00    -0.744 OA
ENDBRANCH  62  63
ENDBRANCH  43  57
BRANCH  44  67
ATOM     67  C   UNL A   1      37.262  32.772  29.822  1.00  0.00    -0.014 A 
ATOM     68  C   UNL A   1      37.063  33.592  28.697  1.00  0.00     0.010 A 
ATOM     69  C   UNL A   1      36.224  32.634  30.761  1.00  0.00     0.010 A 
ATOM     70  C   UNL A   1      35.856  34.277  28.526  1.00  0.00     0.020 A 
ATOM     71  C   UNL A   1      35.008  33.296  30.581  1.00  0.00     0.020 A 
ATOM     72  C   UNL A   1      34.835  34.124  29.469  1.00  0.00     0.054 A 
BRANCH  72  73
ATOM     73  S   UNL A   1      33.261  34.986  29.207  1.00  0.00     0.124 S 
ATOM     74  O   UNL A   1      32.697  35.005  30.552  1.00  0.00    -0.237 OA
ATOM     75  O   UNL A   1      33.692  36.279  28.682  1.00  0.00    -0.237 OA
ATOM     76  O   UNL A   1      32.562  34.135  28.245  1.00  0.00    -0.744 OA
ENDBRANCH  72  73
ENDBRANCH  44  67
BRANCH  56  77
ATOM     77  C   UNL A   1      43.167  34.523  33.098  1.00  0.00    -0.014 A 
ATOM     78  C   UNL A   1      43.048  34.626  34.496  1.00  0.00     0.010 A 
ATOM     79  C   UNL A   1      43.762  35.579  32.383  1.00  0.00     0.010 A 
ATOM     80  C   UNL A   1      43.491  35.774  35.160  1.00  0.00     0.020 A 
ATOM     81  C   UNL A   1      44.229  36.717  33.046  1.00  0.00     0.020 A 
ATOM     82  C   UNL A   1      44.080  36.813  34.431  1.00  0.00     0.054 A 
BRANCH  82  83
ATOM     83  S   UNL A   1      44.693  38.270  35.321  1.00  0.00     0.124 S 
ATOM     84  O   UNL A   1      46.120  37.981  35.431  1.00  0.00    -0.237 OA
ATOM     85  O   UNL A   1      44.343  39.367  34.423  1.00  0.00    -0.237 OA
ATOM     86  O   UNL A   1      43.953  38.244  36.580  1.00  0.00    -0.744 OA
ENDBRANCH  82  83
ENDBRANCH  56  77
ENDBRANCH  30  31
ENDBRANCH  23  25
ENDBRANCH  22  23
ENDBRANCH  21  22
ENDBRANCH   1  21
TORSDOF 17
ENDMDL
