MODEL 1
REMARK VINA RESULT:     -12.6      0.000      0.000
REMARK SMILES Cc1cc(NC(=O)NCc2sccc2C)ccc1C(=O)OCCOC(=O)c1ccc(-c2c3nc(c(-c4ccc(S(=O)(=O)[O-])cc4)c4ccc([nH]4)c(-c4ccc(S(=O)(=O)[O-])cc4)c4nc(c(-c5ccc(S(=O)(=O)[O-])cc5)c5ccc2[nH]5)C=C4)C=C3)cc1
REMARK SMILES IDX 22 1 21 2 19 3 20 4 18 5 1 6 2 7 3 8 4 9 17 10 16 11 5 12
REMARK SMILES IDX 6 13 7 15 8 16 9 18 10 19 11 20 14 21 12 22 13 23 15 24
REMARK SMILES IDX 23 25 24 26 25 27 26 28 27 29 28 30 86 31 29 32 85 33 30 34
REMARK SMILES IDX 31 35 32 36 79 37 33 38 84 39 78 40 80 41 34 42 83 43 77 44
REMARK SMILES IDX 76 45 35 47 65 48 46 49 64 50 47 51 50 52 63 53 81 54 48 55
REMARK SMILES IDX 49 56 62 58 82 59 51 60 36 61 37 62 45 63 38 64 44 65 39 66
REMARK SMILES IDX 40 67 41 68 42 69 43 70 66 71 67 72 75 73 68 74 74 75 69 76
REMARK SMILES IDX 70 77 71 78 72 79 73 80 52 81 53 82 61 83 54 84 60 85 55 86
REMARK SMILES IDX 56 87 57 88 58 89 59 90
REMARK H PARENT 5 14 8 17 80 46 50 57
REMARK Flexibility Score: inf
ROOT
ATOM      1  C   UNL A   1      33.235  29.005  25.762  1.00  0.00     0.275 C 
ENDROOT
BRANCH   1   2
ATOM      2  O   UNL A   1      33.654  27.865  25.002  1.00  0.00    -0.458 OA
BRANCH   2   3
ATOM      3  C   UNL A   1      32.724  26.905  24.825  1.00  0.00     0.338 C 
ATOM      4  O   UNL A   1      31.504  27.037  24.832  1.00  0.00    -0.246 OA
BRANCH   3   5
ATOM      5  C   UNL A   1      33.402  25.603  24.795  1.00  0.00     0.063 A 
ATOM      6  C   UNL A   1      33.286  25.662  22.257  1.00  0.00     0.045 C 
ATOM      7  C   UNL A   1      33.682  25.012  23.552  1.00  0.00    -0.035 A 
ATOM      8  C   UNL A   1      34.546  23.909  23.523  1.00  0.00     0.030 A 
ATOM      9  C   UNL A   1      35.180  23.477  24.692  1.00  0.00     0.043 A 
ATOM     10  C   UNL A   1      33.906  25.052  25.982  1.00  0.00     0.018 A 
ATOM     11  C   UNL A   1      34.774  23.960  25.934  1.00  0.00     0.027 A 
BRANCH   9  12
ATOM     12  N   UNL A   1      36.357  22.719  24.633  1.00  0.00    -0.308 N 
ATOM     13  C   UNL A   1      36.588  21.431  25.015  1.00  0.00     0.319 C 
ATOM     14  H   UNL A   1      37.136  23.188  24.257  1.00  0.00     0.171 HD
ATOM     15  O   UNL A   1      37.754  21.029  25.074  1.00  0.00    -0.248 OA
ATOM     16  N   UNL A   1      35.591  20.532  25.229  1.00  0.00    -0.333 N 
ATOM     17  H   UNL A   1      35.887  19.630  25.490  1.00  0.00     0.165 HD
BRANCH  16  18
ATOM     18  C   UNL A   1      34.158  20.704  25.128  1.00  0.00     0.165 C 
BRANCH  18  19
ATOM     19  C   UNL A   1      33.412  19.704  24.305  1.00  0.00     0.027 A 
ATOM     20  S   UNL A   1      33.812  18.046  24.577  1.00  0.00    -0.147 S 
ATOM     21  C   UNL A   1      32.565  19.856  23.217  1.00  0.00    -0.035 A 
ATOM     22  C   UNL A   1      32.949  17.540  23.206  1.00  0.00     0.065 A 
ATOM     23  C   UNL A   1      32.315  18.589  22.585  1.00  0.00     0.015 A 
ATOM     24  C   UNL A   1      32.012  21.139  22.695  1.00  0.00     0.045 C 
ENDBRANCH  18  19
ENDBRANCH  16  18
ENDBRANCH   9  12
ENDBRANCH   3   5
ENDBRANCH   2   3
ENDBRANCH   1   2
BRANCH   1  25
ATOM     25  C   UNL A   1      34.047  29.079  27.064  1.00  0.00     0.275 C 
BRANCH  25  26
ATOM     26  O   UNL A   1      35.390  29.614  26.991  1.00  0.00    -0.458 OA
BRANCH  26  27
ATOM     27  C   UNL A   1      35.808  30.378  28.036  1.00  0.00     0.338 C 
ATOM     28  O   UNL A   1      35.049  31.013  28.757  1.00  0.00    -0.246 OA
BRANCH  27  29
ATOM     29  C   UNL A   1      37.228  30.028  28.321  1.00  0.00     0.060 A 
ATOM     30  C   UNL A   1      37.530  29.310  29.482  1.00  0.00     0.016 A 
ATOM     31  C   UNL A   1      38.166  30.114  27.285  1.00  0.00     0.016 A 
ATOM     32  C   UNL A   1      38.679  28.516  29.526  1.00  0.00     0.010 A 
ATOM     33  C   UNL A   1      39.278  29.297  27.306  1.00  0.00     0.010 A 
ATOM     34  C   UNL A   1      39.519  28.466  28.407  1.00  0.00    -0.014 A 
BRANCH  34  35
ATOM     35  C   UNL A   1      40.830  27.821  28.421  1.00  0.00     0.031 A 
ATOM     36  C   UNL A   1      41.082  26.424  28.002  1.00  0.00     0.074 A 
ATOM     37  C   UNL A   1      41.816  28.607  28.901  1.00  0.00     0.049 A 
ATOM     38  N   UNL A   1      42.004  25.679  28.521  1.00  0.00    -0.248 NA
ATOM     39  C   UNL A   1      40.311  25.739  26.966  1.00  0.00     0.031 C 
ATOM     40  C   UNL A   1      43.244  28.354  28.974  1.00  0.00     0.029 A 
ATOM     41  N   UNL A   1      41.626  29.756  29.681  1.00  0.00    -0.354 N 
ATOM     42  C   UNL A   1      42.102  24.533  27.759  1.00  0.00     0.074 A 
ATOM     43  C   UNL A   1      40.986  24.586  26.842  1.00  0.00     0.031 C 
ATOM     44  C   UNL A   1      43.740  29.088  29.988  1.00  0.00     0.029 A 
ATOM     45  C   UNL A   1      42.604  29.712  30.667  1.00  0.00     0.049 A 
ATOM     46  H   UNL A   1      40.940  30.451  29.556  1.00  0.00     0.167 HD
ATOM     47  C   UNL A   1      43.195  23.723  27.872  1.00  0.00     0.031 A 
ATOM     48  C   UNL A   1      42.297  29.601  31.990  1.00  0.00     0.031 A 
ATOM     49  C   UNL A   1      44.151  24.259  28.832  1.00  0.00     0.049 A 
ATOM     50  C   UNL A   1      42.997  28.412  32.587  1.00  0.00     0.074 A 
ATOM     51  C   UNL A   1      45.239  25.096  28.652  1.00  0.00     0.029 A 
ATOM     52  N   UNL A   1      43.867  24.251  30.192  1.00  0.00    -0.354 N 
ATOM     53  N   UNL A   1      43.221  27.298  31.945  1.00  0.00    -0.248 NA
ATOM     54  C   UNL A   1      43.526  28.416  33.945  1.00  0.00     0.031 C 
ATOM     55  C   UNL A   1      45.537  25.690  29.900  1.00  0.00     0.029 A 
ATOM     56  C   UNL A   1      44.670  25.167  30.845  1.00  0.00     0.049 A 
ATOM     57  H   UNL A   1      43.193  23.679  30.626  1.00  0.00     0.167 HD
ATOM     58  C   UNL A   1      44.019  26.504  32.726  1.00  0.00     0.074 A 
ATOM     59  C   UNL A   1      44.142  27.224  33.984  1.00  0.00     0.031 C 
ATOM     60  C   UNL A   1      44.600  25.353  32.283  1.00  0.00     0.031 A 
BRANCH  47  61
ATOM     61  C   UNL A   1      43.545  22.648  26.867  1.00  0.00    -0.014 A 
ATOM     62  C   UNL A   1      42.708  21.518  26.737  1.00  0.00     0.010 A 
ATOM     63  C   UNL A   1      44.693  22.674  26.054  1.00  0.00     0.010 A 
ATOM     64  C   UNL A   1      43.049  20.423  25.930  1.00  0.00     0.020 A 
ATOM     65  C   UNL A   1      45.055  21.575  25.251  1.00  0.00     0.020 A 
ATOM     66  C   UNL A   1      44.240  20.445  25.213  1.00  0.00     0.054 A 
BRANCH  66  67
ATOM     67  S   UNL A   1      44.722  18.964  24.279  1.00  0.00     0.124 S 
ATOM     68  O   UNL A   1      43.727  17.983  24.708  1.00  0.00    -0.237 OA
ATOM     69  O   UNL A   1      44.608  19.411  22.894  1.00  0.00    -0.237 OA
ATOM     70  O   UNL A   1      46.084  18.695  24.735  1.00  0.00    -0.744 OA
ENDBRANCH  66  67
ENDBRANCH  47  61
BRANCH  48  71
ATOM     71  C   UNL A   1      40.951  30.085  32.435  1.00  0.00    -0.014 A 
ATOM     72  C   UNL A   1      40.603  31.438  32.214  1.00  0.00     0.010 A 
ATOM     73  C   UNL A   1      39.939  29.202  32.848  1.00  0.00     0.010 A 
ATOM     74  C   UNL A   1      39.276  31.872  32.300  1.00  0.00     0.020 A 
ATOM     75  C   UNL A   1      38.608  29.639  32.959  1.00  0.00     0.020 A 
ATOM     76  C   UNL A   1      38.281  30.963  32.656  1.00  0.00     0.054 A 
BRANCH  76  77
ATOM     77  S   UNL A   1      36.542  31.485  32.539  1.00  0.00     0.124 S 
ATOM     78  O   UNL A   1      36.280  31.980  33.887  1.00  0.00    -0.237 OA
ATOM     79  O   UNL A   1      36.595  32.503  31.491  1.00  0.00    -0.237 OA
ATOM     80  O   UNL A   1      35.852  30.251  32.171  1.00  0.00    -0.744 OA
ENDBRANCH  76  77
ENDBRANCH  48  71
BRANCH  60  81
ATOM     81  C   UNL A   1      45.340  24.387  33.164  1.00  0.00    -0.014 A 
ATOM     82  C   UNL A   1      46.585  24.678  33.741  1.00  0.00     0.010 A 
ATOM     83  C   UNL A   1      44.713  23.178  33.543  1.00  0.00     0.010 A 
ATOM     84  C   UNL A   1      47.216  23.767  34.595  1.00  0.00     0.020 A 
ATOM     85  C   UNL A   1      45.314  22.282  34.426  1.00  0.00     0.020 A 
ATOM     86  C   UNL A   1      46.578  22.572  34.927  1.00  0.00     0.054 A 
BRANCH  86  87
ATOM     87  S   UNL A   1      47.363  21.423  36.082  1.00  0.00     0.124 S 
ATOM     88  O   UNL A   1      47.392  20.188  35.304  1.00  0.00    -0.237 OA
ATOM     89  O   UNL A   1      48.667  22.037  36.328  1.00  0.00    -0.237 OA
ATOM     90  O   UNL A   1      46.458  21.425  37.228  1.00  0.00    -0.744 OA
ENDBRANCH  86  87
ENDBRANCH  60  81
ENDBRANCH  34  35
ENDBRANCH  27  29
ENDBRANCH  26  27
ENDBRANCH  25  26
ENDBRANCH   1  25
TORSDOF 17
ENDMDL
MODEL 2
REMARK VINA RESULT:     -12.6      4.779     11.161
REMARK SMILES Cc1cc(NC(=O)NCc2sccc2C)ccc1C(=O)OCCOC(=O)c1ccc(-c2c3nc(c(-c4ccc(S(=O)(=O)[O-])cc4)c4ccc([nH]4)c(-c4ccc(S(=O)(=O)[O-])cc4)c4nc(c(-c5ccc(S(=O)(=O)[O-])cc5)c5ccc2[nH]5)C=C4)C=C3)cc1
REMARK SMILES IDX 22 1 21 2 19 3 20 4 18 5 1 6 2 7 3 8 4 9 17 10 16 11 5 12
REMARK SMILES IDX 6 13 7 15 8 16 9 18 10 19 11 20 14 21 12 22 13 23 15 24
REMARK SMILES IDX 23 25 24 26 25 27 26 28 27 29 28 30 86 31 29 32 85 33 30 34
REMARK SMILES IDX 31 35 32 36 79 37 33 38 84 39 78 40 80 41 34 42 83 43 77 44
REMARK SMILES IDX 76 45 35 47 65 48 46 49 64 50 47 51 50 52 63 53 81 54 48 55
REMARK SMILES IDX 49 56 62 58 82 59 51 60 36 61 37 62 45 63 38 64 44 65 39 66
REMARK SMILES IDX 40 67 41 68 42 69 43 70 66 71 67 72 75 73 68 74 74 75 69 76
REMARK SMILES IDX 70 77 71 78 72 79 73 80 52 81 53 82 61 83 54 84 60 85 55 86
REMARK SMILES IDX 56 87 57 88 58 89 59 90
REMARK H PARENT 5 14 8 17 80 46 50 57
REMARK Flexibility Score: inf
ROOT
ATOM      1  C   UNL A   1      36.097  22.606  25.815  1.00  0.00     0.275 C 
ENDROOT
BRANCH   1   2
ATOM      2  O   UNL A   1      35.102  23.567  26.183  1.00  0.00    -0.458 OA
BRANCH   2   3
ATOM      3  C   UNL A   1      33.958  23.528  25.471  1.00  0.00     0.338 C 
ATOM      4  O   UNL A   1      33.536  22.601  24.787  1.00  0.00    -0.246 OA
BRANCH   3   5
ATOM      5  C   UNL A   1      33.352  24.866  25.492  1.00  0.00     0.063 A 
ATOM      6  C   UNL A   1      31.389  23.896  26.784  1.00  0.00     0.045 C 
ATOM      7  C   UNL A   1      32.117  25.041  26.138  1.00  0.00    -0.035 A 
ATOM      8  C   UNL A   1      31.674  26.349  26.376  1.00  0.00     0.030 A 
ATOM      9  C   UNL A   1      32.491  27.440  26.060  1.00  0.00     0.043 A 
ATOM     10  C   UNL A   1      34.080  25.968  25.024  1.00  0.00     0.018 A 
ATOM     11  C   UNL A   1      33.631  27.265  25.279  1.00  0.00     0.027 A 
BRANCH   9  12
ATOM     12  N   UNL A   1      32.303  28.681  26.683  1.00  0.00    -0.308 N 
ATOM     13  C   UNL A   1      31.988  29.893  26.142  1.00  0.00     0.319 C 
ATOM     14  H   UNL A   1      32.416  28.678  27.661  1.00  0.00     0.171 HD
ATOM     15  O   UNL A   1      32.083  30.901  26.849  1.00  0.00    -0.248 OA
ATOM     16  N   UNL A   1      31.466  30.032  24.895  1.00  0.00    -0.333 N 
ATOM     17  H   UNL A   1      31.270  30.958  24.623  1.00  0.00     0.165 HD
BRANCH  16  18
ATOM     18  C   UNL A   1      31.157  29.023  23.907  1.00  0.00     0.165 C 
BRANCH  18  19
ATOM     19  C   UNL A   1      29.755  28.989  23.390  1.00  0.00     0.027 A 
ATOM     20  S   UNL A   1      29.102  30.499  22.864  1.00  0.00    -0.147 S 
ATOM     21  C   UNL A   1      28.790  27.991  23.409  1.00  0.00    -0.035 A 
ATOM     22  C   UNL A   1      27.532  29.863  22.756  1.00  0.00     0.065 A 
ATOM     23  C   UNL A   1      27.503  28.520  23.048  1.00  0.00     0.015 A 
ATOM     24  C   UNL A   1      28.994  26.568  23.803  1.00  0.00     0.045 C 
ENDBRANCH  18  19
ENDBRANCH  16  18
ENDBRANCH   9  12
ENDBRANCH   3   5
ENDBRANCH   2   3
ENDBRANCH   1   2
BRANCH   1  25
ATOM     25  C   UNL A   1      37.410  23.330  25.477  1.00  0.00     0.275 C 
BRANCH  25  26
ATOM     26  O   UNL A   1      37.962  24.223  26.472  1.00  0.00    -0.458 OA
BRANCH  26  27
ATOM     27  C   UNL A   1      39.234  23.977  26.885  1.00  0.00     0.338 C 
ATOM     28  O   UNL A   1      39.935  23.084  26.426  1.00  0.00    -0.246 OA
BRANCH  27  29
ATOM     29  C   UNL A   1      39.689  25.144  27.692  1.00  0.00     0.060 A 
ATOM     30  C   UNL A   1      40.180  26.274  27.033  1.00  0.00     0.016 A 
ATOM     31  C   UNL A   1      39.305  25.227  29.037  1.00  0.00     0.016 A 
ATOM     32  C   UNL A   1      40.101  27.526  27.651  1.00  0.00     0.010 A 
ATOM     33  C   UNL A   1      39.183  26.465  29.633  1.00  0.00     0.010 A 
ATOM     34  C   UNL A   1      39.542  27.622  28.931  1.00  0.00    -0.014 A 
BRANCH  34  35
ATOM     35  C   UNL A   1      39.585  28.844  29.730  1.00  0.00     0.031 A 
ATOM     36  C   UNL A   1      38.552  29.904  29.699  1.00  0.00     0.074 A 
ATOM     37  C   UNL A   1      40.695  28.956  30.490  1.00  0.00     0.049 A 
ATOM     38  N   UNL A   1      38.810  31.157  29.892  1.00  0.00    -0.248 NA
ATOM     39  C   UNL A   1      37.136  29.645  29.442  1.00  0.00     0.031 C 
ATOM     40  C   UNL A   1      41.039  29.966  31.475  1.00  0.00     0.029 A 
ATOM     41  N   UNL A   1      41.885  28.243  30.292  1.00  0.00    -0.354 N 
ATOM     42  C   UNL A   1      37.608  31.825  30.010  1.00  0.00     0.074 A 
ATOM     43  C   UNL A   1      36.595  30.854  29.659  1.00  0.00     0.031 C 
ATOM     44  C   UNL A   1      42.383  30.027  31.547  1.00  0.00     0.029 A 
ATOM     45  C   UNL A   1      42.913  29.153  30.501  1.00  0.00     0.049 A 
ATOM     46  H   UNL A   1      41.973  27.292  30.053  1.00  0.00     0.167 HD
ATOM     47  C   UNL A   1      37.568  33.084  30.533  1.00  0.00     0.031 A 
ATOM     48  C   UNL A   1      43.775  29.515  29.510  1.00  0.00     0.031 A 
ATOM     49  C   UNL A   1      38.896  33.532  30.928  1.00  0.00     0.049 A 
ATOM     50  C   UNL A   1      43.775  31.010  29.344  1.00  0.00     0.074 A 
ATOM     51  C   UNL A   1      39.558  33.438  32.141  1.00  0.00     0.029 A 
ATOM     52  N   UNL A   1      39.852  33.842  29.967  1.00  0.00    -0.354 N 
ATOM     53  N   UNL A   1      42.722  31.763  29.505  1.00  0.00    -0.248 NA
ATOM     54  C   UNL A   1      44.982  31.760  29.019  1.00  0.00     0.031 C 
ATOM     55  C   UNL A   1      40.942  33.576  31.887  1.00  0.00     0.029 A 
ATOM     56  C   UNL A   1      41.113  33.813  30.534  1.00  0.00     0.049 A 
ATOM     57  H   UNL A   1      39.659  34.050  29.025  1.00  0.00     0.167 HD
ATOM     58  C   UNL A   1      43.117  33.073  29.443  1.00  0.00     0.074 A 
ATOM     59  C   UNL A   1      44.527  33.021  29.090  1.00  0.00     0.031 C 
ATOM     60  C   UNL A   1      42.303  34.120  29.760  1.00  0.00     0.031 A 
BRANCH  47  61
ATOM     61  C   UNL A   1      36.295  33.754  31.001  1.00  0.00    -0.014 A 
ATOM     62  C   UNL A   1      35.221  33.913  30.098  1.00  0.00     0.010 A 
ATOM     63  C   UNL A   1      36.110  34.277  32.294  1.00  0.00     0.010 A 
ATOM     64  C   UNL A   1      34.072  34.648  30.425  1.00  0.00     0.020 A 
ATOM     65  C   UNL A   1      34.968  35.031  32.631  1.00  0.00     0.020 A 
ATOM     66  C   UNL A   1      33.966  35.231  31.683  1.00  0.00     0.054 A 
BRANCH  66  67
ATOM     67  S   UNL A   1      32.530  36.286  32.036  1.00  0.00     0.124 S 
ATOM     68  O   UNL A   1      33.052  37.198  33.052  1.00  0.00    -0.237 OA
ATOM     69  O   UNL A   1      32.249  36.887  30.736  1.00  0.00    -0.237 OA
ATOM     70  O   UNL A   1      31.520  35.346  32.518  1.00  0.00    -0.744 OA
ENDBRANCH  66  67
ENDBRANCH  47  61
BRANCH  48  71
ATOM     71  C   UNL A   1      43.984  28.552  28.383  1.00  0.00    -0.014 A 
ATOM     72  C   UNL A   1      44.496  27.265  28.668  1.00  0.00     0.010 A 
ATOM     73  C   UNL A   1      43.476  28.789  27.094  1.00  0.00     0.010 A 
ATOM     74  C   UNL A   1      44.410  26.224  27.737  1.00  0.00     0.020 A 
ATOM     75  C   UNL A   1      43.409  27.753  26.147  1.00  0.00     0.020 A 
ATOM     76  C   UNL A   1      43.849  26.471  26.485  1.00  0.00     0.054 A 
BRANCH  76  77
ATOM     77  S   UNL A   1      43.536  25.061  25.378  1.00  0.00     0.124 S 
ATOM     78  O   UNL A   1      44.793  24.965  24.643  1.00  0.00    -0.237 OA
ATOM     79  O   UNL A   1      43.272  23.978  26.324  1.00  0.00    -0.237 OA
ATOM     80  O   UNL A   1      42.380  25.503  24.602  1.00  0.00    -0.744 OA
ENDBRANCH  76  77
ENDBRANCH  48  71
BRANCH  60  81
ATOM     81  C   UNL A   1      42.659  35.564  29.543  1.00  0.00    -0.014 A 
ATOM     82  C   UNL A   1      43.525  36.273  30.389  1.00  0.00     0.010 A 
ATOM     83  C   UNL A   1      42.214  36.216  28.370  1.00  0.00     0.010 A 
ATOM     84  C   UNL A   1      43.867  37.602  30.122  1.00  0.00     0.020 A 
ATOM     85  C   UNL A   1      42.584  37.527  28.073  1.00  0.00     0.020 A 
ATOM     86  C   UNL A   1      43.389  38.222  28.967  1.00  0.00     0.054 A 
BRANCH  86  87
ATOM     87  S   UNL A   1      43.885  39.920  28.586  1.00  0.00     0.124 S 
ATOM     88  O   UNL A   1      42.593  40.586  28.453  1.00  0.00    -0.237 OA
ATOM     89  O   UNL A   1      44.670  40.308  29.757  1.00  0.00    -0.237 OA
ATOM     90  O   UNL A   1      44.651  39.779  27.352  1.00  0.00    -0.744 OA
ENDBRANCH  86  87
ENDBRANCH  60  81
ENDBRANCH  34  35
ENDBRANCH  27  29
ENDBRANCH  26  27
ENDBRANCH  25  26
ENDBRANCH   1  25
TORSDOF 17
ENDMDL
MODEL 3
REMARK VINA RESULT:     -12.3      1.354      2.246
REMARK SMILES Cc1cc(NC(=O)NCc2sccc2C)ccc1C(=O)OCCOC(=O)c1ccc(-c2c3nc(c(-c4ccc(S(=O)(=O)[O-])cc4)c4ccc([nH]4)c(-c4ccc(S(=O)(=O)[O-])cc4)c4nc(c(-c5ccc(S(=O)(=O)[O-])cc5)c5ccc2[nH]5)C=C4)C=C3)cc1
REMARK SMILES IDX 22 1 21 2 19 3 20 4 18 5 1 6 2 7 3 8 4 9 17 10 16 11 5 12
REMARK SMILES IDX 6 13 7 15 8 16 9 18 10 19 11 20 14 21 12 22 13 23 15 24
REMARK SMILES IDX 23 25 24 26 25 27 26 28 27 29 28 30 86 31 29 32 85 33 30 34
REMARK SMILES IDX 31 35 32 36 79 37 33 38 84 39 78 40 80 41 34 42 83 43 77 44
REMARK SMILES IDX 76 45 35 47 65 48 46 49 64 50 47 51 50 52 63 53 81 54 48 55
REMARK SMILES IDX 49 56 62 58 82 59 51 60 36 61 37 62 45 63 38 64 44 65 39 66
REMARK SMILES IDX 40 67 41 68 42 69 43 70 66 71 67 72 75 73 68 74 74 75 69 76
REMARK SMILES IDX 70 77 71 78 72 79 73 80 52 81 53 82 61 83 54 84 60 85 55 86
REMARK SMILES IDX 56 87 57 88 58 89 59 90
REMARK H PARENT 5 14 8 17 80 46 50 57
REMARK Flexibility Score: inf
ROOT
ATOM      1  C   UNL A   1      33.158  28.906  25.683  1.00  0.00     0.275 C 
ENDROOT
BRANCH   1   2
ATOM      2  O   UNL A   1      31.908  28.208  25.741  1.00  0.00    -0.458 OA
BRANCH   2   3
ATOM      3  C   UNL A   1      31.358  27.893  24.552  1.00  0.00     0.338 C 
ATOM      4  O   UNL A   1      30.617  28.588  23.864  1.00  0.00    -0.246 OA
BRANCH   3   5
ATOM      5  C   UNL A   1      31.641  26.479  24.270  1.00  0.00     0.063 A 
ATOM      6  C   UNL A   1      29.809  25.840  25.911  1.00  0.00     0.045 C 
ATOM      7  C   UNL A   1      30.883  25.492  24.920  1.00  0.00    -0.035 A 
ATOM      8  C   UNL A   1      30.982  24.172  24.461  1.00  0.00     0.030 A 
ATOM      9  C   UNL A   1      31.744  23.874  23.326  1.00  0.00     0.043 A 
ATOM     10  C   UNL A   1      32.536  26.139  23.246  1.00  0.00     0.018 A 
ATOM     11  C   UNL A   1      32.615  24.821  22.793  1.00  0.00     0.027 A 
BRANCH   9  12
ATOM     12  N   UNL A   1      31.505  22.709  22.586  1.00  0.00    -0.308 N 
ATOM     13  C   UNL A   1      32.144  21.505  22.618  1.00  0.00     0.319 C 
ATOM     14  H   UNL A   1      30.761  22.768  21.945  1.00  0.00     0.171 HD
ATOM     15  O   UNL A   1      31.908  20.683  21.727  1.00  0.00    -0.248 OA
ATOM     16  N   UNL A   1      32.946  21.120  23.646  1.00  0.00    -0.333 N 
ATOM     17  H   UNL A   1      33.341  20.223  23.557  1.00  0.00     0.165 HD
BRANCH  16  18
ATOM     18  C   UNL A   1      33.305  21.834  24.851  1.00  0.00     0.165 C 
BRANCH  18  19
ATOM     19  C   UNL A   1      34.751  22.162  25.040  1.00  0.00     0.027 A 
ATOM     20  S   UNL A   1      35.849  20.830  24.958  1.00  0.00    -0.147 S 
ATOM     21  C   UNL A   1      35.385  23.326  25.448  1.00  0.00    -0.035 A 
ATOM     22  C   UNL A   1      37.135  21.764  25.554  1.00  0.00     0.065 A 
ATOM     23  C   UNL A   1      36.768  23.073  25.752  1.00  0.00     0.015 A 
ATOM     24  C   UNL A   1      34.754  24.665  25.625  1.00  0.00     0.045 C 
ENDBRANCH  18  19
ENDBRANCH  16  18
ENDBRANCH   9  12
ENDBRANCH   3   5
ENDBRANCH   2   3
ENDBRANCH   1   2
BRANCH   1  25
ATOM     25  C   UNL A   1      33.594  29.298  27.103  1.00  0.00     0.275 C 
BRANCH  25  26
ATOM     26  O   UNL A   1      35.003  29.218  27.422  1.00  0.00    -0.458 OA
BRANCH  26  27
ATOM     27  C   UNL A   1      35.533  30.247  28.136  1.00  0.00     0.338 C 
ATOM     28  O   UNL A   1      34.860  31.122  28.665  1.00  0.00    -0.246 OA
BRANCH  27  29
ATOM     29  C   UNL A   1      36.959  29.921  28.422  1.00  0.00     0.060 A 
ATOM     30  C   UNL A   1      37.264  29.127  29.532  1.00  0.00     0.016 A 
ATOM     31  C   UNL A   1      37.911  30.112  27.414  1.00  0.00     0.016 A 
ATOM     32  C   UNL A   1      38.437  28.368  29.539  1.00  0.00     0.010 A 
ATOM     33  C   UNL A   1      39.048  29.331  27.396  1.00  0.00     0.010 A 
ATOM     34  C   UNL A   1      39.297  28.428  28.436  1.00  0.00    -0.014 A 
BRANCH  34  35
ATOM     35  C   UNL A   1      40.627  27.824  28.428  1.00  0.00     0.031 A 
ATOM     36  C   UNL A   1      40.911  26.424  28.037  1.00  0.00     0.074 A 
ATOM     37  C   UNL A   1      41.602  28.652  28.858  1.00  0.00     0.049 A 
ATOM     38  N   UNL A   1      41.871  25.722  28.547  1.00  0.00    -0.248 NA
ATOM     39  C   UNL A   1      40.133  25.689  27.042  1.00  0.00     0.031 C 
ATOM     40  C   UNL A   1      43.038  28.444  28.895  1.00  0.00     0.029 A 
ATOM     41  N   UNL A   1      41.399  29.814  29.615  1.00  0.00    -0.354 N 
ATOM     42  C   UNL A   1      41.983  24.560  27.812  1.00  0.00     0.074 A 
ATOM     43  C   UNL A   1      40.840  24.555  26.927  1.00  0.00     0.031 C 
ATOM     44  C   UNL A   1      43.540  29.220  29.876  1.00  0.00     0.029 A 
ATOM     45  C   UNL A   1      42.405  29.826  30.572  1.00  0.00     0.049 A 
ATOM     46  H   UNL A   1      40.687  30.484  29.493  1.00  0.00     0.167 HD
ATOM     47  C   UNL A   1      43.104  23.787  27.913  1.00  0.00     0.031 A 
ATOM     48  C   UNL A   1      42.139  29.740  31.906  1.00  0.00     0.031 A 
ATOM     49  C   UNL A   1      44.069  24.377  28.830  1.00  0.00     0.049 A 
ATOM     50  C   UNL A   1      42.893  28.589  32.512  1.00  0.00     0.074 A 
ATOM     51  C   UNL A   1      45.125  25.242  28.597  1.00  0.00     0.029 A 
ATOM     52  N   UNL A   1      43.824  24.396  30.198  1.00  0.00    -0.354 N 
ATOM     53  N   UNL A   1      43.134  27.466  31.892  1.00  0.00    -0.248 NA
ATOM     54  C   UNL A   1      43.461  28.645  33.853  1.00  0.00     0.031 C 
ATOM     55  C   UNL A   1      45.439  25.877  29.820  1.00  0.00     0.029 A 
ATOM     56  C   UNL A   1      44.617  25.353  30.803  1.00  0.00     0.049 A 
ATOM     57  H   UNL A   1      43.182  23.815  30.665  1.00  0.00     0.167 HD
ATOM     58  C   UNL A   1      43.979  26.718  32.669  1.00  0.00     0.074 A 
ATOM     59  C   UNL A   1      44.115  27.474  33.904  1.00  0.00     0.031 C 
ATOM     60  C   UNL A   1      44.582  25.575  32.238  1.00  0.00     0.031 A 
BRANCH  47  61
ATOM     61  C   UNL A   1      43.458  22.698  26.925  1.00  0.00    -0.014 A 
ATOM     62  C   UNL A   1      42.630  21.558  26.820  1.00  0.00     0.010 A 
ATOM     63  C   UNL A   1      44.602  22.719  26.106  1.00  0.00     0.010 A 
ATOM     64  C   UNL A   1      42.977  20.452  26.031  1.00  0.00     0.020 A 
ATOM     65  C   UNL A   1      44.970  21.609  25.321  1.00  0.00     0.020 A 
ATOM     66  C   UNL A   1      44.165  20.471  25.307  1.00  0.00     0.054 A 
BRANCH  66  67
ATOM     67  S   UNL A   1      44.655  18.979  24.397  1.00  0.00     0.124 S 
ATOM     68  O   UNL A   1      46.039  18.789  24.827  1.00  0.00    -0.237 OA
ATOM     69  O   UNL A   1      43.704  17.984  24.882  1.00  0.00    -0.237 OA
ATOM     70  O   UNL A   1      44.496  19.360  22.995  1.00  0.00    -0.744 OA
ENDBRANCH  66  67
ENDBRANCH  47  61
BRANCH  48  71
ATOM     71  C   UNL A   1      40.793  30.195  32.378  1.00  0.00    -0.014 A 
ATOM     72  C   UNL A   1      40.479  31.573  32.328  1.00  0.00     0.010 A 
ATOM     73  C   UNL A   1      39.751  29.289  32.647  1.00  0.00     0.010 A 
ATOM     74  C   UNL A   1      39.159  32.023  32.439  1.00  0.00     0.020 A 
ATOM     75  C   UNL A   1      38.427  29.740  32.782  1.00  0.00     0.020 A 
ATOM     76  C   UNL A   1      38.136  31.100  32.648  1.00  0.00     0.054 A 
BRANCH  76  77
ATOM     77  S   UNL A   1      36.412  31.674  32.559  1.00  0.00     0.124 S 
ATOM     78  O   UNL A   1      36.214  32.254  33.883  1.00  0.00    -0.237 OA
ATOM     79  O   UNL A   1      36.462  32.628  31.452  1.00  0.00    -0.237 OA
ATOM     80  O   UNL A   1      35.669  30.446  32.287  1.00  0.00    -0.744 OA
ENDBRANCH  76  77
ENDBRANCH  48  71
BRANCH  60  81
ATOM     81  C   UNL A   1      45.378  24.654  33.121  1.00  0.00    -0.014 A 
ATOM     82  C   UNL A   1      44.888  23.423  33.581  1.00  0.00     0.010 A 
ATOM     83  C   UNL A   1      46.727  24.967  33.406  1.00  0.00     0.010 A 
ATOM     84  C   UNL A   1      45.683  22.576  34.361  1.00  0.00     0.020 A 
ATOM     85  C   UNL A   1      47.540  24.110  34.146  1.00  0.00     0.020 A 
ATOM     86  C   UNL A   1      47.002  22.929  34.644  1.00  0.00     0.054 A 
BRANCH  86  87
ATOM     87  S   UNL A   1      48.050  21.804  35.597  1.00  0.00     0.124 S 
ATOM     88  O   UNL A   1      47.224  20.602  35.654  1.00  0.00    -0.237 OA
ATOM     89  O   UNL A   1      49.255  21.696  34.775  1.00  0.00    -0.237 OA
ATOM     90  O   UNL A   1      48.232  22.505  36.864  1.00  0.00    -0.744 OA
ENDBRANCH  86  87
ENDBRANCH  60  81
ENDBRANCH  34  35
ENDBRANCH  27  29
ENDBRANCH  26  27
ENDBRANCH  25  26
ENDBRANCH   1  25
TORSDOF 17
ENDMDL
