MODEL 1
REMARK VINA RESULT:     -11.7      0.000      0.000
REMARK SMILES Cc1ccc2c(=O)c3cccc(CC(=O)OCCOC(=O)c4ccc(-c5c6nc(c(-c7ccc(S(=O)(=O)[O-])cc7)c7ccc([nH]7)c(-c7ccc(S(=O)(=O)[O-])cc7)c7nc(c(-c8ccc(S(=O)(=O)[O-])cc8)c8ccc5[nH]8)C=C7)C=C6)cc4)c3oc2c1C
REMARK SMILES IDX 18 1 17 2 16 3 14 4 15 5 13 6 12 7 1 8 2 9 3 10 85 11 4 12
REMARK SMILES IDX 84 13 86 14 5 15 83 16 6 17 82 18 7 19 8 20 9 21 11 22 10 23
REMARK SMILES IDX 19 24 20 25 21 26 22 27 23 28 81 29 24 30 80 31 25 32 26 33
REMARK SMILES IDX 27 34 74 35 28 36 79 37 73 38 75 39 29 40 78 41 72 42 71 43
REMARK SMILES IDX 30 45 60 46 41 47 59 48 42 49 45 50 58 51 76 52 43 53 44 54
REMARK SMILES IDX 57 56 77 57 46 58 31 59 32 60 40 61 33 62 39 63 34 64 35 65
REMARK SMILES IDX 36 66 37 67 38 68 61 69 62 70 70 71 63 72 69 73 64 74 65 75
REMARK SMILES IDX 66 76 67 77 68 78 47 79 48 80 56 81 49 82 55 83 50 84 51 85
REMARK SMILES IDX 52 86 53 87 54 88
REMARK H PARENT 75 44 45 55
REMARK Flexibility Score: inf
ROOT
ATOM      1  C   UNL A   1      36.367  22.482  25.580  1.00  0.00     0.275 C 
ENDROOT
BRANCH   1   2
ATOM      2  C   UNL A   1      35.175  23.041  26.363  1.00  0.00     0.274 C 
BRANCH   2   3
ATOM      3  O   UNL A   1      34.175  22.031  26.616  1.00  0.00    -0.462 OA
BRANCH   3   4
ATOM      4  C   UNL A   1      32.976  22.482  27.067  1.00  0.00     0.310 C 
ATOM      5  O   UNL A   1      32.787  22.924  28.197  1.00  0.00    -0.252 OA
BRANCH   4   6
ATOM      6  C   UNL A   1      31.886  22.509  26.021  1.00  0.00     0.162 C 
BRANCH   6   7
ATOM      7  C   UNL A   1      32.283  22.774  24.591  1.00  0.00     0.007 A 
ATOM      8  C   UNL A   1      33.680  29.762  26.267  1.00  0.00     0.045 C 
ATOM      9  C   UNL A   1      33.492  28.658  25.256  1.00  0.00    -0.044 A 
ATOM     10  C   UNL A   1      33.879  28.912  23.932  1.00  0.00     0.005 A 
ATOM     11  C   UNL A   1      32.926  27.403  25.583  1.00  0.00    -0.005 A 
ATOM     12  C   UNL A   1      33.752  27.928  22.955  1.00  0.00     0.016 A 
ATOM     13  C   UNL A   1      32.884  26.379  24.612  1.00  0.00     0.141 A 
ATOM     14  C   UNL A   1      32.371  27.182  26.959  1.00  0.00     0.049 C 
ATOM     15  C   UNL A   1      33.276  26.664  23.305  1.00  0.00     0.066 A 
ATOM     16  O   UNL A   1      32.461  25.126  25.004  1.00  0.00    -0.455 OA
ATOM     17  C   UNL A   1      33.187  25.606  22.292  1.00  0.00     0.200 A 
ATOM     18  C   UNL A   1      32.554  24.074  24.117  1.00  0.00     0.142 A 
ATOM     19  O   UNL A   1      33.405  25.826  21.107  1.00  0.00    -0.288 OA
ATOM     20  C   UNL A   1      32.860  24.257  22.770  1.00  0.00     0.066 A 
ATOM     21  C   UNL A   1      32.875  23.178  21.880  1.00  0.00     0.016 A 
ATOM     22  C   UNL A   1      32.324  21.691  23.693  1.00  0.00     0.008 A 
ATOM     23  C   UNL A   1      32.608  21.894  22.344  1.00  0.00     0.001 A 
ENDBRANCH   6   7
ENDBRANCH   4   6
ENDBRANCH   3   4
ENDBRANCH   2   3
ENDBRANCH   1   2
BRANCH   1  24
ATOM     24  O   UNL A   1      37.445  23.434  25.485  1.00  0.00    -0.458 OA
BRANCH  24  25
ATOM     25  C   UNL A   1      38.568  23.034  26.118  1.00  0.00     0.338 C 
ATOM     26  O   UNL A   1      39.038  21.903  26.115  1.00  0.00    -0.246 OA
BRANCH  25  27
ATOM     27  C   UNL A   1      39.237  24.141  26.812  1.00  0.00     0.060 A 
ATOM     28  C   UNL A   1      39.985  25.061  26.074  1.00  0.00     0.016 A 
ATOM     29  C   UNL A   1      38.888  24.412  28.137  1.00  0.00     0.016 A 
ATOM     30  C   UNL A   1      40.367  26.268  26.667  1.00  0.00     0.010 A 
ATOM     31  C   UNL A   1      39.222  25.637  28.708  1.00  0.00     0.010 A 
ATOM     32  C   UNL A   1      39.970  26.572  27.979  1.00  0.00    -0.014 A 
BRANCH  32  33
ATOM     33  C   UNL A   1      40.400  27.828  28.633  1.00  0.00     0.031 A 
ATOM     34  C   UNL A   1      41.807  27.930  29.139  1.00  0.00     0.074 A 
ATOM     35  C   UNL A   1      39.546  28.857  28.791  1.00  0.00     0.049 A 
ATOM     36  N   UNL A   1      42.424  28.968  29.637  1.00  0.00    -0.248 NA
ATOM     37  C   UNL A   1      42.625  26.709  29.074  1.00  0.00     0.031 C 
ATOM     38  C   UNL A   1      38.144  28.858  28.380  1.00  0.00     0.029 A 
ATOM     39  N   UNL A   1      39.733  30.101  29.341  1.00  0.00    -0.354 N 
ATOM     40  C   UNL A   1      43.718  28.540  29.890  1.00  0.00     0.074 A 
ATOM     41  C   UNL A   1      43.775  27.129  29.578  1.00  0.00     0.031 C 
ATOM     42  C   UNL A   1      37.595  30.046  28.689  1.00  0.00     0.029 A 
ATOM     43  C   UNL A   1      38.609  30.894  29.311  1.00  0.00     0.049 A 
ATOM     44  H   UNL A   1      40.590  30.398  29.723  1.00  0.00     0.167 HD
ATOM     45  C   UNL A   1      44.780  29.268  30.301  1.00  0.00     0.031 A 
ATOM     46  C   UNL A   1      38.423  32.167  29.717  1.00  0.00     0.031 A 
ATOM     47  C   UNL A   1      44.708  30.655  30.660  1.00  0.00     0.049 A 
ATOM     48  C   UNL A   1      39.595  32.941  30.257  1.00  0.00     0.074 A 
ATOM     49  C   UNL A   1      45.727  31.483  31.091  1.00  0.00     0.029 A 
ATOM     50  N   UNL A   1      43.547  31.411  30.648  1.00  0.00    -0.354 N 
ATOM     51  N   UNL A   1      40.838  32.548  30.401  1.00  0.00    -0.248 NA
ATOM     52  C   UNL A   1      39.350  34.330  30.668  1.00  0.00     0.031 C 
ATOM     53  C   UNL A   1      45.171  32.732  31.383  1.00  0.00     0.029 A 
ATOM     54  C   UNL A   1      43.816  32.693  31.088  1.00  0.00     0.049 A 
ATOM     55  H   UNL A   1      42.661  31.083  30.368  1.00  0.00     0.167 HD
ATOM     56  C   UNL A   1      41.529  33.646  30.900  1.00  0.00     0.074 A 
ATOM     57  C   UNL A   1      40.567  34.722  31.031  1.00  0.00     0.031 C 
ATOM     58  C   UNL A   1      42.843  33.751  31.215  1.00  0.00     0.031 A 
BRANCH  45  59
ATOM     59  C   UNL A   1      46.107  28.568  30.343  1.00  0.00    -0.014 A 
ATOM     60  C   UNL A   1      46.917  28.496  29.199  1.00  0.00     0.010 A 
ATOM     61  C   UNL A   1      46.546  27.969  31.540  1.00  0.00     0.010 A 
ATOM     62  C   UNL A   1      48.151  27.843  29.252  1.00  0.00     0.020 A 
ATOM     63  C   UNL A   1      47.786  27.333  31.601  1.00  0.00     0.020 A 
ATOM     64  C   UNL A   1      48.578  27.266  30.452  1.00  0.00     0.054 A 
BRANCH  64  65
ATOM     65  S   UNL A   1      50.206  26.469  30.524  1.00  0.00     0.124 S 
ATOM     66  O   UNL A   1      50.635  26.521  29.129  1.00  0.00    -0.237 OA
ATOM     67  O   UNL A   1      50.946  27.328  31.446  1.00  0.00    -0.237 OA
ATOM     68  O   UNL A   1      49.907  25.134  31.039  1.00  0.00    -0.744 OA
ENDBRANCH  64  65
ENDBRANCH  45  59
BRANCH  46  69
ATOM     69  C   UNL A   1      37.084  32.794  29.555  1.00  0.00    -0.014 A 
ATOM     70  C   UNL A   1      36.601  33.128  28.276  1.00  0.00     0.010 A 
ATOM     71  C   UNL A   1      36.319  33.135  30.684  1.00  0.00     0.010 A 
ATOM     72  C   UNL A   1      35.398  33.826  28.131  1.00  0.00     0.020 A 
ATOM     73  C   UNL A   1      35.107  33.819  30.542  1.00  0.00     0.020 A 
ATOM     74  C   UNL A   1      34.668  34.184  29.267  1.00  0.00     0.054 A 
BRANCH  74  75
ATOM     75  S   UNL A   1      33.138  35.139  29.064  1.00  0.00     0.124 S 
ATOM     76  O   UNL A   1      33.652  36.446  28.666  1.00  0.00    -0.237 OA
ATOM     77  O   UNL A   1      32.430  34.396  28.024  1.00  0.00    -0.237 OA
ATOM     78  O   UNL A   1      32.525  35.085  30.389  1.00  0.00    -0.744 OA
ENDBRANCH  74  75
ENDBRANCH  46  69
BRANCH  58  79
ATOM     79  C   UNL A   1      43.348  35.064  31.745  1.00  0.00    -0.014 A 
ATOM     80  C   UNL A   1      43.170  35.376  33.106  1.00  0.00     0.010 A 
ATOM     81  C   UNL A   1      43.825  36.050  30.865  1.00  0.00     0.010 A 
ATOM     82  C   UNL A   1      43.413  36.671  33.569  1.00  0.00     0.020 A 
ATOM     83  C   UNL A   1      44.088  37.341  31.331  1.00  0.00     0.020 A 
ATOM     84  C   UNL A   1      43.849  37.650  32.673  1.00  0.00     0.054 A 
BRANCH  84  85
ATOM     85  S   UNL A   1      44.083  39.347  33.272  1.00  0.00     0.124 S 
ATOM     86  O   UNL A   1      44.804  39.966  32.164  1.00  0.00    -0.237 OA
ATOM     87  O   UNL A   1      42.713  39.813  33.471  1.00  0.00    -0.237 OA
ATOM     88  O   UNL A   1      44.857  39.170  34.500  1.00  0.00    -0.744 OA
ENDBRANCH  84  85
ENDBRANCH  58  79
ENDBRANCH  32  33
ENDBRANCH  25  27
ENDBRANCH  24  25
ENDBRANCH   1  24
TORSDOF 15
ENDMDL
MODEL 2
REMARK VINA RESULT:     -11.7      2.848      9.517
REMARK SMILES Cc1ccc2c(=O)c3cccc(CC(=O)OCCOC(=O)c4ccc(-c5c6nc(c(-c7ccc(S(=O)(=O)[O-])cc7)c7ccc([nH]7)c(-c7ccc(S(=O)(=O)[O-])cc7)c7nc(c(-c8ccc(S(=O)(=O)[O-])cc8)c8ccc5[nH]8)C=C7)C=C6)cc4)c3oc2c1C
REMARK SMILES IDX 18 1 17 2 16 3 14 4 15 5 13 6 12 7 1 8 2 9 3 10 85 11 4 12
REMARK SMILES IDX 84 13 86 14 5 15 83 16 6 17 82 18 7 19 8 20 9 21 11 22 10 23
REMARK SMILES IDX 19 24 20 25 21 26 22 27 23 28 81 29 24 30 80 31 25 32 26 33
REMARK SMILES IDX 27 34 74 35 28 36 79 37 73 38 75 39 29 40 78 41 72 42 71 43
REMARK SMILES IDX 30 45 60 46 41 47 59 48 42 49 45 50 58 51 76 52 43 53 44 54
REMARK SMILES IDX 57 56 77 57 46 58 31 59 32 60 40 61 33 62 39 63 34 64 35 65
REMARK SMILES IDX 36 66 37 67 38 68 61 69 62 70 70 71 63 72 69 73 64 74 65 75
REMARK SMILES IDX 66 76 67 77 68 78 47 79 48 80 56 81 49 82 55 83 50 84 51 85
REMARK SMILES IDX 52 86 53 87 54 88
REMARK H PARENT 75 44 45 55
REMARK Flexibility Score: inf
ROOT
ATOM      1  C   UNL A   1      33.099  29.197  25.927  1.00  0.00     0.275 C 
ENDROOT
BRANCH   1   2
ATOM      2  C   UNL A   1      33.819  28.656  24.688  1.00  0.00     0.274 C 
BRANCH   2   3
ATOM      3  O   UNL A   1      33.010  28.778  23.498  1.00  0.00    -0.462 OA
BRANCH   3   4
ATOM      4  C   UNL A   1      33.316  27.929  22.483  1.00  0.00     0.310 C 
ATOM      5  O   UNL A   1      34.298  28.051  21.756  1.00  0.00    -0.252 OA
BRANCH   4   6
ATOM      6  C   UNL A   1      32.403  26.729  22.375  1.00  0.00     0.162 C 
BRANCH   6   7
ATOM      7  C   UNL A   1      31.608  26.334  23.593  1.00  0.00     0.007 A 
ATOM      8  C   UNL A   1      36.964  21.774  25.619  1.00  0.00     0.045 C 
ATOM      9  C   UNL A   1      35.562  22.312  25.763  1.00  0.00    -0.044 A 
ATOM     10  C   UNL A   1      34.838  21.948  26.907  1.00  0.00     0.005 A 
ATOM     11  C   UNL A   1      34.951  23.138  24.790  1.00  0.00    -0.005 A 
ATOM     12  C   UNL A   1      33.547  22.428  27.111  1.00  0.00     0.016 A 
ATOM     13  C   UNL A   1      33.679  23.695  25.045  1.00  0.00     0.141 A 
ATOM     14  C   UNL A   1      35.663  23.403  23.497  1.00  0.00     0.049 C 
ATOM     15  C   UNL A   1      32.985  23.313  26.191  1.00  0.00     0.066 A 
ATOM     16  O   UNL A   1      33.176  24.610  24.142  1.00  0.00    -0.455 OA
ATOM     17  C   UNL A   1      31.645  23.864  26.425  1.00  0.00     0.200 A 
ATOM     18  C   UNL A   1      32.009  25.282  24.441  1.00  0.00     0.142 A 
ATOM     19  O   UNL A   1      30.941  23.479  27.350  1.00  0.00    -0.288 OA
ATOM     20  C   UNL A   1      31.199  24.928  25.518  1.00  0.00     0.066 A 
ATOM     21  C   UNL A   1      29.984  25.582  25.752  1.00  0.00     0.016 A 
ATOM     22  C   UNL A   1      30.396  27.001  23.850  1.00  0.00     0.008 A 
ATOM     23  C   UNL A   1      29.584  26.620  24.917  1.00  0.00     0.001 A 
ENDBRANCH   6   7
ENDBRANCH   4   6
ENDBRANCH   3   4
ENDBRANCH   2   3
ENDBRANCH   1   2
BRANCH   1  24
ATOM     24  O   UNL A   1      33.893  29.050  27.121  1.00  0.00    -0.458 OA
BRANCH  24  25
ATOM     25  C   UNL A   1      34.433  30.210  27.548  1.00  0.00     0.338 C 
ATOM     26  O   UNL A   1      33.880  31.302  27.573  1.00  0.00    -0.246 OA
BRANCH  25  27
ATOM     27  C   UNL A   1      35.802  30.032  28.049  1.00  0.00     0.060 A 
ATOM     28  C   UNL A   1      36.001  29.541  29.342  1.00  0.00     0.016 A 
ATOM     29  C   UNL A   1      36.862  30.087  27.142  1.00  0.00     0.016 A 
ATOM     30  C   UNL A   1      37.269  29.086  29.715  1.00  0.00     0.010 A 
ATOM     31  C   UNL A   1      38.110  29.585  27.497  1.00  0.00     0.010 A 
ATOM     32  C   UNL A   1      38.324  29.085  28.789  1.00  0.00    -0.014 A 
BRANCH  32  33
ATOM     33  C   UNL A   1      39.681  28.644  29.183  1.00  0.00     0.031 A 
ATOM     34  C   UNL A   1      40.531  29.570  29.999  1.00  0.00     0.074 A 
ATOM     35  C   UNL A   1      40.159  27.443  28.802  1.00  0.00     0.049 A 
ATOM     36  N   UNL A   1      41.695  29.344  30.545  1.00  0.00    -0.248 NA
ATOM     37  C   UNL A   1      40.000  30.922  30.234  1.00  0.00     0.031 C 
ATOM     38  C   UNL A   1      39.444  26.477  27.972  1.00  0.00     0.029 A 
ATOM     39  N   UNL A   1      41.360  26.832  29.065  1.00  0.00    -0.354 N 
ATOM     40  C   UNL A   1      42.009  30.505  31.236  1.00  0.00     0.074 A 
ATOM     41  C   UNL A   1      40.960  31.464  30.967  1.00  0.00     0.031 C 
ATOM     42  C   UNL A   1      40.217  25.391  27.793  1.00  0.00     0.029 A 
ATOM     43  C   UNL A   1      41.479  25.581  28.505  1.00  0.00     0.049 A 
ATOM     44  H   UNL A   1      42.071  27.250  29.603  1.00  0.00     0.167 HD
ATOM     45  C   UNL A   1      43.054  30.738  32.060  1.00  0.00     0.031 A 
ATOM     46  C   UNL A   1      42.480  24.680  28.577  1.00  0.00     0.031 A 
ATOM     47  C   UNL A   1      44.121  29.804  32.283  1.00  0.00     0.049 A 
ATOM     48  C   UNL A   1      43.682  24.988  29.428  1.00  0.00     0.074 A 
ATOM     49  C   UNL A   1      45.228  29.945  33.098  1.00  0.00     0.029 A 
ATOM     50  N   UNL A   1      44.220  28.564  31.671  1.00  0.00    -0.354 N 
ATOM     51  N   UNL A   1      43.919  26.055  30.152  1.00  0.00    -0.248 NA
ATOM     52  C   UNL A   1      44.739  23.969  29.491  1.00  0.00     0.031 C 
ATOM     53  C   UNL A   1      46.021  28.804  32.944  1.00  0.00     0.029 A 
ATOM     54  C   UNL A   1      45.384  27.935  32.071  1.00  0.00     0.049 A 
ATOM     55  H   UNL A   1      43.559  28.187  31.045  1.00  0.00     0.167 HD
ATOM     56  C   UNL A   1      45.141  25.830  30.774  1.00  0.00     0.074 A 
ATOM     57  C   UNL A   1      45.595  24.522  30.344  1.00  0.00     0.031 C 
ATOM     58  C   UNL A   1      45.820  26.633  31.629  1.00  0.00     0.031 A 
BRANCH  45  59
ATOM     59  C   UNL A   1      43.058  32.044  32.799  1.00  0.00    -0.014 A 
ATOM     60  C   UNL A   1      42.393  32.175  34.028  1.00  0.00     0.010 A 
ATOM     61  C   UNL A   1      43.729  33.155  32.253  1.00  0.00     0.010 A 
ATOM     62  C   UNL A   1      42.405  33.397  34.707  1.00  0.00     0.020 A 
ATOM     63  C   UNL A   1      43.760  34.371  32.938  1.00  0.00     0.020 A 
ATOM     64  C   UNL A   1      43.089  34.486  34.158  1.00  0.00     0.054 A 
BRANCH  64  65
ATOM     65  S   UNL A   1      43.145  36.050  35.074  1.00  0.00     0.124 S 
ATOM     66  O   UNL A   1      42.854  35.619  36.438  1.00  0.00    -0.237 OA
ATOM     67  O   UNL A   1      44.510  36.516  34.836  1.00  0.00    -0.237 OA
ATOM     68  O   UNL A   1      42.105  36.855  34.434  1.00  0.00    -0.744 OA
ENDBRANCH  64  65
ENDBRANCH  45  59
BRANCH  46  69
ATOM     69  C   UNL A   1      42.339  23.378  27.870  1.00  0.00    -0.014 A 
ATOM     70  C   UNL A   1      41.507  22.370  28.390  1.00  0.00     0.010 A 
ATOM     71  C   UNL A   1      43.099  23.111  26.718  1.00  0.00     0.010 A 
ATOM     72  C   UNL A   1      41.468  21.105  27.794  1.00  0.00     0.020 A 
ATOM     73  C   UNL A   1      43.050  21.852  26.110  1.00  0.00     0.020 A 
ATOM     74  C   UNL A   1      42.254  20.849  26.669  1.00  0.00     0.054 A 
BRANCH  74  75
ATOM     75  S   UNL A   1      42.234  19.186  25.942  1.00  0.00     0.124 S 
ATOM     76  O   UNL A   1      43.042  19.375  24.740  1.00  0.00    -0.237 OA
ATOM     77  O   UNL A   1      42.843  18.369  26.989  1.00  0.00    -0.237 OA
ATOM     78  O   UNL A   1      40.814  18.934  25.708  1.00  0.00    -0.744 OA
ENDBRANCH  74  75
ENDBRANCH  46  69
BRANCH  58  79
ATOM     79  C   UNL A   1      47.139  26.151  32.167  1.00  0.00    -0.014 A 
ATOM     80  C   UNL A   1      48.306  26.326  31.400  1.00  0.00     0.010 A 
ATOM     81  C   UNL A   1      47.188  25.371  33.334  1.00  0.00     0.010 A 
ATOM     82  C   UNL A   1      49.491  25.683  31.764  1.00  0.00     0.020 A 
ATOM     83  C   UNL A   1      48.379  24.745  33.712  1.00  0.00     0.020 A 
ATOM     84  C   UNL A   1      49.513  24.879  32.906  1.00  0.00     0.054 A 
BRANCH  84  85
ATOM     85  S   UNL A   1      51.037  23.987  33.323  1.00  0.00     0.124 S 
ATOM     86  O   UNL A   1      51.497  24.704  34.508  1.00  0.00    -0.237 OA
ATOM     87  O   UNL A   1      50.563  22.625  33.555  1.00  0.00    -0.237 OA
ATOM     88  O   UNL A   1      51.866  24.155  32.130  1.00  0.00    -0.744 OA
ENDBRANCH  84  85
ENDBRANCH  58  79
ENDBRANCH  32  33
ENDBRANCH  25  27
ENDBRANCH  24  25
ENDBRANCH   1  24
TORSDOF 15
ENDMDL
MODEL 3
REMARK VINA RESULT:     -11.4      3.235      6.420
REMARK SMILES Cc1ccc2c(=O)c3cccc(CC(=O)OCCOC(=O)c4ccc(-c5c6nc(c(-c7ccc(S(=O)(=O)[O-])cc7)c7ccc([nH]7)c(-c7ccc(S(=O)(=O)[O-])cc7)c7nc(c(-c8ccc(S(=O)(=O)[O-])cc8)c8ccc5[nH]8)C=C7)C=C6)cc4)c3oc2c1C
REMARK SMILES IDX 18 1 17 2 16 3 14 4 15 5 13 6 12 7 1 8 2 9 3 10 85 11 4 12
REMARK SMILES IDX 84 13 86 14 5 15 83 16 6 17 82 18 7 19 8 20 9 21 11 22 10 23
REMARK SMILES IDX 19 24 20 25 21 26 22 27 23 28 81 29 24 30 80 31 25 32 26 33
REMARK SMILES IDX 27 34 74 35 28 36 79 37 73 38 75 39 29 40 78 41 72 42 71 43
REMARK SMILES IDX 30 45 60 46 41 47 59 48 42 49 45 50 58 51 76 52 43 53 44 54
REMARK SMILES IDX 57 56 77 57 46 58 31 59 32 60 40 61 33 62 39 63 34 64 35 65
REMARK SMILES IDX 36 66 37 67 38 68 61 69 62 70 70 71 63 72 69 73 64 74 65 75
REMARK SMILES IDX 66 76 67 77 68 78 47 79 48 80 56 81 49 82 55 83 50 84 51 85
REMARK SMILES IDX 52 86 53 87 54 88
REMARK H PARENT 75 44 45 55
REMARK Flexibility Score: inf
ROOT
ATOM      1  C   UNL A   1      40.504  21.690  25.880  1.00  0.00     0.275 C 
ENDROOT
BRANCH   1   2
ATOM      2  C   UNL A   1      41.671  21.652  26.871  1.00  0.00     0.274 C 
BRANCH   2   3
ATOM      3  O   UNL A   1      42.521  22.812  26.748  1.00  0.00    -0.462 OA
BRANCH   3   4
ATOM      4  C   UNL A   1      43.008  23.062  25.505  1.00  0.00     0.310 C 
ATOM      5  O   UNL A   1      43.039  22.233  24.598  1.00  0.00    -0.252 OA
BRANCH   4   6
ATOM      6  C   UNL A   1      43.420  24.497  25.271  1.00  0.00     0.162 C 
BRANCH   6   7
ATOM      7  C   UNL A   1      44.889  24.796  25.124  1.00  0.00     0.007 A 
ATOM      8  C   UNL A   1      43.769  31.574  27.651  1.00  0.00     0.045 C 
ATOM      9  C   UNL A   1      44.649  30.536  27.001  1.00  0.00    -0.044 A 
ATOM     10  C   UNL A   1      46.017  30.820  26.884  1.00  0.00     0.005 A 
ATOM     11  C   UNL A   1      44.150  29.313  26.493  1.00  0.00    -0.005 A 
ATOM     12  C   UNL A   1      46.887  29.894  26.313  1.00  0.00     0.016 A 
ATOM     13  C   UNL A   1      45.048  28.341  26.001  1.00  0.00     0.141 A 
ATOM     14  C   UNL A   1      42.669  29.072  26.479  1.00  0.00     0.049 C 
ATOM     15  C   UNL A   1      46.401  28.655  25.896  1.00  0.00     0.066 A 
ATOM     16  O   UNL A   1      44.542  27.106  25.648  1.00  0.00    -0.455 OA
ATOM     17  C   UNL A   1      47.320  27.654  25.342  1.00  0.00     0.200 A 
ATOM     18  C   UNL A   1      45.412  26.092  25.309  1.00  0.00     0.142 A 
ATOM     19  O   UNL A   1      48.496  27.911  25.117  1.00  0.00    -0.288 OA
ATOM     20  C   UNL A   1      46.773  26.313  25.101  1.00  0.00     0.066 A 
ATOM     21  C   UNL A   1      47.617  25.278  24.687  1.00  0.00     0.016 A 
ATOM     22  C   UNL A   1      45.751  23.755  24.731  1.00  0.00     0.008 A 
ATOM     23  C   UNL A   1      47.105  23.997  24.503  1.00  0.00     0.001 A 
ENDBRANCH   6   7
ENDBRANCH   4   6
ENDBRANCH   3   4
ENDBRANCH   2   3
ENDBRANCH   1   2
BRANCH   1  24
ATOM     24  O   UNL A   1      39.243  21.920  26.538  1.00  0.00    -0.458 OA
BRANCH  24  25
ATOM     25  C   UNL A   1      38.693  23.115  26.236  1.00  0.00     0.338 C 
ATOM     26  O   UNL A   1      37.739  23.307  25.494  1.00  0.00    -0.246 OA
BRANCH  25  27
ATOM     27  C   UNL A   1      39.346  24.221  26.949  1.00  0.00     0.060 A 
ATOM     28  C   UNL A   1      40.026  25.199  26.221  1.00  0.00     0.016 A 
ATOM     29  C   UNL A   1      39.042  24.424  28.296  1.00  0.00     0.016 A 
ATOM     30  C   UNL A   1      40.384  26.397  26.847  1.00  0.00     0.010 A 
ATOM     31  C   UNL A   1      39.351  25.637  28.905  1.00  0.00     0.010 A 
ATOM     32  C   UNL A   1      40.029  26.631  28.186  1.00  0.00    -0.014 A 
BRANCH  32  33
ATOM     33  C   UNL A   1      40.437  27.877  28.874  1.00  0.00     0.031 A 
ATOM     34  C   UNL A   1      41.825  27.971  29.429  1.00  0.00     0.074 A 
ATOM     35  C   UNL A   1      39.576  28.902  29.021  1.00  0.00     0.049 A 
ATOM     36  N   UNL A   1      42.424  29.001  29.963  1.00  0.00    -0.248 NA
ATOM     37  C   UNL A   1      42.647  26.752  29.372  1.00  0.00     0.031 C 
ATOM     38  C   UNL A   1      38.189  28.909  28.563  1.00  0.00     0.029 A 
ATOM     39  N   UNL A   1      39.743  30.137  29.597  1.00  0.00    -0.354 N 
ATOM     40  C   UNL A   1      43.710  28.570  30.253  1.00  0.00     0.074 A 
ATOM     41  C   UNL A   1      43.779  27.164  29.920  1.00  0.00     0.031 C 
ATOM     42  C   UNL A   1      37.628  30.092  28.872  1.00  0.00     0.029 A 
ATOM     43  C   UNL A   1      38.620  30.930  29.542  1.00  0.00     0.049 A 
ATOM     44  H   UNL A   1      40.587  30.428  30.012  1.00  0.00     0.167 HD
ATOM     45  C   UNL A   1      44.757  29.292  30.711  1.00  0.00     0.031 A 
ATOM     46  C   UNL A   1      38.420  32.196  29.961  1.00  0.00     0.031 A 
ATOM     47  C   UNL A   1      44.671  30.673  31.090  1.00  0.00     0.049 A 
ATOM     48  C   UNL A   1      39.571  32.962  30.553  1.00  0.00     0.074 A 
ATOM     49  C   UNL A   1      45.674  31.495  31.568  1.00  0.00     0.029 A 
ATOM     50  N   UNL A   1      43.510  31.429  31.052  1.00  0.00    -0.354 N 
ATOM     51  N   UNL A   1      40.810  32.568  30.732  1.00  0.00    -0.248 NA
ATOM     52  C   UNL A   1      39.311  34.344  30.978  1.00  0.00     0.031 C 
ATOM     53  C   UNL A   1      45.107  32.739  31.861  1.00  0.00     0.029 A 
ATOM     54  C   UNL A   1      43.763  32.703  31.521  1.00  0.00     0.049 A 
ATOM     55  H   UNL A   1      42.634  31.104  30.736  1.00  0.00     0.167 HD
ATOM     56  C   UNL A   1      41.482  33.658  31.272  1.00  0.00     0.074 A 
ATOM     57  C   UNL A   1      40.515  34.731  31.387  1.00  0.00     0.031 C 
ATOM     58  C   UNL A   1      42.785  33.758  31.632  1.00  0.00     0.031 A 
BRANCH  45  59
ATOM     59  C   UNL A   1      46.082  28.592  30.786  1.00  0.00    -0.014 A 
ATOM     60  C   UNL A   1      46.482  27.937  31.961  1.00  0.00     0.010 A 
ATOM     61  C   UNL A   1      46.941  28.595  29.670  1.00  0.00     0.010 A 
ATOM     62  C   UNL A   1      47.718  27.287  32.018  1.00  0.00     0.020 A 
ATOM     63  C   UNL A   1      48.166  27.930  29.716  1.00  0.00     0.020 A 
ATOM     64  C   UNL A   1      48.552  27.288  30.895  1.00  0.00     0.054 A 
BRANCH  64  65
ATOM     65  S   UNL A   1      50.129  26.394  30.962  1.00  0.00     0.124 S 
ATOM     66  O   UNL A   1      50.286  26.153  32.393  1.00  0.00    -0.237 OA
ATOM     67  O   UNL A   1      49.865  25.211  30.146  1.00  0.00    -0.237 OA
ATOM     68  O   UNL A   1      51.078  27.340  30.376  1.00  0.00    -0.744 OA
ENDBRANCH  64  65
ENDBRANCH  45  59
BRANCH  46  69
ATOM     69  C   UNL A   1      37.086  32.825  29.765  1.00  0.00    -0.014 A 
ATOM     70  C   UNL A   1      36.771  33.469  28.554  1.00  0.00     0.010 A 
ATOM     71  C   UNL A   1      36.154  32.854  30.817  1.00  0.00     0.010 A 
ATOM     72  C   UNL A   1      35.565  34.164  28.412  1.00  0.00     0.020 A 
ATOM     73  C   UNL A   1      34.940  33.535  30.673  1.00  0.00     0.020 A 
ATOM     74  C   UNL A   1      34.666  34.208  29.480  1.00  0.00     0.054 A 
BRANCH  74  75
ATOM     75  S   UNL A   1      33.132  35.162  29.298  1.00  0.00     0.124 S 
ATOM     76  O   UNL A   1      32.406  34.372  28.307  1.00  0.00    -0.237 OA
ATOM     77  O   UNL A   1      32.577  35.141  30.649  1.00  0.00    -0.237 OA
ATOM     78  O   UNL A   1      33.596  36.468  28.839  1.00  0.00    -0.744 OA
ENDBRANCH  74  75
ENDBRANCH  46  69
BRANCH  58  79
ATOM     79  C   UNL A   1      43.271  35.063  32.199  1.00  0.00    -0.014 A 
ATOM     80  C   UNL A   1      42.951  35.402  33.527  1.00  0.00     0.010 A 
ATOM     81  C   UNL A   1      43.876  36.019  31.368  1.00  0.00     0.010 A 
ATOM     82  C   UNL A   1      43.183  36.696  33.999  1.00  0.00     0.020 A 
ATOM     83  C   UNL A   1      44.128  37.308  31.844  1.00  0.00     0.020 A 
ATOM     84  C   UNL A   1      43.750  37.646  33.147  1.00  0.00     0.054 A 
BRANCH  84  85
ATOM     85  S   UNL A   1      43.971  39.344  33.747  1.00  0.00     0.124 S 
ATOM     86  O   UNL A   1      44.439  39.127  35.113  1.00  0.00    -0.237 OA
ATOM     87  O   UNL A   1      44.962  39.890  32.822  1.00  0.00    -0.237 OA
ATOM     88  O   UNL A   1      42.634  39.923  33.629  1.00  0.00    -0.744 OA
ENDBRANCH  84  85
ENDBRANCH  58  79
ENDBRANCH  32  33
ENDBRANCH  25  27
ENDBRANCH  24  25
ENDBRANCH   1  24
TORSDOF 15
ENDMDL
