MODEL 1
REMARK VINA RESULT:     -10.5      0.000      0.000
REMARK SMILES O=C(CNC(=S)N(Cc1ccccc1Cl)C1CCCCC1)OCCOC(=O)c1ccc(-c2c3nc(c(-c4ccc(S(=O)(=O)[O-])cc4)c4ccc([nH]4)c(-c4ccc(S(=O)(=O)[O-])cc4)c4nc(c(-c5ccc(S(=O)(=O)[O-])cc5)c5ccc2[nH]5)C=C4)C=C3)cc1
REMARK SMILES IDX 23 1 22 2 2 3 1 4 3 5 4 6 5 8 6 9 7 10 8 11 9 12 10 13 14 14
REMARK SMILES IDX 11 15 13 16 15 17 12 18 16 19 17 20 21 21 18 22 20 23 19 24
REMARK SMILES IDX 24 25 25 26 26 27 27 28 28 29 29 30 87 31 30 32 86 33 31 34
REMARK SMILES IDX 32 35 33 36 80 37 34 38 85 39 79 40 81 41 35 42 84 43 78 44
REMARK SMILES IDX 77 45 36 47 66 48 47 49 65 50 48 51 51 52 64 53 82 54 49 55
REMARK SMILES IDX 50 56 63 58 83 59 52 60 37 61 38 62 46 63 39 64 45 65 40 66
REMARK SMILES IDX 41 67 42 68 43 69 44 70 67 71 68 72 76 73 69 74 75 75 70 76
REMARK SMILES IDX 71 77 72 78 73 79 74 80 53 81 54 82 62 83 55 84 61 85 56 86
REMARK SMILES IDX 57 87 58 88 59 89 60 90
REMARK H PARENT 4 7 81 46 51 57
REMARK Flexibility Score: inf
ROOT
ATOM      1  C   UNL A   1      34.011  32.197  28.227  1.00  0.00     0.274 C 
ENDROOT
BRANCH   1   2
ATOM      2  O   UNL A   1      34.464  31.132  27.371  1.00  0.00    -0.461 OA
BRANCH   2   3
ATOM      3  C   UNL A   1      33.624  30.132  27.015  1.00  0.00     0.325 C 
ATOM      4  O   UNL A   1      33.934  28.963  27.238  1.00  0.00    -0.250 OA
BRANCH   3   5
ATOM      5  C   UNL A   1      32.293  30.483  26.340  1.00  0.00     0.238 C 
BRANCH   5   6
ATOM      6  N   UNL A   1      31.664  29.453  25.508  1.00  0.00    -0.352 N 
ATOM      7  H   UNL A   1      31.313  28.753  26.104  1.00  0.00     0.163 HD
BRANCH   6   8
ATOM      8  C   UNL A   1      31.380  29.097  24.241  1.00  0.00     0.169 C 
ATOM      9  S   UNL A   1      32.834  29.046  23.372  1.00  0.00    -0.041 S 
BRANCH   8  10
ATOM     10  N   UNL A   1      30.117  28.771  23.762  1.00  0.00    -0.342 N 
BRANCH  10  11
ATOM     11  C   UNL A   1      29.693  27.401  23.457  1.00  0.00     0.156 C 
BRANCH  11  12
ATOM     12  C   UNL A   1      30.369  26.228  24.135  1.00  0.00    -0.010 A 
ATOM     13  C   UNL A   1      29.976  25.899  25.451  1.00  0.00     0.007 A 
ATOM     14  C   UNL A   1      31.236  25.353  23.463  1.00  0.00     0.046 A 
ATOM     15  C   UNL A   1      30.420  24.727  26.065  1.00  0.00     0.000 A 
ATOM     16  C   UNL A   1      31.689  24.186  24.088  1.00  0.00     0.021 A 
ATOM     17  Cl  UNL A   1      31.708  25.623  21.826  1.00  0.00    -0.084 Cl
ATOM     18  C   UNL A   1      31.273  23.867  25.382  1.00  0.00     0.002 A 
ENDBRANCH  11  12
ENDBRANCH  10  11
BRANCH  10  19
ATOM     19  C   UNL A   1      29.173  29.814  23.228  1.00  0.00     0.085 C 
ATOM     20  C   UNL A   1      29.238  31.177  23.945  1.00  0.00     0.025 C 
ATOM     21  C   UNL A   1      29.186  29.876  21.686  1.00  0.00     0.025 C 
ATOM     22  C   UNL A   1      28.328  32.222  23.302  1.00  0.00     0.002 C 
ATOM     23  C   UNL A   1      28.266  30.959  21.135  1.00  0.00     0.002 C 
ATOM     24  C   UNL A   1      28.540  32.305  21.795  1.00  0.00     0.000 C 
ENDBRANCH  10  19
ENDBRANCH   8  10
ENDBRANCH   6   8
ENDBRANCH   5   6
ENDBRANCH   3   5
ENDBRANCH   2   3
ENDBRANCH   1   2
BRANCH   1  25
ATOM     25  C   UNL A   1      34.945  32.454  29.416  1.00  0.00     0.275 C 
BRANCH  25  26
ATOM     26  O   UNL A   1      35.694  31.260  29.708  1.00  0.00    -0.458 OA
BRANCH  26  27
ATOM     27  C   UNL A   1      36.575  31.328  30.745  1.00  0.00     0.338 C 
ATOM     28  O   UNL A   1      36.335  31.615  31.894  1.00  0.00    -0.246 OA
BRANCH  27  29
ATOM     29  C   UNL A   1      37.877  30.833  30.241  1.00  0.00     0.060 A 
ATOM     30  C   UNL A   1      38.892  30.554  31.160  1.00  0.00     0.016 A 
ATOM     31  C   UNL A   1      38.074  30.586  28.882  1.00  0.00     0.016 A 
ATOM     32  C   UNL A   1      40.103  30.009  30.717  1.00  0.00     0.010 A 
ATOM     33  C   UNL A   1      39.278  30.026  28.444  1.00  0.00     0.010 A 
ATOM     34  C   UNL A   1      40.309  29.741  29.356  1.00  0.00    -0.014 A 
BRANCH  34  35
ATOM     35  C   UNL A   1      41.624  29.243  28.871  1.00  0.00     0.031 A 
ATOM     36  C   UNL A   1      42.784  30.197  28.752  1.00  0.00     0.074 A 
ATOM     37  C   UNL A   1      41.795  27.950  28.527  1.00  0.00     0.049 A 
ATOM     38  N   UNL A   1      44.018  29.955  28.388  1.00  0.00    -0.248 NA
ATOM     39  C   UNL A   1      42.518  31.609  29.073  1.00  0.00     0.031 C 
ATOM     40  C   UNL A   1      40.759  26.918  28.554  1.00  0.00     0.029 A 
ATOM     41  N   UNL A   1      42.913  27.288  28.079  1.00  0.00    -0.354 N 
ATOM     42  C   UNL A   1      44.674  31.178  28.437  1.00  0.00     0.074 A 
ATOM     43  C   UNL A   1      43.693  32.169  28.821  1.00  0.00     0.031 C 
ATOM     44  C   UNL A   1      41.293  25.751  28.148  1.00  0.00     0.029 A 
ATOM     45  C   UNL A   1      42.702  25.954  27.818  1.00  0.00     0.049 A 
ATOM     46  H   UNL A   1      43.785  27.728  27.955  1.00  0.00     0.167 HD
ATOM     47  C   UNL A   1      45.979  31.454  28.205  1.00  0.00     0.031 A 
ATOM     48  C   UNL A   1      43.545  25.003  27.364  1.00  0.00     0.031 A 
ATOM     49  C   UNL A   1      46.971  30.481  27.841  1.00  0.00     0.049 A 
ATOM     50  C   UNL A   1      44.987  25.345  27.085  1.00  0.00     0.074 A 
ATOM     51  C   UNL A   1      48.333  30.668  27.670  1.00  0.00     0.029 A 
ATOM     52  N   UNL A   1      46.714  29.147  27.579  1.00  0.00    -0.354 N 
ATOM     53  N   UNL A   1      45.611  26.488  27.241  1.00  0.00    -0.248 NA
ATOM     54  C   UNL A   1      45.841  24.260  26.574  1.00  0.00     0.031 C 
ATOM     55  C   UNL A   1      48.892  29.455  27.257  1.00  0.00     0.029 A 
ATOM     56  C   UNL A   1      47.885  28.505  27.211  1.00  0.00     0.049 A 
ATOM     57  H   UNL A   1      45.830  28.716  27.645  1.00  0.00     0.167 HD
ATOM     58  C   UNL A   1      46.932  26.252  26.871  1.00  0.00     0.074 A 
ATOM     59  C   UNL A   1      47.024  24.857  26.497  1.00  0.00     0.031 C 
ATOM     60  C   UNL A   1      47.975  27.117  26.843  1.00  0.00     0.031 A 
BRANCH  47  61
ATOM     61  C   UNL A   1      46.420  32.883  28.348  1.00  0.00    -0.014 A 
ATOM     62  C   UNL A   1      46.898  33.368  29.579  1.00  0.00     0.010 A 
ATOM     63  C   UNL A   1      46.420  33.730  27.225  1.00  0.00     0.010 A 
ATOM     64  C   UNL A   1      47.345  34.685  29.690  1.00  0.00     0.020 A 
ATOM     65  C   UNL A   1      46.886  35.043  27.329  1.00  0.00     0.020 A 
ATOM     66  C   UNL A   1      47.334  35.516  28.565  1.00  0.00     0.054 A 
BRANCH  66  67
ATOM     67  S   UNL A   1      47.957  37.210  28.728  1.00  0.00     0.124 S 
ATOM     68  O   UNL A   1      46.877  37.857  29.470  1.00  0.00    -0.237 OA
ATOM     69  O   UNL A   1      49.204  37.025  29.468  1.00  0.00    -0.237 OA
ATOM     70  O   UNL A   1      48.116  37.656  27.346  1.00  0.00    -0.744 OA
ENDBRANCH  66  67
ENDBRANCH  47  61
BRANCH  48  71
ATOM     71  C   UNL A   1      43.059  23.616  27.130  1.00  0.00    -0.014 A 
ATOM     72  C   UNL A   1      43.132  22.652  28.151  1.00  0.00     0.010 A 
ATOM     73  C   UNL A   1      42.580  23.239  25.863  1.00  0.00     0.010 A 
ATOM     74  C   UNL A   1      42.771  21.324  27.897  1.00  0.00     0.020 A 
ATOM     75  C   UNL A   1      42.197  21.918  25.612  1.00  0.00     0.020 A 
ATOM     76  C   UNL A   1      42.315  20.965  26.626  1.00  0.00     0.054 A 
BRANCH  76  77
ATOM     77  S   UNL A   1      41.852  19.239  26.314  1.00  0.00     0.124 S 
ATOM     78  O   UNL A   1      42.030  18.635  27.632  1.00  0.00    -0.237 OA
ATOM     79  O   UNL A   1      40.470  19.356  25.854  1.00  0.00    -0.237 OA
ATOM     80  O   UNL A   1      42.806  18.809  25.295  1.00  0.00    -0.744 OA
ENDBRANCH  76  77
ENDBRANCH  48  71
BRANCH  60  81
ATOM     81  C   UNL A   1      49.317  26.588  26.412  1.00  0.00    -0.014 A 
ATOM     82  C   UNL A   1      49.794  26.805  25.108  1.00  0.00     0.010 A 
ATOM     83  C   UNL A   1      50.142  25.931  27.343  1.00  0.00     0.010 A 
ATOM     84  C   UNL A   1      51.065  26.358  24.736  1.00  0.00     0.020 A 
ATOM     85  C   UNL A   1      51.422  25.502  26.982  1.00  0.00     0.020 A 
ATOM     86  C   UNL A   1      51.872  25.709  25.676  1.00  0.00     0.054 A 
BRANCH  86  87
ATOM     87  S   UNL A   1      53.543  25.192  25.190  1.00  0.00     0.124 S 
ATOM     88  O   UNL A   1      53.471  23.743  25.348  1.00  0.00    -0.237 OA
ATOM     89  O   UNL A   1      53.641  25.671  23.813  1.00  0.00    -0.237 OA
ATOM     90  O   UNL A   1      54.409  25.882  26.143  1.00  0.00    -0.744 OA
ENDBRANCH  86  87
ENDBRANCH  60  81
ENDBRANCH  34  35
ENDBRANCH  27  29
ENDBRANCH  26  27
ENDBRANCH  25  26
ENDBRANCH   1  25
TORSDOF 20
ENDMDL
MODEL 2
REMARK VINA RESULT:     -10.3      0.631      8.140
REMARK SMILES O=C(CNC(=S)N(Cc1ccccc1Cl)C1CCCCC1)OCCOC(=O)c1ccc(-c2c3nc(c(-c4ccc(S(=O)(=O)[O-])cc4)c4ccc([nH]4)c(-c4ccc(S(=O)(=O)[O-])cc4)c4nc(c(-c5ccc(S(=O)(=O)[O-])cc5)c5ccc2[nH]5)C=C4)C=C3)cc1
REMARK SMILES IDX 23 1 22 2 2 3 1 4 3 5 4 6 5 8 6 9 7 10 8 11 9 12 10 13 14 14
REMARK SMILES IDX 11 15 13 16 15 17 12 18 16 19 17 20 21 21 18 22 20 23 19 24
REMARK SMILES IDX 24 25 25 26 26 27 27 28 28 29 29 30 87 31 30 32 86 33 31 34
REMARK SMILES IDX 32 35 33 36 80 37 34 38 85 39 79 40 81 41 35 42 84 43 78 44
REMARK SMILES IDX 77 45 36 47 66 48 47 49 65 50 48 51 51 52 64 53 82 54 49 55
REMARK SMILES IDX 50 56 63 58 83 59 52 60 37 61 38 62 46 63 39 64 45 65 40 66
REMARK SMILES IDX 41 67 42 68 43 69 44 70 67 71 68 72 76 73 69 74 75 75 70 76
REMARK SMILES IDX 71 77 72 78 73 79 74 80 53 81 54 82 62 83 55 84 61 85 56 86
REMARK SMILES IDX 57 87 58 88 59 89 60 90
REMARK H PARENT 4 7 81 46 51 57
REMARK Flexibility Score: inf
ROOT
ATOM      1  C   UNL A   1      34.116  32.017  28.417  1.00  0.00     0.274 C 
ENDROOT
BRANCH   1   2
ATOM      2  O   UNL A   1      34.397  31.080  27.361  1.00  0.00    -0.461 OA
BRANCH   2   3
ATOM      3  C   UNL A   1      33.485  30.142  27.013  1.00  0.00     0.325 C 
ATOM      4  O   UNL A   1      33.637  28.977  27.372  1.00  0.00    -0.250 OA
BRANCH   3   5
ATOM      5  C   UNL A   1      32.271  30.560  26.174  1.00  0.00     0.238 C 
BRANCH   5   6
ATOM      6  N   UNL A   1      31.597  29.518  25.393  1.00  0.00    -0.352 N 
ATOM      7  H   UNL A   1      31.217  28.865  26.023  1.00  0.00     0.163 HD
BRANCH   6   8
ATOM      8  C   UNL A   1      31.298  29.112  24.145  1.00  0.00     0.169 C 
ATOM      9  S   UNL A   1      32.744  28.992  23.270  1.00  0.00    -0.041 S 
BRANCH   8  10
ATOM     10  N   UNL A   1      30.025  28.793  23.689  1.00  0.00    -0.342 N 
BRANCH  10  11
ATOM     11  C   UNL A   1      29.566  27.420  23.457  1.00  0.00     0.156 C 
BRANCH  11  12
ATOM     12  C   UNL A   1      30.289  26.257  24.106  1.00  0.00    -0.010 A 
ATOM     13  C   UNL A   1      29.900  25.870  25.406  1.00  0.00     0.007 A 
ATOM     14  C   UNL A   1      31.202  25.445  23.417  1.00  0.00     0.046 A 
ATOM     15  C   UNL A   1      30.390  24.701  25.989  1.00  0.00     0.000 A 
ATOM     16  C   UNL A   1      31.702  24.281  24.011  1.00  0.00     0.021 A 
ATOM     17  Cl  UNL A   1      31.677  25.787  21.794  1.00  0.00    -0.084 Cl
ATOM     18  C   UNL A   1      31.289  23.903  25.289  1.00  0.00     0.002 A 
ENDBRANCH  11  12
ENDBRANCH  10  11
BRANCH  10  19
ATOM     19  C   UNL A   1      29.103  29.829  23.105  1.00  0.00     0.085 C 
ATOM     20  C   UNL A   1      28.970  31.121  23.935  1.00  0.00     0.025 C 
ATOM     21  C   UNL A   1      29.340  30.034  21.594  1.00  0.00     0.025 C 
ATOM     22  C   UNL A   1      28.097  32.171  23.251  1.00  0.00     0.002 C 
ATOM     23  C   UNL A   1      28.441  31.113  21.001  1.00  0.00     0.002 C 
ATOM     24  C   UNL A   1      28.524  32.405  21.806  1.00  0.00     0.000 C 
ENDBRANCH  10  19
ENDBRANCH   8  10
ENDBRANCH   6   8
ENDBRANCH   5   6
ENDBRANCH   3   5
ENDBRANCH   2   3
ENDBRANCH   1   2
BRANCH   1  25
ATOM     25  C   UNL A   1      35.150  31.980  29.549  1.00  0.00     0.275 C 
BRANCH  25  26
ATOM     26  O   UNL A   1      35.784  30.689  29.580  1.00  0.00    -0.458 OA
BRANCH  26  27
ATOM     27  C   UNL A   1      36.548  30.408  30.673  1.00  0.00     0.338 C 
ATOM     28  O   UNL A   1      36.177  30.295  31.817  1.00  0.00    -0.246 OA
BRANCH  27  29
ATOM     29  C   UNL A   1      37.914  30.110  30.183  1.00  0.00     0.060 A 
ATOM     30  C   UNL A   1      38.905  29.780  31.111  1.00  0.00     0.016 A 
ATOM     31  C   UNL A   1      38.199  30.095  28.817  1.00  0.00     0.016 A 
ATOM     32  C   UNL A   1      40.181  29.416  30.667  1.00  0.00     0.010 A 
ATOM     33  C   UNL A   1      39.470  29.715  28.376  1.00  0.00     0.010 A 
ATOM     34  C   UNL A   1      40.478  29.382  29.297  1.00  0.00    -0.014 A 
BRANCH  34  35
ATOM     35  C   UNL A   1      41.857  29.079  28.826  1.00  0.00     0.031 A 
ATOM     36  C   UNL A   1      42.190  27.693  28.339  1.00  0.00     0.074 A 
ATOM     37  C   UNL A   1      42.818  30.024  28.837  1.00  0.00     0.049 A 
ATOM     38  N   UNL A   1      43.317  27.238  27.854  1.00  0.00    -0.248 NA
ATOM     39  C   UNL A   1      41.120  26.686  28.419  1.00  0.00     0.031 C 
ATOM     40  C   UNL A   1      42.657  31.398  29.313  1.00  0.00     0.029 A 
ATOM     41  N   UNL A   1      44.132  29.963  28.437  1.00  0.00    -0.354 N 
ATOM     42  C   UNL A   1      43.093  25.897  27.570  1.00  0.00     0.074 A 
ATOM     43  C   UNL A   1      41.738  25.598  27.979  1.00  0.00     0.031 C 
ATOM     44  C   UNL A   1      43.825  32.051  29.169  1.00  0.00     0.029 A 
ATOM     45  C   UNL A   1      44.820  31.142  28.606  1.00  0.00     0.049 A 
ATOM     46  H   UNL A   1      44.542  29.150  28.063  1.00  0.00     0.167 HD
ATOM     47  C   UNL A   1      43.928  24.995  27.002  1.00  0.00     0.031 A 
ATOM     48  C   UNL A   1      46.105  31.455  28.340  1.00  0.00     0.031 A 
ATOM     49  C   UNL A   1      45.270  25.278  26.573  1.00  0.00     0.049 A 
ATOM     50  C   UNL A   1      47.023  30.422  27.735  1.00  0.00     0.074 A 
ATOM     51  C   UNL A   1      46.152  24.440  25.911  1.00  0.00     0.029 A 
ATOM     52  N   UNL A   1      45.930  26.478  26.770  1.00  0.00    -0.354 N 
ATOM     53  N   UNL A   1      46.758  29.189  27.376  1.00  0.00    -0.248 NA
ATOM     54  C   UNL A   1      48.416  30.831  27.491  1.00  0.00     0.031 C 
ATOM     55  C   UNL A   1      47.364  25.120  25.752  1.00  0.00     0.029 A 
ATOM     56  C   UNL A   1      47.221  26.392  26.278  1.00  0.00     0.049 A 
ATOM     57  H   UNL A   1      45.539  27.276  27.198  1.00  0.00     0.167 HD
ATOM     58  C   UNL A   1      47.942  28.686  26.844  1.00  0.00     0.074 A 
ATOM     59  C   UNL A   1      48.921  29.749  26.913  1.00  0.00     0.031 C 
ATOM     60  C   UNL A   1      48.193  27.452  26.344  1.00  0.00     0.031 A 
BRANCH  47  61
ATOM     61  C   UNL A   1      43.408  23.601  26.798  1.00  0.00    -0.014 A 
ATOM     62  C   UNL A   1      43.090  23.134  25.510  1.00  0.00     0.010 A 
ATOM     63  C   UNL A   1      43.298  22.730  27.896  1.00  0.00     0.010 A 
ATOM     64  C   UNL A   1      42.648  21.823  25.327  1.00  0.00     0.020 A 
ATOM     65  C   UNL A   1      42.874  21.411  27.713  1.00  0.00     0.020 A 
ATOM     66  C   UNL A   1      42.539  20.970  26.430  1.00  0.00     0.054 A 
BRANCH  66  67
ATOM     67  S   UNL A   1      41.999  19.261  26.159  1.00  0.00     0.124 S 
ATOM     68  O   UNL A   1      42.810  18.869  25.008  1.00  0.00    -0.237 OA
ATOM     69  O   UNL A   1      42.344  18.610  27.421  1.00  0.00    -0.237 OA
ATOM     70  O   UNL A   1      40.568  19.386  25.897  1.00  0.00    -0.744 OA
ENDBRANCH  66  67
ENDBRANCH  47  61
BRANCH  48  71
ATOM     71  C   UNL A   1      46.629  32.814  28.648  1.00  0.00    -0.014 A 
ATOM     72  C   UNL A   1      46.585  33.832  27.679  1.00  0.00     0.010 A 
ATOM     73  C   UNL A   1      47.231  33.075  29.891  1.00  0.00     0.010 A 
ATOM     74  C   UNL A   1      47.169  35.077  27.934  1.00  0.00     0.020 A 
ATOM     75  C   UNL A   1      47.796  34.325  30.158  1.00  0.00     0.020 A 
ATOM     76  C   UNL A   1      47.779  35.311  29.170  1.00  0.00     0.054 A 
BRANCH  76  77
ATOM     77  S   UNL A   1      48.533  36.932  29.483  1.00  0.00     0.124 S 
ATOM     78  O   UNL A   1      49.804  36.817  28.773  1.00  0.00    -0.237 OA
ATOM     79  O   UNL A   1      47.563  37.855  28.899  1.00  0.00    -0.237 OA
ATOM     80  O   UNL A   1      48.632  36.984  30.940  1.00  0.00    -0.744 OA
ENDBRANCH  76  77
ENDBRANCH  48  71
BRANCH  60  81
ATOM     81  C   UNL A   1      49.574  27.176  25.811  1.00  0.00    -0.014 A 
ATOM     82  C   UNL A   1      50.530  26.509  26.596  1.00  0.00     0.010 A 
ATOM     83  C   UNL A   1      49.894  27.520  24.486  1.00  0.00     0.010 A 
ATOM     84  C   UNL A   1      51.791  26.208  26.071  1.00  0.00     0.020 A 
ATOM     85  C   UNL A   1      51.146  27.201  23.950  1.00  0.00     0.020 A 
ATOM     86  C   UNL A   1      52.091  26.556  24.750  1.00  0.00     0.054 A 
BRANCH  86  87
ATOM     87  S   UNL A   1      53.710  26.100  24.069  1.00  0.00     0.124 S 
ATOM     88  O   UNL A   1      53.978  24.834  24.745  1.00  0.00    -0.237 OA
ATOM     89  O   UNL A   1      53.443  26.004  22.637  1.00  0.00    -0.237 OA
ATOM     90  O   UNL A   1      54.575  27.211  24.460  1.00  0.00    -0.744 OA
ENDBRANCH  86  87
ENDBRANCH  60  81
ENDBRANCH  34  35
ENDBRANCH  27  29
ENDBRANCH  26  27
ENDBRANCH  25  26
ENDBRANCH   1  25
TORSDOF 20
ENDMDL
MODEL 3
REMARK VINA RESULT:     -10.2      2.434      3.957
REMARK SMILES O=C(CNC(=S)N(Cc1ccccc1Cl)C1CCCCC1)OCCOC(=O)c1ccc(-c2c3nc(c(-c4ccc(S(=O)(=O)[O-])cc4)c4ccc([nH]4)c(-c4ccc(S(=O)(=O)[O-])cc4)c4nc(c(-c5ccc(S(=O)(=O)[O-])cc5)c5ccc2[nH]5)C=C4)C=C3)cc1
REMARK SMILES IDX 23 1 22 2 2 3 1 4 3 5 4 6 5 8 6 9 7 10 8 11 9 12 10 13 14 14
REMARK SMILES IDX 11 15 13 16 15 17 12 18 16 19 17 20 21 21 18 22 20 23 19 24
REMARK SMILES IDX 24 25 25 26 26 27 27 28 28 29 29 30 87 31 30 32 86 33 31 34
REMARK SMILES IDX 32 35 33 36 80 37 34 38 85 39 79 40 81 41 35 42 84 43 78 44
REMARK SMILES IDX 77 45 36 47 66 48 47 49 65 50 48 51 51 52 64 53 82 54 49 55
REMARK SMILES IDX 50 56 63 58 83 59 52 60 37 61 38 62 46 63 39 64 45 65 40 66
REMARK SMILES IDX 41 67 42 68 43 69 44 70 67 71 68 72 76 73 69 74 75 75 70 76
REMARK SMILES IDX 71 77 72 78 73 79 74 80 53 81 54 82 62 83 55 84 61 85 56 86
REMARK SMILES IDX 57 87 58 88 59 89 60 90
REMARK H PARENT 4 7 81 46 51 57
REMARK Flexibility Score: inf
ROOT
ATOM      1  C   UNL A   1      34.165  28.784  26.826  1.00  0.00     0.274 C 
ENDROOT
BRANCH   1   2
ATOM      2  O   UNL A   1      32.743  29.006  26.805  1.00  0.00    -0.461 OA
BRANCH   2   3
ATOM      3  C   UNL A   1      31.885  27.959  26.778  1.00  0.00     0.325 C 
ATOM      4  O   UNL A   1      31.505  27.451  27.831  1.00  0.00    -0.250 OA
BRANCH   3   5
ATOM      5  C   UNL A   1      31.402  27.428  25.423  1.00  0.00     0.238 C 
BRANCH   5   6
ATOM      6  N   UNL A   1      32.422  27.068  24.434  1.00  0.00    -0.352 N 
ATOM      7  H   UNL A   1      32.919  27.885  24.200  1.00  0.00     0.163 HD
BRANCH   6   8
ATOM      8  C   UNL A   1      32.941  26.050  23.722  1.00  0.00     0.169 C 
ATOM      9  S   UNL A   1      33.041  26.539  22.103  1.00  0.00    -0.041 S 
BRANCH   8  10
ATOM     10  N   UNL A   1      33.371  24.839  24.250  1.00  0.00    -0.342 N 
BRANCH  10  11
ATOM     11  C   UNL A   1      32.528  23.968  25.076  1.00  0.00     0.156 C 
BRANCH  11  12
ATOM     12  C   UNL A   1      32.409  22.494  24.748  1.00  0.00    -0.010 A 
ATOM     13  C   UNL A   1      32.033  22.130  23.437  1.00  0.00     0.007 A 
ATOM     14  C   UNL A   1      32.816  21.481  25.628  1.00  0.00     0.046 A 
ATOM     15  C   UNL A   1      32.083  20.800  23.015  1.00  0.00     0.000 A 
ATOM     16  C   UNL A   1      32.851  20.147  25.205  1.00  0.00     0.021 A 
ATOM     17  Cl  UNL A   1      33.372  21.832  27.223  1.00  0.00    -0.084 Cl
ATOM     18  C   UNL A   1      32.497  19.809  23.898  1.00  0.00     0.002 A 
ENDBRANCH  11  12
ENDBRANCH  10  11
BRANCH  10  19
ATOM     19  C   UNL A   1      34.824  24.452  24.279  1.00  0.00     0.085 C 
ATOM     20  C   UNL A   1      35.403  24.206  25.687  1.00  0.00     0.025 C 
ATOM     21  C   UNL A   1      35.161  23.374  23.227  1.00  0.00     0.025 C 
ATOM     22  C   UNL A   1      36.853  23.726  25.649  1.00  0.00     0.002 C 
ATOM     23  C   UNL A   1      36.622  22.943  23.277  1.00  0.00     0.002 C 
ATOM     24  C   UNL A   1      37.036  22.555  24.691  1.00  0.00     0.000 C 
ENDBRANCH  10  19
ENDBRANCH   8  10
ENDBRANCH   6   8
ENDBRANCH   5   6
ENDBRANCH   3   5
ENDBRANCH   2   3
ENDBRANCH   1   2
BRANCH   1  25
ATOM     25  C   UNL A   1      34.909  29.721  27.786  1.00  0.00     0.275 C 
BRANCH  25  26
ATOM     26  O   UNL A   1      36.325  29.481  27.691  1.00  0.00    -0.458 OA
BRANCH  26  27
ATOM     27  C   UNL A   1      37.017  29.430  28.864  1.00  0.00     0.338 C 
ATOM     28  O   UNL A   1      36.563  29.403  29.983  1.00  0.00    -0.246 OA
BRANCH  27  29
ATOM     29  C   UNL A   1      38.448  29.259  28.517  1.00  0.00     0.060 A 
ATOM     30  C   UNL A   1      39.357  28.967  29.536  1.00  0.00     0.016 A 
ATOM     31  C   UNL A   1      38.877  29.323  27.190  1.00  0.00     0.016 A 
ATOM     32  C   UNL A   1      40.699  28.721  29.223  1.00  0.00     0.010 A 
ATOM     33  C   UNL A   1      40.214  29.061  26.879  1.00  0.00     0.010 A 
ATOM     34  C   UNL A   1      41.142  28.767  27.893  1.00  0.00    -0.014 A 
BRANCH  34  35
ATOM     35  C   UNL A   1      42.583  28.591  27.566  1.00  0.00     0.031 A 
ATOM     36  C   UNL A   1      43.531  29.749  27.737  1.00  0.00     0.074 A 
ATOM     37  C   UNL A   1      43.054  27.413  27.109  1.00  0.00     0.049 A 
ATOM     38  N   UNL A   1      44.825  29.790  27.545  1.00  0.00    -0.248 NA
ATOM     39  C   UNL A   1      42.947  31.028  28.169  1.00  0.00     0.031 C 
ATOM     40  C   UNL A   1      42.253  26.215  26.859  1.00  0.00     0.029 A 
ATOM     41  N   UNL A   1      44.331  27.036  26.769  1.00  0.00    -0.354 N 
ATOM     42  C   UNL A   1      45.209  31.093  27.832  1.00  0.00     0.074 A 
ATOM     43  C   UNL A   1      44.007  31.824  28.167  1.00  0.00     0.031 C 
ATOM     44  C   UNL A   1      43.059  25.234  26.412  1.00  0.00     0.029 A 
ATOM     45  C   UNL A   1      44.429  25.736  26.331  1.00  0.00     0.049 A 
ATOM     46  H   UNL A   1      45.105  27.642  26.833  1.00  0.00     0.167 HD
ATOM     47  C   UNL A   1      46.451  31.634  27.839  1.00  0.00     0.031 A 
ATOM     48  C   UNL A   1      45.498  25.029  25.910  1.00  0.00     0.031 A 
ATOM     49  C   UNL A   1      47.658  30.920  27.526  1.00  0.00     0.049 A 
ATOM     50  C   UNL A   1      46.866  25.665  25.898  1.00  0.00     0.074 A 
ATOM     51  C   UNL A   1      48.964  31.375  27.592  1.00  0.00     0.029 A 
ATOM     52  N   UNL A   1      47.711  29.611  27.080  1.00  0.00    -0.354 N 
ATOM     53  N   UNL A   1      47.221  26.869  26.277  1.00  0.00    -0.248 NA
ATOM     54  C   UNL A   1      47.981  24.838  25.408  1.00  0.00     0.031 C 
ATOM     55  C   UNL A   1      49.805  30.355  27.137  1.00  0.00     0.029 A 
ATOM     56  C   UNL A   1      49.025  29.253  26.829  1.00  0.00     0.049 A 
ATOM     57  H   UNL A   1      46.932  29.021  26.959  1.00  0.00     0.167 HD
ATOM     58  C   UNL A   1      48.599  26.934  26.093  1.00  0.00     0.074 A 
ATOM     59  C   UNL A   1      49.018  25.646  25.584  1.00  0.00     0.031 C 
ATOM     60  C   UNL A   1      49.441  27.970  26.325  1.00  0.00     0.031 A 
BRANCH  47  61
ATOM     61  C   UNL A   1      46.573  33.085  28.209  1.00  0.00    -0.014 A 
ATOM     62  C   UNL A   1      46.740  33.473  29.550  1.00  0.00     0.010 A 
ATOM     63  C   UNL A   1      46.587  34.064  27.199  1.00  0.00     0.010 A 
ATOM     64  C   UNL A   1      46.895  34.821  29.878  1.00  0.00     0.020 A 
ATOM     65  C   UNL A   1      46.761  35.411  27.523  1.00  0.00     0.020 A 
ATOM     66  C   UNL A   1      46.902  35.782  28.863  1.00  0.00     0.054 A 
BRANCH  66  67
ATOM     67  S   UNL A   1      47.144  37.522  29.313  1.00  0.00     0.124 S 
ATOM     68  O   UNL A   1      45.936  37.802  30.086  1.00  0.00    -0.237 OA
ATOM     69  O   UNL A   1      48.387  37.486  30.080  1.00  0.00    -0.237 OA
ATOM     70  O   UNL A   1      47.229  38.205  28.025  1.00  0.00    -0.744 OA
ENDBRANCH  66  67
ENDBRANCH  47  61
BRANCH  48  71
ATOM     71  C   UNL A   1      45.338  23.623  25.448  1.00  0.00    -0.014 A 
ATOM     72  C   UNL A   1      44.794  23.345  24.182  1.00  0.00     0.010 A 
ATOM     73  C   UNL A   1      45.671  22.557  26.302  1.00  0.00     0.010 A 
ATOM     74  C   UNL A   1      44.549  22.024  23.792  1.00  0.00     0.020 A 
ATOM     75  C   UNL A   1      45.448  21.234  25.906  1.00  0.00     0.020 A 
ATOM     76  C   UNL A   1      44.869  20.978  24.661  1.00  0.00     0.054 A 
BRANCH  76  77
ATOM     77  S   UNL A   1      44.544  19.271  24.138  1.00  0.00     0.124 S 
ATOM     78  O   UNL A   1      45.501  18.521  24.947  1.00  0.00    -0.237 OA
ATOM     79  O   UNL A   1      43.138  19.090  24.492  1.00  0.00    -0.237 OA
ATOM     80  O   UNL A   1      44.820  19.297  22.704  1.00  0.00    -0.744 OA
ENDBRANCH  76  77
ENDBRANCH  48  71
BRANCH  60  81
ATOM     81  C   UNL A   1      50.907  27.762  26.052  1.00  0.00    -0.014 A 
ATOM     82  C   UNL A   1      51.748  27.191  27.022  1.00  0.00     0.010 A 
ATOM     83  C   UNL A   1      51.433  28.070  24.785  1.00  0.00     0.010 A 
ATOM     84  C   UNL A   1      53.096  26.951  26.737  1.00  0.00     0.020 A 
ATOM     85  C   UNL A   1      52.774  27.812  24.488  1.00  0.00     0.020 A 
ATOM     86  C   UNL A   1      53.601  27.263  25.471  1.00  0.00     0.054 A 
BRANCH  86  87
ATOM     87  S   UNL A   1      55.337  26.885  25.102  1.00  0.00     0.124 S 
ATOM     88  O   UNL A   1      56.009  27.320  26.323  1.00  0.00    -0.237 OA
ATOM     89  O   UNL A   1      55.314  25.442  24.877  1.00  0.00    -0.237 OA
ATOM     90  O   UNL A   1      55.621  27.688  23.914  1.00  0.00    -0.744 OA
ENDBRANCH  86  87
ENDBRANCH  60  81
ENDBRANCH  34  35
ENDBRANCH  27  29
ENDBRANCH  26  27
ENDBRANCH  25  26
ENDBRANCH   1  25
TORSDOF 20
ENDMDL
