MODEL 1
REMARK VINA RESULT:     -10.2      0.000      0.000
REMARK SMILES CCOc1cc(N2CCOCC2)ccc1[C@H]([NH3+])C(=O)OCCOC(=O)c1ccc(-c2c3nc(c(-c4ccc(S(=O)(=O)[O-])cc4)c4ccc([nH]4)c(-c4ccc(S(=O)(=O)[O-])cc4)c4nc(c(-c5ccc(S(=O)(=O)[O-])cc5)c5ccc2[nH]5)C=C4)C=C3)cc1
REMARK SMILES IDX 21 1 20 2 18 3 19 4 16 5 15 6 4 7 5 8 6 9 14 10 13 11 3 12
REMARK SMILES IDX 2 13 1 14 7 15 8 16 12 17 9 18 11 19 10 20 17 21 22 25 23 26
REMARK SMILES IDX 24 27 25 28 26 29 27 30 85 31 28 32 84 33 29 34 30 35 31 36
REMARK SMILES IDX 78 37 32 38 83 39 77 40 79 41 33 42 82 43 76 44 75 45 34 47
REMARK SMILES IDX 64 48 45 49 63 50 46 51 49 52 62 53 80 54 47 55 48 56 61 58
REMARK SMILES IDX 81 59 50 60 35 61 36 62 44 63 37 64 43 65 38 66 39 67 40 68
REMARK SMILES IDX 41 69 42 70 65 71 66 72 74 73 67 74 73 75 68 76 69 77 70 78
REMARK SMILES IDX 71 79 72 80 51 81 52 82 60 83 53 84 59 85 54 86 55 87 56 88
REMARK SMILES IDX 57 89 58 90
REMARK H PARENT 17 22 17 23 17 24 79 46 49 57
REMARK Flexibility Score: inf
ROOT
ATOM      1  C   UNL A   1      31.781  30.338  26.042  1.00  0.00     0.274 C 
ENDROOT
BRANCH   1   2
ATOM      2  O   UNL A   1      32.477  29.970  24.840  1.00  0.00    -0.457 OA
BRANCH   2   3
ATOM      3  C   UNL A   1      32.101  28.769  24.303  1.00  0.00     0.370 C 
ATOM      4  O   UNL A   1      31.003  28.254  24.488  1.00  0.00    -0.245 OA
BRANCH   3   5
ATOM      5  C   UNL A   1      33.200  28.175  23.377  1.00  0.00     0.326 C 
BRANCH   5   6
ATOM      6  C   UNL A   1      33.614  26.797  23.850  1.00  0.00     0.063 A 
ATOM      7  C   UNL A   1      33.724  25.730  22.945  1.00  0.00     0.131 A 
ATOM      8  C   UNL A   1      33.563  24.422  23.405  1.00  0.00     0.072 A 
ATOM      9  C   UNL A   1      33.357  24.180  24.767  1.00  0.00     0.040 A 
ATOM     10  C   UNL A   1      33.725  26.523  25.217  1.00  0.00     0.016 A 
ATOM     11  C   UNL A   1      33.592  25.218  25.670  1.00  0.00     0.027 A 
BRANCH   7  12
ATOM     12  O   UNL A   1      33.663  25.946  21.594  1.00  0.00    -0.493 OA
BRANCH  12  13
ATOM     13  C   UNL A   1      32.475  25.446  20.964  1.00  0.00     0.226 C 
ATOM     14  C   UNL A   1      32.529  25.577  19.448  1.00  0.00     0.049 C 
ENDBRANCH  12  13
ENDBRANCH   7  12
BRANCH   9  15
ATOM     15  N   UNL A   1      32.744  23.017  25.179  1.00  0.00    -0.367 N 
ATOM     16  C   UNL A   1      32.761  22.676  26.608  1.00  0.00     0.145 C 
ATOM     17  C   UNL A   1      32.476  21.918  24.264  1.00  0.00     0.145 C 
ATOM     18  C   UNL A   1      33.661  21.458  26.851  1.00  0.00     0.181 C 
ATOM     19  C   UNL A   1      33.400  20.737  24.611  1.00  0.00     0.181 C 
ATOM     20  O   UNL A   1      33.295  20.357  26.000  1.00  0.00    -0.378 OA
ENDBRANCH   9  15
ENDBRANCH   5   6
BRANCH   5  21
ATOM     21  N   UNL A   1      34.346  29.128  23.270  1.00  0.00    -0.342 N 
ATOM     22  H   UNL A   1      34.018  30.012  22.883  1.00  0.00     0.345 HD
ATOM     23  H   UNL A   1      35.060  28.733  22.658  1.00  0.00     0.345 HD
ATOM     24  H   UNL A   1      34.743  29.287  24.197  1.00  0.00     0.345 HD
ENDBRANCH   5  21
ENDBRANCH   3   5
ENDBRANCH   2   3
ENDBRANCH   1   2
BRANCH   1  25
ATOM     25  C   UNL A   1      32.494  29.823  27.301  1.00  0.00     0.275 C 
BRANCH  25  26
ATOM     26  O   UNL A   1      33.928  29.769  27.155  1.00  0.00    -0.458 OA
BRANCH  26  27
ATOM     27  C   UNL A   1      34.630  30.612  27.951  1.00  0.00     0.338 C 
ATOM     28  O   UNL A   1      34.188  31.596  28.532  1.00  0.00    -0.246 OA
BRANCH  27  29
ATOM     29  C   UNL A   1      35.986  30.078  28.208  1.00  0.00     0.060 A 
ATOM     30  C   UNL A   1      36.253  29.548  29.477  1.00  0.00     0.016 A 
ATOM     31  C   UNL A   1      36.991  30.110  27.243  1.00  0.00     0.016 A 
ATOM     32  C   UNL A   1      37.504  29.022  29.783  1.00  0.00     0.010 A 
ATOM     33  C   UNL A   1      38.265  29.620  27.562  1.00  0.00     0.010 A 
ATOM     34  C   UNL A   1      38.525  29.078  28.833  1.00  0.00    -0.014 A 
BRANCH  34  35
ATOM     35  C   UNL A   1      39.896  28.679  29.222  1.00  0.00     0.031 A 
ATOM     36  C   UNL A   1      40.727  29.635  30.028  1.00  0.00     0.074 A 
ATOM     37  C   UNL A   1      40.375  27.466  28.896  1.00  0.00     0.049 A 
ATOM     38  N   UNL A   1      41.956  29.506  30.456  1.00  0.00    -0.248 NA
ATOM     39  C   UNL A   1      40.083  30.902  30.410  1.00  0.00     0.031 C 
ATOM     40  C   UNL A   1      39.628  26.422  28.196  1.00  0.00     0.029 A 
ATOM     41  N   UNL A   1      41.609  26.910  29.114  1.00  0.00    -0.354 N 
ATOM     42  C   UNL A   1      42.239  30.679  31.143  1.00  0.00     0.074 A 
ATOM     43  C   UNL A   1      41.057  31.512  31.067  1.00  0.00     0.031 C 
ATOM     44  C   UNL A   1      40.424  25.350  28.036  1.00  0.00     0.029 A 
ATOM     45  C   UNL A   1      41.746  25.649  28.585  1.00  0.00     0.049 A 
ATOM     46  H   UNL A   1      42.329  27.369  29.604  1.00  0.00     0.167 HD
ATOM     47  C   UNL A   1      43.386  31.034  31.771  1.00  0.00     0.031 A 
ATOM     48  C   UNL A   1      42.823  24.841  28.530  1.00  0.00     0.031 A 
ATOM     49  C   UNL A   1      44.568  30.213  31.811  1.00  0.00     0.049 A 
ATOM     50  C   UNL A   1      44.122  25.306  29.136  1.00  0.00     0.074 A 
ATOM     51  C   UNL A   1      45.780  30.480  32.423  1.00  0.00     0.029 A 
ATOM     52  N   UNL A   1      44.693  28.975  31.197  1.00  0.00    -0.354 N 
ATOM     53  N   UNL A   1      44.377  26.413  29.795  1.00  0.00    -0.248 NA
ATOM     54  C   UNL A   1      45.279  24.413  28.991  1.00  0.00     0.031 C 
ATOM     55  C   UNL A   1      46.660  29.437  32.116  1.00  0.00     0.029 A 
ATOM     56  C   UNL A   1      45.975  28.484  31.379  1.00  0.00     0.049 A 
ATOM     57  H   UNL A   1      43.976  28.513  30.705  1.00  0.00     0.167 HD
ATOM     58  C   UNL A   1      45.714  26.332  30.172  1.00  0.00     0.074 A 
ATOM     59  C   UNL A   1      46.211  25.065  29.674  1.00  0.00     0.031 C 
ATOM     60  C   UNL A   1      46.459  27.222  30.874  1.00  0.00     0.031 A 
BRANCH  47  61
ATOM     61  C   UNL A   1      43.434  32.403  32.398  1.00  0.00    -0.014 A 
ATOM     62  C   UNL A   1      43.152  32.601  33.762  1.00  0.00     0.010 A 
ATOM     63  C   UNL A   1      43.776  33.511  31.601  1.00  0.00     0.010 A 
ATOM     64  C   UNL A   1      43.160  33.891  34.303  1.00  0.00     0.020 A 
ATOM     65  C   UNL A   1      43.815  34.796  32.146  1.00  0.00     0.020 A 
ATOM     66  C   UNL A   1      43.485  34.980  33.489  1.00  0.00     0.054 A 
BRANCH  66  67
ATOM     67  S   UNL A   1      43.480  36.643  34.215  1.00  0.00     0.124 S 
ATOM     68  O   UNL A   1      42.050  36.897  34.375  1.00  0.00    -0.237 OA
ATOM     69  O   UNL A   1      44.227  36.452  35.456  1.00  0.00    -0.237 OA
ATOM     70  O   UNL A   1      44.149  37.464  33.209  1.00  0.00    -0.744 OA
ENDBRANCH  66  67
ENDBRANCH  47  61
BRANCH  48  71
ATOM     71  C   UNL A   1      42.726  23.512  27.862  1.00  0.00    -0.014 A 
ATOM     72  C   UNL A   1      42.292  22.383  28.578  1.00  0.00     0.010 A 
ATOM     73  C   UNL A   1      43.063  23.370  26.503  1.00  0.00     0.010 A 
ATOM     74  C   UNL A   1      42.205  21.136  27.951  1.00  0.00     0.020 A 
ATOM     75  C   UNL A   1      42.951  22.131  25.865  1.00  0.00     0.020 A 
ATOM     76  C   UNL A   1      42.530  21.020  26.596  1.00  0.00     0.054 A 
BRANCH  76  77
ATOM     77  S   UNL A   1      42.348  19.403  25.791  1.00  0.00     0.124 S 
ATOM     78  O   UNL A   1      43.216  19.543  24.626  1.00  0.00    -0.237 OA
ATOM     79  O   UNL A   1      42.818  18.485  26.826  1.00  0.00    -0.237 OA
ATOM     80  O   UNL A   1      40.918  19.324  25.501  1.00  0.00    -0.744 OA
ENDBRANCH  76  77
ENDBRANCH  48  71
BRANCH  60  81
ATOM     81  C   UNL A   1      47.887  26.847  31.184  1.00  0.00    -0.014 A 
ATOM     82  C   UNL A   1      48.219  26.108  32.333  1.00  0.00     0.010 A 
ATOM     83  C   UNL A   1      48.904  27.189  30.272  1.00  0.00     0.010 A 
ATOM     84  C   UNL A   1      49.548  25.746  32.579  1.00  0.00     0.020 A 
ATOM     85  C   UNL A   1      50.227  26.801  30.499  1.00  0.00     0.020 A 
ATOM     86  C   UNL A   1      50.542  26.093  31.660  1.00  0.00     0.054 A 
BRANCH  86  87
ATOM     87  S   UNL A   1      52.249  25.569  31.979  1.00  0.00     0.124 S 
ATOM     88  O   UNL A   1      52.924  25.960  30.743  1.00  0.00    -0.237 OA
ATOM     89  O   UNL A   1      52.607  26.347  33.162  1.00  0.00    -0.237 OA
ATOM     90  O   UNL A   1      52.136  24.128  32.197  1.00  0.00    -0.744 OA
ENDBRANCH  86  87
ENDBRANCH  60  81
ENDBRANCH  34  35
ENDBRANCH  27  29
ENDBRANCH  26  27
ENDBRANCH  25  26
ENDBRANCH   1  25
TORSDOF 19
ENDMDL
MODEL 2
REMARK VINA RESULT:      -9.9      4.886     10.656
REMARK SMILES CCOc1cc(N2CCOCC2)ccc1[C@H]([NH3+])C(=O)OCCOC(=O)c1ccc(-c2c3nc(c(-c4ccc(S(=O)(=O)[O-])cc4)c4ccc([nH]4)c(-c4ccc(S(=O)(=O)[O-])cc4)c4nc(c(-c5ccc(S(=O)(=O)[O-])cc5)c5ccc2[nH]5)C=C4)C=C3)cc1
REMARK SMILES IDX 21 1 20 2 18 3 19 4 16 5 15 6 4 7 5 8 6 9 14 10 13 11 3 12
REMARK SMILES IDX 2 13 1 14 7 15 8 16 12 17 9 18 11 19 10 20 17 21 22 25 23 26
REMARK SMILES IDX 24 27 25 28 26 29 27 30 85 31 28 32 84 33 29 34 30 35 31 36
REMARK SMILES IDX 78 37 32 38 83 39 77 40 79 41 33 42 82 43 76 44 75 45 34 47
REMARK SMILES IDX 64 48 45 49 63 50 46 51 49 52 62 53 80 54 47 55 48 56 61 58
REMARK SMILES IDX 81 59 50 60 35 61 36 62 44 63 37 64 43 65 38 66 39 67 40 68
REMARK SMILES IDX 41 69 42 70 65 71 66 72 74 73 67 74 73 75 68 76 69 77 70 78
REMARK SMILES IDX 71 79 72 80 51 81 52 82 60 83 53 84 59 85 54 86 55 87 56 88
REMARK SMILES IDX 57 89 58 90
REMARK H PARENT 17 22 17 23 17 24 79 46 49 57
REMARK Flexibility Score: inf
ROOT
ATOM      1  C   UNL A   1      37.501  22.901  26.137  1.00  0.00     0.274 C 
ENDROOT
BRANCH   1   2
ATOM      2  O   UNL A   1      36.313  23.493  25.585  1.00  0.00    -0.457 OA
BRANCH   2   3
ATOM      3  C   UNL A   1      35.775  22.817  24.522  1.00  0.00     0.370 C 
ATOM      4  O   UNL A   1      36.348  21.907  23.934  1.00  0.00    -0.245 OA
BRANCH   3   5
ATOM      5  C   UNL A   1      34.330  23.293  24.201  1.00  0.00     0.326 C 
BRANCH   5   6
ATOM      6  C   UNL A   1      33.350  22.144  24.306  1.00  0.00     0.063 A 
ATOM      7  C   UNL A   1      33.225  21.414  25.499  1.00  0.00     0.131 A 
ATOM      8  C   UNL A   1      32.777  20.094  25.450  1.00  0.00     0.072 A 
ATOM      9  C   UNL A   1      32.397  19.529  24.228  1.00  0.00     0.040 A 
ATOM     10  C   UNL A   1      32.680  21.679  23.170  1.00  0.00     0.016 A 
ATOM     11  C   UNL A   1      32.211  20.375  23.134  1.00  0.00     0.027 A 
BRANCH   7  12
ATOM     12  O   UNL A   1      33.826  21.844  26.651  1.00  0.00    -0.493 OA
BRANCH  12  13
ATOM     13  C   UNL A   1      32.918  22.306  27.660  1.00  0.00     0.226 C 
ATOM     14  C   UNL A   1      32.093  23.497  27.191  1.00  0.00     0.049 C 
ENDBRANCH  12  13
ENDBRANCH   7  12
BRANCH   9  15
ATOM     15  N   UNL A   1      32.409  18.160  24.064  1.00  0.00    -0.367 N 
ATOM     16  C   UNL A   1      32.411  17.305  25.258  1.00  0.00     0.145 C 
ATOM     17  C   UNL A   1      32.854  17.534  22.829  1.00  0.00     0.145 C 
ATOM     18  C   UNL A   1      33.763  16.595  25.398  1.00  0.00     0.181 C 
ATOM     19  C   UNL A   1      34.195  16.821  23.082  1.00  0.00     0.181 C 
ATOM     20  O   UNL A   1      34.118  15.899  24.190  1.00  0.00    -0.378 OA
ENDBRANCH   9  15
ENDBRANCH   5   6
BRANCH   5  21
ATOM     21  N   UNL A   1      34.300  23.969  22.868  1.00  0.00    -0.342 N 
ATOM     22  H   UNL A   1      33.644  23.484  22.256  1.00  0.00     0.345 HD
ATOM     23  H   UNL A   1      35.232  23.944  22.454  1.00  0.00     0.345 HD
ATOM     24  H   UNL A   1      34.005  24.938  22.984  1.00  0.00     0.345 HD
ENDBRANCH   5  21
ENDBRANCH   3   5
ENDBRANCH   2   3
ENDBRANCH   1   2
BRANCH   1  25
ATOM     25  C   UNL A   1      38.707  23.849  26.056  1.00  0.00     0.275 C 
BRANCH  25  26
ATOM     26  O   UNL A   1      38.808  24.732  27.192  1.00  0.00    -0.458 OA
BRANCH  26  27
ATOM     27  C   UNL A   1      39.794  25.660  27.127  1.00  0.00     0.338 C 
ATOM     28  O   UNL A   1      40.544  25.854  26.179  1.00  0.00    -0.246 OA
BRANCH  27  29
ATOM     29  C   UNL A   1      39.728  26.573  28.289  1.00  0.00     0.060 A 
ATOM     30  C   UNL A   1      40.481  27.754  28.240  1.00  0.00     0.016 A 
ATOM     31  C   UNL A   1      38.965  26.283  29.419  1.00  0.00     0.016 A 
ATOM     32  C   UNL A   1      40.458  28.661  29.293  1.00  0.00     0.010 A 
ATOM     33  C   UNL A   1      38.974  27.174  30.500  1.00  0.00     0.010 A 
ATOM     34  C   UNL A   1      39.722  28.363  30.441  1.00  0.00    -0.014 A 
BRANCH  34  35
ATOM     35  C   UNL A   1      39.841  29.244  31.625  1.00  0.00     0.031 A 
ATOM     36  C   UNL A   1      40.996  29.045  32.563  1.00  0.00     0.074 A 
ATOM     37  C   UNL A   1      38.955  30.233  31.834  1.00  0.00     0.049 A 
ATOM     38  N   UNL A   1      41.283  29.681  33.668  1.00  0.00    -0.248 NA
ATOM     39  C   UNL A   1      41.961  27.993  32.201  1.00  0.00     0.031 C 
ATOM     40  C   UNL A   1      37.847  30.579  30.944  1.00  0.00     0.029 A 
ATOM     41  N   UNL A   1      38.851  31.129  32.867  1.00  0.00    -0.354 N 
ATOM     42  C   UNL A   1      42.451  29.098  34.144  1.00  0.00     0.074 A 
ATOM     43  C   UNL A   1      42.814  28.052  33.211  1.00  0.00     0.031 C 
ATOM     44  C   UNL A   1      37.169  31.612  31.474  1.00  0.00     0.029 A 
ATOM     45  C   UNL A   1      37.770  31.971  32.759  1.00  0.00     0.049 A 
ATOM     46  H   UNL A   1      39.489  31.167  33.615  1.00  0.00     0.167 HD
ATOM     47  C   UNL A   1      43.151  29.402  35.263  1.00  0.00     0.031 A 
ATOM     48  C   UNL A   1      37.307  32.907  33.610  1.00  0.00     0.031 A 
ATOM     49  C   UNL A   1      42.763  30.421  36.202  1.00  0.00     0.049 A 
ATOM     50  C   UNL A   1      38.039  33.147  34.905  1.00  0.00     0.074 A 
ATOM     51  C   UNL A   1      43.405  30.808  37.366  1.00  0.00     0.029 A 
ATOM     52  N   UNL A   1      41.620  31.201  36.097  1.00  0.00    -0.354 N 
ATOM     53  N   UNL A   1      39.150  32.600  35.340  1.00  0.00    -0.248 NA
ATOM     54  C   UNL A   1      37.455  34.133  35.825  1.00  0.00     0.031 C 
ATOM     55  C   UNL A   1      42.611  31.769  38.001  1.00  0.00     0.029 A 
ATOM     56  C   UNL A   1      41.515  32.037  37.196  1.00  0.00     0.049 A 
ATOM     57  H   UNL A   1      40.978  31.165  35.352  1.00  0.00     0.167 HD
ATOM     58  C   UNL A   1      39.415  33.200  36.568  1.00  0.00     0.074 A 
ATOM     59  C   UNL A   1      38.352  34.157  36.801  1.00  0.00     0.031 C 
ATOM     60  C   UNL A   1      40.449  32.983  37.420  1.00  0.00     0.031 A 
BRANCH  47  61
ATOM     61  C   UNL A   1      44.366  28.564  35.565  1.00  0.00    -0.014 A 
ATOM     62  C   UNL A   1      45.643  28.915  35.088  1.00  0.00     0.010 A 
ATOM     63  C   UNL A   1      44.223  27.405  36.350  1.00  0.00     0.010 A 
ATOM     64  C   UNL A   1      46.743  28.091  35.347  1.00  0.00     0.020 A 
ATOM     65  C   UNL A   1      45.326  26.597  36.636  1.00  0.00     0.020 A 
ATOM     66  C   UNL A   1      46.575  26.934  36.114  1.00  0.00     0.054 A 
BRANCH  66  67
ATOM     67  S   UNL A   1      48.018  25.880  36.428  1.00  0.00     0.124 S 
ATOM     68  O   UNL A   1      47.946  25.695  37.875  1.00  0.00    -0.237 OA
ATOM     69  O   UNL A   1      47.728  24.694  35.628  1.00  0.00    -0.237 OA
ATOM     70  O   UNL A   1      49.145  26.684  35.959  1.00  0.00    -0.744 OA
ENDBRANCH  66  67
ENDBRANCH  47  61
BRANCH  48  71
ATOM     71  C   UNL A   1      36.077  33.678  33.275  1.00  0.00    -0.014 A 
ATOM     72  C   UNL A   1      36.169  34.943  32.669  1.00  0.00     0.010 A 
ATOM     73  C   UNL A   1      34.803  33.149  33.558  1.00  0.00     0.010 A 
ATOM     74  C   UNL A   1      35.014  35.667  32.358  1.00  0.00     0.020 A 
ATOM     75  C   UNL A   1      33.645  33.858  33.224  1.00  0.00     0.020 A 
ATOM     76  C   UNL A   1      33.758  35.116  32.633  1.00  0.00     0.054 A 
BRANCH  76  77
ATOM     77  S   UNL A   1      32.275  36.050  32.163  1.00  0.00     0.124 S 
ATOM     78  O   UNL A   1      31.205  35.128  32.530  1.00  0.00    -0.237 OA
ATOM     79  O   UNL A   1      32.388  37.251  32.986  1.00  0.00    -0.237 OA
ATOM     80  O   UNL A   1      32.449  36.269  30.729  1.00  0.00    -0.744 OA
ENDBRANCH  76  77
ENDBRANCH  48  71
BRANCH  60  81
ATOM     81  C   UNL A   1      40.509  33.822  38.671  1.00  0.00    -0.014 A 
ATOM     82  C   UNL A   1      41.271  35.002  38.729  1.00  0.00     0.010 A 
ATOM     83  C   UNL A   1      39.738  33.450  39.789  1.00  0.00     0.010 A 
ATOM     84  C   UNL A   1      41.284  35.778  39.893  1.00  0.00     0.020 A 
ATOM     85  C   UNL A   1      39.723  34.240  40.941  1.00  0.00     0.020 A 
ATOM     86  C   UNL A   1      40.508  35.393  40.990  1.00  0.00     0.054 A 
BRANCH  86  87
ATOM     87  S   UNL A   1      40.504  36.443  42.470  1.00  0.00     0.124 S 
ATOM     88  O   UNL A   1      39.768  37.617  42.008  1.00  0.00    -0.237 OA
ATOM     89  O   UNL A   1      39.810  35.612  43.450  1.00  0.00    -0.237 OA
ATOM     90  O   UNL A   1      41.923  36.665  42.742  1.00  0.00    -0.744 OA
ENDBRANCH  86  87
ENDBRANCH  60  81
ENDBRANCH  34  35
ENDBRANCH  27  29
ENDBRANCH  26  27
ENDBRANCH  25  26
ENDBRANCH   1  25
TORSDOF 19
ENDMDL
MODEL 3
REMARK VINA RESULT:      -9.8      2.893      4.442
REMARK SMILES CCOc1cc(N2CCOCC2)ccc1[C@H]([NH3+])C(=O)OCCOC(=O)c1ccc(-c2c3nc(c(-c4ccc(S(=O)(=O)[O-])cc4)c4ccc([nH]4)c(-c4ccc(S(=O)(=O)[O-])cc4)c4nc(c(-c5ccc(S(=O)(=O)[O-])cc5)c5ccc2[nH]5)C=C4)C=C3)cc1
REMARK SMILES IDX 21 1 20 2 18 3 19 4 16 5 15 6 4 7 5 8 6 9 14 10 13 11 3 12
REMARK SMILES IDX 2 13 1 14 7 15 8 16 12 17 9 18 11 19 10 20 17 21 22 25 23 26
REMARK SMILES IDX 24 27 25 28 26 29 27 30 85 31 28 32 84 33 29 34 30 35 31 36
REMARK SMILES IDX 78 37 32 38 83 39 77 40 79 41 33 42 82 43 76 44 75 45 34 47
REMARK SMILES IDX 64 48 45 49 63 50 46 51 49 52 62 53 80 54 47 55 48 56 61 58
REMARK SMILES IDX 81 59 50 60 35 61 36 62 44 63 37 64 43 65 38 66 39 67 40 68
REMARK SMILES IDX 41 69 42 70 65 71 66 72 74 73 67 74 73 75 68 76 69 77 70 78
REMARK SMILES IDX 71 79 72 80 51 81 52 82 60 83 53 84 59 85 54 86 55 87 56 88
REMARK SMILES IDX 57 89 58 90
REMARK H PARENT 17 22 17 23 17 24 79 46 49 57
REMARK Flexibility Score: inf
ROOT
ATOM      1  C   UNL A   1      31.696  29.824  26.076  1.00  0.00     0.274 C 
ENDROOT
BRANCH   1   2
ATOM      2  O   UNL A   1      32.434  28.600  26.223  1.00  0.00    -0.457 OA
BRANCH   2   3
ATOM      3  C   UNL A   1      31.677  27.510  26.563  1.00  0.00     0.370 C 
ATOM      4  O   UNL A   1      31.005  27.441  27.586  1.00  0.00    -0.245 OA
BRANCH   3   5
ATOM      5  C   UNL A   1      31.717  26.408  25.466  1.00  0.00     0.326 C 
BRANCH   5   6
ATOM      6  C   UNL A   1      30.829  26.781  24.298  1.00  0.00     0.063 A 
ATOM      7  C   UNL A   1      31.344  27.492  23.202  1.00  0.00     0.131 A 
ATOM      8  C   UNL A   1      30.488  28.283  22.435  1.00  0.00     0.072 A 
ATOM      9  C   UNL A   1      29.119  28.312  22.721  1.00  0.00     0.040 A 
ATOM     10  C   UNL A   1      29.446  26.578  24.367  1.00  0.00     0.016 A 
ATOM     11  C   UNL A   1      28.599  27.346  23.583  1.00  0.00     0.027 A 
BRANCH   7  12
ATOM     12  O   UNL A   1      32.693  27.686  23.063  1.00  0.00    -0.493 OA
BRANCH  12  13
ATOM     13  C   UNL A   1      33.300  26.916  22.017  1.00  0.00     0.226 C 
ATOM     14  C   UNL A   1      33.663  25.509  22.474  1.00  0.00     0.049 C 
ENDBRANCH  12  13
ENDBRANCH   7  12
BRANCH   9  15
ATOM     15  N   UNL A   1      28.352  29.388  22.326  1.00  0.00    -0.367 N 
ATOM     16  C   UNL A   1      28.958  30.408  21.459  1.00  0.00     0.145 C 
ATOM     17  C   UNL A   1      27.157  29.793  23.050  1.00  0.00     0.145 C 
ATOM     18  C   UNL A   1      29.140  31.720  22.233  1.00  0.00     0.181 C 
ATOM     19  C   UNL A   1      27.429  31.131  23.760  1.00  0.00     0.181 C 
ATOM     20  O   UNL A   1      27.909  32.141  22.847  1.00  0.00    -0.378 OA
ENDBRANCH   9  15
ENDBRANCH   5   6
BRANCH   5  21
ATOM     21  N   UNL A   1      31.373  25.082  26.063  1.00  0.00    -0.342 N 
ATOM     22  H   UNL A   1      32.195  24.696  26.529  1.00  0.00     0.345 HD
ATOM     23  H   UNL A   1      31.071  24.445  25.326  1.00  0.00     0.345 HD
ATOM     24  H   UNL A   1      30.620  25.199  26.741  1.00  0.00     0.345 HD
ENDBRANCH   5  21
ENDBRANCH   3   5
ENDBRANCH   2   3
ENDBRANCH   1   2
BRANCH   1  25
ATOM     25  C   UNL A   1      32.362  30.990  26.822  1.00  0.00     0.275 C 
BRANCH  25  26
ATOM     26  O   UNL A   1      33.643  30.641  27.385  1.00  0.00    -0.458 OA
BRANCH  26  27
ATOM     27  C   UNL A   1      34.381  31.679  27.850  1.00  0.00     0.338 C 
ATOM     28  O   UNL A   1      34.001  32.837  27.979  1.00  0.00    -0.246 OA
BRANCH  27  29
ATOM     29  C   UNL A   1      35.672  31.200  28.391  1.00  0.00     0.060 A 
ATOM     30  C   UNL A   1      35.695  29.952  29.027  1.00  0.00     0.016 A 
ATOM     31  C   UNL A   1      36.840  31.957  28.303  1.00  0.00     0.016 A 
ATOM     32  C   UNL A   1      36.877  29.438  29.550  1.00  0.00     0.010 A 
ATOM     33  C   UNL A   1      38.022  31.461  28.866  1.00  0.00     0.010 A 
ATOM     34  C   UNL A   1      38.044  30.202  29.493  1.00  0.00    -0.014 A 
BRANCH  34  35
ATOM     35  C   UNL A   1      39.252  29.728  30.205  1.00  0.00     0.031 A 
ATOM     36  C   UNL A   1      39.645  30.397  31.490  1.00  0.00     0.074 A 
ATOM     37  C   UNL A   1      39.963  28.690  29.730  1.00  0.00     0.049 A 
ATOM     38  N   UNL A   1      40.673  30.163  32.263  1.00  0.00    -0.248 NA
ATOM     39  C   UNL A   1      38.755  31.465  31.972  1.00  0.00     0.031 C 
ATOM     40  C   UNL A   1      39.624  27.906  28.542  1.00  0.00     0.029 A 
ATOM     41  N   UNL A   1      41.118  28.118  30.195  1.00  0.00    -0.354 N 
ATOM     42  C   UNL A   1      40.564  31.064  33.315  1.00  0.00     0.074 A 
ATOM     43  C   UNL A   1      39.375  31.854  33.075  1.00  0.00     0.031 C 
ATOM     44  C   UNL A   1      40.560  26.956  28.368  1.00  0.00     0.029 A 
ATOM     45  C   UNL A   1      41.581  27.092  29.406  1.00  0.00     0.049 A 
ATOM     46  H   UNL A   1      41.574  28.413  31.016  1.00  0.00     0.167 HD
ATOM     47  C   UNL A   1      41.388  31.224  34.378  1.00  0.00     0.031 A 
ATOM     48  C   UNL A   1      42.711  26.364  29.499  1.00  0.00     0.031 A 
ATOM     49  C   UNL A   1      42.587  30.456  34.589  1.00  0.00     0.049 A 
ATOM     50  C   UNL A   1      43.670  26.639  30.629  1.00  0.00     0.074 A 
ATOM     51  C   UNL A   1      43.489  30.540  35.636  1.00  0.00     0.029 A 
ATOM     52  N   UNL A   1      43.063  29.479  33.727  1.00  0.00    -0.354 N 
ATOM     53  N   UNL A   1      43.552  27.486  31.626  1.00  0.00    -0.248 NA
ATOM     54  C   UNL A   1      44.916  25.860  30.646  1.00  0.00     0.031 C 
ATOM     55  C   UNL A   1      44.547  29.665  35.369  1.00  0.00     0.029 A 
ATOM     56  C   UNL A   1      44.267  28.981  34.196  1.00  0.00     0.049 A 
ATOM     57  H   UNL A   1      42.611  29.182  32.905  1.00  0.00     0.167 HD
ATOM     58  C   UNL A   1      44.692  27.316  32.406  1.00  0.00     0.074 A 
ATOM     59  C   UNL A   1      45.482  26.281  31.769  1.00  0.00     0.031 C 
ATOM     60  C   UNL A   1      45.047  27.953  33.550  1.00  0.00     0.031 A 
BRANCH  47  61
ATOM     61  C   UNL A   1      41.053  32.326  35.350  1.00  0.00    -0.014 A 
ATOM     62  C   UNL A   1      41.523  33.639  35.168  1.00  0.00     0.010 A 
ATOM     63  C   UNL A   1      40.246  32.035  36.465  1.00  0.00     0.010 A 
ATOM     64  C   UNL A   1      41.234  34.629  36.114  1.00  0.00     0.020 A 
ATOM     65  C   UNL A   1      39.930  33.028  37.395  1.00  0.00     0.020 A 
ATOM     66  C   UNL A   1      40.445  34.314  37.224  1.00  0.00     0.054 A 
BRANCH  66  67
ATOM     67  S   UNL A   1      40.092  35.615  38.438  1.00  0.00     0.124 S 
ATOM     68  O   UNL A   1      39.828  36.766  37.578  1.00  0.00    -0.237 OA
ATOM     69  O   UNL A   1      38.932  35.084  39.149  1.00  0.00    -0.237 OA
ATOM     70  O   UNL A   1      41.319  35.696  39.228  1.00  0.00    -0.744 OA
ENDBRANCH  66  67
ENDBRANCH  47  61
BRANCH  48  71
ATOM     71  C   UNL A   1      43.008  25.313  28.486  1.00  0.00    -0.014 A 
ATOM     72  C   UNL A   1      43.710  25.631  27.310  1.00  0.00     0.010 A 
ATOM     73  C   UNL A   1      42.595  23.983  28.695  1.00  0.00     0.010 A 
ATOM     74  C   UNL A   1      43.985  24.644  26.360  1.00  0.00     0.020 A 
ATOM     75  C   UNL A   1      42.892  22.988  27.759  1.00  0.00     0.020 A 
ATOM     76  C   UNL A   1      43.579  23.326  26.594  1.00  0.00     0.054 A 
BRANCH  76  77
ATOM     77  S   UNL A   1      44.004  22.053  25.372  1.00  0.00     0.124 S 
ATOM     78  O   UNL A   1      43.618  22.693  24.118  1.00  0.00    -0.237 OA
ATOM     79  O   UNL A   1      45.439  21.884  25.582  1.00  0.00    -0.237 OA
ATOM     80  O   UNL A   1      43.185  20.910  25.770  1.00  0.00    -0.744 OA
ENDBRANCH  76  77
ENDBRANCH  48  71
BRANCH  60  81
ATOM     81  C   UNL A   1      46.331  27.527  34.216  1.00  0.00    -0.014 A 
ATOM     82  C   UNL A   1      46.362  26.472  35.144  1.00  0.00     0.010 A 
ATOM     83  C   UNL A   1      47.538  28.158  33.858  1.00  0.00     0.010 A 
ATOM     84  C   UNL A   1      47.572  26.076  35.724  1.00  0.00     0.020 A 
ATOM     85  C   UNL A   1      48.752  27.744  34.410  1.00  0.00     0.020 A 
ATOM     86  C   UNL A   1      48.759  26.714  35.351  1.00  0.00     0.054 A 
BRANCH  86  87
ATOM     87  S   UNL A   1      50.322  26.149  36.081  1.00  0.00     0.124 S 
ATOM     88  O   UNL A   1      50.848  25.275  35.035  1.00  0.00    -0.237 OA
ATOM     89  O   UNL A   1      51.051  27.399  36.281  1.00  0.00    -0.237 OA
ATOM     90  O   UNL A   1      49.907  25.472  37.308  1.00  0.00    -0.744 OA
ENDBRANCH  86  87
ENDBRANCH  60  81
ENDBRANCH  34  35
ENDBRANCH  27  29
ENDBRANCH  26  27
ENDBRANCH  25  26
ENDBRANCH   1  25
TORSDOF 19
ENDMDL
