MODEL 1
REMARK VINA RESULT:     -11.0      0.000      0.000
REMARK SMILES CC(=O)Nc1cccc(-c2ccc(F)c(C(=O)OCCOC(=O)c3ccc(-c4c5nc(c(-c6ccc(S(=O)(=O)[O-])cc6)c6ccc([nH]6)c(-c6ccc(S(=O)(=O)[O-])cc6)c6nc(c(-c7ccc(S(=O)(=O)[O-])cc7)c7ccc4[nH]7)C=C6)C=C5)cc3)c2)c1
REMARK SMILES IDX 20 1 19 2 18 3 16 4 17 5 15 6 10 7 11 8 84 9 12 10 13 11
REMARK SMILES IDX 14 12 9 13 5 14 6 15 85 16 7 17 8 18 4 19 1 20 2 21 3 22
REMARK SMILES IDX 21 24 22 25 23 26 24 27 25 28 83 29 26 30 82 31 27 32 28 33
REMARK SMILES IDX 29 34 76 35 30 36 81 37 75 38 77 39 31 40 80 41 74 42 73 43
REMARK SMILES IDX 32 45 62 46 43 47 61 48 44 49 47 50 60 51 78 52 45 53 46 54
REMARK SMILES IDX 59 56 79 57 48 58 33 59 34 60 42 61 35 62 41 63 36 64 37 65
REMARK SMILES IDX 38 66 39 67 40 68 63 69 64 70 72 71 65 72 71 73 66 74 67 75
REMARK SMILES IDX 68 76 69 77 70 78 49 79 50 80 58 81 51 82 57 83 52 84 53 85
REMARK SMILES IDX 54 86 55 87 56 88
REMARK H PARENT 4 23 77 44 47 55
REMARK Flexibility Score: inf
ROOT
ATOM      1  C   UNL A   1      34.670  33.109  28.144  1.00  0.00     0.275 C 
ENDROOT
BRANCH   1   2
ATOM      2  C   UNL A   1      33.389  33.933  28.000  1.00  0.00     0.275 C 
BRANCH   2   3
ATOM      3  O   UNL A   1      32.827  34.226  29.295  1.00  0.00    -0.458 OA
BRANCH   3   4
ATOM      4  C   UNL A   1      32.918  35.510  29.730  1.00  0.00     0.341 C 
ATOM      5  O   UNL A   1      32.520  36.496  29.138  1.00  0.00    -0.246 OA
BRANCH   4   6
ATOM      6  C   UNL A   1      33.536  35.535  31.076  1.00  0.00     0.096 A 
ATOM      7  C   UNL A   1      34.858  34.457  32.820  1.00  0.00    -0.017 A 
ATOM      8  C   UNL A   1      34.711  35.595  33.624  1.00  0.00     0.012 A 
ATOM      9  C   UNL A   1      34.214  34.417  31.569  1.00  0.00     0.027 A 
ATOM     10  C   UNL A   1      34.035  36.712  33.138  1.00  0.00     0.041 A 
ATOM     11  C   UNL A   1      33.501  36.694  31.852  1.00  0.00     0.137 A 
ATOM     12  F   UNL A   1      32.972  37.833  31.389  1.00  0.00    -0.206 F 
BRANCH   7  13
ATOM     13  C   UNL A   1      35.807  33.399  33.178  1.00  0.00    -0.016 A 
ATOM     14  C   UNL A   1      37.684  32.727  34.596  1.00  0.00     0.041 A 
ATOM     15  C   UNL A   1      37.699  31.486  33.958  1.00  0.00     0.026 A 
ATOM     16  C   UNL A   1      36.757  33.676  34.178  1.00  0.00     0.034 A 
ATOM     17  C   UNL A   1      36.750  31.182  32.976  1.00  0.00     0.003 A 
ATOM     18  C   UNL A   1      35.799  32.132  32.593  1.00  0.00     0.009 A 
BRANCH  14  19
ATOM     19  N   UNL A   1      38.644  32.985  35.587  1.00  0.00    -0.326 N 
ATOM     20  C   UNL A   1      40.625  33.556  34.173  1.00  0.00     0.114 C 
ATOM     21  C   UNL A   1      39.992  33.205  35.496  1.00  0.00     0.221 C 
ATOM     22  O   UNL A   1      40.669  33.179  36.526  1.00  0.00    -0.275 OA
ATOM     23  H   UNL A   1      38.288  33.013  36.504  1.00  0.00     0.169 HD
ENDBRANCH  14  19
ENDBRANCH   7  13
ENDBRANCH   4   6
ENDBRANCH   3   4
ENDBRANCH   2   3
ENDBRANCH   1   2
BRANCH   1  24
ATOM     24  O   UNL A   1      34.414  31.902  28.883  1.00  0.00    -0.458 OA
BRANCH  24  25
ATOM     25  C   UNL A   1      34.479  30.761  28.160  1.00  0.00     0.338 C 
ATOM     26  O   UNL A   1      33.638  30.310  27.402  1.00  0.00    -0.246 OA
BRANCH  25  27
ATOM     27  C   UNL A   1      35.809  30.162  28.325  1.00  0.00     0.060 A 
ATOM     28  C   UNL A   1      36.155  29.694  29.588  1.00  0.00     0.016 A 
ATOM     29  C   UNL A   1      36.748  30.178  27.300  1.00  0.00     0.016 A 
ATOM     30  C   UNL A   1      37.463  29.318  29.873  1.00  0.00     0.010 A 
ATOM     31  C   UNL A   1      38.044  29.717  27.561  1.00  0.00     0.010 A 
ATOM     32  C   UNL A   1      38.424  29.314  28.859  1.00  0.00    -0.014 A 
BRANCH  32  33
ATOM     33  C   UNL A   1      39.836  28.942  29.147  1.00  0.00     0.031 A 
ATOM     34  C   UNL A   1      40.773  29.981  29.706  1.00  0.00     0.074 A 
ATOM     35  C   UNL A   1      40.291  27.695  28.905  1.00  0.00     0.049 A 
ATOM     36  N   UNL A   1      42.079  29.968  29.775  1.00  0.00    -0.248 NA
ATOM     37  C   UNL A   1      40.154  31.206  30.242  1.00  0.00     0.031 C 
ATOM     38  C   UNL A   1      39.480  26.566  28.445  1.00  0.00     0.029 A 
ATOM     39  N   UNL A   1      41.559  27.174  28.998  1.00  0.00    -0.354 N 
ATOM     40  C   UNL A   1      42.441  31.201  30.308  1.00  0.00     0.074 A 
ATOM     41  C   UNL A   1      41.218  31.939  30.538  1.00  0.00     0.031 C 
ATOM     42  C   UNL A   1      40.268  25.489  28.297  1.00  0.00     0.029 A 
ATOM     43  C   UNL A   1      41.649  25.873  28.559  1.00  0.00     0.049 A 
ATOM     44  H   UNL A   1      42.327  27.682  29.344  1.00  0.00     0.167 HD
ATOM     45  C   UNL A   1      43.682  31.672  30.574  1.00  0.00     0.031 A 
ATOM     46  C   UNL A   1      42.724  25.094  28.326  1.00  0.00     0.031 A 
ATOM     47  C   UNL A   1      44.888  30.914  30.366  1.00  0.00     0.049 A 
ATOM     48  C   UNL A   1      44.098  25.658  28.564  1.00  0.00     0.074 A 
ATOM     49  C   UNL A   1      46.198  31.303  30.585  1.00  0.00     0.029 A 
ATOM     50  N   UNL A   1      44.929  29.604  29.913  1.00  0.00    -0.354 N 
ATOM     51  N   UNL A   1      44.434  26.852  28.995  1.00  0.00    -0.248 NA
ATOM     52  C   UNL A   1      45.239  24.778  28.278  1.00  0.00     0.031 C 
ATOM     53  C   UNL A   1      47.034  30.241  30.225  1.00  0.00     0.029 A 
ATOM     54  C   UNL A   1      46.241  29.171  29.841  1.00  0.00     0.049 A 
ATOM     55  H   UNL A   1      44.141  29.064  29.675  1.00  0.00     0.167 HD
ATOM     56  C   UNL A   1      45.824  26.854  29.058  1.00  0.00     0.074 A 
ATOM     57  C   UNL A   1      46.264  25.542  28.631  1.00  0.00     0.031 C 
ATOM     58  C   UNL A   1      46.658  27.852  29.437  1.00  0.00     0.031 A 
BRANCH  45  59
ATOM     59  C   UNL A   1      43.802  33.086  31.081  1.00  0.00    -0.014 A 
ATOM     60  C   UNL A   1      43.730  34.187  30.210  1.00  0.00     0.010 A 
ATOM     61  C   UNL A   1      43.946  33.316  32.462  1.00  0.00     0.010 A 
ATOM     62  C   UNL A   1      43.839  35.489  30.705  1.00  0.00     0.020 A 
ATOM     63  C   UNL A   1      44.026  34.619  32.965  1.00  0.00     0.020 A 
ATOM     64  C   UNL A   1      43.988  35.698  32.080  1.00  0.00     0.054 A 
BRANCH  64  65
ATOM     65  S   UNL A   1      44.103  37.399  32.696  1.00  0.00     0.124 S 
ATOM     66  O   UNL A   1      42.987  37.454  33.638  1.00  0.00    -0.237 OA
ATOM     67  O   UNL A   1      45.433  37.434  33.298  1.00  0.00    -0.237 OA
ATOM     68  O   UNL A   1      43.943  38.216  31.495  1.00  0.00    -0.744 OA
ENDBRANCH  64  65
ENDBRANCH  45  59
BRANCH  46  69
ATOM     69  C   UNL A   1      42.544  23.723  27.768  1.00  0.00    -0.014 A 
ATOM     70  C   UNL A   1      42.560  23.500  26.381  1.00  0.00     0.010 A 
ATOM     71  C   UNL A   1      42.354  22.629  28.633  1.00  0.00     0.010 A 
ATOM     72  C   UNL A   1      42.371  22.212  25.868  1.00  0.00     0.020 A 
ATOM     73  C   UNL A   1      42.198  21.335  28.126  1.00  0.00     0.020 A 
ATOM     74  C   UNL A   1      42.191  21.138  26.746  1.00  0.00     0.054 A 
BRANCH  74  75
ATOM     75  S   UNL A   1      41.984  19.470  26.062  1.00  0.00     0.124 S 
ATOM     76  O   UNL A   1      42.838  19.520  24.880  1.00  0.00    -0.237 OA
ATOM     77  O   UNL A   1      42.458  18.620  27.151  1.00  0.00    -0.237 OA
ATOM     78  O   UNL A   1      40.550  19.386  25.795  1.00  0.00    -0.744 OA
ENDBRANCH  74  75
ENDBRANCH  46  69
BRANCH  58  79
ATOM     79  C   UNL A   1      48.131  27.552  29.478  1.00  0.00    -0.014 A 
ATOM     80  C   UNL A   1      48.951  27.751  28.355  1.00  0.00     0.010 A 
ATOM     81  C   UNL A   1      48.714  27.152  30.695  1.00  0.00     0.010 A 
ATOM     82  C   UNL A   1      50.331  27.541  28.446  1.00  0.00     0.020 A 
ATOM     83  C   UNL A   1      50.094  26.966  30.797  1.00  0.00     0.020 A 
ATOM     84  C   UNL A   1      50.894  27.156  29.668  1.00  0.00     0.054 A 
BRANCH  84  85
ATOM     85  S   UNL A   1      52.694  26.968  29.779  1.00  0.00     0.124 S 
ATOM     86  O   UNL A   1      53.122  28.323  30.117  1.00  0.00    -0.237 OA
ATOM     87  O   UNL A   1      52.848  25.977  30.841  1.00  0.00    -0.237 OA
ATOM     88  O   UNL A   1      53.078  26.509  28.446  1.00  0.00    -0.744 OA
ENDBRANCH  84  85
ENDBRANCH  58  79
ENDBRANCH  32  33
ENDBRANCH  25  27
ENDBRANCH  24  25
ENDBRANCH   1  24
TORSDOF 16
ENDMDL
MODEL 2
REMARK VINA RESULT:     -10.8      3.942      7.273
REMARK SMILES CC(=O)Nc1cccc(-c2ccc(F)c(C(=O)OCCOC(=O)c3ccc(-c4c5nc(c(-c6ccc(S(=O)(=O)[O-])cc6)c6ccc([nH]6)c(-c6ccc(S(=O)(=O)[O-])cc6)c6nc(c(-c7ccc(S(=O)(=O)[O-])cc7)c7ccc4[nH]7)C=C6)C=C5)cc3)c2)c1
REMARK SMILES IDX 20 1 19 2 18 3 16 4 17 5 15 6 10 7 11 8 84 9 12 10 13 11
REMARK SMILES IDX 14 12 9 13 5 14 6 15 85 16 7 17 8 18 4 19 1 20 2 21 3 22
REMARK SMILES IDX 21 24 22 25 23 26 24 27 25 28 83 29 26 30 82 31 27 32 28 33
REMARK SMILES IDX 29 34 76 35 30 36 81 37 75 38 77 39 31 40 80 41 74 42 73 43
REMARK SMILES IDX 32 45 62 46 43 47 61 48 44 49 47 50 60 51 78 52 45 53 46 54
REMARK SMILES IDX 59 56 79 57 48 58 33 59 34 60 42 61 35 62 41 63 36 64 37 65
REMARK SMILES IDX 38 66 39 67 40 68 63 69 64 70 72 71 65 72 71 73 66 74 67 75
REMARK SMILES IDX 68 76 69 77 70 78 49 79 50 80 58 81 51 82 57 83 52 84 53 85
REMARK SMILES IDX 54 86 55 87 56 88
REMARK H PARENT 4 23 77 44 47 55
REMARK Flexibility Score: inf
ROOT
ATOM      1  C   UNL A   1      33.162  29.043  27.259  1.00  0.00     0.275 C 
ENDROOT
BRANCH   1   2
ATOM      2  C   UNL A   1      33.610  27.755  26.566  1.00  0.00     0.275 C 
BRANCH   2   3
ATOM      3  O   UNL A   1      32.719  27.427  25.482  1.00  0.00    -0.458 OA
BRANCH   3   4
ATOM      4  C   UNL A   1      33.164  27.670  24.222  1.00  0.00     0.341 C 
ATOM      5  O   UNL A   1      33.502  28.753  23.779  1.00  0.00    -0.246 OA
BRANCH   4   6
ATOM      6  C   UNL A   1      33.231  26.400  23.464  1.00  0.00     0.096 A 
ATOM      7  C   UNL A   1      34.100  24.135  23.199  1.00  0.00    -0.017 A 
ATOM      8  C   UNL A   1      33.346  23.992  22.027  1.00  0.00     0.012 A 
ATOM      9  C   UNL A   1      34.080  25.369  23.877  1.00  0.00     0.027 A 
ATOM     10  C   UNL A   1      32.500  25.017  21.609  1.00  0.00     0.041 A 
ATOM     11  C   UNL A   1      32.408  26.188  22.358  1.00  0.00     0.137 A 
ATOM     12  F   UNL A   1      31.490  27.087  21.983  1.00  0.00    -0.206 F 
BRANCH   7  13
ATOM     13  C   UNL A   1      34.755  22.981  23.820  1.00  0.00    -0.016 A 
ATOM     14  C   UNL A   1      34.473  20.867  25.019  1.00  0.00     0.041 A 
ATOM     15  C   UNL A   1      35.861  20.727  25.063  1.00  0.00     0.026 A 
ATOM     16  C   UNL A   1      33.940  22.005  24.423  1.00  0.00     0.034 A 
ATOM     17  C   UNL A   1      36.689  21.673  24.450  1.00  0.00     0.003 A 
ATOM     18  C   UNL A   1      36.139  22.793  23.820  1.00  0.00     0.009 A 
BRANCH  14  19
ATOM     19  N   UNL A   1      33.679  19.886  25.633  1.00  0.00    -0.326 N 
ATOM     20  C   UNL A   1      33.788  18.066  23.924  1.00  0.00     0.114 C 
ATOM     21  C   UNL A   1      33.201  18.694  25.163  1.00  0.00     0.221 C 
ATOM     22  O   UNL A   1      32.329  18.106  25.809  1.00  0.00    -0.275 OA
ATOM     23  H   UNL A   1      33.421  20.091  26.561  1.00  0.00     0.169 HD
ENDBRANCH  14  19
ENDBRANCH   7  13
ENDBRANCH   4   6
ENDBRANCH   3   4
ENDBRANCH   2   3
ENDBRANCH   1   2
BRANCH   1  24
ATOM     24  O   UNL A   1      34.056  30.124  26.942  1.00  0.00    -0.458 OA
BRANCH  24  25
ATOM     25  C   UNL A   1      34.665  30.697  28.006  1.00  0.00     0.338 C 
ATOM     26  O   UNL A   1      34.198  31.514  28.781  1.00  0.00    -0.246 OA
BRANCH  25  27
ATOM     27  C   UNL A   1      35.989  30.092  28.186  1.00  0.00     0.060 A 
ATOM     28  C   UNL A   1      36.320  29.622  29.452  1.00  0.00     0.016 A 
ATOM     29  C   UNL A   1      36.940  30.101  27.171  1.00  0.00     0.016 A 
ATOM     30  C   UNL A   1      37.622  29.240  29.752  1.00  0.00     0.010 A 
ATOM     31  C   UNL A   1      38.231  29.635  27.446  1.00  0.00     0.010 A 
ATOM     32  C   UNL A   1      38.594  29.231  28.748  1.00  0.00    -0.014 A 
BRANCH  32  33
ATOM     33  C   UNL A   1      40.002  28.852  29.053  1.00  0.00     0.031 A 
ATOM     34  C   UNL A   1      40.939  29.889  29.613  1.00  0.00     0.074 A 
ATOM     35  C   UNL A   1      40.451  27.601  28.823  1.00  0.00     0.049 A 
ATOM     36  N   UNL A   1      42.244  29.869  29.695  1.00  0.00    -0.248 NA
ATOM     37  C   UNL A   1      40.323  31.121  30.135  1.00  0.00     0.031 C 
ATOM     38  C   UNL A   1      39.638  26.474  28.362  1.00  0.00     0.029 A 
ATOM     39  N   UNL A   1      41.715  27.073  28.931  1.00  0.00    -0.354 N 
ATOM     40  C   UNL A   1      42.609  31.103  30.223  1.00  0.00     0.074 A 
ATOM     41  C   UNL A   1      41.389  31.850  30.436  1.00  0.00     0.031 C 
ATOM     42  C   UNL A   1      40.420  25.391  28.229  1.00  0.00     0.029 A 
ATOM     43  C   UNL A   1      41.801  25.769  28.501  1.00  0.00     0.049 A 
ATOM     44  H   UNL A   1      42.483  27.579  29.281  1.00  0.00     0.167 HD
ATOM     45  C   UNL A   1      43.850  31.568  30.498  1.00  0.00     0.031 A 
ATOM     46  C   UNL A   1      42.874  24.982  28.283  1.00  0.00     0.031 A 
ATOM     47  C   UNL A   1      45.053  30.802  30.306  1.00  0.00     0.049 A 
ATOM     48  C   UNL A   1      44.249  25.539  28.531  1.00  0.00     0.074 A 
ATOM     49  C   UNL A   1      46.364  31.184  30.535  1.00  0.00     0.029 A 
ATOM     50  N   UNL A   1      45.091  29.489  29.861  1.00  0.00    -0.354 N 
ATOM     51  N   UNL A   1      44.588  26.733  28.957  1.00  0.00    -0.248 NA
ATOM     52  C   UNL A   1      45.387  24.650  28.261  1.00  0.00     0.031 C 
ATOM     53  C   UNL A   1      47.196  30.115  30.189  1.00  0.00     0.029 A 
ATOM     54  C   UNL A   1      46.401  29.047  29.805  1.00  0.00     0.049 A 
ATOM     55  H   UNL A   1      44.301  28.952  29.620  1.00  0.00     0.167 HD
ATOM     56  C   UNL A   1      45.977  26.727  29.034  1.00  0.00     0.074 A 
ATOM     57  C   UNL A   1      46.413  25.410  28.619  1.00  0.00     0.031 C 
ATOM     58  C   UNL A   1      46.813  27.723  29.414  1.00  0.00     0.031 A 
BRANCH  45  59
ATOM     59  C   UNL A   1      43.975  32.985  30.996  1.00  0.00    -0.014 A 
ATOM     60  C   UNL A   1      44.102  34.067  30.109  1.00  0.00     0.010 A 
ATOM     61  C   UNL A   1      43.918  33.239  32.380  1.00  0.00     0.010 A 
ATOM     62  C   UNL A   1      44.210  35.373  30.596  1.00  0.00     0.020 A 
ATOM     63  C   UNL A   1      43.996  34.547  32.870  1.00  0.00     0.020 A 
ATOM     64  C   UNL A   1      44.159  35.605  31.974  1.00  0.00     0.054 A 
BRANCH  64  65
ATOM     65  S   UNL A   1      44.277  37.311  32.576  1.00  0.00     0.124 S 
ATOM     66  O   UNL A   1      45.702  37.424  32.882  1.00  0.00    -0.237 OA
ATOM     67  O   UNL A   1      43.819  38.089  31.428  1.00  0.00    -0.237 OA
ATOM     68  O   UNL A   1      43.388  37.334  33.735  1.00  0.00    -0.744 OA
ENDBRANCH  64  65
ENDBRANCH  45  59
BRANCH  46  69
ATOM     69  C   UNL A   1      42.690  23.609  27.733  1.00  0.00    -0.014 A 
ATOM     70  C   UNL A   1      42.365  22.531  28.574  1.00  0.00     0.010 A 
ATOM     71  C   UNL A   1      42.840  23.375  26.353  1.00  0.00     0.010 A 
ATOM     72  C   UNL A   1      42.213  21.243  28.049  1.00  0.00     0.020 A 
ATOM     73  C   UNL A   1      42.656  22.096  25.819  1.00  0.00     0.020 A 
ATOM     74  C   UNL A   1      42.360  21.035  26.674  1.00  0.00     0.054 A 
BRANCH  74  75
ATOM     75  S   UNL A   1      42.124  19.363  26.008  1.00  0.00     0.124 S 
ATOM     76  O   UNL A   1      40.686  19.338  25.758  1.00  0.00    -0.237 OA
ATOM     77  O   UNL A   1      42.973  19.373  24.819  1.00  0.00    -0.237 OA
ATOM     78  O   UNL A   1      42.587  18.496  27.089  1.00  0.00    -0.744 OA
ENDBRANCH  74  75
ENDBRANCH  46  69
BRANCH  58  79
ATOM     79  C   UNL A   1      48.284  27.415  29.470  1.00  0.00    -0.014 A 
ATOM     80  C   UNL A   1      49.115  27.592  28.352  1.00  0.00     0.010 A 
ATOM     81  C   UNL A   1      48.855  27.028  30.697  1.00  0.00     0.010 A 
ATOM     82  C   UNL A   1      50.492  27.375  28.456  1.00  0.00     0.020 A 
ATOM     83  C   UNL A   1      50.233  26.835  30.812  1.00  0.00     0.020 A 
ATOM     84  C   UNL A   1      51.043  27.004  29.687  1.00  0.00     0.054 A 
BRANCH  84  85
ATOM     85  S   UNL A   1      52.841  26.806  29.816  1.00  0.00     0.124 S 
ATOM     86  O   UNL A   1      52.966  25.857  30.919  1.00  0.00    -0.237 OA
ATOM     87  O   UNL A   1      53.201  26.289  28.498  1.00  0.00    -0.237 OA
ATOM     88  O   UNL A   1      53.319  28.158  30.100  1.00  0.00    -0.744 OA
ENDBRANCH  84  85
ENDBRANCH  58  79
ENDBRANCH  32  33
ENDBRANCH  25  27
ENDBRANCH  24  25
ENDBRANCH   1  24
TORSDOF 16
ENDMDL
MODEL 3
REMARK VINA RESULT:     -10.6      4.043      7.091
REMARK SMILES CC(=O)Nc1cccc(-c2ccc(F)c(C(=O)OCCOC(=O)c3ccc(-c4c5nc(c(-c6ccc(S(=O)(=O)[O-])cc6)c6ccc([nH]6)c(-c6ccc(S(=O)(=O)[O-])cc6)c6nc(c(-c7ccc(S(=O)(=O)[O-])cc7)c7ccc4[nH]7)C=C6)C=C5)cc3)c2)c1
REMARK SMILES IDX 20 1 19 2 18 3 16 4 17 5 15 6 10 7 11 8 84 9 12 10 13 11
REMARK SMILES IDX 14 12 9 13 5 14 6 15 85 16 7 17 8 18 4 19 1 20 2 21 3 22
REMARK SMILES IDX 21 24 22 25 23 26 24 27 25 28 83 29 26 30 82 31 27 32 28 33
REMARK SMILES IDX 29 34 76 35 30 36 81 37 75 38 77 39 31 40 80 41 74 42 73 43
REMARK SMILES IDX 32 45 62 46 43 47 61 48 44 49 47 50 60 51 78 52 45 53 46 54
REMARK SMILES IDX 59 56 79 57 48 58 33 59 34 60 42 61 35 62 41 63 36 64 37 65
REMARK SMILES IDX 38 66 39 67 40 68 63 69 64 70 72 71 65 72 71 73 66 74 67 75
REMARK SMILES IDX 68 76 69 77 70 78 49 79 50 80 58 81 51 82 57 83 52 84 53 85
REMARK SMILES IDX 54 86 55 87 56 88
REMARK H PARENT 4 23 77 44 47 55
REMARK Flexibility Score: inf
ROOT
ATOM      1  C   UNL A   1      34.179  31.096  27.625  1.00  0.00     0.275 C 
ENDROOT
BRANCH   1   2
ATOM      2  C   UNL A   1      32.905  30.400  27.140  1.00  0.00     0.275 C 
BRANCH   2   3
ATOM      3  O   UNL A   1      33.212  29.099  26.602  1.00  0.00    -0.458 OA
BRANCH   3   4
ATOM      4  C   UNL A   1      32.408  28.071  26.977  1.00  0.00     0.341 C 
ATOM      5  O   UNL A   1      31.713  28.034  27.977  1.00  0.00    -0.246 OA
BRANCH   4   6
ATOM      6  C   UNL A   1      32.458  27.001  25.954  1.00  0.00     0.096 A 
ATOM      7  C   UNL A   1      33.475  24.972  25.060  1.00  0.00    -0.017 A 
ATOM      8  C   UNL A   1      32.541  24.973  24.016  1.00  0.00     0.012 A 
ATOM      9  C   UNL A   1      33.461  26.028  25.990  1.00  0.00     0.027 A 
ATOM     10  C   UNL A   1      31.540  25.942  23.974  1.00  0.00     0.041 A 
ATOM     11  C   UNL A   1      31.474  26.913  24.969  1.00  0.00     0.137 A 
ATOM     12  F   UNL A   1      30.423  27.742  24.951  1.00  0.00    -0.206 F 
BRANCH   7  13
ATOM     13  C   UNL A   1      34.337  23.812  25.298  1.00  0.00    -0.016 A 
ATOM     14  C   UNL A   1      34.459  21.406  25.727  1.00  0.00     0.041 A 
ATOM     15  C   UNL A   1      35.850  21.504  25.785  1.00  0.00     0.026 A 
ATOM     16  C   UNL A   1      33.721  22.565  25.512  1.00  0.00     0.034 A 
ATOM     17  C   UNL A   1      36.484  22.730  25.553  1.00  0.00     0.003 A 
ATOM     18  C   UNL A   1      35.732  23.879  25.299  1.00  0.00     0.009 A 
BRANCH  14  19
ATOM     19  N   UNL A   1      33.864  20.155  25.951  1.00  0.00    -0.326 N 
ATOM     20  C   UNL A   1      32.569  19.872  23.832  1.00  0.00     0.114 C 
ATOM     21  C   UNL A   1      32.906  19.476  25.247  1.00  0.00     0.221 C 
ATOM     22  O   UNL A   1      32.373  18.492  25.766  1.00  0.00    -0.275 OA
ATOM     23  H   UNL A   1      34.192  19.684  26.750  1.00  0.00     0.169 HD
ENDBRANCH  14  19
ENDBRANCH   7  13
ENDBRANCH   4   6
ENDBRANCH   3   4
ENDBRANCH   2   3
ENDBRANCH   1   2
BRANCH   1  24
ATOM     24  O   UNL A   1      35.120  30.132  28.126  1.00  0.00    -0.458 OA
BRANCH  24  25
ATOM     25  C   UNL A   1      35.988  30.603  29.051  1.00  0.00     0.338 C 
ATOM     26  O   UNL A   1      35.753  31.366  29.973  1.00  0.00    -0.246 OA
BRANCH  25  27
ATOM     27  C   UNL A   1      37.291  29.956  28.863  1.00  0.00     0.060 A 
ATOM     28  C   UNL A   1      37.991  29.568  30.000  1.00  0.00     0.016 A 
ATOM     29  C   UNL A   1      37.878  29.850  27.607  1.00  0.00     0.016 A 
ATOM     30  C   UNL A   1      39.314  29.153  29.913  1.00  0.00     0.010 A 
ATOM     31  C   UNL A   1      39.181  29.349  27.508  1.00  0.00     0.010 A 
ATOM     32  C   UNL A   1      39.925  29.027  28.663  1.00  0.00    -0.014 A 
BRANCH  32  33
ATOM     33  C   UNL A   1      41.350  28.611  28.548  1.00  0.00     0.031 A 
ATOM     34  C   UNL A   1      42.433  29.652  28.657  1.00  0.00     0.074 A 
ATOM     35  C   UNL A   1      41.683  27.321  28.335  1.00  0.00     0.049 A 
ATOM     36  N   UNL A   1      43.695  29.574  28.323  1.00  0.00    -0.248 NA
ATOM     37  C   UNL A   1      42.035  30.963  29.200  1.00  0.00     0.031 C 
ATOM     38  C   UNL A   1      40.749  26.195  28.291  1.00  0.00     0.029 A 
ATOM     39  N   UNL A   1      42.907  26.744  28.098  1.00  0.00    -0.354 N 
ATOM     40  C   UNL A   1      44.228  30.836  28.560  1.00  0.00     0.074 A 
ATOM     41  C   UNL A   1      43.152  31.664  29.060  1.00  0.00     0.031 C 
ATOM     42  C   UNL A   1      41.431  25.065  28.045  1.00  0.00     0.029 A 
ATOM     43  C   UNL A   1      42.832  25.398  27.819  1.00  0.00     0.049 A 
ATOM     44  H   UNL A   1      43.755  27.243  28.126  1.00  0.00     0.167 HD
ATOM     45  C   UNL A   1      45.498  31.264  28.371  1.00  0.00     0.031 A 
ATOM     46  C   UNL A   1      43.767  24.538  27.367  1.00  0.00     0.031 A 
ATOM     47  C   UNL A   1      46.565  30.421  27.899  1.00  0.00     0.049 A 
ATOM     48  C   UNL A   1      45.157  25.047  27.099  1.00  0.00     0.074 A 
ATOM     49  C   UNL A   1      47.885  30.757  27.655  1.00  0.00     0.029 A 
ATOM     50  N   UNL A   1      46.439  29.068  27.623  1.00  0.00    -0.354 N 
ATOM     51  N   UNL A   1      45.632  26.261  27.253  1.00  0.00    -0.248 NA
ATOM     52  C   UNL A   1      46.135  24.078  26.588  1.00  0.00     0.031 C 
ATOM     53  C   UNL A   1      48.547  29.616  27.191  1.00  0.00     0.029 A 
ATOM     54  C   UNL A   1      47.655  28.555  27.206  1.00  0.00     0.049 A 
ATOM     55  H   UNL A   1      45.606  28.549  27.708  1.00  0.00     0.167 HD
ATOM     56  C   UNL A   1      46.972  26.192  26.886  1.00  0.00     0.074 A 
ATOM     57  C   UNL A   1      47.233  24.818  26.511  1.00  0.00     0.031 C 
ATOM     58  C   UNL A   1      47.900  27.178  26.862  1.00  0.00     0.031 A 
BRANCH  45  59
ATOM     59  C   UNL A   1      45.797  32.717  28.636  1.00  0.00    -0.014 A 
ATOM     60  C   UNL A   1      46.051  33.189  29.935  1.00  0.00     0.010 A 
ATOM     61  C   UNL A   1      45.868  33.617  27.555  1.00  0.00     0.010 A 
ATOM     62  C   UNL A   1      46.331  34.541  30.154  1.00  0.00     0.020 A 
ATOM     63  C   UNL A   1      46.178  34.965  27.767  1.00  0.00     0.020 A 
ATOM     64  C   UNL A   1      46.391  35.421  29.068  1.00  0.00     0.054 A 
BRANCH  64  65
ATOM     65  S   UNL A   1      46.781  37.165  29.381  1.00  0.00     0.124 S 
ATOM     66  O   UNL A   1      47.365  37.108  30.719  1.00  0.00    -0.237 OA
ATOM     67  O   UNL A   1      47.714  37.483  28.303  1.00  0.00    -0.237 OA
ATOM     68  O   UNL A   1      45.483  37.832  29.296  1.00  0.00    -0.744 OA
ENDBRANCH  64  65
ENDBRANCH  45  59
BRANCH  46  69
ATOM     69  C   UNL A   1      43.396  23.126  27.068  1.00  0.00    -0.014 A 
ATOM     70  C   UNL A   1      42.984  22.255  28.091  1.00  0.00     0.010 A 
ATOM     71  C   UNL A   1      43.455  22.645  25.746  1.00  0.00     0.010 A 
ATOM     72  C   UNL A   1      42.656  20.926  27.800  1.00  0.00     0.020 A 
ATOM     73  C   UNL A   1      43.096  21.328  25.447  1.00  0.00     0.020 A 
ATOM     74  C   UNL A   1      42.714  20.472  26.479  1.00  0.00     0.054 A 
BRANCH  74  75
ATOM     75  S   UNL A   1      42.251  18.754  26.120  1.00  0.00     0.124 S 
ATOM     76  O   UNL A   1      42.461  18.108  27.411  1.00  0.00    -0.237 OA
ATOM     77  O   UNL A   1      40.859  18.885  25.695  1.00  0.00    -0.237 OA
ATOM     78  O   UNL A   1      43.182  18.363  25.065  1.00  0.00    -0.744 OA
ENDBRANCH  74  75
ENDBRANCH  46  69
BRANCH  58  79
ATOM     79  C   UNL A   1      49.307  26.803  26.486  1.00  0.00    -0.014 A 
ATOM     80  C   UNL A   1      50.221  26.328  27.442  1.00  0.00     0.010 A 
ATOM     81  C   UNL A   1      49.687  26.841  25.131  1.00  0.00     0.010 A 
ATOM     82  C   UNL A   1      51.496  25.910  27.051  1.00  0.00     0.020 A 
ATOM     83  C   UNL A   1      50.950  26.400  24.732  1.00  0.00     0.020 A 
ATOM     84  C   UNL A   1      51.850  25.943  25.697  1.00  0.00     0.054 A 
BRANCH  84  85
ATOM     85  S   UNL A   1      53.481  25.320  25.206  1.00  0.00     0.124 S 
ATOM     86  O   UNL A   1      53.331  23.882  25.406  1.00  0.00    -0.237 OA
ATOM     87  O   UNL A   1      53.584  25.754  23.815  1.00  0.00    -0.237 OA
ATOM     88  O   UNL A   1      54.398  25.985  26.130  1.00  0.00    -0.744 OA
ENDBRANCH  84  85
ENDBRANCH  58  79
ENDBRANCH  32  33
ENDBRANCH  25  27
ENDBRANCH  24  25
ENDBRANCH   1  24
TORSDOF 16
ENDMDL
