MODEL 1
REMARK VINA RESULT:     -12.3      0.000      0.000
REMARK SMILES NC(=O)[C@@H]1CCC[N@@H+]1[C@H](C(=O)OCCOC(=O)c1ccc(-c2c3nc(c(-c4ccc(S(=O)(=O)[O-])cc4)c4ccc([nH]4)c(-c4ccc(S(=O)(=O)[O-])cc4)c4nc(c(-c5ccc(S(=O)(=O)[O-])cc5)c5ccc2[nH]5)C=C4)C=C3)cc1)c1c[nH]c2cc(NC(=O)c3ccccc3)ccc12
REMARK SMILES IDX 13 1 12 2 10 3 11 4 9 5 8 6 4 7 5 8 6 9 7 10 2 12 1 13 3 16
REMARK SMILES IDX 78 17 79 18 95 19 80 20 81 21 94 22 82 24 93 25 83 26 84 27
REMARK SMILES IDX 85 28 86 30 87 31 88 32 92 33 89 34 91 35 90 36 14 37 15 38
REMARK SMILES IDX 16 39 17 40 18 41 19 42 77 43 20 44 76 45 21 46 22 47 23 48
REMARK SMILES IDX 70 49 24 50 75 51 69 52 71 53 25 54 74 55 68 56 67 57 26 59
REMARK SMILES IDX 56 60 37 61 55 62 38 63 41 64 54 65 72 66 39 67 40 68 53 70
REMARK SMILES IDX 73 71 42 72 27 73 28 74 36 75 29 76 35 77 30 78 31 79 32 80
REMARK SMILES IDX 33 81 34 82 57 83 58 84 66 85 59 86 65 87 60 88 61 89 62 90
REMARK SMILES IDX 63 91 64 92 43 93 44 94 52 95 45 96 51 97 46 98 47 99 48 100
REMARK SMILES IDX 49 101 50 102
REMARK H PARENT 8 11 1 14 1 15 80 23 84 29 71 58 41 69
REMARK Flexibility Score: inf
ROOT
ATOM      1  C   UNL A   1      37.597  22.067  25.063  1.00  0.00     0.274 C 
ENDROOT
BRANCH   1   2
ATOM      2  O   UNL A   1      36.736  23.196  24.777  1.00  0.00    -0.457 OA
BRANCH   2   3
ATOM      3  C   UNL A   1      35.796  23.078  23.785  1.00  0.00     0.370 C 
ATOM      4  O   UNL A   1      35.981  23.520  22.650  1.00  0.00    -0.245 OA
BRANCH   3   5
ATOM      5  C   UNL A   1      34.444  22.360  24.235  1.00  0.00     0.329 C 
BRANCH   5   6
ATOM      6  N   UNL A   1      34.260  22.201  25.703  1.00  0.00    -0.309 N 
ATOM      7  C   UNL A   1      34.043  20.877  26.319  1.00  0.00     0.275 C 
ATOM      8  C   UNL A   1      33.322  21.112  27.646  1.00  0.00     0.081 C 
ATOM      9  C   UNL A   1      33.343  22.618  27.798  1.00  0.00     0.068 C 
ATOM     10  C   UNL A   1      33.331  23.120  26.359  1.00  0.00     0.264 C 
ATOM     11  H   UNL A   1      35.237  22.439  25.882  1.00  0.00     0.349 HD
BRANCH   7  12
ATOM     12  C   UNL A   1      33.262  19.926  25.456  1.00  0.00     0.275 C 
ATOM     13  N   UNL A   1      33.943  18.856  24.958  1.00  0.00    -0.365 N 
ATOM     14  H   UNL A   1      33.481  18.201  24.386  1.00  0.00     0.159 HD
ATOM     15  H   UNL A   1      34.896  18.737  25.169  1.00  0.00     0.159 HD
ATOM     16  O   UNL A   1      32.069  20.096  25.243  1.00  0.00    -0.268 OA
ENDBRANCH   7  12
ENDBRANCH   5   6
BRANCH   5  17
ATOM     17  C   UNL A   1      33.240  22.889  23.448  1.00  0.00     0.046 A 
ATOM     18  C   UNL A   1      33.060  22.684  22.079  1.00  0.00     0.094 A 
ATOM     19  C   UNL A   1      32.264  23.908  23.698  1.00  0.00     0.009 A 
ATOM     20  N   UNL A   1      32.999  23.983  21.623  1.00  0.00    -0.361 N 
ATOM     21  C   UNL A   1      32.331  24.715  22.567  1.00  0.00     0.048 A 
ATOM     22  C   UNL A   1      31.401  24.336  24.719  1.00  0.00     0.013 A 
ATOM     23  H   UNL A   1      33.368  24.322  20.774  1.00  0.00     0.166 HD
ATOM     24  C   UNL A   1      31.821  26.012  22.505  1.00  0.00     0.052 A 
ATOM     25  C   UNL A   1      30.814  25.618  24.637  1.00  0.00     0.027 A 
ATOM     26  C   UNL A   1      31.109  26.504  23.589  1.00  0.00     0.043 A 
BRANCH  26  27
ATOM     27  N   UNL A   1      30.609  27.822  23.679  1.00  0.00    -0.322 N 
ATOM     28  C   UNL A   1      31.018  28.997  24.288  1.00  0.00     0.255 C 
ATOM     29  H   UNL A   1      29.761  27.932  23.190  1.00  0.00     0.170 HD
ATOM     30  O   UNL A   1      30.317  30.003  24.141  1.00  0.00    -0.269 OA
BRANCH  28  31
ATOM     31  C   UNL A   1      32.137  29.118  25.255  1.00  0.00     0.040 A 
ATOM     32  C   UNL A   1      32.127  30.201  26.150  1.00  0.00     0.014 A 
ATOM     33  C   UNL A   1      33.231  28.255  25.261  1.00  0.00     0.014 A 
ATOM     34  C   UNL A   1      33.076  30.292  27.173  1.00  0.00     0.001 A 
ATOM     35  C   UNL A   1      34.172  28.328  26.298  1.00  0.00     0.001 A 
ATOM     36  C   UNL A   1      34.076  29.325  27.270  1.00  0.00     0.000 A 
ENDBRANCH  28  31
ENDBRANCH  26  27
ENDBRANCH   5  17
ENDBRANCH   3   5
ENDBRANCH   2   3
ENDBRANCH   1   2
BRANCH   1  37
ATOM     37  C   UNL A   1      38.689  22.437  26.075  1.00  0.00     0.275 C 
BRANCH  37  38
ATOM     38  O   UNL A   1      38.857  23.869  26.131  1.00  0.00    -0.458 OA
BRANCH  38  39
ATOM     39  C   UNL A   1      39.907  24.294  26.871  1.00  0.00     0.338 C 
ATOM     40  O   UNL A   1      41.017  23.750  26.862  1.00  0.00    -0.246 OA
BRANCH  39  41
ATOM     41  C   UNL A   1      39.632  25.547  27.613  1.00  0.00     0.060 A 
ATOM     42  C   UNL A   1      40.344  26.689  27.292  1.00  0.00     0.016 A 
ATOM     43  C   UNL A   1      38.934  25.512  28.831  1.00  0.00     0.016 A 
ATOM     44  C   UNL A   1      40.605  27.597  28.315  1.00  0.00     0.010 A 
ATOM     45  C   UNL A   1      38.984  26.576  29.739  1.00  0.00     0.010 A 
ATOM     46  C   UNL A   1      39.890  27.614  29.532  1.00  0.00    -0.014 A 
BRANCH  46  47
ATOM     47  C   UNL A   1      40.103  28.715  30.532  1.00  0.00     0.031 A 
ATOM     48  C   UNL A   1      41.194  28.676  31.590  1.00  0.00     0.074 A 
ATOM     49  C   UNL A   1      39.290  29.795  30.481  1.00  0.00     0.049 A 
ATOM     50  N   UNL A   1      41.312  29.417  32.668  1.00  0.00    -0.248 NA
ATOM     51  C   UNL A   1      42.275  27.686  31.444  1.00  0.00     0.031 C 
ATOM     52  C   UNL A   1      38.197  29.991  29.522  1.00  0.00     0.029 A 
ATOM     53  N   UNL A   1      39.260  30.946  31.229  1.00  0.00    -0.354 N 
ATOM     54  C   UNL A   1      42.424  28.938  33.362  1.00  0.00     0.074 A 
ATOM     55  C   UNL A   1      42.962  27.850  32.572  1.00  0.00     0.031 C 
ATOM     56  C   UNL A   1      37.711  31.227  29.635  1.00  0.00     0.029 A 
ATOM     57  C   UNL A   1      38.258  31.807  30.845  1.00  0.00     0.049 A 
ATOM     58  H   UNL A   1      39.888  31.136  31.963  1.00  0.00     0.167 HD
ATOM     59  C   UNL A   1      42.928  29.362  34.552  1.00  0.00     0.031 A 
ATOM     60  C   UNL A   1      37.707  32.874  31.449  1.00  0.00     0.031 A 
ATOM     61  C   UNL A   1      42.393  30.483  35.296  1.00  0.00     0.049 A 
ATOM     62  C   UNL A   1      38.219  33.270  32.790  1.00  0.00     0.074 A 
ATOM     63  C   UNL A   1      42.824  30.998  36.510  1.00  0.00     0.029 A 
ATOM     64  N   UNL A   1      41.329  31.275  34.890  1.00  0.00    -0.354 N 
ATOM     65  N   UNL A   1      39.190  32.731  33.484  1.00  0.00    -0.248 NA
ATOM     66  C   UNL A   1      37.543  34.393  33.441  1.00  0.00     0.031 C 
ATOM     67  C   UNL A   1      41.988  32.064  36.859  1.00  0.00     0.029 A 
ATOM     68  C   UNL A   1      41.079  32.261  35.834  1.00  0.00     0.049 A 
ATOM     69  H   UNL A   1      40.823  31.155  34.054  1.00  0.00     0.167 HD
ATOM     70  C   UNL A   1      39.245  33.453  34.664  1.00  0.00     0.074 A 
ATOM     71  C   UNL A   1      38.229  34.486  34.571  1.00  0.00     0.031 C 
ATOM     72  C   UNL A   1      40.058  33.272  35.731  1.00  0.00     0.031 A 
BRANCH  59  73
ATOM     73  C   UNL A   1      44.086  28.609  35.176  1.00  0.00    -0.014 A 
ATOM     74  C   UNL A   1      43.891  27.471  35.981  1.00  0.00     0.010 A 
ATOM     75  C   UNL A   1      45.407  28.973  34.839  1.00  0.00     0.010 A 
ATOM     76  C   UNL A   1      44.988  26.731  36.450  1.00  0.00     0.020 A 
ATOM     77  C   UNL A   1      46.505  28.222  35.283  1.00  0.00     0.020 A 
ATOM     78  C   UNL A   1      46.287  27.111  36.097  1.00  0.00     0.054 A 
BRANCH  78  79
ATOM     79  S   UNL A   1      47.685  26.106  36.681  1.00  0.00     0.124 S 
ATOM     80  O   UNL A   1      48.799  26.663  35.918  1.00  0.00    -0.237 OA
ATOM     81  O   UNL A   1      47.705  26.386  38.115  1.00  0.00    -0.237 OA
ATOM     82  O   UNL A   1      47.308  24.740  36.323  1.00  0.00    -0.744 OA
ENDBRANCH  78  79
ENDBRANCH  59  73
BRANCH  60  83
ATOM     83  C   UNL A   1      36.504  33.506  30.838  1.00  0.00    -0.014 A 
ATOM     84  C   UNL A   1      35.344  33.727  31.592  1.00  0.00     0.010 A 
ATOM     85  C   UNL A   1      36.565  33.982  29.512  1.00  0.00     0.010 A 
ATOM     86  C   UNL A   1      34.269  34.425  31.034  1.00  0.00     0.020 A 
ATOM     87  C   UNL A   1      35.516  34.721  28.969  1.00  0.00     0.020 A 
ATOM     88  C   UNL A   1      34.368  34.928  29.732  1.00  0.00     0.054 A 
BRANCH  88  89
ATOM     89  S   UNL A   1      33.001  35.911  29.061  1.00  0.00     0.124 S 
ATOM     90  O   UNL A   1      33.711  36.998  28.394  1.00  0.00    -0.237 OA
ATOM     91  O   UNL A   1      32.327  34.959  28.180  1.00  0.00    -0.237 OA
ATOM     92  O   UNL A   1      32.239  36.293  30.248  1.00  0.00    -0.744 OA
ENDBRANCH  88  89
ENDBRANCH  60  83
BRANCH  72  93
ATOM     93  C   UNL A   1      39.904  34.256  36.855  1.00  0.00    -0.014 A 
ATOM     94  C   UNL A   1      39.190  33.924  38.021  1.00  0.00     0.010 A 
ATOM     95  C   UNL A   1      40.466  35.538  36.729  1.00  0.00     0.010 A 
ATOM     96  C   UNL A   1      38.999  34.878  39.022  1.00  0.00     0.020 A 
ATOM     97  C   UNL A   1      40.303  36.485  37.742  1.00  0.00     0.020 A 
ATOM     98  C   UNL A   1      39.554  36.153  38.874  1.00  0.00     0.054 A 
BRANCH  98  99
ATOM     99  S   UNL A   1      39.303  37.371  40.193  1.00  0.00     0.124 S 
ATOM    100  O   UNL A   1      38.661  36.568  41.230  1.00  0.00    -0.237 OA
ATOM    101  O   UNL A   1      40.666  37.806  40.489  1.00  0.00    -0.237 OA
ATOM    102  O   UNL A   1      38.453  38.384  39.573  1.00  0.00    -0.744 OA
ENDBRANCH  98  99
ENDBRANCH  72  93
ENDBRANCH  46  47
ENDBRANCH  39  41
ENDBRANCH  38  39
ENDBRANCH  37  38
ENDBRANCH   1  37
TORSDOF 19
ENDMDL
MODEL 2
REMARK VINA RESULT:     -12.1      5.733     11.232
REMARK SMILES NC(=O)[C@@H]1CCC[N@@H+]1[C@H](C(=O)OCCOC(=O)c1ccc(-c2c3nc(c(-c4ccc(S(=O)(=O)[O-])cc4)c4ccc([nH]4)c(-c4ccc(S(=O)(=O)[O-])cc4)c4nc(c(-c5ccc(S(=O)(=O)[O-])cc5)c5ccc2[nH]5)C=C4)C=C3)cc1)c1c[nH]c2cc(NC(=O)c3ccccc3)ccc12
REMARK SMILES IDX 13 1 12 2 10 3 11 4 9 5 8 6 4 7 5 8 6 9 7 10 2 12 1 13 3 16
REMARK SMILES IDX 78 17 79 18 95 19 80 20 81 21 94 22 82 24 93 25 83 26 84 27
REMARK SMILES IDX 85 28 86 30 87 31 88 32 92 33 89 34 91 35 90 36 14 37 15 38
REMARK SMILES IDX 16 39 17 40 18 41 19 42 77 43 20 44 76 45 21 46 22 47 23 48
REMARK SMILES IDX 70 49 24 50 75 51 69 52 71 53 25 54 74 55 68 56 67 57 26 59
REMARK SMILES IDX 56 60 37 61 55 62 38 63 41 64 54 65 72 66 39 67 40 68 53 70
REMARK SMILES IDX 73 71 42 72 27 73 28 74 36 75 29 76 35 77 30 78 31 79 32 80
REMARK SMILES IDX 33 81 34 82 57 83 58 84 66 85 59 86 65 87 60 88 61 89 62 90
REMARK SMILES IDX 63 91 64 92 43 93 44 94 52 95 45 96 51 97 46 98 47 99 48 100
REMARK SMILES IDX 49 101 50 102
REMARK H PARENT 8 11 1 14 1 15 80 23 84 29 71 58 41 69
REMARK Flexibility Score: inf
ROOT
ATOM      1  C   UNL A   1      33.452  29.511  27.330  1.00  0.00     0.274 C 
ENDROOT
BRANCH   1   2
ATOM      2  O   UNL A   1      32.039  29.215  27.214  1.00  0.00    -0.457 OA
BRANCH   2   3
ATOM      3  C   UNL A   1      31.655  27.940  26.882  1.00  0.00     0.370 C 
ATOM      4  O   UNL A   1      31.586  27.038  27.717  1.00  0.00    -0.245 OA
BRANCH   3   5
ATOM      5  C   UNL A   1      31.345  27.724  25.332  1.00  0.00     0.329 C 
BRANCH   5   6
ATOM      6  N   UNL A   1      32.431  28.125  24.398  1.00  0.00    -0.309 N 
ATOM      7  C   UNL A   1      32.141  28.742  23.088  1.00  0.00     0.275 C 
ATOM      8  C   UNL A   1      33.348  28.473  22.189  1.00  0.00     0.081 C 
ATOM      9  C   UNL A   1      34.363  27.864  23.132  1.00  0.00     0.068 C 
ATOM     10  C   UNL A   1      33.503  27.157  24.172  1.00  0.00     0.264 C 
ATOM     11  H   UNL A   1      32.718  28.889  25.012  1.00  0.00     0.349 HD
BRANCH   7  12
ATOM     12  C   UNL A   1      30.881  28.235  22.445  1.00  0.00     0.275 C 
ATOM     13  N   UNL A   1      31.009  27.161  21.616  1.00  0.00    -0.365 N 
ATOM     14  H   UNL A   1      30.215  26.787  21.168  1.00  0.00     0.159 HD
ATOM     15  H   UNL A   1      31.893  26.758  21.466  1.00  0.00     0.159 HD
ATOM     16  O   UNL A   1      29.795  28.749  22.683  1.00  0.00    -0.268 OA
ENDBRANCH   7  12
ENDBRANCH   5   6
BRANCH   5  17
ATOM     17  C   UNL A   1      30.690  26.362  25.076  1.00  0.00     0.046 A 
ATOM     18  C   UNL A   1      29.502  25.948  25.681  1.00  0.00     0.094 A 
ATOM     19  C   UNL A   1      31.165  25.122  24.538  1.00  0.00     0.009 A 
ATOM     20  N   UNL A   1      29.920  24.805  26.328  1.00  0.00    -0.361 N 
ATOM     21  C   UNL A   1      30.834  24.189  25.516  1.00  0.00     0.048 A 
ATOM     22  C   UNL A   1      31.892  24.640  23.438  1.00  0.00     0.013 A 
ATOM     23  H   UNL A   1      29.616  24.489  27.210  1.00  0.00     0.166 HD
ATOM     24  C   UNL A   1      31.395  22.914  25.597  1.00  0.00     0.052 A 
ATOM     25  C   UNL A   1      32.404  23.324  23.469  1.00  0.00     0.027 A 
ATOM     26  C   UNL A   1      32.254  22.496  24.592  1.00  0.00     0.043 A 
BRANCH  26  27
ATOM     27  N   UNL A   1      32.943  21.263  24.598  1.00  0.00    -0.322 N 
ATOM     28  C   UNL A   1      34.240  20.853  24.865  1.00  0.00     0.255 C 
ATOM     29  H   UNL A   1      32.359  20.510  24.351  1.00  0.00     0.170 HD
ATOM     30  O   UNL A   1      34.497  19.649  24.784  1.00  0.00    -0.269 OA
BRANCH  28  31
ATOM     31  C   UNL A   1      35.400  21.755  25.069  1.00  0.00     0.040 A 
ATOM     32  C   UNL A   1      35.184  22.971  25.740  1.00  0.00     0.014 A 
ATOM     33  C   UNL A   1      36.668  21.489  24.559  1.00  0.00     0.014 A 
ATOM     34  C   UNL A   1      36.259  23.797  26.085  1.00  0.00     0.001 A 
ATOM     35  C   UNL A   1      37.752  22.300  24.922  1.00  0.00     0.001 A 
ATOM     36  C   UNL A   1      37.552  23.435  25.711  1.00  0.00     0.000 A 
ENDBRANCH  28  31
ENDBRANCH  26  27
ENDBRANCH   5  17
ENDBRANCH   3   5
ENDBRANCH   2   3
ENDBRANCH   1   2
BRANCH   1  37
ATOM     37  C   UNL A   1      33.688  30.989  27.670  1.00  0.00     0.275 C 
BRANCH  37  38
ATOM     38  O   UNL A   1      35.101  31.276  27.707  1.00  0.00    -0.458 OA
BRANCH  38  39
ATOM     39  C   UNL A   1      35.688  31.109  28.914  1.00  0.00     0.338 C 
ATOM     40  O   UNL A   1      35.228  31.561  29.968  1.00  0.00    -0.246 OA
BRANCH  39  41
ATOM     41  C   UNL A   1      36.882  30.232  28.869  1.00  0.00     0.060 A 
ATOM     42  C   UNL A   1      37.545  29.936  30.047  1.00  0.00     0.016 A 
ATOM     43  C   UNL A   1      37.538  29.989  27.651  1.00  0.00     0.016 A 
ATOM     44  C   UNL A   1      38.920  29.732  29.981  1.00  0.00     0.010 A 
ATOM     45  C   UNL A   1      38.851  29.506  27.605  1.00  0.00     0.010 A 
ATOM     46  C   UNL A   1      39.601  29.442  28.778  1.00  0.00    -0.014 A 
BRANCH  46  47
ATOM     47  C   UNL A   1      41.056  29.071  28.790  1.00  0.00     0.031 A 
ATOM     48  C   UNL A   1      42.164  30.067  29.093  1.00  0.00     0.074 A 
ATOM     49  C   UNL A   1      41.395  27.788  28.526  1.00  0.00     0.049 A 
ATOM     50  N   UNL A   1      43.453  29.946  28.873  1.00  0.00    -0.248 NA
ATOM     51  C   UNL A   1      41.797  31.359  29.700  1.00  0.00     0.031 C 
ATOM     52  C   UNL A   1      40.452  26.706  28.221  1.00  0.00     0.029 A 
ATOM     53  N   UNL A   1      42.615  27.158  28.493  1.00  0.00    -0.354 N 
ATOM     54  C   UNL A   1      44.037  31.160  29.237  1.00  0.00     0.074 A 
ATOM     55  C   UNL A   1      42.961  32.004  29.715  1.00  0.00     0.031 C 
ATOM     56  C   UNL A   1      41.096  25.541  28.183  1.00  0.00     0.029 A 
ATOM     57  C   UNL A   1      42.518  25.822  28.181  1.00  0.00     0.049 A 
ATOM     58  H   UNL A   1      43.469  27.614  28.672  1.00  0.00     0.167 HD
ATOM     59  C   UNL A   1      45.343  31.531  29.159  1.00  0.00     0.031 A 
ATOM     60  C   UNL A   1      43.433  24.922  27.781  1.00  0.00     0.031 A 
ATOM     61  C   UNL A   1      46.402  30.648  28.718  1.00  0.00     0.049 A 
ATOM     62  C   UNL A   1      44.844  25.371  27.623  1.00  0.00     0.074 A 
ATOM     63  C   UNL A   1      47.758  30.917  28.600  1.00  0.00     0.029 A 
ATOM     64  N   UNL A   1      46.232  29.322  28.345  1.00  0.00    -0.354 N 
ATOM     65  N   UNL A   1      45.354  26.555  27.856  1.00  0.00    -0.248 NA
ATOM     66  C   UNL A   1      45.793  24.377  27.119  1.00  0.00     0.031 C 
ATOM     67  C   UNL A   1      48.394  29.773  28.107  1.00  0.00     0.029 A 
ATOM     68  C   UNL A   1      47.451  28.768  27.983  1.00  0.00     0.049 A 
ATOM     69  H   UNL A   1      45.371  28.845  28.338  1.00  0.00     0.167 HD
ATOM     70  C   UNL A   1      46.695  26.450  27.526  1.00  0.00     0.074 A 
ATOM     71  C   UNL A   1      46.917  25.077  27.108  1.00  0.00     0.031 C 
ATOM     72  C   UNL A   1      47.652  27.406  27.559  1.00  0.00     0.031 A 
BRANCH  59  73
ATOM     73  C   UNL A   1      45.731  32.955  29.506  1.00  0.00    -0.014 A 
ATOM     74  C   UNL A   1      46.179  33.316  30.790  1.00  0.00     0.010 A 
ATOM     75  C   UNL A   1      45.773  33.926  28.484  1.00  0.00     0.010 A 
ATOM     76  C   UNL A   1      46.638  34.617  31.047  1.00  0.00     0.020 A 
ATOM     77  C   UNL A   1      46.254  35.220  28.728  1.00  0.00     0.020 A 
ATOM     78  C   UNL A   1      46.674  35.560  30.014  1.00  0.00     0.054 A 
BRANCH  78  79
ATOM     79  S   UNL A   1      47.318  37.224  30.366  1.00  0.00     0.124 S 
ATOM     80  O   UNL A   1      48.155  37.479  29.196  1.00  0.00    -0.237 OA
ATOM     81  O   UNL A   1      46.100  38.027  30.453  1.00  0.00    -0.237 OA
ATOM     82  O   UNL A   1      48.041  37.061  31.624  1.00  0.00    -0.744 OA
ENDBRANCH  78  79
ENDBRANCH  59  73
BRANCH  60  83
ATOM     83  C   UNL A   1      42.975  23.572  27.352  1.00  0.00    -0.014 A 
ATOM     84  C   UNL A   1      42.812  23.262  25.995  1.00  0.00     0.010 A 
ATOM     85  C   UNL A   1      42.801  22.556  28.316  1.00  0.00     0.010 A 
ATOM     86  C   UNL A   1      42.494  21.957  25.608  1.00  0.00     0.020 A 
ATOM     87  C   UNL A   1      42.533  21.244  27.931  1.00  0.00     0.020 A 
ATOM     88  C   UNL A   1      42.370  20.955  26.577  1.00  0.00     0.054 A 
BRANCH  88  89
ATOM     89  S   UNL A   1      42.051  19.251  26.047  1.00  0.00     0.124 S 
ATOM     90  O   UNL A   1      42.822  19.172  24.810  1.00  0.00    -0.237 OA
ATOM     91  O   UNL A   1      42.568  18.468  27.168  1.00  0.00    -0.237 OA
ATOM     92  O   UNL A   1      40.600  19.208  25.888  1.00  0.00    -0.744 OA
ENDBRANCH  88  89
ENDBRANCH  60  83
BRANCH  72  93
ATOM     93  C   UNL A   1      49.038  26.968  27.178  1.00  0.00    -0.014 A 
ATOM     94  C   UNL A   1      49.395  26.772  25.832  1.00  0.00     0.010 A 
ATOM     95  C   UNL A   1      49.987  26.730  28.187  1.00  0.00     0.010 A 
ATOM     96  C   UNL A   1      50.667  26.296  25.506  1.00  0.00     0.020 A 
ATOM     97  C   UNL A   1      51.269  26.284  27.862  1.00  0.00     0.020 A 
ATOM     98  C   UNL A   1      51.594  26.052  26.524  1.00  0.00     0.054 A 
BRANCH  98  99
ATOM     99  S   UNL A   1      53.242  25.448  26.074  1.00  0.00     0.124 S 
ATOM    100  O   UNL A   1      53.923  25.434  27.366  1.00  0.00    -0.237 OA
ATOM    101  O   UNL A   1      52.956  24.136  25.499  1.00  0.00    -0.237 OA
ATOM    102  O   UNL A   1      53.730  26.445  25.124  1.00  0.00    -0.744 OA
ENDBRANCH  98  99
ENDBRANCH  72  93
ENDBRANCH  46  47
ENDBRANCH  39  41
ENDBRANCH  38  39
ENDBRANCH  37  38
ENDBRANCH   1  37
TORSDOF 19
ENDMDL
MODEL 3
REMARK VINA RESULT:     -11.9      1.836      2.723
REMARK SMILES NC(=O)[C@@H]1CCC[N@@H+]1[C@H](C(=O)OCCOC(=O)c1ccc(-c2c3nc(c(-c4ccc(S(=O)(=O)[O-])cc4)c4ccc([nH]4)c(-c4ccc(S(=O)(=O)[O-])cc4)c4nc(c(-c5ccc(S(=O)(=O)[O-])cc5)c5ccc2[nH]5)C=C4)C=C3)cc1)c1c[nH]c2cc(NC(=O)c3ccccc3)ccc12
REMARK SMILES IDX 13 1 12 2 10 3 11 4 9 5 8 6 4 7 5 8 6 9 7 10 2 12 1 13 3 16
REMARK SMILES IDX 78 17 79 18 95 19 80 20 81 21 94 22 82 24 93 25 83 26 84 27
REMARK SMILES IDX 85 28 86 30 87 31 88 32 92 33 89 34 91 35 90 36 14 37 15 38
REMARK SMILES IDX 16 39 17 40 18 41 19 42 77 43 20 44 76 45 21 46 22 47 23 48
REMARK SMILES IDX 70 49 24 50 75 51 69 52 71 53 25 54 74 55 68 56 67 57 26 59
REMARK SMILES IDX 56 60 37 61 55 62 38 63 41 64 54 65 72 66 39 67 40 68 53 70
REMARK SMILES IDX 73 71 42 72 27 73 28 74 36 75 29 76 35 77 30 78 31 79 32 80
REMARK SMILES IDX 33 81 34 82 57 83 58 84 66 85 59 86 65 87 60 88 61 89 62 90
REMARK SMILES IDX 63 91 64 92 43 93 44 94 52 95 45 96 51 97 46 98 47 99 48 100
REMARK SMILES IDX 49 101 50 102
REMARK H PARENT 8 11 1 14 1 15 80 23 84 29 71 58 41 69
REMARK Flexibility Score: inf
ROOT
ATOM      1  C   UNL A   1      36.686  21.543  25.199  1.00  0.00     0.274 C 
ENDROOT
BRANCH   1   2
ATOM      2  O   UNL A   1      36.064  22.846  25.310  1.00  0.00    -0.457 OA
BRANCH   2   3
ATOM      3  C   UNL A   1      34.953  22.984  26.103  1.00  0.00     0.370 C 
ATOM      4  O   UNL A   1      34.887  22.489  27.229  1.00  0.00    -0.245 OA
BRANCH   3   5
ATOM      5  C   UNL A   1      33.757  23.800  25.433  1.00  0.00     0.329 C 
BRANCH   5   6
ATOM      6  N   UNL A   1      32.430  23.645  26.086  1.00  0.00    -0.309 N 
ATOM      7  C   UNL A   1      31.824  22.317  26.309  1.00  0.00     0.275 C 
ATOM      8  C   UNL A   1      30.313  22.525  26.415  1.00  0.00     0.081 C 
ATOM      9  C   UNL A   1      30.164  24.031  26.435  1.00  0.00     0.068 C 
ATOM     10  C   UNL A   1      31.354  24.517  25.616  1.00  0.00     0.264 C 
ATOM     11  H   UNL A   1      32.805  23.940  26.988  1.00  0.00     0.349 HD
BRANCH   7  12
ATOM     12  C   UNL A   1      32.144  21.315  25.236  1.00  0.00     0.275 C 
ATOM     13  N   UNL A   1      32.581  20.094  25.653  1.00  0.00    -0.365 N 
ATOM     14  H   UNL A   1      32.806  19.399  24.992  1.00  0.00     0.159 HD
ATOM     15  H   UNL A   1      32.673  19.906  26.614  1.00  0.00     0.159 HD
ATOM     16  O   UNL A   1      31.987  21.582  24.051  1.00  0.00    -0.268 OA
ENDBRANCH   7  12
ENDBRANCH   5   6
BRANCH   5  17
ATOM     17  C   UNL A   1      34.184  25.229  25.078  1.00  0.00     0.046 A 
ATOM     18  C   UNL A   1      34.815  26.093  25.973  1.00  0.00     0.094 A 
ATOM     19  C   UNL A   1      33.812  26.143  24.038  1.00  0.00     0.009 A 
ATOM     20  N   UNL A   1      33.927  27.147  25.996  1.00  0.00    -0.361 N 
ATOM     21  C   UNL A   1      33.435  27.291  24.727  1.00  0.00     0.048 A 
ATOM     22  C   UNL A   1      33.646  26.168  22.644  1.00  0.00     0.013 A 
ATOM     23  H   UNL A   1      33.690  27.694  26.780  1.00  0.00     0.166 HD
ATOM     24  C   UNL A   1      32.678  28.321  24.166  1.00  0.00     0.052 A 
ATOM     25  C   UNL A   1      32.948  27.243  22.050  1.00  0.00     0.027 A 
ATOM     26  C   UNL A   1      32.365  28.264  22.817  1.00  0.00     0.043 A 
BRANCH  26  27
ATOM     27  N   UNL A   1      31.545  29.202  22.151  1.00  0.00    -0.322 N 
ATOM     28  C   UNL A   1      30.188  29.479  22.111  1.00  0.00     0.255 C 
ATOM     29  H   UNL A   1      32.066  29.805  21.573  1.00  0.00     0.170 HD
ATOM     30  O   UNL A   1      29.807  30.416  21.404  1.00  0.00    -0.269 OA
BRANCH  28  31
ATOM     31  C   UNL A   1      29.122  28.636  22.706  1.00  0.00     0.040 A 
ATOM     32  C   UNL A   1      29.473  27.361  23.182  1.00  0.00     0.014 A 
ATOM     33  C   UNL A   1      27.783  29.018  22.742  1.00  0.00     0.014 A 
ATOM     34  C   UNL A   1      28.546  26.578  23.877  1.00  0.00     0.001 A 
ATOM     35  C   UNL A   1      26.855  28.249  23.458  1.00  0.00     0.001 A 
ATOM     36  C   UNL A   1      27.244  27.047  24.052  1.00  0.00     0.000 A 
ENDBRANCH  28  31
ENDBRANCH  26  27
ENDBRANCH   5  17
ENDBRANCH   3   5
ENDBRANCH   2   3
ENDBRANCH   1   2
BRANCH   1  37
ATOM     37  C   UNL A   1      38.162  21.589  25.618  1.00  0.00     0.275 C 
BRANCH  37  38
ATOM     38  O   UNL A   1      38.699  22.913  25.417  1.00  0.00    -0.458 OA
BRANCH  38  39
ATOM     39  C   UNL A   1      39.763  23.223  26.193  1.00  0.00     0.338 C 
ATOM     40  O   UNL A   1      40.779  22.523  26.274  1.00  0.00    -0.246 OA
BRANCH  39  41
ATOM     41  C   UNL A   1      39.641  24.543  26.855  1.00  0.00     0.060 A 
ATOM     42  C   UNL A   1      40.453  25.583  26.437  1.00  0.00     0.016 A 
ATOM     43  C   UNL A   1      38.986  24.659  28.092  1.00  0.00     0.016 A 
ATOM     44  C   UNL A   1      40.839  26.524  27.388  1.00  0.00     0.010 A 
ATOM     45  C   UNL A   1      39.174  25.769  28.923  1.00  0.00     0.010 A 
ATOM     46  C   UNL A   1      40.172  26.693  28.621  1.00  0.00    -0.014 A 
BRANCH  46  47
ATOM     47  C   UNL A   1      40.529  27.829  29.536  1.00  0.00     0.031 A 
ATOM     48  C   UNL A   1      41.766  27.826  30.420  1.00  0.00     0.074 A 
ATOM     49  C   UNL A   1      39.715  28.909  29.569  1.00  0.00     0.049 A 
ATOM     50  N   UNL A   1      42.043  28.605  31.441  1.00  0.00    -0.248 NA
ATOM     51  C   UNL A   1      42.817  26.828  30.151  1.00  0.00     0.031 C 
ATOM     52  C   UNL A   1      38.490  29.073  28.778  1.00  0.00     0.029 A 
ATOM     53  N   UNL A   1      39.794  30.087  30.270  1.00  0.00    -0.354 N 
ATOM     54  C   UNL A   1      43.247  28.149  31.978  1.00  0.00     0.074 A 
ATOM     55  C   UNL A   1      43.664  27.032  31.156  1.00  0.00     0.031 C 
ATOM     56  C   UNL A   1      38.023  30.313  28.917  1.00  0.00     0.029 A 
ATOM     57  C   UNL A   1      38.743  30.936  30.009  1.00  0.00     0.049 A 
ATOM     58  H   UNL A   1      40.524  30.301  30.895  1.00  0.00     0.167 HD
ATOM     59  C   UNL A   1      43.922  28.615  33.062  1.00  0.00     0.031 A 
ATOM     60  C   UNL A   1      38.286  32.025  30.650  1.00  0.00     0.031 A 
ATOM     61  C   UNL A   1      43.502  29.763  33.837  1.00  0.00     0.049 A 
ATOM     62  C   UNL A   1      38.992  32.468  31.884  1.00  0.00     0.074 A 
ATOM     63  C   UNL A   1      44.108  30.321  34.953  1.00  0.00     0.029 A 
ATOM     64  N   UNL A   1      42.387  30.543  33.566  1.00  0.00    -0.354 N 
ATOM     65  N   UNL A   1      40.057  31.952  32.444  1.00  0.00    -0.248 NA
ATOM     66  C   UNL A   1      38.418  33.617  32.588  1.00  0.00     0.031 C 
ATOM     67  C   UNL A   1      43.331  31.402  35.384  1.00  0.00     0.029 A 
ATOM     68  C   UNL A   1      42.278  31.563  34.500  1.00  0.00     0.049 A 
ATOM     69  H   UNL A   1      41.762  30.393  32.820  1.00  0.00     0.167 HD
ATOM     70  C   UNL A   1      40.286  32.717  33.576  1.00  0.00     0.074 A 
ATOM     71  C   UNL A   1      39.265  33.748  33.598  1.00  0.00     0.031 C 
ATOM     72  C   UNL A   1      41.251  32.573  34.514  1.00  0.00     0.031 A 
BRANCH  59  73
ATOM     73  C   UNL A   1      45.163  27.882  33.533  1.00  0.00    -0.014 A 
ATOM     74  C   UNL A   1      45.091  26.668  34.242  1.00  0.00     0.010 A 
ATOM     75  C   UNL A   1      46.434  28.353  33.140  1.00  0.00     0.010 A 
ATOM     76  C   UNL A   1      46.258  25.958  34.564  1.00  0.00     0.020 A 
ATOM     77  C   UNL A   1      47.600  27.635  33.437  1.00  0.00     0.020 A 
ATOM     78  C   UNL A   1      47.505  26.446  34.158  1.00  0.00     0.054 A 
BRANCH  78  79
ATOM     79  S   UNL A   1      48.995  25.480  34.549  1.00  0.00     0.124 S 
ATOM     80  O   UNL A   1      50.027  26.513  34.579  1.00  0.00    -0.237 OA
ATOM     81  O   UNL A   1      48.663  24.888  35.843  1.00  0.00    -0.237 OA
ATOM     82  O   UNL A   1      49.098  24.531  33.443  1.00  0.00    -0.744 OA
ENDBRANCH  78  79
ENDBRANCH  59  73
BRANCH  60  83
ATOM     83  C   UNL A   1      37.004  32.637  30.204  1.00  0.00    -0.014 A 
ATOM     84  C   UNL A   1      35.808  32.392  30.893  1.00  0.00     0.010 A 
ATOM     85  C   UNL A   1      37.006  33.558  29.135  1.00  0.00     0.010 A 
ATOM     86  C   UNL A   1      34.639  33.066  30.528  1.00  0.00     0.020 A 
ATOM     87  C   UNL A   1      35.855  34.269  28.801  1.00  0.00     0.020 A 
ATOM     88  C   UNL A   1      34.674  34.009  29.495  1.00  0.00     0.054 A 
BRANCH  88  89
ATOM     89  S   UNL A   1      33.170  34.942  29.102  1.00  0.00     0.124 S 
ATOM     90  O   UNL A   1      32.535  34.081  28.108  1.00  0.00    -0.237 OA
ATOM     91  O   UNL A   1      32.497  35.019  30.397  1.00  0.00    -0.237 OA
ATOM     92  O   UNL A   1      33.678  36.215  28.598  1.00  0.00    -0.744 OA
ENDBRANCH  88  89
ENDBRANCH  60  83
BRANCH  72  93
ATOM     93  C   UNL A   1      41.264  33.597  35.612  1.00  0.00    -0.014 A 
ATOM     94  C   UNL A   1      40.851  33.272  36.917  1.00  0.00     0.010 A 
ATOM     95  C   UNL A   1      41.677  34.910  35.324  1.00  0.00     0.010 A 
ATOM     96  C   UNL A   1      40.803  34.258  37.904  1.00  0.00     0.020 A 
ATOM     97  C   UNL A   1      41.660  35.891  36.317  1.00  0.00     0.020 A 
ATOM     98  C   UNL A   1      41.205  35.562  37.596  1.00  0.00     0.054 A 
BRANCH  98  99
ATOM     99  S   UNL A   1      41.148  36.822  38.898  1.00  0.00     0.124 S 
ATOM    100  O   UNL A   1      41.136  36.007  40.109  1.00  0.00    -0.237 OA
ATOM    101  O   UNL A   1      42.374  37.581  38.662  1.00  0.00    -0.237 OA
ATOM    102  O   UNL A   1      39.910  37.547  38.624  1.00  0.00    -0.744 OA
ENDBRANCH  98  99
ENDBRANCH  72  93
ENDBRANCH  46  47
ENDBRANCH  39  41
ENDBRANCH  38  39
ENDBRANCH  37  38
ENDBRANCH   1  37
TORSDOF 19
ENDMDL
