MODEL 1
REMARK VINA RESULT:     -12.4      0.000      0.000
REMARK SMILES O=C(OCCOC(=O)c1ccc(-n2cc(CSc3nc4ccccc4c(=O)n3-c3ccc(Br)cc3)nn2)cc1)c1ccc(-c2c3nc(c(-c4ccc(S(=O)(=O)[O-])cc4)c4ccc([nH]4)c(-c4ccc(S(=O)(=O)[O-])cc4)c4nc(c(-c5ccc(S(=O)(=O)[O-])cc5)c5ccc2[nH]5)C=C4)C=C3)cc1
REMARK SMILES IDX 5 1 4 2 3 3 2 4 1 5 40 6 41 7 99 8 42 9 98 10 43 11 44 12
REMARK SMILES IDX 45 13 92 14 46 15 97 16 91 17 93 18 47 19 96 20 90 21 89 22
REMARK SMILES IDX 48 24 78 25 59 26 77 27 60 28 63 29 76 30 94 31 61 32 62 33
REMARK SMILES IDX 75 35 95 36 64 37 49 38 50 39 58 40 51 41 57 42 52 43 53 44
REMARK SMILES IDX 54 45 55 46 56 47 79 48 80 49 88 50 81 51 87 52 82 53 83 54
REMARK SMILES IDX 84 55 85 56 86 57 65 58 66 59 74 60 67 61 73 62 68 63 69 64
REMARK SMILES IDX 70 65 71 66 72 67 6 68 7 69 8 70 9 71 10 72 39 73 11 74
REMARK SMILES IDX 38 75 12 76 13 77 14 78 37 79 15 80 36 81 16 82 17 83 18 84
REMARK SMILES IDX 19 85 28 86 20 87 26 88 21 89 25 90 27 91 22 92 24 93 23 94
REMARK SMILES IDX 29 95 30 96 35 97 31 98 34 99 32 100 33 101
REMARK H PARENT 93 23 63 34
REMARK Flexibility Score: inf
ROOT
ATOM      1  C   UNL A   1      33.844  34.098  28.377  1.00  0.00     0.275 C 
ENDROOT
BRANCH   1   2
ATOM      2  C   UNL A   1      33.552  34.458  29.835  1.00  0.00     0.275 C 
BRANCH   2   3
ATOM      3  O   UNL A   1      34.648  34.363  30.767  1.00  0.00    -0.458 OA
BRANCH   3   4
ATOM      4  C   UNL A   1      34.761  33.258  31.533  1.00  0.00     0.338 C 
ATOM      5  O   UNL A   1      33.839  32.767  32.166  1.00  0.00    -0.246 OA
BRANCH   4   6
ATOM      6  C   UNL A   1      36.051  32.563  31.323  1.00  0.00     0.060 A 
ATOM      7  C   UNL A   1      36.169  31.168  31.328  1.00  0.00     0.016 A 
ATOM      8  C   UNL A   1      37.175  33.360  31.081  1.00  0.00     0.016 A 
ATOM      9  C   UNL A   1      37.416  30.576  31.191  1.00  0.00     0.010 A 
ATOM     10  C   UNL A   1      38.415  32.767  30.908  1.00  0.00     0.010 A 
ATOM     11  C   UNL A   1      38.543  31.381  31.021  1.00  0.00    -0.014 A 
BRANCH  11  12
ATOM     12  C   UNL A   1      39.850  30.741  30.884  1.00  0.00     0.031 A 
ATOM     13  C   UNL A   1      40.646  30.610  32.142  1.00  0.00     0.074 A 
ATOM     14  C   UNL A   1      40.227  30.129  29.742  1.00  0.00     0.049 A 
ATOM     15  N   UNL A   1      41.825  31.068  32.416  1.00  0.00    -0.248 NA
ATOM     16  C   UNL A   1      39.993  29.951  33.282  1.00  0.00     0.031 C 
ATOM     17  C   UNL A   1      39.433  29.915  28.525  1.00  0.00     0.029 A 
ATOM     18  N   UNL A   1      41.366  29.433  29.481  1.00  0.00    -0.354 N 
ATOM     19  C   UNL A   1      42.145  30.589  33.689  1.00  0.00     0.074 A 
ATOM     20  C   UNL A   1      40.932  30.027  34.224  1.00  0.00     0.031 C 
ATOM     21  C   UNL A   1      40.001  28.935  27.788  1.00  0.00     0.029 A 
ATOM     22  C   UNL A   1      41.270  28.572  28.393  1.00  0.00     0.049 A 
ATOM     23  H   UNL A   1      42.187  29.530  30.016  1.00  0.00     0.167 HD
ATOM     24  C   UNL A   1      43.428  30.504  34.143  1.00  0.00     0.031 A 
ATOM     25  C   UNL A   1      42.142  27.589  28.053  1.00  0.00     0.031 A 
ATOM     26  C   UNL A   1      44.335  31.275  33.340  1.00  0.00     0.049 A 
ATOM     27  C   UNL A   1      43.423  27.887  28.741  1.00  0.00     0.074 A 
ATOM     28  C   UNL A   1      44.458  32.613  33.025  1.00  0.00     0.029 A 
ATOM     29  N   UNL A   1      45.082  30.597  32.406  1.00  0.00    -0.354 N 
ATOM     30  N   UNL A   1      44.155  28.931  28.470  1.00  0.00    -0.248 NA
ATOM     31  C   UNL A   1      43.659  27.278  30.041  1.00  0.00     0.031 C 
ATOM     32  C   UNL A   1      44.814  32.622  31.646  1.00  0.00     0.029 A 
ATOM     33  C   UNL A   1      44.972  31.297  31.233  1.00  0.00     0.049 A 
ATOM     34  H   UNL A   1      45.595  29.770  32.551  1.00  0.00     0.167 HD
ATOM     35  C   UNL A   1      44.620  29.368  29.702  1.00  0.00     0.074 A 
ATOM     36  C   UNL A   1      44.361  28.257  30.619  1.00  0.00     0.031 C 
ATOM     37  C   UNL A   1      44.918  30.683  29.924  1.00  0.00     0.031 A 
BRANCH  24  38
ATOM     38  C   UNL A   1      43.930  29.433  35.085  1.00  0.00    -0.014 A 
ATOM     39  C   UNL A   1      44.014  28.104  34.617  1.00  0.00     0.010 A 
ATOM     40  C   UNL A   1      44.030  29.629  36.478  1.00  0.00     0.010 A 
ATOM     41  C   UNL A   1      44.101  27.023  35.504  1.00  0.00     0.020 A 
ATOM     42  C   UNL A   1      44.158  28.560  37.368  1.00  0.00     0.020 A 
ATOM     43  C   UNL A   1      44.152  27.260  36.878  1.00  0.00     0.054 A 
BRANCH  43  44
ATOM     44  S   UNL A   1      44.131  25.851  38.014  1.00  0.00     0.124 S 
ATOM     45  O   UNL A   1      43.015  25.064  37.499  1.00  0.00    -0.237 OA
ATOM     46  O   UNL A   1      45.458  25.275  37.816  1.00  0.00    -0.237 OA
ATOM     47  O   UNL A   1      43.916  26.468  39.321  1.00  0.00    -0.744 OA
ENDBRANCH  43  44
ENDBRANCH  24  38
BRANCH  25  48
ATOM     48  C   UNL A   1      41.852  26.271  27.434  1.00  0.00    -0.014 A 
ATOM     49  C   UNL A   1      42.605  25.798  26.343  1.00  0.00     0.010 A 
ATOM     50  C   UNL A   1      41.013  25.352  28.097  1.00  0.00     0.010 A 
ATOM     51  C   UNL A   1      42.563  24.443  25.967  1.00  0.00     0.020 A 
ATOM     52  C   UNL A   1      40.963  24.001  27.725  1.00  0.00     0.020 A 
ATOM     53  C   UNL A   1      41.757  23.547  26.675  1.00  0.00     0.054 A 
BRANCH  53  54
ATOM     54  S   UNL A   1      41.848  21.770  26.301  1.00  0.00     0.124 S 
ATOM     55  O   UNL A   1      42.775  21.735  25.174  1.00  0.00    -0.237 OA
ATOM     56  O   UNL A   1      42.352  21.206  27.551  1.00  0.00    -0.237 OA
ATOM     57  O   UNL A   1      40.467  21.414  25.978  1.00  0.00    -0.744 OA
ENDBRANCH  53  54
ENDBRANCH  25  48
BRANCH  37  58
ATOM     58  C   UNL A   1      44.956  31.632  28.747  1.00  0.00    -0.014 A 
ATOM     59  C   UNL A   1      46.132  31.960  28.042  1.00  0.00     0.010 A 
ATOM     60  C   UNL A   1      43.723  32.058  28.225  1.00  0.00     0.010 A 
ATOM     61  C   UNL A   1      46.072  32.714  26.859  1.00  0.00     0.020 A 
ATOM     62  C   UNL A   1      43.655  32.789  27.037  1.00  0.00     0.020 A 
ATOM     63  C   UNL A   1      44.830  33.123  26.364  1.00  0.00     0.054 A 
BRANCH  63  64
ATOM     64  S   UNL A   1      44.747  34.052  24.807  1.00  0.00     0.124 S 
ATOM     65  O   UNL A   1      43.776  35.097  25.113  1.00  0.00    -0.237 OA
ATOM     66  O   UNL A   1      46.124  34.506  24.624  1.00  0.00    -0.237 OA
ATOM     67  O   UNL A   1      44.299  33.059  23.832  1.00  0.00    -0.744 OA
ENDBRANCH  63  64
ENDBRANCH  37  58
ENDBRANCH  11  12
ENDBRANCH   4   6
ENDBRANCH   3   4
ENDBRANCH   2   3
ENDBRANCH   1   2
BRANCH   1  68
ATOM     68  O   UNL A   1      33.403  32.759  28.090  1.00  0.00    -0.458 OA
BRANCH  68  69
ATOM     69  C   UNL A   1      34.380  31.863  27.806  1.00  0.00     0.338 C 
ATOM     70  O   UNL A   1      35.589  32.002  27.934  1.00  0.00    -0.246 OA
BRANCH  69  71
ATOM     71  C   UNL A   1      33.741  30.637  27.309  1.00  0.00     0.060 A 
ATOM     72  C   UNL A   1      32.421  30.682  26.859  1.00  0.00     0.018 A 
ATOM     73  C   UNL A   1      34.455  29.436  27.297  1.00  0.00     0.018 A 
ATOM     74  C   UNL A   1      31.831  29.534  26.327  1.00  0.00     0.029 A 
ATOM     75  C   UNL A   1      33.846  28.270  26.818  1.00  0.00     0.029 A 
ATOM     76  C   UNL A   1      32.534  28.320  26.314  1.00  0.00     0.066 A 
BRANCH  76  77
ATOM     77  N   UNL A   1      31.888  27.161  25.814  1.00  0.00    -0.220 N 
ATOM     78  C   UNL A   1      32.018  25.854  26.222  1.00  0.00     0.141 A 
ATOM     79  N   UNL A   1      30.980  27.222  24.813  1.00  0.00    -0.062 NA
ATOM     80  C   UNL A   1      31.070  25.160  25.494  1.00  0.00     0.093 A 
ATOM     81  N   UNL A   1      30.499  26.008  24.593  1.00  0.00    -0.134 NA
BRANCH  80  82
ATOM     82  C   UNL A   1      30.684  23.732  25.571  1.00  0.00     0.138 C 
BRANCH  82  83
ATOM     83  S   UNL A   1      31.580  22.605  26.663  1.00  0.00    -0.081 SA
BRANCH  83  84
ATOM     84  C   UNL A   1      32.536  21.485  25.717  1.00  0.00     0.176 A 
ATOM     85  N   UNL A   1      32.148  20.254  25.875  1.00  0.00    -0.223 NA
ATOM     86  N   UNL A   1      33.555  21.833  24.831  1.00  0.00    -0.255 N 
ATOM     87  C   UNL A   1      32.860  19.236  25.238  1.00  0.00     0.079 A 
ATOM     88  C   UNL A   1      34.573  20.869  24.703  1.00  0.00     0.266 A 
ATOM     89  C   UNL A   1      32.325  17.952  25.122  1.00  0.00     0.029 A 
ATOM     90  C   UNL A   1      34.148  19.463  24.781  1.00  0.00     0.066 A 
ATOM     91  O   UNL A   1      35.769  21.085  24.503  1.00  0.00    -0.268 OA
ATOM     92  C   UNL A   1      33.099  16.905  24.608  1.00  0.00     0.002 A 
ATOM     93  C   UNL A   1      34.954  18.418  24.317  1.00  0.00     0.016 A 
ATOM     94  C   UNL A   1      34.426  17.131  24.238  1.00  0.00     0.001 A 
BRANCH  86  95
ATOM     95  C   UNL A   1      33.683  23.078  24.083  1.00  0.00     0.051 A 
ATOM     96  C   UNL A   1      34.482  24.130  24.575  1.00  0.00     0.028 A 
ATOM     97  C   UNL A   1      33.095  23.322  22.833  1.00  0.00     0.028 A 
ATOM     98  C   UNL A   1      34.504  25.402  23.989  1.00  0.00     0.018 A 
ATOM     99  C   UNL A   1      33.060  24.604  22.261  1.00  0.00     0.018 A 
ATOM    100  C   UNL A   1      33.734  25.650  22.868  1.00  0.00     0.018 A 
ATOM    101  Br  UNL A   1      33.607  27.395  22.168  1.00  0.00    -0.051 Br
ENDBRANCH  86  95
ENDBRANCH  83  84
ENDBRANCH  82  83
ENDBRANCH  80  82
ENDBRANCH  76  77
ENDBRANCH  69  71
ENDBRANCH  68  69
ENDBRANCH   1  68
TORSDOF 19
ENDMDL
MODEL 2
REMARK VINA RESULT:     -11.8      5.224      9.738
REMARK SMILES O=C(OCCOC(=O)c1ccc(-n2cc(CSc3nc4ccccc4c(=O)n3-c3ccc(Br)cc3)nn2)cc1)c1ccc(-c2c3nc(c(-c4ccc(S(=O)(=O)[O-])cc4)c4ccc([nH]4)c(-c4ccc(S(=O)(=O)[O-])cc4)c4nc(c(-c5ccc(S(=O)(=O)[O-])cc5)c5ccc2[nH]5)C=C4)C=C3)cc1
REMARK SMILES IDX 5 1 4 2 3 3 2 4 1 5 40 6 41 7 99 8 42 9 98 10 43 11 44 12
REMARK SMILES IDX 45 13 92 14 46 15 97 16 91 17 93 18 47 19 96 20 90 21 89 22
REMARK SMILES IDX 48 24 78 25 59 26 77 27 60 28 63 29 76 30 94 31 61 32 62 33
REMARK SMILES IDX 75 35 95 36 64 37 49 38 50 39 58 40 51 41 57 42 52 43 53 44
REMARK SMILES IDX 54 45 55 46 56 47 79 48 80 49 88 50 81 51 87 52 82 53 83 54
REMARK SMILES IDX 84 55 85 56 86 57 65 58 66 59 74 60 67 61 73 62 68 63 69 64
REMARK SMILES IDX 70 65 71 66 72 67 6 68 7 69 8 70 9 71 10 72 39 73 11 74
REMARK SMILES IDX 38 75 12 76 13 77 14 78 37 79 15 80 36 81 16 82 17 83 18 84
REMARK SMILES IDX 19 85 28 86 20 87 26 88 21 89 25 90 27 91 22 92 24 93 23 94
REMARK SMILES IDX 29 95 30 96 35 97 31 98 34 99 32 100 33 101
REMARK H PARENT 93 23 63 34
REMARK Flexibility Score: inf
ROOT
ATOM      1  C   UNL A   1      33.410  34.771  28.685  1.00  0.00     0.275 C 
ENDROOT
BRANCH   1   2
ATOM      2  C   UNL A   1      33.654  33.430  27.990  1.00  0.00     0.275 C 
BRANCH   2   3
ATOM      3  O   UNL A   1      34.450  32.458  28.698  1.00  0.00    -0.458 OA
BRANCH   3   4
ATOM      4  C   UNL A   1      34.613  31.232  28.161  1.00  0.00     0.338 C 
ATOM      5  O   UNL A   1      33.791  30.684  27.442  1.00  0.00    -0.246 OA
BRANCH   4   6
ATOM      6  C   UNL A   1      35.995  30.728  28.329  1.00  0.00     0.060 A 
ATOM      7  C   UNL A   1      36.362  29.411  28.029  1.00  0.00     0.016 A 
ATOM      8  C   UNL A   1      36.957  31.639  28.778  1.00  0.00     0.016 A 
ATOM      9  C   UNL A   1      37.658  28.979  28.270  1.00  0.00     0.010 A 
ATOM     10  C   UNL A   1      38.261  31.217  28.983  1.00  0.00     0.010 A 
ATOM     11  C   UNL A   1      38.596  29.876  28.785  1.00  0.00    -0.014 A 
BRANCH  11  12
ATOM     12  C   UNL A   1      39.956  29.404  29.038  1.00  0.00     0.031 A 
ATOM     13  C   UNL A   1      40.332  29.241  30.475  1.00  0.00     0.074 A 
ATOM     14  C   UNL A   1      40.749  28.952  28.044  1.00  0.00     0.049 A 
ATOM     15  N   UNL A   1      41.293  29.799  31.138  1.00  0.00    -0.248 NA
ATOM     16  C   UNL A   1      39.454  28.404  31.306  1.00  0.00     0.031 C 
ATOM     17  C   UNL A   1      40.409  28.770  26.627  1.00  0.00     0.029 A 
ATOM     18  N   UNL A   1      41.997  28.418  28.122  1.00  0.00    -0.354 N 
ATOM     19  C   UNL A   1      41.264  29.237  32.417  1.00  0.00     0.074 A 
ATOM     20  C   UNL A   1      40.035  28.493  32.502  1.00  0.00     0.031 C 
ATOM     21  C   UNL A   1      41.307  27.937  26.056  1.00  0.00     0.029 A 
ATOM     22  C   UNL A   1      42.363  27.661  27.014  1.00  0.00     0.049 A 
ATOM     23  H   UNL A   1      42.589  28.554  28.896  1.00  0.00     0.167 HD
ATOM     24  C   UNL A   1      42.342  29.254  33.252  1.00  0.00     0.031 A 
ATOM     25  C   UNL A   1      43.424  26.821  26.916  1.00  0.00     0.031 A 
ATOM     26  C   UNL A   1      43.338  30.196  32.827  1.00  0.00     0.049 A 
ATOM     27  C   UNL A   1      44.375  27.192  27.993  1.00  0.00     0.074 A 
ATOM     28  C   UNL A   1      43.367  31.564  32.646  1.00  0.00     0.029 A 
ATOM     29  N   UNL A   1      44.424  29.701  32.145  1.00  0.00    -0.354 N 
ATOM     30  N   UNL A   1      45.003  28.334  28.032  1.00  0.00    -0.248 NA
ATOM     31  C   UNL A   1      44.277  26.490  29.264  1.00  0.00     0.031 C 
ATOM     32  C   UNL A   1      44.129  31.748  31.456  1.00  0.00     0.029 A 
ATOM     33  C   UNL A   1      44.588  30.496  31.041  1.00  0.00     0.049 A 
ATOM     34  H   UNL A   1      44.976  28.927  32.399  1.00  0.00     0.167 HD
ATOM     35  C   UNL A   1      44.998  28.698  29.370  1.00  0.00     0.074 A 
ATOM     36  C   UNL A   1      44.623  27.481  30.091  1.00  0.00     0.031 C 
ATOM     37  C   UNL A   1      45.029  30.010  29.750  1.00  0.00     0.031 A 
BRANCH  24  38
ATOM     38  C   UNL A   1      42.669  28.159  34.243  1.00  0.00    -0.014 A 
ATOM     39  C   UNL A   1      42.745  28.486  35.614  1.00  0.00     0.010 A 
ATOM     40  C   UNL A   1      43.195  26.910  33.853  1.00  0.00     0.010 A 
ATOM     41  C   UNL A   1      43.395  27.648  36.529  1.00  0.00     0.020 A 
ATOM     42  C   UNL A   1      43.810  26.048  34.766  1.00  0.00     0.020 A 
ATOM     43  C   UNL A   1      43.941  26.442  36.092  1.00  0.00     0.054 A 
BRANCH  43  44
ATOM     44  S   UNL A   1      44.891  25.433  37.257  1.00  0.00     0.124 S 
ATOM     45  O   UNL A   1      46.138  26.185  37.359  1.00  0.00    -0.237 OA
ATOM     46  O   UNL A   1      44.041  25.451  38.444  1.00  0.00    -0.237 OA
ATOM     47  O   UNL A   1      44.989  24.138  36.588  1.00  0.00    -0.744 OA
ENDBRANCH  43  44
ENDBRANCH  24  38
BRANCH  25  48
ATOM     48  C   UNL A   1      43.525  25.545  26.163  1.00  0.00    -0.014 A 
ATOM     49  C   UNL A   1      44.566  25.324  25.242  1.00  0.00     0.010 A 
ATOM     50  C   UNL A   1      42.753  24.433  26.556  1.00  0.00     0.010 A 
ATOM     51  C   UNL A   1      44.861  24.029  24.780  1.00  0.00     0.020 A 
ATOM     52  C   UNL A   1      43.038  23.140  26.095  1.00  0.00     0.020 A 
ATOM     53  C   UNL A   1      44.107  22.940  25.226  1.00  0.00     0.054 A 
BRANCH  53  54
ATOM     54  S   UNL A   1      44.608  21.253  24.767  1.00  0.00     0.124 S 
ATOM     55  O   UNL A   1      43.500  20.450  25.273  1.00  0.00    -0.237 OA
ATOM     56  O   UNL A   1      44.715  21.337  23.312  1.00  0.00    -0.237 OA
ATOM     57  O   UNL A   1      45.879  21.067  25.467  1.00  0.00    -0.744 OA
ENDBRANCH  53  54
ENDBRANCH  25  48
BRANCH  37  58
ATOM     58  C   UNL A   1      45.299  31.068  28.704  1.00  0.00    -0.014 A 
ATOM     59  C   UNL A   1      44.315  31.575  27.830  1.00  0.00     0.010 A 
ATOM     60  C   UNL A   1      46.552  31.701  28.739  1.00  0.00     0.010 A 
ATOM     61  C   UNL A   1      44.592  32.672  26.999  1.00  0.00     0.020 A 
ATOM     62  C   UNL A   1      46.827  32.807  27.931  1.00  0.00     0.020 A 
ATOM     63  C   UNL A   1      45.849  33.282  27.057  1.00  0.00     0.054 A 
BRANCH  63  64
ATOM     64  S   UNL A   1      46.190  34.733  26.021  1.00  0.00     0.124 S 
ATOM     65  O   UNL A   1      45.526  34.390  24.767  1.00  0.00    -0.237 OA
ATOM     66  O   UNL A   1      45.583  35.825  26.778  1.00  0.00    -0.237 OA
ATOM     67  O   UNL A   1      47.650  34.777  25.954  1.00  0.00    -0.744 OA
ENDBRANCH  63  64
ENDBRANCH  37  58
ENDBRANCH  11  12
ENDBRANCH   4   6
ENDBRANCH   3   4
ENDBRANCH   2   3
ENDBRANCH   1   2
BRANCH   1  68
ATOM     68  O   UNL A   1      32.961  34.563  30.037  1.00  0.00    -0.458 OA
BRANCH  68  69
ATOM     69  C   UNL A   1      33.559  35.329  30.982  1.00  0.00     0.338 C 
ATOM     70  O   UNL A   1      33.333  36.500  31.255  1.00  0.00    -0.246 OA
BRANCH  69  71
ATOM     71  C   UNL A   1      34.557  34.501  31.673  1.00  0.00     0.060 A 
ATOM     72  C   UNL A   1      34.227  33.889  32.882  1.00  0.00     0.018 A 
ATOM     73  C   UNL A   1      35.829  34.338  31.119  1.00  0.00     0.018 A 
ATOM     74  C   UNL A   1      35.149  33.049  33.509  1.00  0.00     0.029 A 
ATOM     75  C   UNL A   1      36.777  33.543  31.776  1.00  0.00     0.029 A 
ATOM     76  C   UNL A   1      36.432  32.881  32.967  1.00  0.00     0.066 A 
BRANCH  76  77
ATOM     77  N   UNL A   1      37.363  32.063  33.656  1.00  0.00    -0.220 N 
ATOM     78  C   UNL A   1      38.428  32.437  34.441  1.00  0.00     0.141 A 
ATOM     79  N   UNL A   1      37.285  30.712  33.633  1.00  0.00    -0.062 NA
ATOM     80  C   UNL A   1      38.912  31.254  34.969  1.00  0.00     0.093 A 
ATOM     81  N   UNL A   1      38.239  30.213  34.404  1.00  0.00    -0.134 NA
BRANCH  80  82
ATOM     82  C   UNL A   1      39.995  31.037  35.956  1.00  0.00     0.138 C 
BRANCH  82  83
ATOM     83  S   UNL A   1      41.536  31.972  35.835  1.00  0.00    -0.081 SA
BRANCH  83  84
ATOM     84  C   UNL A   1      41.313  33.584  36.481  1.00  0.00     0.176 A 
ATOM     85  N   UNL A   1      41.371  33.604  37.780  1.00  0.00    -0.223 NA
ATOM     86  N   UNL A   1      41.160  34.747  35.728  1.00  0.00    -0.255 N 
ATOM     87  C   UNL A   1      41.141  34.809  38.446  1.00  0.00     0.079 A 
ATOM     88  C   UNL A   1      40.376  35.743  36.341  1.00  0.00     0.266 A 
ATOM     89  C   UNL A   1      41.483  34.960  39.791  1.00  0.00     0.029 A 
ATOM     90  C   UNL A   1      40.495  35.852  37.803  1.00  0.00     0.066 A 
ATOM     91  O   UNL A   1      39.630  36.542  35.775  1.00  0.00    -0.268 OA
ATOM     92  C   UNL A   1      41.124  36.121  40.487  1.00  0.00     0.002 A 
ATOM     93  C   UNL A   1      40.080  36.994  38.497  1.00  0.00     0.016 A 
ATOM     94  C   UNL A   1      40.391  37.122  39.849  1.00  0.00     0.001 A 
BRANCH  86  95
ATOM     95  C   UNL A   1      41.684  35.005  34.391  1.00  0.00     0.051 A 
ATOM     96  C   UNL A   1      41.001  34.531  33.252  1.00  0.00     0.028 A 
ATOM     97  C   UNL A   1      42.835  35.757  34.116  1.00  0.00     0.028 A 
ATOM     98  C   UNL A   1      41.542  34.601  31.962  1.00  0.00     0.018 A 
ATOM     99  C   UNL A   1      43.420  35.788  32.840  1.00  0.00     0.018 A 
ATOM    100  C   UNL A   1      42.788  35.171  31.775  1.00  0.00     0.018 A 
ATOM    101  Br  UNL A   1      43.615  35.114  30.082  1.00  0.00    -0.051 Br
ENDBRANCH  86  95
ENDBRANCH  83  84
ENDBRANCH  82  83
ENDBRANCH  80  82
ENDBRANCH  76  77
ENDBRANCH  69  71
ENDBRANCH  68  69
ENDBRANCH   1  68
TORSDOF 19
ENDMDL
MODEL 3
REMARK VINA RESULT:     -11.5      3.294      9.731
REMARK SMILES O=C(OCCOC(=O)c1ccc(-n2cc(CSc3nc4ccccc4c(=O)n3-c3ccc(Br)cc3)nn2)cc1)c1ccc(-c2c3nc(c(-c4ccc(S(=O)(=O)[O-])cc4)c4ccc([nH]4)c(-c4ccc(S(=O)(=O)[O-])cc4)c4nc(c(-c5ccc(S(=O)(=O)[O-])cc5)c5ccc2[nH]5)C=C4)C=C3)cc1
REMARK SMILES IDX 5 1 4 2 3 3 2 4 1 5 40 6 41 7 99 8 42 9 98 10 43 11 44 12
REMARK SMILES IDX 45 13 92 14 46 15 97 16 91 17 93 18 47 19 96 20 90 21 89 22
REMARK SMILES IDX 48 24 78 25 59 26 77 27 60 28 63 29 76 30 94 31 61 32 62 33
REMARK SMILES IDX 75 35 95 36 64 37 49 38 50 39 58 40 51 41 57 42 52 43 53 44
REMARK SMILES IDX 54 45 55 46 56 47 79 48 80 49 88 50 81 51 87 52 82 53 83 54
REMARK SMILES IDX 84 55 85 56 86 57 65 58 66 59 74 60 67 61 73 62 68 63 69 64
REMARK SMILES IDX 70 65 71 66 72 67 6 68 7 69 8 70 9 71 10 72 39 73 11 74
REMARK SMILES IDX 38 75 12 76 13 77 14 78 37 79 15 80 36 81 16 82 17 83 18 84
REMARK SMILES IDX 19 85 28 86 20 87 26 88 21 89 25 90 27 91 22 92 24 93 23 94
REMARK SMILES IDX 29 95 30 96 35 97 31 98 34 99 32 100 33 101
REMARK H PARENT 93 23 63 34
REMARK Flexibility Score: inf
ROOT
ATOM      1  C   UNL A   1      46.407  24.068  26.927  1.00  0.00     0.275 C 
ENDROOT
BRANCH   1   2
ATOM      2  C   UNL A   1      45.876  24.127  25.494  1.00  0.00     0.275 C 
BRANCH   2   3
ATOM      3  O   UNL A   1      44.973  25.204  25.172  1.00  0.00    -0.458 OA
BRANCH   3   4
ATOM      4  C   UNL A   1      45.450  26.465  25.124  1.00  0.00     0.338 C 
ATOM      5  O   UNL A   1      46.194  26.882  24.250  1.00  0.00    -0.246 OA
BRANCH   4   6
ATOM      6  C   UNL A   1      44.778  27.354  26.098  1.00  0.00     0.060 A 
ATOM      7  C   UNL A   1      43.594  28.040  25.804  1.00  0.00     0.016 A 
ATOM      8  C   UNL A   1      45.358  27.468  27.366  1.00  0.00     0.016 A 
ATOM      9  C   UNL A   1      43.046  28.910  26.736  1.00  0.00     0.010 A 
ATOM     10  C   UNL A   1      44.790  28.308  28.310  1.00  0.00     0.010 A 
ATOM     11  C   UNL A   1      43.670  29.073  27.974  1.00  0.00    -0.014 A 
BRANCH  11  12
ATOM     12  C   UNL A   1      43.083  29.997  28.941  1.00  0.00     0.031 A 
ATOM     13  C   UNL A   1      43.883  31.225  29.236  1.00  0.00     0.074 A 
ATOM     14  C   UNL A   1      41.816  29.855  29.384  1.00  0.00     0.049 A 
ATOM     15  N   UNL A   1      44.348  31.646  30.368  1.00  0.00    -0.248 NA
ATOM     16  C   UNL A   1      44.293  32.049  28.089  1.00  0.00     0.031 C 
ATOM     17  C   UNL A   1      40.812  28.874  28.954  1.00  0.00     0.029 A 
ATOM     18  N   UNL A   1      41.107  30.662  30.218  1.00  0.00    -0.354 N 
ATOM     19  C   UNL A   1      44.941  32.885  30.111  1.00  0.00     0.074 A 
ATOM     20  C   UNL A   1      44.996  33.015  28.678  1.00  0.00     0.031 C 
ATOM     21  C   UNL A   1      39.583  29.304  29.317  1.00  0.00     0.029 A 
ATOM     22  C   UNL A   1      39.729  30.495  30.137  1.00  0.00     0.049 A 
ATOM     23  H   UNL A   1      41.532  31.309  30.827  1.00  0.00     0.167 HD
ATOM     24  C   UNL A   1      45.165  33.810  31.087  1.00  0.00     0.031 A 
ATOM     25  C   UNL A   1      38.777  31.312  30.654  1.00  0.00     0.031 A 
ATOM     26  C   UNL A   1      45.067  33.241  32.402  1.00  0.00     0.049 A 
ATOM     27  C   UNL A   1      39.432  32.137  31.698  1.00  0.00     0.074 A 
ATOM     28  C   UNL A   1      45.744  32.251  33.084  1.00  0.00     0.029 A 
ATOM     29  N   UNL A   1      43.894  33.439  33.088  1.00  0.00    -0.354 N 
ATOM     30  N   UNL A   1      39.917  31.642  32.802  1.00  0.00    -0.248 NA
ATOM     31  C   UNL A   1      39.960  33.437  31.312  1.00  0.00     0.031 C 
ATOM     32  C   UNL A   1      44.728  31.556  33.802  1.00  0.00     0.029 A 
ATOM     33  C   UNL A   1      43.517  32.218  33.583  1.00  0.00     0.049 A 
ATOM     34  H   UNL A   1      43.416  34.293  33.204  1.00  0.00     0.167 HD
ATOM     35  C   UNL A   1      41.097  32.339  33.017  1.00  0.00     0.074 A 
ATOM     36  C   UNL A   1      41.022  33.494  32.121  1.00  0.00     0.031 C 
ATOM     37  C   UNL A   1      42.144  31.776  33.691  1.00  0.00     0.031 A 
BRANCH  24  38
ATOM     38  C   UNL A   1      45.105  35.306  30.874  1.00  0.00    -0.014 A 
ATOM     39  C   UNL A   1      43.857  35.901  30.586  1.00  0.00     0.010 A 
ATOM     40  C   UNL A   1      46.255  36.090  30.647  1.00  0.00     0.010 A 
ATOM     41  C   UNL A   1      43.772  37.177  30.017  1.00  0.00     0.020 A 
ATOM     42  C   UNL A   1      46.177  37.381  30.117  1.00  0.00     0.020 A 
ATOM     43  C   UNL A   1      44.937  37.901  29.768  1.00  0.00     0.054 A 
BRANCH  43  44
ATOM     44  S   UNL A   1      44.818  39.492  28.911  1.00  0.00     0.124 S 
ATOM     45  O   UNL A   1      44.209  40.339  29.930  1.00  0.00    -0.237 OA
ATOM     46  O   UNL A   1      46.216  39.779  28.600  1.00  0.00    -0.237 OA
ATOM     47  O   UNL A   1      43.978  39.195  27.753  1.00  0.00    -0.744 OA
ENDBRANCH  43  44
ENDBRANCH  24  38
BRANCH  25  48
ATOM     48  C   UNL A   1      37.438  31.636  30.099  1.00  0.00    -0.014 A 
ATOM     49  C   UNL A   1      36.379  32.030  30.939  1.00  0.00     0.010 A 
ATOM     50  C   UNL A   1      37.278  31.827  28.712  1.00  0.00     0.010 A 
ATOM     51  C   UNL A   1      35.229  32.647  30.413  1.00  0.00     0.020 A 
ATOM     52  C   UNL A   1      36.133  32.437  28.180  1.00  0.00     0.020 A 
ATOM     53  C   UNL A   1      35.123  32.866  29.037  1.00  0.00     0.054 A 
BRANCH  53  54
ATOM     54  S   UNL A   1      33.720  33.824  28.387  1.00  0.00     0.124 S 
ATOM     55  O   UNL A   1      32.984  32.822  27.624  1.00  0.00    -0.237 OA
ATOM     56  O   UNL A   1      33.066  34.298  29.604  1.00  0.00    -0.237 OA
ATOM     57  O   UNL A   1      34.357  34.868  27.585  1.00  0.00    -0.744 OA
ENDBRANCH  53  54
ENDBRANCH  25  48
BRANCH  37  58
ATOM     58  C   UNL A   1      41.928  30.461  34.407  1.00  0.00    -0.014 A 
ATOM     59  C   UNL A   1      41.761  29.227  33.746  1.00  0.00     0.010 A 
ATOM     60  C   UNL A   1      42.090  30.455  35.803  1.00  0.00     0.010 A 
ATOM     61  C   UNL A   1      41.733  28.024  34.470  1.00  0.00     0.020 A 
ATOM     62  C   UNL A   1      42.086  29.261  36.527  1.00  0.00     0.020 A 
ATOM     63  C   UNL A   1      41.898  28.050  35.859  1.00  0.00     0.054 A 
BRANCH  63  64
ATOM     64  S   UNL A   1      41.915  26.492  36.789  1.00  0.00     0.124 S 
ATOM     65  O   UNL A   1      42.186  25.505  35.749  1.00  0.00    -0.237 OA
ATOM     66  O   UNL A   1      42.991  26.700  37.756  1.00  0.00    -0.237 OA
ATOM     67  O   UNL A   1      40.576  26.421  37.374  1.00  0.00    -0.744 OA
ENDBRANCH  63  64
ENDBRANCH  37  58
ENDBRANCH  11  12
ENDBRANCH   4   6
ENDBRANCH   3   4
ENDBRANCH   2   3
ENDBRANCH   1   2
BRANCH   1  68
ATOM     68  O   UNL A   1      45.525  23.295  27.761  1.00  0.00    -0.458 OA
BRANCH  68  69
ATOM     69  C   UNL A   1      44.688  24.006  28.555  1.00  0.00     0.338 C 
ATOM     70  O   UNL A   1      44.979  24.726  29.501  1.00  0.00    -0.246 OA
BRANCH  69  71
ATOM     71  C   UNL A   1      43.315  23.785  28.082  1.00  0.00     0.060 A 
ATOM     72  C   UNL A   1      42.553  24.871  27.647  1.00  0.00     0.018 A 
ATOM     73  C   UNL A   1      42.780  22.495  28.075  1.00  0.00     0.018 A 
ATOM     74  C   UNL A   1      41.272  24.658  27.136  1.00  0.00     0.029 A 
ATOM     75  C   UNL A   1      41.473  22.286  27.617  1.00  0.00     0.029 A 
ATOM     76  C   UNL A   1      40.720  23.368  27.129  1.00  0.00     0.066 A 
BRANCH  76  77
ATOM     77  N   UNL A   1      39.396  23.193  26.651  1.00  0.00    -0.220 N 
ATOM     78  C   UNL A   1      38.355  24.091  26.643  1.00  0.00     0.141 A 
ATOM     79  N   UNL A   1      38.986  22.036  26.083  1.00  0.00    -0.062 NA
ATOM     80  C   UNL A   1      37.343  23.452  25.948  1.00  0.00     0.093 A 
ATOM     81  N   UNL A   1      37.733  22.175  25.680  1.00  0.00    -0.134 NA
BRANCH  80  82
ATOM     82  C   UNL A   1      36.012  23.962  25.546  1.00  0.00     0.138 C 
BRANCH  82  83
ATOM     83  S   UNL A   1      35.322  23.529  23.933  1.00  0.00    -0.081 SA
BRANCH  83  84
ATOM     84  C   UNL A   1      33.621  23.941  23.877  1.00  0.00     0.176 A 
ATOM     85  N   UNL A   1      33.423  25.146  23.430  1.00  0.00    -0.223 NA
ATOM     86  N   UNL A   1      32.567  23.087  24.198  1.00  0.00    -0.255 N 
ATOM     87  C   UNL A   1      32.120  25.645  23.393  1.00  0.00     0.079 A 
ATOM     88  C   UNL A   1      31.427  23.731  24.715  1.00  0.00     0.266 A 
ATOM     89  C   UNL A   1      31.812  26.789  22.656  1.00  0.00     0.029 A 
ATOM     90  C   UNL A   1      31.124  25.057  24.156  1.00  0.00     0.066 A 
ATOM     91  O   UNL A   1      30.650  23.285  25.560  1.00  0.00    -0.268 OA
ATOM     92  C   UNL A   1      30.536  27.362  22.735  1.00  0.00     0.002 A 
ATOM     93  C   UNL A   1      29.862  25.647  24.290  1.00  0.00     0.016 A 
ATOM     94  C   UNL A   1      29.572  26.810  23.580  1.00  0.00     0.001 A 
BRANCH  86  95
ATOM     95  C   UNL A   1      32.550  21.632  24.090  1.00  0.00     0.051 A 
ATOM     96  C   UNL A   1      32.899  20.829  25.195  1.00  0.00     0.028 A 
ATOM     97  C   UNL A   1      32.155  20.920  22.949  1.00  0.00     0.028 A 
ATOM     98  C   UNL A   1      33.064  19.442  25.101  1.00  0.00     0.018 A 
ATOM     99  C   UNL A   1      32.368  19.539  22.817  1.00  0.00     0.018 A 
ATOM    100  C   UNL A   1      32.863  18.812  23.886  1.00  0.00     0.018 A 
ATOM    101  Br  UNL A   1      33.254  16.979  23.690  1.00  0.00    -0.051 Br
ENDBRANCH  86  95
ENDBRANCH  83  84
ENDBRANCH  82  83
ENDBRANCH  80  82
ENDBRANCH  76  77
ENDBRANCH  69  71
ENDBRANCH  68  69
ENDBRANCH   1  68
TORSDOF 19
ENDMDL
