MODEL 1
REMARK VINA RESULT:      -9.3      0.000      0.000
REMARK SMILES CCN(CC(C)(C)O)C(=O)N[C@@H](C(=O)OCCOC(=O)c1ccc(-c2c3nc(c(-c4ccc(S(=O)(=O)[O-])cc4)c4ccc([nH]4)c(-c4ccc(S(=O)(=O)[O-])cc4)c4nc(c(-c5ccc(S(=O)(=O)[O-])cc5)c5ccc2[nH]5)C=C4)C=C3)cc1)C(C)(C)C
REMARK SMILES IDX 16 1 15 2 13 3 14 4 12 5 11 6 9 7 10 8 3 10 2 11 1 12 4 13
REMARK SMILES IDX 5 14 6 15 7 16 8 17 81 19 82 20 83 21 84 22 17 23 18 24
REMARK SMILES IDX 19 25 20 26 21 27 22 28 80 29 23 30 79 31 24 32 25 33 26 34
REMARK SMILES IDX 73 35 27 36 78 37 72 38 74 39 28 40 77 41 71 42 70 43 29 45
REMARK SMILES IDX 59 46 40 47 58 48 41 49 44 50 57 51 75 52 42 53 43 54 56 56
REMARK SMILES IDX 76 57 45 58 30 59 31 60 39 61 32 62 38 63 33 64 34 65 35 66
REMARK SMILES IDX 36 67 37 68 60 69 61 70 69 71 62 72 68 73 63 74 64 75 65 76
REMARK SMILES IDX 66 77 67 78 46 79 47 80 55 81 48 82 54 83 49 84 50 85 51 86
REMARK SMILES IDX 52 87 53 88
REMARK H PARENT 11 9 8 18 74 44 44 55
REMARK Flexibility Score: inf
ROOT
ATOM      1  C   UNL A   1      31.924  27.792  27.128  1.00  0.00     0.274 C 
ENDROOT
BRANCH   1   2
ATOM      2  O   UNL A   1      32.071  26.961  25.955  1.00  0.00    -0.461 OA
BRANCH   2   3
ATOM      3  C   UNL A   1      31.605  25.682  26.068  1.00  0.00     0.329 C 
ATOM      4  O   UNL A   1      30.726  25.335  26.850  1.00  0.00    -0.250 OA
BRANCH   3   5
ATOM      5  C   UNL A   1      32.405  24.670  25.214  1.00  0.00     0.199 C 
BRANCH   5   6
ATOM      6  N   UNL A   1      33.842  24.824  25.442  1.00  0.00    -0.324 N 
ATOM      7  C   UNL A   1      34.873  24.042  25.785  1.00  0.00     0.318 C 
ATOM      8  O   UNL A   1      35.957  24.633  25.841  1.00  0.00    -0.249 OA
ATOM      9  H   UNL A   1      34.129  25.754  25.303  1.00  0.00     0.166 HD
BRANCH   7  10
ATOM     10  N   UNL A   1      34.775  22.701  26.044  1.00  0.00    -0.322 N 
BRANCH  10  11
ATOM     11  C   UNL A   1      34.174  22.348  27.335  1.00  0.00     0.118 C 
ATOM     12  C   UNL A   1      33.340  21.077  27.214  1.00  0.00     0.027 C 
ENDBRANCH  10  11
BRANCH  10  13
ATOM     13  C   UNL A   1      35.195  21.543  25.241  1.00  0.00     0.155 C 
BRANCH  13  14
ATOM     14  C   UNL A   1      36.726  21.455  24.950  1.00  0.00     0.077 C 
ATOM     15  C   UNL A   1      37.311  20.044  24.853  1.00  0.00     0.043 C 
ATOM     16  C   UNL A   1      37.039  22.216  23.655  1.00  0.00     0.043 C 
BRANCH  14  17
ATOM     17  O   UNL A   1      37.415  22.125  26.021  1.00  0.00    -0.389 OA
ATOM     18  H   UNL A   1      38.294  22.401  25.718  1.00  0.00     0.211 HD
ENDBRANCH  14  17
ENDBRANCH  13  14
ENDBRANCH  10  13
ENDBRANCH   7  10
ENDBRANCH   5   6
BRANCH   5  19
ATOM     19  C   UNL A   1      32.070  24.614  23.691  1.00  0.00    -0.007 C 
ATOM     20  C   UNL A   1      32.317  23.191  23.131  1.00  0.00     0.013 C 
ATOM     21  C   UNL A   1      30.574  24.910  23.463  1.00  0.00     0.013 C 
ATOM     22  C   UNL A   1      32.942  25.585  22.880  1.00  0.00     0.013 C 
ENDBRANCH   5  19
ENDBRANCH   3   5
ENDBRANCH   2   3
ENDBRANCH   1   2
BRANCH   1  23
ATOM     23  C   UNL A   1      32.624  29.135  26.955  1.00  0.00     0.275 C 
BRANCH  23  24
ATOM     24  O   UNL A   1      33.893  29.069  27.617  1.00  0.00    -0.458 OA
BRANCH  24  25
ATOM     25  C   UNL A   1      34.439  30.247  27.995  1.00  0.00     0.338 C 
ATOM     26  O   UNL A   1      33.855  31.307  28.139  1.00  0.00    -0.246 OA
BRANCH  25  27
ATOM     27  C   UNL A   1      35.877  30.046  28.297  1.00  0.00     0.060 A 
ATOM     28  C   UNL A   1      36.840  30.250  27.310  1.00  0.00     0.016 A 
ATOM     29  C   UNL A   1      36.268  29.530  29.531  1.00  0.00     0.016 A 
ATOM     30  C   UNL A   1      38.152  29.833  27.501  1.00  0.00     0.010 A 
ATOM     31  C   UNL A   1      37.618  29.233  29.764  1.00  0.00     0.010 A 
ATOM     32  C   UNL A   1      38.574  29.349  28.738  1.00  0.00    -0.014 A 
BRANCH  32  33
ATOM     33  C   UNL A   1      39.989  28.924  28.948  1.00  0.00     0.031 A 
ATOM     34  C   UNL A   1      40.984  29.916  29.489  1.00  0.00     0.074 A 
ATOM     35  C   UNL A   1      40.404  27.669  28.674  1.00  0.00     0.049 A 
ATOM     36  N   UNL A   1      42.287  29.909  29.399  1.00  0.00    -0.248 NA
ATOM     37  C   UNL A   1      40.435  31.080  30.205  1.00  0.00     0.031 C 
ATOM     38  C   UNL A   1      39.555  26.551  28.253  1.00  0.00     0.029 A 
ATOM     39  N   UNL A   1      41.663  27.120  28.714  1.00  0.00    -0.354 N 
ATOM     40  C   UNL A   1      42.708  31.115  29.947  1.00  0.00     0.074 A 
ATOM     41  C   UNL A   1      41.524  31.811  30.405  1.00  0.00     0.031 C 
ATOM     42  C   UNL A   1      40.303  25.446  28.129  1.00  0.00     0.029 A 
ATOM     43  C   UNL A   1      41.702  25.806  28.310  1.00  0.00     0.049 A 
ATOM     44  H   UNL A   1      42.461  27.620  29.003  1.00  0.00     0.167 HD
ATOM     45  C   UNL A   1      43.969  31.603  30.026  1.00  0.00     0.031 A 
ATOM     46  C   UNL A   1      42.741  24.998  28.024  1.00  0.00     0.031 A 
ATOM     47  C   UNL A   1      45.136  30.864  29.624  1.00  0.00     0.049 A 
ATOM     48  C   UNL A   1      44.129  25.564  28.070  1.00  0.00     0.074 A 
ATOM     49  C   UNL A   1      46.460  31.266  29.634  1.00  0.00     0.029 A 
ATOM     50  N   UNL A   1      45.118  29.553  29.172  1.00  0.00    -0.354 N 
ATOM     51  N   UNL A   1      44.514  26.766  28.426  1.00  0.00    -0.248 NA
ATOM     52  C   UNL A   1      45.217  24.684  27.626  1.00  0.00     0.031 C 
ATOM     53  C   UNL A   1      47.241  30.204  29.160  1.00  0.00     0.029 A 
ATOM     54  C   UNL A   1      46.405  29.130  28.894  1.00  0.00     0.049 A 
ATOM     55  H   UNL A   1      44.308  29.005  29.063  1.00  0.00     0.167 HD
ATOM     56  C   UNL A   1      45.889  26.793  28.235  1.00  0.00     0.074 A 
ATOM     57  C   UNL A   1      46.273  25.477  27.763  1.00  0.00     0.031 C 
ATOM     58  C   UNL A   1      46.757  27.818  28.419  1.00  0.00     0.031 A 
BRANCH  45  59
ATOM     59  C   UNL A   1      44.139  33.024  30.488  1.00  0.00    -0.014 A 
ATOM     60  C   UNL A   1      44.543  33.340  31.795  1.00  0.00     0.010 A 
ATOM     61  C   UNL A   1      43.903  34.068  29.572  1.00  0.00     0.010 A 
ATOM     62  C   UNL A   1      44.675  34.676  32.189  1.00  0.00     0.020 A 
ATOM     63  C   UNL A   1      44.055  35.403  29.955  1.00  0.00     0.020 A 
ATOM     64  C   UNL A   1      44.423  35.700  31.268  1.00  0.00     0.054 A 
BRANCH  64  65
ATOM     65  S   UNL A   1      44.612  37.425  31.796  1.00  0.00     0.124 S 
ATOM     66  O   UNL A   1      44.676  38.125  30.516  1.00  0.00    -0.237 OA
ATOM     67  O   UNL A   1      43.400  37.659  32.579  1.00  0.00    -0.237 OA
ATOM     68  O   UNL A   1      45.853  37.418  32.566  1.00  0.00    -0.744 OA
ENDBRANCH  64  65
ENDBRANCH  45  59
BRANCH  46  69
ATOM     69  C   UNL A   1      42.489  23.610  27.549  1.00  0.00    -0.014 A 
ATOM     70  C   UNL A   1      42.285  23.345  26.185  1.00  0.00     0.010 A 
ATOM     71  C   UNL A   1      42.502  22.535  28.459  1.00  0.00     0.010 A 
ATOM     72  C   UNL A   1      42.110  22.031  25.739  1.00  0.00     0.020 A 
ATOM     73  C   UNL A   1      42.359  21.219  28.014  1.00  0.00     0.020 A 
ATOM     74  C   UNL A   1      42.158  20.976  26.654  1.00  0.00     0.054 A 
BRANCH  74  75
ATOM     75  S   UNL A   1      42.030  19.270  26.049  1.00  0.00     0.124 S 
ATOM     76  O   UNL A   1      42.956  19.278  24.921  1.00  0.00    -0.237 OA
ATOM     77  O   UNL A   1      42.450  18.486  27.208  1.00  0.00    -0.237 OA
ATOM     78  O   UNL A   1      40.616  19.139  25.702  1.00  0.00    -0.744 OA
ENDBRANCH  74  75
ENDBRANCH  46  69
BRANCH  58  79
ATOM     79  C   UNL A   1      48.202  27.548  28.121  1.00  0.00    -0.014 A 
ATOM     80  C   UNL A   1      49.079  27.125  29.135  1.00  0.00     0.010 A 
ATOM     81  C   UNL A   1      48.677  27.675  26.803  1.00  0.00     0.010 A 
ATOM     82  C   UNL A   1      50.416  26.852  28.839  1.00  0.00     0.020 A 
ATOM     83  C   UNL A   1      50.008  27.384  26.501  1.00  0.00     0.020 A 
ATOM     84  C   UNL A   1      50.873  26.986  27.523  1.00  0.00     0.054 A 
BRANCH  84  85
ATOM     85  S   UNL A   1      52.601  26.583  27.152  1.00  0.00     0.124 S 
ATOM     86  O   UNL A   1      53.202  26.574  28.483  1.00  0.00    -0.237 OA
ATOM     87  O   UNL A   1      52.496  25.280  26.500  1.00  0.00    -0.237 OA
ATOM     88  O   UNL A   1      53.029  27.675  26.281  1.00  0.00    -0.744 OA
ENDBRANCH  84  85
ENDBRANCH  58  79
ENDBRANCH  32  33
ENDBRANCH  25  27
ENDBRANCH  24  25
ENDBRANCH  23  24
ENDBRANCH   1  23
TORSDOF 21
ENDMDL
MODEL 2
REMARK VINA RESULT:      -8.9      1.216      2.066
REMARK SMILES CCN(CC(C)(C)O)C(=O)N[C@@H](C(=O)OCCOC(=O)c1ccc(-c2c3nc(c(-c4ccc(S(=O)(=O)[O-])cc4)c4ccc([nH]4)c(-c4ccc(S(=O)(=O)[O-])cc4)c4nc(c(-c5ccc(S(=O)(=O)[O-])cc5)c5ccc2[nH]5)C=C4)C=C3)cc1)C(C)(C)C
REMARK SMILES IDX 16 1 15 2 13 3 14 4 12 5 11 6 9 7 10 8 3 10 2 11 1 12 4 13
REMARK SMILES IDX 5 14 6 15 7 16 8 17 81 19 82 20 83 21 84 22 17 23 18 24
REMARK SMILES IDX 19 25 20 26 21 27 22 28 80 29 23 30 79 31 24 32 25 33 26 34
REMARK SMILES IDX 73 35 27 36 78 37 72 38 74 39 28 40 77 41 71 42 70 43 29 45
REMARK SMILES IDX 59 46 40 47 58 48 41 49 44 50 57 51 75 52 42 53 43 54 56 56
REMARK SMILES IDX 76 57 45 58 30 59 31 60 39 61 32 62 38 63 33 64 34 65 35 66
REMARK SMILES IDX 36 67 37 68 60 69 61 70 69 71 62 72 68 73 63 74 64 75 65 76
REMARK SMILES IDX 66 77 67 78 46 79 47 80 55 81 48 82 54 83 49 84 50 85 51 86
REMARK SMILES IDX 52 87 53 88
REMARK H PARENT 11 9 8 18 74 44 44 55
REMARK Flexibility Score: inf
ROOT
ATOM      1  C   UNL A   1      32.212  27.890  26.864  1.00  0.00     0.274 C 
ENDROOT
BRANCH   1   2
ATOM      2  O   UNL A   1      32.524  27.416  25.535  1.00  0.00    -0.461 OA
BRANCH   2   3
ATOM      3  C   UNL A   1      31.567  26.647  24.937  1.00  0.00     0.329 C 
ATOM      4  O   UNL A   1      30.454  26.441  25.408  1.00  0.00    -0.250 OA
BRANCH   3   5
ATOM      5  C   UNL A   1      32.078  25.928  23.665  1.00  0.00     0.199 C 
BRANCH   5   6
ATOM      6  N   UNL A   1      33.333  25.227  23.937  1.00  0.00    -0.324 N 
ATOM      7  C   UNL A   1      33.712  24.003  24.325  1.00  0.00     0.318 C 
ATOM      8  O   UNL A   1      34.937  23.858  24.408  1.00  0.00    -0.249 OA
ATOM      9  H   UNL A   1      34.109  25.814  23.795  1.00  0.00     0.166 HD
BRANCH   7  10
ATOM     10  N   UNL A   1      32.850  22.976  24.600  1.00  0.00    -0.322 N 
BRANCH  10  11
ATOM     11  C   UNL A   1      31.909  22.635  23.528  1.00  0.00     0.118 C 
ATOM     12  C   UNL A   1      32.655  22.271  22.248  1.00  0.00     0.027 C 
ENDBRANCH  10  11
BRANCH  10  13
ATOM     13  C   UNL A   1      32.696  22.162  25.815  1.00  0.00     0.155 C 
BRANCH  13  14
ATOM     14  C   UNL A   1      31.938  22.856  26.990  1.00  0.00     0.077 C 
ATOM     15  C   UNL A   1      32.340  24.302  27.287  1.00  0.00     0.043 C 
ATOM     16  C   UNL A   1      30.428  22.802  26.719  1.00  0.00     0.043 C 
BRANCH  14  17
ATOM     17  O   UNL A   1      32.190  22.094  28.184  1.00  0.00    -0.389 OA
ATOM     18  H   UNL A   1      32.901  22.515  28.693  1.00  0.00     0.211 HD
ENDBRANCH  14  17
ENDBRANCH  13  14
ENDBRANCH  10  13
ENDBRANCH   7  10
ENDBRANCH   5   6
BRANCH   5  19
ATOM     19  C   UNL A   1      32.170  26.782  22.363  1.00  0.00    -0.007 C 
ATOM     20  C   UNL A   1      31.033  27.831  22.318  1.00  0.00     0.013 C 
ATOM     21  C   UNL A   1      33.490  27.580  22.340  1.00  0.00     0.013 C 
ATOM     22  C   UNL A   1      32.043  25.913  21.101  1.00  0.00     0.013 C 
ENDBRANCH   5  19
ENDBRANCH   3   5
ENDBRANCH   2   3
ENDBRANCH   1   2
BRANCH   1  23
ATOM     23  C   UNL A   1      32.733  29.305  27.092  1.00  0.00     0.275 C 
BRANCH  23  24
ATOM     24  O   UNL A   1      34.096  29.217  27.524  1.00  0.00    -0.458 OA
BRANCH  24  25
ATOM     25  C   UNL A   1      34.618  30.322  28.105  1.00  0.00     0.338 C 
ATOM     26  O   UNL A   1      34.009  31.322  28.443  1.00  0.00    -0.246 OA
BRANCH  25  27
ATOM     27  C   UNL A   1      36.064  30.108  28.353  1.00  0.00     0.060 A 
ATOM     28  C   UNL A   1      36.985  30.246  27.315  1.00  0.00     0.016 A 
ATOM     29  C   UNL A   1      36.502  29.646  29.592  1.00  0.00     0.016 A 
ATOM     30  C   UNL A   1      38.297  29.814  27.468  1.00  0.00     0.010 A 
ATOM     31  C   UNL A   1      37.856  29.334  29.779  1.00  0.00     0.010 A 
ATOM     32  C   UNL A   1      38.767  29.382  28.708  1.00  0.00    -0.014 A 
BRANCH  32  33
ATOM     33  C   UNL A   1      40.182  28.942  28.876  1.00  0.00     0.031 A 
ATOM     34  C   UNL A   1      41.204  29.923  29.384  1.00  0.00     0.074 A 
ATOM     35  C   UNL A   1      40.574  27.681  28.593  1.00  0.00     0.049 A 
ATOM     36  N   UNL A   1      42.504  29.901  29.254  1.00  0.00    -0.248 NA
ATOM     37  C   UNL A   1      40.691  31.095  30.113  1.00  0.00     0.031 C 
ATOM     38  C   UNL A   1      39.699  26.572  28.200  1.00  0.00     0.029 A 
ATOM     39  N   UNL A   1      41.827  27.118  28.596  1.00  0.00    -0.354 N 
ATOM     40  C   UNL A   1      42.955  31.103  29.786  1.00  0.00     0.074 A 
ATOM     41  C   UNL A   1      41.795  31.813  30.278  1.00  0.00     0.031 C 
ATOM     42  C   UNL A   1      40.430  25.458  28.057  1.00  0.00     0.029 A 
ATOM     43  C   UNL A   1      41.838  25.802  28.194  1.00  0.00     0.049 A 
ATOM     44  H   UNL A   1      42.639  27.609  28.859  1.00  0.00     0.167 HD
ATOM     45  C   UNL A   1      44.224  31.576  29.825  1.00  0.00     0.031 A 
ATOM     46  C   UNL A   1      42.858  24.981  27.878  1.00  0.00     0.031 A 
ATOM     47  C   UNL A   1      45.370  30.822  29.390  1.00  0.00     0.049 A 
ATOM     48  C   UNL A   1      44.254  25.531  27.881  1.00  0.00     0.074 A 
ATOM     49  C   UNL A   1      46.698  31.208  29.358  1.00  0.00     0.029 A 
ATOM     50  N   UNL A   1      45.322  29.511  28.942  1.00  0.00    -0.354 N 
ATOM     51  N   UNL A   1      44.664  26.730  28.222  1.00  0.00    -0.248 NA
ATOM     52  C   UNL A   1      45.318  24.637  27.406  1.00  0.00     0.031 C 
ATOM     53  C   UNL A   1      47.452  30.137  28.864  1.00  0.00     0.029 A 
ATOM     54  C   UNL A   1      46.596  29.072  28.626  1.00  0.00     0.049 A 
ATOM     55  H   UNL A   1      44.503  28.971  28.859  1.00  0.00     0.167 HD
ATOM     56  C   UNL A   1      46.033  26.740  27.989  1.00  0.00     0.074 A 
ATOM     57  C   UNL A   1      46.386  25.418  27.509  1.00  0.00     0.031 C 
ATOM     58  C   UNL A   1      46.917  27.755  28.144  1.00  0.00     0.031 A 
BRANCH  45  59
ATOM     59  C   UNL A   1      44.424  32.996  30.278  1.00  0.00    -0.014 A 
ATOM     60  C   UNL A   1      44.322  34.083  29.394  1.00  0.00     0.010 A 
ATOM     61  C   UNL A   1      44.704  33.242  31.636  1.00  0.00     0.010 A 
ATOM     62  C   UNL A   1      44.530  35.387  29.853  1.00  0.00     0.020 A 
ATOM     63  C   UNL A   1      44.891  34.545  32.103  1.00  0.00     0.020 A 
ATOM     64  C   UNL A   1      44.821  35.610  31.204  1.00  0.00     0.054 A 
BRANCH  64  65
ATOM     65  S   UNL A   1      45.075  37.310  31.781  1.00  0.00     0.124 S 
ATOM     66  O   UNL A   1      43.761  37.643  32.326  1.00  0.00    -0.237 OA
ATOM     67  O   UNL A   1      46.143  37.162  32.767  1.00  0.00    -0.237 OA
ATOM     68  O   UNL A   1      45.449  38.035  30.569  1.00  0.00    -0.744 OA
ENDBRANCH  64  65
ENDBRANCH  45  59
BRANCH  46  69
ATOM     69  C   UNL A   1      42.576  23.595  27.416  1.00  0.00    -0.014 A 
ATOM     70  C   UNL A   1      42.653  23.265  26.052  1.00  0.00     0.010 A 
ATOM     71  C   UNL A   1      42.276  22.583  28.348  1.00  0.00     0.010 A 
ATOM     72  C   UNL A   1      42.447  21.948  25.631  1.00  0.00     0.020 A 
ATOM     73  C   UNL A   1      42.100  21.260  27.935  1.00  0.00     0.020 A 
ATOM     74  C   UNL A   1      42.181  20.951  26.576  1.00  0.00     0.054 A 
BRANCH  74  75
ATOM     75  S   UNL A   1      42.015  19.230  26.026  1.00  0.00     0.124 S 
ATOM     76  O   UNL A   1      42.495  18.493  27.190  1.00  0.00    -0.237 OA
ATOM     77  O   UNL A   1      40.584  19.118  25.751  1.00  0.00    -0.237 OA
ATOM     78  O   UNL A   1      42.872  19.169  24.844  1.00  0.00    -0.744 OA
ENDBRANCH  74  75
ENDBRANCH  46  69
BRANCH  58  79
ATOM     79  C   UNL A   1      48.350  27.467  27.803  1.00  0.00    -0.014 A 
ATOM     80  C   UNL A   1      49.230  26.954  28.770  1.00  0.00     0.010 A 
ATOM     81  C   UNL A   1      48.806  27.668  26.488  1.00  0.00     0.010 A 
ATOM     82  C   UNL A   1      50.555  26.666  28.433  1.00  0.00     0.020 A 
ATOM     83  C   UNL A   1      50.124  27.364  26.143  1.00  0.00     0.020 A 
ATOM     84  C   UNL A   1      50.994  26.876  27.121  1.00  0.00     0.054 A 
BRANCH  84  85
ATOM     85  S   UNL A   1      52.704  26.453  26.693  1.00  0.00     0.124 S 
ATOM     86  O   UNL A   1      53.439  26.957  27.850  1.00  0.00    -0.237 OA
ATOM     87  O   UNL A   1      52.655  24.998  26.564  1.00  0.00    -0.237 OA
ATOM     88  O   UNL A   1      52.934  27.175  25.444  1.00  0.00    -0.744 OA
ENDBRANCH  84  85
ENDBRANCH  58  79
ENDBRANCH  32  33
ENDBRANCH  25  27
ENDBRANCH  24  25
ENDBRANCH  23  24
ENDBRANCH   1  23
TORSDOF 21
ENDMDL
MODEL 3
REMARK VINA RESULT:      -8.7      1.824      2.572
REMARK SMILES CCN(CC(C)(C)O)C(=O)N[C@@H](C(=O)OCCOC(=O)c1ccc(-c2c3nc(c(-c4ccc(S(=O)(=O)[O-])cc4)c4ccc([nH]4)c(-c4ccc(S(=O)(=O)[O-])cc4)c4nc(c(-c5ccc(S(=O)(=O)[O-])cc5)c5ccc2[nH]5)C=C4)C=C3)cc1)C(C)(C)C
REMARK SMILES IDX 16 1 15 2 13 3 14 4 12 5 11 6 9 7 10 8 3 10 2 11 1 12 4 13
REMARK SMILES IDX 5 14 6 15 7 16 8 17 81 19 82 20 83 21 84 22 17 23 18 24
REMARK SMILES IDX 19 25 20 26 21 27 22 28 80 29 23 30 79 31 24 32 25 33 26 34
REMARK SMILES IDX 73 35 27 36 78 37 72 38 74 39 28 40 77 41 71 42 70 43 29 45
REMARK SMILES IDX 59 46 40 47 58 48 41 49 44 50 57 51 75 52 42 53 43 54 56 56
REMARK SMILES IDX 76 57 45 58 30 59 31 60 39 61 32 62 38 63 33 64 34 65 35 66
REMARK SMILES IDX 36 67 37 68 60 69 61 70 69 71 62 72 68 73 63 74 64 75 65 76
REMARK SMILES IDX 66 77 67 78 46 79 47 80 55 81 48 82 54 83 49 84 50 85 51 86
REMARK SMILES IDX 52 87 53 88
REMARK H PARENT 11 9 8 18 74 44 44 55
REMARK Flexibility Score: inf
ROOT
ATOM      1  C   UNL A   1      33.029  29.677  26.656  1.00  0.00     0.274 C 
ENDROOT
BRANCH   1   2
ATOM      2  O   UNL A   1      33.707  28.583  25.999  1.00  0.00    -0.461 OA
BRANCH   2   3
ATOM      3  C   UNL A   1      33.396  28.392  24.683  1.00  0.00     0.329 C 
ATOM      4  O   UNL A   1      33.620  29.209  23.796  1.00  0.00    -0.250 OA
BRANCH   3   5
ATOM      5  C   UNL A   1      32.587  27.097  24.435  1.00  0.00     0.199 C 
BRANCH   5   6
ATOM      6  N   UNL A   1      33.331  26.181  23.571  1.00  0.00    -0.324 N 
ATOM      7  C   UNL A   1      33.846  24.948  23.656  1.00  0.00     0.318 C 
ATOM      8  O   UNL A   1      34.399  24.561  22.620  1.00  0.00    -0.249 OA
ATOM      9  H   UNL A   1      33.496  26.578  22.686  1.00  0.00     0.166 HD
BRANCH   7  10
ATOM     10  N   UNL A   1      33.773  24.153  24.768  1.00  0.00    -0.322 N 
BRANCH  10  11
ATOM     11  C   UNL A   1      33.292  24.812  25.987  1.00  0.00     0.118 C 
ATOM     12  C   UNL A   1      32.204  23.982  26.659  1.00  0.00     0.027 C 
ENDBRANCH  10  11
BRANCH  10  13
ATOM     13  C   UNL A   1      34.119  22.735  24.949  1.00  0.00     0.155 C 
BRANCH  13  14
ATOM     14  C   UNL A   1      35.524  22.467  25.572  1.00  0.00     0.077 C 
ATOM     15  C   UNL A   1      36.229  21.189  25.115  1.00  0.00     0.043 C 
ATOM     16  C   UNL A   1      36.438  23.668  25.294  1.00  0.00     0.043 C 
BRANCH  14  17
ATOM     17  O   UNL A   1      35.359  22.372  26.999  1.00  0.00    -0.389 OA
ATOM     18  H   UNL A   1      34.646  21.747  27.201  1.00  0.00     0.211 HD
ENDBRANCH  14  17
ENDBRANCH  13  14
ENDBRANCH  10  13
ENDBRANCH   7  10
ENDBRANCH   5   6
BRANCH   5  19
ATOM     19  C   UNL A   1      31.113  27.268  23.953  1.00  0.00    -0.007 C 
ATOM     20  C   UNL A   1      30.670  28.748  24.072  1.00  0.00     0.013 C 
ATOM     21  C   UNL A   1      30.994  26.904  22.460  1.00  0.00     0.013 C 
ATOM     22  C   UNL A   1      30.137  26.428  24.793  1.00  0.00     0.013 C 
ENDBRANCH   5  19
ENDBRANCH   3   5
ENDBRANCH   2   3
ENDBRANCH   1   2
BRANCH   1  23
ATOM     23  C   UNL A   1      34.010  30.596  27.374  1.00  0.00     0.275 C 
BRANCH  23  24
ATOM     24  O   UNL A   1      35.219  29.866  27.610  1.00  0.00    -0.458 OA
BRANCH  24  25
ATOM     25  C   UNL A   1      35.994  30.294  28.634  1.00  0.00     0.338 C 
ATOM     26  O   UNL A   1      35.652  31.022  29.549  1.00  0.00    -0.246 OA
BRANCH  25  27
ATOM     27  C   UNL A   1      37.335  29.670  28.527  1.00  0.00     0.060 A 
ATOM     28  C   UNL A   1      37.949  29.123  29.653  1.00  0.00     0.016 A 
ATOM     29  C   UNL A   1      38.046  29.737  27.331  1.00  0.00     0.016 A 
ATOM     30  C   UNL A   1      39.290  28.761  29.624  1.00  0.00     0.010 A 
ATOM     31  C   UNL A   1      39.359  29.248  27.274  1.00  0.00     0.010 A 
ATOM     32  C   UNL A   1      40.011  28.784  28.431  1.00  0.00    -0.014 A 
BRANCH  32  33
ATOM     33  C   UNL A   1      41.444  28.371  28.398  1.00  0.00     0.031 A 
ATOM     34  C   UNL A   1      42.514  29.403  28.638  1.00  0.00     0.074 A 
ATOM     35  C   UNL A   1      41.813  27.093  28.167  1.00  0.00     0.049 A 
ATOM     36  N   UNL A   1      43.774  29.379  28.294  1.00  0.00    -0.248 NA
ATOM     37  C   UNL A   1      42.102  30.634  29.335  1.00  0.00     0.031 C 
ATOM     38  C   UNL A   1      40.911  25.946  28.027  1.00  0.00     0.029 A 
ATOM     39  N   UNL A   1      43.062  26.542  28.010  1.00  0.00    -0.354 N 
ATOM     40  C   UNL A   1      44.280  30.628  28.634  1.00  0.00     0.074 A 
ATOM     41  C   UNL A   1      43.201  31.372  29.248  1.00  0.00     0.031 C 
ATOM     42  C   UNL A   1      41.633  24.829  27.863  1.00  0.00     0.029 A 
ATOM     43  C   UNL A   1      43.036  25.196  27.731  1.00  0.00     0.049 A 
ATOM     44  H   UNL A   1      43.895  27.062  28.088  1.00  0.00     0.167 HD
ATOM     45  C   UNL A   1      45.526  31.113  28.417  1.00  0.00     0.031 A 
ATOM     46  C   UNL A   1      44.009  24.357  27.324  1.00  0.00     0.031 A 
ATOM     47  C   UNL A   1      46.601  30.332  27.866  1.00  0.00     0.049 A 
ATOM     48  C   UNL A   1      45.372  24.916  27.043  1.00  0.00     0.074 A 
ATOM     49  C   UNL A   1      47.896  30.724  27.578  1.00  0.00     0.029 A 
ATOM     50  N   UNL A   1      46.510  28.984  27.551  1.00  0.00    -0.354 N 
ATOM     51  N   UNL A   1      45.805  26.144  27.203  1.00  0.00    -0.248 NA
ATOM     52  C   UNL A   1      46.363  23.990  26.479  1.00  0.00     0.031 C 
ATOM     53  C   UNL A   1      48.582  29.617  27.062  1.00  0.00     0.029 A 
ATOM     54  C   UNL A   1      47.723  28.528  27.067  1.00  0.00     0.049 A 
ATOM     55  H   UNL A   1      45.701  28.433  27.655  1.00  0.00     0.167 HD
ATOM     56  C   UNL A   1      47.116  26.143  26.744  1.00  0.00     0.074 A 
ATOM     57  C   UNL A   1      47.415  24.786  26.331  1.00  0.00     0.031 C 
ATOM     58  C   UNL A   1      47.990  27.175  26.657  1.00  0.00     0.031 A 
BRANCH  45  59
ATOM     59  C   UNL A   1      45.766  32.570  28.702  1.00  0.00    -0.014 A 
ATOM     60  C   UNL A   1      45.421  33.576  27.784  1.00  0.00     0.010 A 
ATOM     61  C   UNL A   1      46.337  32.935  29.936  1.00  0.00     0.010 A 
ATOM     62  C   UNL A   1      45.675  34.919  28.082  1.00  0.00     0.020 A 
ATOM     63  C   UNL A   1      46.571  34.278  30.247  1.00  0.00     0.020 A 
ATOM     64  C   UNL A   1      46.255  35.261  29.309  1.00  0.00     0.054 A 
BRANCH  64  65
ATOM     65  S   UNL A   1      46.565  37.009  29.680  1.00  0.00     0.124 S 
ATOM     66  O   UNL A   1      45.270  37.614  29.377  1.00  0.00    -0.237 OA
ATOM     67  O   UNL A   1      46.928  36.981  31.095  1.00  0.00    -0.237 OA
ATOM     68  O   UNL A   1      47.650  37.370  28.770  1.00  0.00    -0.744 OA
ENDBRANCH  64  65
ENDBRANCH  45  59
BRANCH  46  69
ATOM     69  C   UNL A   1      43.686  22.932  27.040  1.00  0.00    -0.014 A 
ATOM     70  C   UNL A   1      42.919  22.178  27.944  1.00  0.00     0.010 A 
ATOM     71  C   UNL A   1      44.104  22.335  25.835  1.00  0.00     0.010 A 
ATOM     72  C   UNL A   1      42.567  20.859  27.643  1.00  0.00     0.020 A 
ATOM     73  C   UNL A   1      43.729  21.028  25.517  1.00  0.00     0.020 A 
ATOM     74  C   UNL A   1      42.966  20.295  26.427  1.00  0.00     0.054 A 
BRANCH  74  75
ATOM     75  S   UNL A   1      42.418  18.617  26.005  1.00  0.00     0.124 S 
ATOM     76  O   UNL A   1      43.289  18.287  24.882  1.00  0.00    -0.237 OA
ATOM     77  O   UNL A   1      42.668  17.878  27.240  1.00  0.00    -0.237 OA
ATOM     78  O   UNL A   1      41.006  18.796  25.674  1.00  0.00    -0.744 OA
ENDBRANCH  74  75
ENDBRANCH  46  69
BRANCH  58  79
ATOM     79  C   UNL A   1      49.353  26.868  26.108  1.00  0.00    -0.014 A 
ATOM     80  C   UNL A   1      50.379  26.405  26.949  1.00  0.00     0.010 A 
ATOM     81  C   UNL A   1      49.593  27.001  24.730  1.00  0.00     0.010 A 
ATOM     82  C   UNL A   1      51.635  26.099  26.421  1.00  0.00     0.020 A 
ATOM     83  C   UNL A   1      50.842  26.677  24.196  1.00  0.00     0.020 A 
ATOM     84  C   UNL A   1      51.859  26.240  25.047  1.00  0.00     0.054 A 
BRANCH  84  85
ATOM     85  S   UNL A   1      53.483  25.793  24.375  1.00  0.00     0.124 S 
ATOM     86  O   UNL A   1      54.373  26.679  25.121  1.00  0.00    -0.237 OA
ATOM     87  O   UNL A   1      53.589  24.373  24.702  1.00  0.00    -0.237 OA
ATOM     88  O   UNL A   1      53.358  26.089  22.950  1.00  0.00    -0.744 OA
ENDBRANCH  84  85
ENDBRANCH  58  79
ENDBRANCH  32  33
ENDBRANCH  25  27
ENDBRANCH  24  25
ENDBRANCH  23  24
ENDBRANCH   1  23
TORSDOF 21
ENDMDL
