MODEL 1
REMARK VINA RESULT:     -11.8      0.000      0.000
REMARK SMILES Cc1nc(-c2ccc3c(c2)CCN3S(=O)(=O)c2ccc(F)c(C(=O)OCCOC(=O)c3ccc(-c4c5nc(c(-c6ccc(S(=O)(=O)[O-])cc6)c6ccc([nH]6)c(-c6ccc(S(=O)(=O)[O-])cc6)c6nc(c(-c7ccc(S(=O)(=O)[O-])cc7)c7ccc4[nH]7)C=C6)C=C5)cc3)c2)cs1
REMARK SMILES IDX 26 1 25 2 23 3 24 4 22 5 17 6 18 7 91 8 19 9 20 10 21 11
REMARK SMILES IDX 14 12 15 13 16 14 13 15 5 16 6 17 10 18 7 19 9 20 8 21 11 22
REMARK SMILES IDX 12 23 4 24 1 25 2 26 3 27 93 28 92 29 27 30 28 31 29 32
REMARK SMILES IDX 30 33 31 34 32 35 90 36 33 37 89 38 34 39 35 40 36 41 83 42
REMARK SMILES IDX 37 43 88 44 82 45 84 46 38 47 87 48 81 49 80 50 39 52 69 53
REMARK SMILES IDX 50 54 68 55 51 56 54 57 67 58 85 59 52 60 53 61 66 63 86 64
REMARK SMILES IDX 55 65 40 66 41 67 49 68 42 69 48 70 43 71 44 72 45 73 46 74
REMARK SMILES IDX 47 75 70 76 71 77 79 78 72 79 78 80 73 81 74 82 75 83 76 84
REMARK SMILES IDX 77 85 56 86 57 87 65 88 58 89 64 90 59 91 60 92 61 93 62 94
REMARK SMILES IDX 63 95
REMARK H PARENT 84 51 54 62
REMARK Flexibility Score: inf
ROOT
ATOM      1  C   UNL A   1      34.336  29.206  26.498  1.00  0.00     0.275 C 
ENDROOT
BRANCH   1   2
ATOM      2  O   UNL A   1      33.497  29.938  25.582  1.00  0.00    -0.458 OA
BRANCH   2   3
ATOM      3  C   UNL A   1      32.348  29.327  25.211  1.00  0.00     0.341 C 
ATOM      4  O   UNL A   1      31.213  29.693  25.469  1.00  0.00    -0.246 OA
BRANCH   3   5
ATOM      5  C   UNL A   1      32.622  28.209  24.290  1.00  0.00     0.097 A 
ATOM      6  C   UNL A   1      32.358  25.844  23.805  1.00  0.00     0.089 A 
ATOM      7  C   UNL A   1      33.062  25.995  22.608  1.00  0.00     0.025 A 
ATOM      8  C   UNL A   1      32.150  26.942  24.646  1.00  0.00     0.041 A 
ATOM      9  C   UNL A   1      33.588  27.252  22.285  1.00  0.00     0.041 A 
ATOM     10  C   UNL A   1      33.362  28.353  23.121  1.00  0.00     0.137 A 
ATOM     11  F   UNL A   1      33.926  29.526  22.802  1.00  0.00    -0.206 F 
BRANCH   6  12
ATOM     12  S   UNL A   1      31.739  24.262  24.325  1.00  0.00     0.264 S 
ATOM     13  O   UNL A   1      30.679  23.917  23.398  1.00  0.00    -0.201 OA
ATOM     14  O   UNL A   1      31.471  24.357  25.743  1.00  0.00    -0.201 OA
BRANCH  12  15
ATOM     15  N   UNL A   1      32.982  23.145  24.109  1.00  0.00    -0.266 N 
ATOM     16  C   UNL A   1      36.793  22.509  25.692  1.00  0.00     0.001 A 
ATOM     17  C   UNL A   1      36.288  23.814  25.751  1.00  0.00     0.012 A 
ATOM     18  C   UNL A   1      35.950  21.458  25.309  1.00  0.00     0.016 A 
ATOM     19  C   UNL A   1      34.991  24.099  25.330  1.00  0.00     0.028 A 
ATOM     20  C   UNL A   1      34.648  21.761  24.914  1.00  0.00    -0.021 A 
ATOM     21  C   UNL A   1      34.174  23.073  24.894  1.00  0.00     0.055 A 
ATOM     22  C   UNL A   1      33.621  20.804  24.402  1.00  0.00     0.060 C 
ATOM     23  C   UNL A   1      32.486  21.732  23.934  1.00  0.00     0.140 C 
BRANCH  16  24
ATOM     24  C   UNL A   1      38.208  22.329  25.946  1.00  0.00     0.081 A 
ATOM     25  C   UNL A   1      40.970  19.974  26.232  1.00  0.00     0.079 C 
ATOM     26  C   UNL A   1      40.046  21.138  26.232  1.00  0.00     0.090 A 
ATOM     27  N   UNL A   1      38.797  21.084  25.827  1.00  0.00    -0.242 NA
ATOM     28  S   UNL A   1      40.571  22.667  26.815  1.00  0.00    -0.127 S 
ATOM     29  C   UNL A   1      39.015  23.312  26.484  1.00  0.00     0.095 A 
ENDBRANCH  16  24
ENDBRANCH  12  15
ENDBRANCH   6  12
ENDBRANCH   3   5
ENDBRANCH   2   3
ENDBRANCH   1   2
BRANCH   1  30
ATOM     30  C   UNL A   1      34.844  30.126  27.607  1.00  0.00     0.275 C 
BRANCH  30  31
ATOM     31  O   UNL A   1      36.284  30.142  27.617  1.00  0.00    -0.458 OA
BRANCH  31  32
ATOM     32  C   UNL A   1      36.864  29.538  28.679  1.00  0.00     0.338 C 
ATOM     33  O   UNL A   1      36.365  29.311  29.768  1.00  0.00    -0.246 OA
BRANCH  32  34
ATOM     34  C   UNL A   1      38.217  29.087  28.318  1.00  0.00     0.060 A 
ATOM     35  C   UNL A   1      39.005  28.525  29.315  1.00  0.00     0.016 A 
ATOM     36  C   UNL A   1      38.767  29.372  27.071  1.00  0.00     0.016 A 
ATOM     37  C   UNL A   1      40.375  28.376  29.119  1.00  0.00     0.010 A 
ATOM     38  C   UNL A   1      40.123  29.100  26.838  1.00  0.00     0.010 A 
ATOM     39  C   UNL A   1      40.962  28.648  27.875  1.00  0.00    -0.014 A 
BRANCH  39  40
ATOM     40  C   UNL A   1      42.441  28.503  27.685  1.00  0.00     0.031 A 
ATOM     41  C   UNL A   1      43.376  29.634  28.055  1.00  0.00     0.074 A 
ATOM     42  C   UNL A   1      42.969  27.352  27.213  1.00  0.00     0.049 A 
ATOM     43  N   UNL A   1      44.656  29.767  27.805  1.00  0.00    -0.248 NA
ATOM     44  C   UNL A   1      42.794  30.773  28.784  1.00  0.00     0.031 C 
ATOM     45  C   UNL A   1      42.213  26.147  26.864  1.00  0.00     0.029 A 
ATOM     46  N   UNL A   1      44.275  26.998  26.960  1.00  0.00    -0.354 N 
ATOM     47  C   UNL A   1      45.014  31.023  28.288  1.00  0.00     0.074 A 
ATOM     48  C   UNL A   1      43.814  31.618  28.836  1.00  0.00     0.031 C 
ATOM     49  C   UNL A   1      43.064  25.174  26.509  1.00  0.00     0.029 A 
ATOM     50  C   UNL A   1      44.419  25.713  26.492  1.00  0.00     0.049 A 
ATOM     51  H   UNL A   1      45.035  27.609  27.102  1.00  0.00     0.167 HD
ATOM     52  C   UNL A   1      46.227  31.627  28.275  1.00  0.00     0.031 A 
ATOM     53  C   UNL A   1      45.503  25.043  26.053  1.00  0.00     0.031 A 
ATOM     54  C   UNL A   1      47.435  31.012  27.785  1.00  0.00     0.049 A 
ATOM     55  C   UNL A   1      46.831  25.746  26.012  1.00  0.00     0.074 A 
ATOM     56  C   UNL A   1      48.714  31.542  27.739  1.00  0.00     0.029 A 
ATOM     57  N   UNL A   1      47.519  29.724  27.278  1.00  0.00    -0.354 N 
ATOM     58  N   UNL A   1      47.132  26.960  26.405  1.00  0.00    -0.248 NA
ATOM     59  C   UNL A   1      47.961  24.994  25.449  1.00  0.00     0.031 C 
ATOM     60  C   UNL A   1      49.562  30.591  27.162  1.00  0.00     0.029 A 
ATOM     61  C   UNL A   1      48.825  29.448  26.903  1.00  0.00     0.049 A 
ATOM     62  H   UNL A   1      46.764  29.099  27.196  1.00  0.00     0.167 HD
ATOM     63  C   UNL A   1      48.490  27.113  26.149  1.00  0.00     0.074 A 
ATOM     64  C   UNL A   1      48.955  25.859  25.591  1.00  0.00     0.031 C 
ATOM     65  C   UNL A   1      49.278  28.197  26.351  1.00  0.00     0.031 A 
BRANCH  52  66
ATOM     66  C   UNL A   1      46.312  33.050  28.772  1.00  0.00    -0.014 A 
ATOM     67  C   UNL A   1      46.633  33.352  30.107  1.00  0.00     0.010 A 
ATOM     68  C   UNL A   1      46.119  34.108  27.861  1.00  0.00     0.010 A 
ATOM     69  C   UNL A   1      46.722  34.683  30.530  1.00  0.00     0.020 A 
ATOM     70  C   UNL A   1      46.236  35.438  28.273  1.00  0.00     0.020 A 
ATOM     71  C   UNL A   1      46.520  35.718  29.610  1.00  0.00     0.054 A 
BRANCH  71  72
ATOM     72  S   UNL A   1      46.668  37.435  30.179  1.00  0.00     0.124 S 
ATOM     73  O   UNL A   1      46.207  38.182  29.012  1.00  0.00    -0.237 OA
ATOM     74  O   UNL A   1      45.779  37.468  31.337  1.00  0.00    -0.237 OA
ATOM     75  O   UNL A   1      48.089  37.579  30.486  1.00  0.00    -0.744 OA
ENDBRANCH  71  72
ENDBRANCH  52  66
BRANCH  53  76
ATOM     76  C   UNL A   1      45.365  23.645  25.554  1.00  0.00    -0.014 A 
ATOM     77  C   UNL A   1      45.514  22.551  26.424  1.00  0.00     0.010 A 
ATOM     78  C   UNL A   1      45.076  23.402  24.197  1.00  0.00     0.010 A 
ATOM     79  C   UNL A   1      45.390  21.243  25.945  1.00  0.00     0.020 A 
ATOM     80  C   UNL A   1      44.916  22.098  23.723  1.00  0.00     0.020 A 
ATOM     81  C   UNL A   1      45.088  21.025  24.598  1.00  0.00     0.054 A 
BRANCH  81  82
ATOM     82  S   UNL A   1      44.879  19.322  24.007  1.00  0.00     0.124 S 
ATOM     83  O   UNL A   1      43.846  18.816  24.905  1.00  0.00    -0.237 OA
ATOM     84  O   UNL A   1      44.471  19.515  22.619  1.00  0.00    -0.237 OA
ATOM     85  O   UNL A   1      46.205  18.734  24.184  1.00  0.00    -0.744 OA
ENDBRANCH  81  82
ENDBRANCH  53  76
BRANCH  65  86
ATOM     86  C   UNL A   1      50.736  28.063  26.003  1.00  0.00    -0.014 A 
ATOM     87  C   UNL A   1      51.676  27.627  26.952  1.00  0.00     0.010 A 
ATOM     88  C   UNL A   1      51.164  28.347  24.692  1.00  0.00     0.010 A 
ATOM     89  C   UNL A   1      53.026  27.512  26.607  1.00  0.00     0.020 A 
ATOM     90  C   UNL A   1      52.508  28.206  24.337  1.00  0.00     0.020 A 
ATOM     91  C   UNL A   1      53.433  27.804  25.303  1.00  0.00     0.054 A 
BRANCH  91  92
ATOM     92  S   UNL A   1      55.186  27.618  24.870  1.00  0.00     0.124 S 
ATOM     93  O   UNL A   1      55.518  28.949  24.371  1.00  0.00    -0.237 OA
ATOM     94  O   UNL A   1      55.795  27.256  26.148  1.00  0.00    -0.237 OA
ATOM     95  O   UNL A   1      55.183  26.558  23.865  1.00  0.00    -0.744 OA
ENDBRANCH  91  92
ENDBRANCH  65  86
ENDBRANCH  39  40
ENDBRANCH  32  34
ENDBRANCH  31  32
ENDBRANCH  30  31
ENDBRANCH   1  30
TORSDOF 17
ENDMDL
MODEL 2
REMARK VINA RESULT:     -11.8      6.708     12.403
REMARK SMILES Cc1nc(-c2ccc3c(c2)CCN3S(=O)(=O)c2ccc(F)c(C(=O)OCCOC(=O)c3ccc(-c4c5nc(c(-c6ccc(S(=O)(=O)[O-])cc6)c6ccc([nH]6)c(-c6ccc(S(=O)(=O)[O-])cc6)c6nc(c(-c7ccc(S(=O)(=O)[O-])cc7)c7ccc4[nH]7)C=C6)C=C5)cc3)c2)cs1
REMARK SMILES IDX 26 1 25 2 23 3 24 4 22 5 17 6 18 7 91 8 19 9 20 10 21 11
REMARK SMILES IDX 14 12 15 13 16 14 13 15 5 16 6 17 10 18 7 19 9 20 8 21 11 22
REMARK SMILES IDX 12 23 4 24 1 25 2 26 3 27 93 28 92 29 27 30 28 31 29 32
REMARK SMILES IDX 30 33 31 34 32 35 90 36 33 37 89 38 34 39 35 40 36 41 83 42
REMARK SMILES IDX 37 43 88 44 82 45 84 46 38 47 87 48 81 49 80 50 39 52 69 53
REMARK SMILES IDX 50 54 68 55 51 56 54 57 67 58 85 59 52 60 53 61 66 63 86 64
REMARK SMILES IDX 55 65 40 66 41 67 49 68 42 69 48 70 43 71 44 72 45 73 46 74
REMARK SMILES IDX 47 75 70 76 71 77 79 78 72 79 78 80 73 81 74 82 75 83 76 84
REMARK SMILES IDX 77 85 56 86 57 87 65 88 58 89 64 90 59 91 60 92 61 93 62 94
REMARK SMILES IDX 63 95
REMARK H PARENT 84 51 54 62
REMARK Flexibility Score: inf
ROOT
ATOM      1  C   UNL A   1      45.318  23.616  26.641  1.00  0.00     0.275 C 
ENDROOT
BRANCH   1   2
ATOM      2  O   UNL A   1      45.842  22.903  25.503  1.00  0.00    -0.458 OA
BRANCH   2   3
ATOM      3  C   UNL A   1      44.932  22.483  24.594  1.00  0.00     0.341 C 
ATOM      4  O   UNL A   1      44.672  23.011  23.525  1.00  0.00    -0.246 OA
BRANCH   3   5
ATOM      5  C   UNL A   1      44.373  21.174  24.978  1.00  0.00     0.097 A 
ATOM      6  C   UNL A   1      42.471  19.933  25.839  1.00  0.00     0.089 A 
ATOM      7  C   UNL A   1      43.182  18.736  25.730  1.00  0.00     0.025 A 
ATOM      8  C   UNL A   1      43.067  21.146  25.477  1.00  0.00     0.041 A 
ATOM      9  C   UNL A   1      44.512  18.776  25.290  1.00  0.00     0.041 A 
ATOM     10  C   UNL A   1      45.099  19.990  24.912  1.00  0.00     0.137 A 
ATOM     11  F   UNL A   1      46.388  19.991  24.546  1.00  0.00    -0.206 F 
BRANCH   6  12
ATOM     12  S   UNL A   1      40.812  19.972  26.473  1.00  0.00     0.264 S 
ATOM     13  O   UNL A   1      40.925  19.849  27.912  1.00  0.00    -0.201 OA
ATOM     14  O   UNL A   1      40.045  19.011  25.711  1.00  0.00    -0.201 OA
BRANCH  12  15
ATOM     15  N   UNL A   1      40.189  21.504  26.144  1.00  0.00    -0.266 N 
ATOM     16  C   UNL A   1      36.522  23.086  24.926  1.00  0.00     0.001 A 
ATOM     17  C   UNL A   1      36.781  21.750  24.594  1.00  0.00     0.012 A 
ATOM     18  C   UNL A   1      37.380  23.759  25.804  1.00  0.00     0.016 A 
ATOM     19  C   UNL A   1      37.939  21.114  25.038  1.00  0.00     0.028 A 
ATOM     20  C   UNL A   1      38.520  23.097  26.257  1.00  0.00    -0.021 A 
ATOM     21  C   UNL A   1      38.819  21.794  25.859  1.00  0.00     0.055 A 
ATOM     22  C   UNL A   1      39.594  23.658  27.132  1.00  0.00     0.060 C 
ATOM     23  C   UNL A   1      40.669  22.558  27.108  1.00  0.00     0.140 C 
BRANCH  16  24
ATOM     24  C   UNL A   1      35.413  23.736  24.256  1.00  0.00     0.081 A 
ATOM     25  C   UNL A   1      33.070  26.522  24.262  1.00  0.00     0.079 C 
ATOM     26  C   UNL A   1      33.845  25.274  24.033  1.00  0.00     0.090 A 
ATOM     27  N   UNL A   1      34.925  24.948  24.707  1.00  0.00    -0.242 NA
ATOM     28  S   UNL A   1      33.332  24.133  22.856  1.00  0.00    -0.127 S 
ATOM     29  C   UNL A   1      34.666  23.132  23.264  1.00  0.00     0.095 A 
ENDBRANCH  16  24
ENDBRANCH  12  15
ENDBRANCH   6  12
ENDBRANCH   3   5
ENDBRANCH   2   3
ENDBRANCH   1   2
BRANCH   1  30
ATOM     30  C   UNL A   1      44.691  24.938  26.200  1.00  0.00     0.275 C 
BRANCH  30  31
ATOM     31  O   UNL A   1      43.264  24.791  26.074  1.00  0.00    -0.458 OA
BRANCH  31  32
ATOM     32  C   UNL A   1      42.568  25.947  25.982  1.00  0.00     0.338 C 
ATOM     33  O   UNL A   1      41.960  26.372  25.014  1.00  0.00    -0.246 OA
BRANCH  32  34
ATOM     34  C   UNL A   1      42.560  26.630  27.285  1.00  0.00     0.060 A 
ATOM     35  C   UNL A   1      41.902  26.013  28.341  1.00  0.00     0.016 A 
ATOM     36  C   UNL A   1      43.033  27.932  27.422  1.00  0.00     0.016 A 
ATOM     37  C   UNL A   1      41.590  26.738  29.487  1.00  0.00     0.010 A 
ATOM     38  C   UNL A   1      42.827  28.616  28.630  1.00  0.00     0.010 A 
ATOM     39  C   UNL A   1      42.055  28.050  29.663  1.00  0.00    -0.014 A 
BRANCH  39  40
ATOM     40  C   UNL A   1      41.693  28.826  30.892  1.00  0.00     0.031 A 
ATOM     41  C   UNL A   1      40.474  29.722  30.903  1.00  0.00     0.074 A 
ATOM     42  C   UNL A   1      42.429  28.715  32.021  1.00  0.00     0.049 A 
ATOM     43  N   UNL A   1      40.098  30.598  31.801  1.00  0.00    -0.248 NA
ATOM     44  C   UNL A   1      39.569  29.633  29.745  1.00  0.00     0.031 C 
ATOM     45  C   UNL A   1      43.599  27.852  32.196  1.00  0.00     0.029 A 
ATOM     46  N   UNL A   1      42.288  29.322  33.248  1.00  0.00    -0.354 N 
ATOM     47  C   UNL A   1      38.955  31.207  31.289  1.00  0.00     0.074 A 
ATOM     48  C   UNL A   1      38.705  30.607  29.996  1.00  0.00     0.031 C 
ATOM     49  C   UNL A   1      44.028  27.934  33.463  1.00  0.00     0.029 A 
ATOM     50  C   UNL A   1      43.239  28.938  34.167  1.00  0.00     0.049 A 
ATOM     51  H   UNL A   1      41.575  29.971  33.450  1.00  0.00     0.167 HD
ATOM     52  C   UNL A   1      38.185  32.177  31.842  1.00  0.00     0.031 A 
ATOM     53  C   UNL A   1      43.488  29.368  35.420  1.00  0.00     0.031 A 
ATOM     54  C   UNL A   1      38.398  32.733  33.154  1.00  0.00     0.049 A 
ATOM     55  C   UNL A   1      42.645  30.471  35.997  1.00  0.00     0.074 A 
ATOM     56  C   UNL A   1      37.666  33.713  33.803  1.00  0.00     0.029 A 
ATOM     57  N   UNL A   1      39.402  32.342  34.027  1.00  0.00    -0.354 N 
ATOM     58  N   UNL A   1      41.614  31.083  35.467  1.00  0.00    -0.248 NA
ATOM     59  C   UNL A   1      43.013  30.953  37.336  1.00  0.00     0.031 C 
ATOM     60  C   UNL A   1      38.255  33.947  35.050  1.00  0.00     0.029 A 
ATOM     61  C   UNL A   1      39.318  33.072  35.202  1.00  0.00     0.049 A 
ATOM     62  H   UNL A   1      40.076  31.650  33.840  1.00  0.00     0.167 HD
ATOM     63  C   UNL A   1      41.202  32.015  36.412  1.00  0.00     0.074 A 
ATOM     64  C   UNL A   1      42.079  31.868  37.556  1.00  0.00     0.031 C 
ATOM     65  C   UNL A   1      40.194  32.917  36.335  1.00  0.00     0.031 A 
BRANCH  52  66
ATOM     66  C   UNL A   1      37.054  32.737  31.013  1.00  0.00    -0.014 A 
ATOM     67  C   UNL A   1      37.278  33.671  29.986  1.00  0.00     0.010 A 
ATOM     68  C   UNL A   1      35.743  32.272  31.237  1.00  0.00     0.010 A 
ATOM     69  C   UNL A   1      36.209  34.156  29.225  1.00  0.00     0.020 A 
ATOM     70  C   UNL A   1      34.677  32.733  30.459  1.00  0.00     0.020 A 
ATOM     71  C   UNL A   1      34.915  33.685  29.468  1.00  0.00     0.054 A 
BRANCH  71  72
ATOM     72  S   UNL A   1      33.550  34.311  28.448  1.00  0.00     0.124 S 
ATOM     73  O   UNL A   1      34.202  35.378  27.693  1.00  0.00    -0.237 OA
ATOM     74  O   UNL A   1      33.166  33.136  27.670  1.00  0.00    -0.237 OA
ATOM     75  O   UNL A   1      32.560  34.757  29.425  1.00  0.00    -0.744 OA
ENDBRANCH  71  72
ENDBRANCH  52  66
BRANCH  53  76
ATOM     76  C   UNL A   1      44.628  28.797  36.191  1.00  0.00    -0.014 A 
ATOM     77  C   UNL A   1      44.446  27.681  37.027  1.00  0.00     0.010 A 
ATOM     78  C   UNL A   1      45.912  29.367  36.087  1.00  0.00     0.010 A 
ATOM     79  C   UNL A   1      45.521  27.157  37.753  1.00  0.00     0.020 A 
ATOM     80  C   UNL A   1      46.994  28.824  36.781  1.00  0.00     0.020 A 
ATOM     81  C   UNL A   1      46.789  27.730  37.622  1.00  0.00     0.054 A 
BRANCH  81  82
ATOM     82  S   UNL A   1      48.181  27.002  38.531  1.00  0.00     0.124 S 
ATOM     83  O   UNL A   1      47.560  25.838  39.154  1.00  0.00    -0.237 OA
ATOM     84  O   UNL A   1      49.139  26.714  37.467  1.00  0.00    -0.237 OA
ATOM     85  O   UNL A   1      48.582  28.064  39.450  1.00  0.00    -0.744 OA
ENDBRANCH  81  82
ENDBRANCH  53  76
BRANCH  65  86
ATOM     86  C   UNL A   1      39.957  33.789  37.538  1.00  0.00    -0.014 A 
ATOM     87  C   UNL A   1      40.569  35.049  37.659  1.00  0.00     0.010 A 
ATOM     88  C   UNL A   1      39.080  33.353  38.549  1.00  0.00     0.010 A 
ATOM     89  C   UNL A   1      40.336  35.841  38.787  1.00  0.00     0.020 A 
ATOM     90  C   UNL A   1      38.823  34.154  39.663  1.00  0.00     0.020 A 
ATOM     91  C   UNL A   1      39.467  35.388  39.783  1.00  0.00     0.054 A 
BRANCH  91  92
ATOM     92  S   UNL A   1      39.157  36.447  41.223  1.00  0.00     0.124 S 
ATOM     93  O   UNL A   1      38.063  35.744  41.886  1.00  0.00    -0.237 OA
ATOM     94  O   UNL A   1      40.438  36.421  41.923  1.00  0.00    -0.237 OA
ATOM     95  O   UNL A   1      38.802  37.737  40.634  1.00  0.00    -0.744 OA
ENDBRANCH  91  92
ENDBRANCH  65  86
ENDBRANCH  39  40
ENDBRANCH  32  34
ENDBRANCH  31  32
ENDBRANCH  30  31
ENDBRANCH   1  30
TORSDOF 17
ENDMDL
MODEL 3
REMARK VINA RESULT:     -11.5      1.560      2.452
REMARK SMILES Cc1nc(-c2ccc3c(c2)CCN3S(=O)(=O)c2ccc(F)c(C(=O)OCCOC(=O)c3ccc(-c4c5nc(c(-c6ccc(S(=O)(=O)[O-])cc6)c6ccc([nH]6)c(-c6ccc(S(=O)(=O)[O-])cc6)c6nc(c(-c7ccc(S(=O)(=O)[O-])cc7)c7ccc4[nH]7)C=C6)C=C5)cc3)c2)cs1
REMARK SMILES IDX 26 1 25 2 23 3 24 4 22 5 17 6 18 7 91 8 19 9 20 10 21 11
REMARK SMILES IDX 14 12 15 13 16 14 13 15 5 16 6 17 10 18 7 19 9 20 8 21 11 22
REMARK SMILES IDX 12 23 4 24 1 25 2 26 3 27 93 28 92 29 27 30 28 31 29 32
REMARK SMILES IDX 30 33 31 34 32 35 90 36 33 37 89 38 34 39 35 40 36 41 83 42
REMARK SMILES IDX 37 43 88 44 82 45 84 46 38 47 87 48 81 49 80 50 39 52 69 53
REMARK SMILES IDX 50 54 68 55 51 56 54 57 67 58 85 59 52 60 53 61 66 63 86 64
REMARK SMILES IDX 55 65 40 66 41 67 49 68 42 69 48 70 43 71 44 72 45 73 46 74
REMARK SMILES IDX 47 75 70 76 71 77 79 78 72 79 78 80 73 81 74 82 75 83 76 84
REMARK SMILES IDX 77 85 56 86 57 87 65 88 58 89 64 90 59 91 60 92 61 93 62 94
REMARK SMILES IDX 63 95
REMARK H PARENT 84 51 54 62
REMARK Flexibility Score: inf
ROOT
ATOM      1  C   UNL A   1      33.932  30.837  27.636  1.00  0.00     0.275 C 
ENDROOT
BRANCH   1   2
ATOM      2  O   UNL A   1      33.823  29.968  26.491  1.00  0.00    -0.458 OA
BRANCH   2   3
ATOM      3  C   UNL A   1      33.004  28.899  26.631  1.00  0.00     0.341 C 
ATOM      4  O   UNL A   1      32.735  28.319  27.671  1.00  0.00    -0.246 OA
BRANCH   3   5
ATOM      5  C   UNL A   1      32.320  28.592  25.363  1.00  0.00     0.097 A 
ATOM      6  C   UNL A   1      32.122  27.109  23.450  1.00  0.00     0.089 A 
ATOM      7  C   UNL A   1      31.082  27.886  22.934  1.00  0.00     0.025 A 
ATOM      8  C   UNL A   1      32.745  27.466  24.650  1.00  0.00     0.041 A 
ATOM      9  C   UNL A   1      30.702  29.048  23.618  1.00  0.00     0.041 A 
ATOM     10  C   UNL A   1      31.316  29.393  24.829  1.00  0.00     0.137 A 
ATOM     11  F   UNL A   1      30.959  30.539  25.425  1.00  0.00    -0.206 F 
BRANCH   6  12
ATOM     12  S   UNL A   1      32.719  25.672  22.593  1.00  0.00     0.264 S 
ATOM     13  O   UNL A   1      33.819  26.122  21.763  1.00  0.00    -0.201 OA
ATOM     14  O   UNL A   1      31.569  25.024  21.999  1.00  0.00    -0.201 OA
BRANCH  12  15
ATOM     15  N   UNL A   1      33.356  24.628  23.753  1.00  0.00    -0.266 N 
ATOM     16  C   UNL A   1      33.587  20.497  24.312  1.00  0.00     0.001 A 
ATOM     17  C   UNL A   1      32.548  20.973  23.501  1.00  0.00     0.012 A 
ATOM     18  C   UNL A   1      34.599  21.371  24.723  1.00  0.00     0.016 A 
ATOM     19  C   UNL A   1      32.449  22.327  23.187  1.00  0.00     0.028 A 
ATOM     20  C   UNL A   1      34.496  22.718  24.377  1.00  0.00    -0.021 A 
ATOM     21  C   UNL A   1      33.416  23.204  23.640  1.00  0.00     0.055 A 
ATOM     22  C   UNL A   1      35.422  23.820  24.777  1.00  0.00     0.060 C 
ATOM     23  C   UNL A   1      34.688  25.082  24.292  1.00  0.00     0.140 C 
BRANCH  16  24
ATOM     24  C   UNL A   1      33.502  19.123  24.765  1.00  0.00     0.081 A 
ATOM     25  C   UNL A   1      35.119  15.864  24.908  1.00  0.00     0.079 C 
ATOM     26  C   UNL A   1      34.212  17.041  24.958  1.00  0.00     0.090 A 
ATOM     27  N   UNL A   1      34.564  18.254  24.596  1.00  0.00    -0.242 NA
ATOM     28  S   UNL A   1      32.584  16.865  25.480  1.00  0.00    -0.127 S 
ATOM     29  C   UNL A   1      32.333  18.543  25.219  1.00  0.00     0.095 A 
ENDBRANCH  16  24
ENDBRANCH  12  15
ENDBRANCH   6  12
ENDBRANCH   3   5
ENDBRANCH   2   3
ENDBRANCH   1   2
BRANCH   1  30
ATOM     30  C   UNL A   1      35.391  30.960  28.075  1.00  0.00     0.275 C 
BRANCH  30  31
ATOM     31  O   UNL A   1      36.013  29.661  28.092  1.00  0.00    -0.458 OA
BRANCH  31  32
ATOM     32  C   UNL A   1      36.792  29.405  29.168  1.00  0.00     0.338 C 
ATOM     33  O   UNL A   1      36.469  29.435  30.343  1.00  0.00    -0.246 OA
BRANCH  32  34
ATOM     34  C   UNL A   1      38.130  28.982  28.725  1.00  0.00     0.060 A 
ATOM     35  C   UNL A   1      38.939  28.319  29.637  1.00  0.00     0.016 A 
ATOM     36  C   UNL A   1      38.647  29.386  27.497  1.00  0.00     0.016 A 
ATOM     37  C   UNL A   1      40.302  28.179  29.387  1.00  0.00     0.010 A 
ATOM     38  C   UNL A   1      39.993  29.128  27.198  1.00  0.00     0.010 A 
ATOM     39  C   UNL A   1      40.857  28.569  28.160  1.00  0.00    -0.014 A 
BRANCH  39  40
ATOM     40  C   UNL A   1      42.328  28.433  27.914  1.00  0.00     0.031 A 
ATOM     41  C   UNL A   1      43.272  29.562  28.264  1.00  0.00     0.074 A 
ATOM     42  C   UNL A   1      42.842  27.291  27.406  1.00  0.00     0.049 A 
ATOM     43  N   UNL A   1      44.541  29.704  27.970  1.00  0.00    -0.248 NA
ATOM     44  C   UNL A   1      42.713  30.688  29.031  1.00  0.00     0.031 C 
ATOM     45  C   UNL A   1      42.077  26.087  27.069  1.00  0.00     0.029 A 
ATOM     46  N   UNL A   1      44.139  26.946  27.100  1.00  0.00    -0.354 N 
ATOM     47  C   UNL A   1      44.912  30.954  28.456  1.00  0.00     0.074 A 
ATOM     48  C   UNL A   1      43.732  31.537  29.057  1.00  0.00     0.031 C 
ATOM     49  C   UNL A   1      42.918  25.123  26.668  1.00  0.00     0.029 A 
ATOM     50  C   UNL A   1      44.270  25.667  26.609  1.00  0.00     0.049 A 
ATOM     51  H   UNL A   1      44.901  27.557  27.222  1.00  0.00     0.167 HD
ATOM     52  C   UNL A   1      46.123  31.563  28.408  1.00  0.00     0.031 A 
ATOM     53  C   UNL A   1      45.339  25.008  26.120  1.00  0.00     0.031 A 
ATOM     54  C   UNL A   1      47.314  30.960  27.864  1.00  0.00     0.049 A 
ATOM     55  C   UNL A   1      46.662  25.717  26.040  1.00  0.00     0.074 A 
ATOM     56  C   UNL A   1      48.588  31.495  27.778  1.00  0.00     0.029 A 
ATOM     57  N   UNL A   1      47.384  29.680  27.336  1.00  0.00    -0.354 N 
ATOM     58  N   UNL A   1      46.974  26.926  26.440  1.00  0.00    -0.248 NA
ATOM     59  C   UNL A   1      47.773  24.977  25.426  1.00  0.00     0.031 C 
ATOM     60  C   UNL A   1      49.418  30.556  27.157  1.00  0.00     0.029 A 
ATOM     61  C   UNL A   1      48.675  29.414  26.910  1.00  0.00     0.049 A 
ATOM     62  H   UNL A   1      46.628  29.052  27.274  1.00  0.00     0.167 HD
ATOM     63  C   UNL A   1      48.321  27.088  26.136  1.00  0.00     0.074 A 
ATOM     64  C   UNL A   1      48.769  25.844  25.543  1.00  0.00     0.031 C 
ATOM     65  C   UNL A   1      49.112  28.173  26.323  1.00  0.00     0.031 A 
BRANCH  52  66
ATOM     66  C   UNL A   1      46.221  32.979  28.921  1.00  0.00    -0.014 A 
ATOM     67  C   UNL A   1      46.505  33.262  30.268  1.00  0.00     0.010 A 
ATOM     68  C   UNL A   1      46.079  34.049  28.015  1.00  0.00     0.010 A 
ATOM     69  C   UNL A   1      46.608  34.587  30.707  1.00  0.00     0.020 A 
ATOM     70  C   UNL A   1      46.210  35.373  28.444  1.00  0.00     0.020 A 
ATOM     71  C   UNL A   1      46.457  35.635  29.792  1.00  0.00     0.054 A 
BRANCH  71  72
ATOM     72  S   UNL A   1      46.623  37.343  30.382  1.00  0.00     0.124 S 
ATOM     73  O   UNL A   1      45.401  37.513  31.164  1.00  0.00    -0.237 OA
ATOM     74  O   UNL A   1      47.861  37.297  31.156  1.00  0.00    -0.237 OA
ATOM     75  O   UNL A   1      46.689  38.131  29.154  1.00  0.00    -0.744 OA
ENDBRANCH  71  72
ENDBRANCH  52  66
BRANCH  53  76
ATOM     76  C   UNL A   1      45.188  23.617  25.608  1.00  0.00    -0.014 A 
ATOM     77  C   UNL A   1      45.438  22.511  26.438  1.00  0.00     0.010 A 
ATOM     78  C   UNL A   1      44.783  23.391  24.277  1.00  0.00     0.010 A 
ATOM     79  C   UNL A   1      45.301  21.209  25.946  1.00  0.00     0.020 A 
ATOM     80  C   UNL A   1      44.610  22.094  23.792  1.00  0.00     0.020 A 
ATOM     81  C   UNL A   1      44.884  21.009  24.626  1.00  0.00     0.054 A 
BRANCH  81  82
ATOM     82  S   UNL A   1      44.659  19.312  24.022  1.00  0.00     0.124 S 
ATOM     83  O   UNL A   1      43.393  18.936  24.643  1.00  0.00    -0.237 OA
ATOM     84  O   UNL A   1      44.625  19.493  22.574  1.00  0.00    -0.237 OA
ATOM     85  O   UNL A   1      45.837  18.612  24.528  1.00  0.00    -0.744 OA
ENDBRANCH  81  82
ENDBRANCH  53  76
BRANCH  65  86
ATOM     86  C   UNL A   1      50.556  28.049  25.920  1.00  0.00    -0.014 A 
ATOM     87  C   UNL A   1      51.544  27.669  26.846  1.00  0.00     0.010 A 
ATOM     88  C   UNL A   1      50.924  28.284  24.582  1.00  0.00     0.010 A 
ATOM     89  C   UNL A   1      52.879  27.563  26.450  1.00  0.00     0.020 A 
ATOM     90  C   UNL A   1      52.254  28.152  24.176  1.00  0.00     0.020 A 
ATOM     91  C   UNL A   1      53.227  27.808  25.118  1.00  0.00     0.054 A 
BRANCH  91  92
ATOM     92  S   UNL A   1      54.963  27.633  24.620  1.00  0.00     0.124 S 
ATOM     93  O   UNL A   1      54.910  27.994  23.206  1.00  0.00    -0.237 OA
ATOM     94  O   UNL A   1      55.643  28.591  25.488  1.00  0.00    -0.237 OA
ATOM     95  O   UNL A   1      55.262  26.230  24.894  1.00  0.00    -0.744 OA
ENDBRANCH  91  92
ENDBRANCH  65  86
ENDBRANCH  39  40
ENDBRANCH  32  34
ENDBRANCH  31  32
ENDBRANCH  30  31
ENDBRANCH   1  30
TORSDOF 17
ENDMDL
