MODEL 1
REMARK VINA RESULT:     -14.3      0.000      0.000
REMARK SMILES COc1ccc(-c2cc(Cl)cc3c2O[C@H](C(F)(F)F)C(C(=O)OCCOC(=O)c2ccc(-c4c5nc(c(-c6ccc(S(=O)(=O)[O-])cc6)c6ccc([nH]6)c(-c6ccc(S(=O)(=O)[O-])cc6)c6nc(c(-c7ccc(S(=O)(=O)[O-])cc7)c7ccc4[nH]7)C=C6)C=C5)cc2)=C3)cc1C
REMARK SMILES IDX 25 1 24 2 23 3 21 4 22 5 20 6 7 7 8 8 13 9 9 10 12 11 14 12
REMARK SMILES IDX 10 13 11 14 89 15 15 16 6 17 3 18 4 19 91 20 5 21 90 22
REMARK SMILES IDX 92 23 2 24 1 25 16 26 17 27 18 28 19 29 26 30 27 31 28 32
REMARK SMILES IDX 29 33 30 34 88 35 31 36 87 37 32 38 33 39 34 40 81 41 35 42
REMARK SMILES IDX 86 43 80 44 82 45 36 46 85 47 79 48 78 49 37 51 67 52 48 53
REMARK SMILES IDX 66 54 49 55 52 56 65 57 83 58 50 59 51 60 64 62 84 63 53 64
REMARK SMILES IDX 38 65 39 66 47 67 40 68 46 69 41 70 42 71 43 72 44 73 45 74
REMARK SMILES IDX 68 75 69 76 77 77 70 78 76 79 71 80 72 81 73 82 74 83 75 84
REMARK SMILES IDX 54 85 55 86 63 87 56 88 62 89 57 90 58 91 59 92 60 93 61 94
REMARK H PARENT 82 50 52 61
REMARK Flexibility Score: inf
ROOT
ATOM      1  C   UNL A   1      39.367  31.614  34.798  1.00  0.00     0.275 C 
ENDROOT
BRANCH   1   2
ATOM      2  C   UNL A   1      37.883  31.522  34.282  1.00  0.00     0.275 C 
BRANCH   2   3
ATOM      3  O   UNL A   1      37.496  30.519  32.849  1.00  0.00    -0.459 OA
BRANCH   3   4
ATOM      4  C   UNL A   1      38.369  29.774  31.244  1.00  0.00     0.338 C 
ATOM      5  O   UNL A   1      39.366  30.255  30.675  1.00  0.00    -0.246 OA
BRANCH   4   6
ATOM      6  C   UNL A   1      37.644  28.867  30.160  1.00  0.00     0.087 C 
ATOM      7  C   UNL A   1      35.240  32.316  29.138  1.00  0.00     0.026 A 
ATOM      8  C   UNL A   1      34.141  31.967  28.327  1.00  0.00     0.033 A 
ATOM      9  C   UNL A   1      36.575  31.254  28.956  1.00  0.00     0.135 A 
ATOM     10  C   UNL A   1      34.155  30.819  27.516  1.00  0.00     0.042 A 
ATOM     11  C   UNL A   1      36.346  30.036  28.318  1.00  0.00     0.019 A 
ATOM     12  O   UNL A   1      38.010  31.096  29.525  1.00  0.00    -0.475 OA
ATOM     13  Cl  UNL A   1      32.705  30.422  26.650  1.00  0.00    -0.084 Cl
ATOM     14  C   UNL A   1      35.204  29.873  27.516  1.00  0.00     0.032 A 
ATOM     15  C   UNL A   1      36.865  28.861  29.047  1.00  0.00     0.027 C 
ATOM     16  C   UNL A   1      38.972  29.655  30.339  1.00  0.00     0.316 C 
BRANCH   7  17
ATOM     17  C   UNL A   1      34.535  33.381  30.439  1.00  0.00    -0.014 A 
ATOM     18  C   UNL A   1      34.488  35.664  32.453  1.00  0.00     0.121 A 
ATOM     19  C   UNL A   1      33.894  35.725  31.202  1.00  0.00     0.047 A 
ATOM     20  C   UNL A   1      34.793  34.370  32.866  1.00  0.00    -0.008 A 
ATOM     21  C   UNL A   1      33.798  34.585  30.293  1.00  0.00     0.013 A 
ATOM     22  C   UNL A   1      34.792  33.246  31.871  1.00  0.00     0.016 A 
ATOM     23  C   UNL A   1      35.243  34.180  34.295  1.00  0.00     0.048 C 
BRANCH  18  24
ATOM     24  O   UNL A   1      34.567  36.833  33.175  1.00  0.00    -0.496 OA
ATOM     25  C   UNL A   1      33.955  38.044  32.696  1.00  0.00     0.278 C 
ENDBRANCH  18  24
ENDBRANCH   7  17
BRANCH  16  26
ATOM     26  C   UNL A   1      41.021  28.801  30.193  1.00  0.00     0.430 C 
ATOM     27  F   UNL A   1      41.241  27.381  30.009  1.00  0.00    -0.167 F 
ATOM     28  F   UNL A   1      41.842  29.249  29.126  1.00  0.00    -0.167 F 
ATOM     29  F   UNL A   1      41.954  28.839  31.239  1.00  0.00    -0.167 F 
ENDBRANCH  16  26
ENDBRANCH   4   6
ENDBRANCH   3   4
ENDBRANCH   2   3
ENDBRANCH   1   2
BRANCH   1  30
ATOM     30  O   UNL A   1      39.876  32.933  35.218  1.00  0.00    -0.458 OA
BRANCH  30  31
ATOM     31  C   UNL A   1      39.412  34.213  35.022  1.00  0.00     0.338 C 
ATOM     32  O   UNL A   1      38.536  34.684  35.735  1.00  0.00    -0.246 OA
BRANCH  31  33
ATOM     33  C   UNL A   1      40.173  35.094  34.078  1.00  0.00     0.060 A 
ATOM     34  C   UNL A   1      42.023  35.749  34.516  1.00  0.00     0.016 A 
ATOM     35  C   UNL A   1      39.673  34.522  32.268  1.00  0.00     0.016 A 
ATOM     36  C   UNL A   1      43.342  35.375  33.038  1.00  0.00     0.010 A 
ATOM     37  C   UNL A   1      40.919  34.081  30.819  1.00  0.00     0.010 A 
ATOM     38  C   UNL A   1      42.756  34.536  31.342  1.00  0.00    -0.014 A 
BRANCH  38  39
ATOM     39  C   UNL A   1      43.433  34.371  30.024  1.00  0.00     0.031 A 
ATOM     40  C   UNL A   1      43.981  33.065  29.770  1.00  0.00     0.074 A 
ATOM     41  C   UNL A   1      43.142  35.266  29.023  1.00  0.00     0.049 A 
ATOM     42  N   UNL A   1      45.110  32.826  29.193  1.00  0.00    -0.248 NA
ATOM     43  C   UNL A   1      43.313  31.873  30.309  1.00  0.00     0.031 C 
ATOM     44  C   UNL A   1      42.948  35.179  27.576  1.00  0.00     0.029 A 
ATOM     45  N   UNL A   1      42.819  36.584  29.178  1.00  0.00    -0.354 N 
ATOM     46  C   UNL A   1      44.918  31.527  28.786  1.00  0.00     0.074 A 
ATOM     47  C   UNL A   1      44.156  30.942  29.862  1.00  0.00     0.031 C 
ATOM     48  C   UNL A   1      42.875  36.406  26.999  1.00  0.00     0.029 A 
ATOM     49  C   UNL A   1      42.889  37.374  28.052  1.00  0.00     0.049 A 
ATOM     50  H   UNL A   1      42.550  36.952  30.052  1.00  0.00     0.167 HD
ATOM     51  C   UNL A   1      44.742  31.284  27.446  1.00  0.00     0.031 A 
ATOM     52  C   UNL A   1      43.500  38.578  28.148  1.00  0.00     0.031 A 
ATOM     53  C   UNL A   1      44.908  32.495  26.604  1.00  0.00     0.049 A 
ATOM     54  C   UNL A   1      44.979  38.191  27.939  1.00  0.00     0.074 A 
ATOM     55  C   UNL A   1      44.174  33.077  25.581  1.00  0.00     0.029 A 
ATOM     56  N   UNL A   1      45.861  33.456  26.948  1.00  0.00    -0.354 N 
ATOM     57  N   UNL A   1      45.332  36.934  27.800  1.00  0.00    -0.248 NA
ATOM     58  C   UNL A   1      46.103  39.072  27.633  1.00  0.00     0.031 C 
ATOM     59  C   UNL A   1      44.721  34.380  25.317  1.00  0.00     0.029 A 
ATOM     60  C   UNL A   1      45.747  34.624  26.220  1.00  0.00     0.049 A 
ATOM     61  H   UNL A   1      46.547  33.314  27.641  1.00  0.00     0.167 HD
ATOM     62  C   UNL A   1      46.461  36.833  27.058  1.00  0.00     0.074 A 
ATOM     63  C   UNL A   1      46.997  38.190  27.129  1.00  0.00     0.031 C 
ATOM     64  C   UNL A   1      46.771  35.676  26.382  1.00  0.00     0.031 A 
BRANCH  51  65
ATOM     65  C   UNL A   1      44.178  29.973  26.907  1.00  0.00    -0.014 A 
ATOM     66  C   UNL A   1      45.001  28.833  26.914  1.00  0.00     0.010 A 
ATOM     67  C   UNL A   1      42.863  29.769  26.427  1.00  0.00     0.010 A 
ATOM     68  C   UNL A   1      44.531  27.571  26.518  1.00  0.00     0.020 A 
ATOM     69  C   UNL A   1      42.371  28.513  26.047  1.00  0.00     0.020 A 
ATOM     70  C   UNL A   1      43.209  27.413  26.113  1.00  0.00     0.054 A 
BRANCH  70  71
ATOM     71  S   UNL A   1      42.587  25.761  25.727  1.00  0.00     0.124 S 
ATOM     72  O   UNL A   1      41.324  26.054  25.055  1.00  0.00    -0.237 OA
ATOM     73  O   UNL A   1      43.647  25.221  24.879  1.00  0.00    -0.237 OA
ATOM     74  O   UNL A   1      42.457  25.122  27.035  1.00  0.00    -0.744 OA
ENDBRANCH  70  71
ENDBRANCH  51  65
BRANCH  52  75
ATOM     75  C   UNL A   1      42.756  39.249  29.277  1.00  0.00    -0.014 A 
ATOM     76  C   UNL A   1      43.383  39.219  30.604  1.00  0.00     0.010 A 
ATOM     77  C   UNL A   1      41.914  40.284  29.046  1.00  0.00     0.010 A 
ATOM     78  C   UNL A   1      43.350  40.246  31.624  1.00  0.00     0.020 A 
ATOM     79  C   UNL A   1      41.894  41.282  30.063  1.00  0.00     0.020 A 
ATOM     80  C   UNL A   1      42.608  41.374  31.398  1.00  0.00     0.054 A 
BRANCH  80  81
ATOM     81  S   UNL A   1      42.597  42.778  33.047  1.00  0.00     0.124 S 
ATOM     82  O   UNL A   1      42.099  44.085  32.634  1.00  0.00    -0.237 OA
ATOM     83  O   UNL A   1      41.771  42.030  33.994  1.00  0.00    -0.237 OA
ATOM     84  O   UNL A   1      43.900  42.993  33.622  1.00  0.00    -0.744 OA
ENDBRANCH  80  81
ENDBRANCH  52  75
BRANCH  64  85
ATOM     85  C   UNL A   1      48.098  35.363  25.748  1.00  0.00    -0.014 A 
ATOM     86  C   UNL A   1      48.812  36.239  24.939  1.00  0.00     0.010 A 
ATOM     87  C   UNL A   1      48.714  34.114  26.034  1.00  0.00     0.010 A 
ATOM     88  C   UNL A   1      50.103  35.938  24.518  1.00  0.00     0.020 A 
ATOM     89  C   UNL A   1      50.002  33.798  25.627  1.00  0.00     0.020 A 
ATOM     90  C   UNL A   1      50.694  34.728  24.877  1.00  0.00     0.054 A 
BRANCH  90  91
ATOM     91  S   UNL A   1      52.358  34.397  24.298  1.00  0.00     0.124 S 
ATOM     92  O   UNL A   1      52.597  35.536  23.415  1.00  0.00    -0.237 OA
ATOM     93  O   UNL A   1      53.118  34.398  25.545  1.00  0.00    -0.237 OA
ATOM     94  O   UNL A   1      52.249  33.102  23.632  1.00  0.00    -0.744 OA
ENDBRANCH  90  91
ENDBRANCH  64  85
ENDBRANCH  38  39
ENDBRANCH  31  33
ENDBRANCH  30  31
ENDBRANCH   1  30
TORSDOF 17
ENDMDL
MODEL 2
REMARK VINA RESULT:     -13.5      6.173     12.494
REMARK SMILES COc1ccc(-c2cc(Cl)cc3c2O[C@H](C(F)(F)F)C(C(=O)OCCOC(=O)c2ccc(-c4c5nc(c(-c6ccc(S(=O)(=O)[O-])cc6)c6ccc([nH]6)c(-c6ccc(S(=O)(=O)[O-])cc6)c6nc(c(-c7ccc(S(=O)(=O)[O-])cc7)c7ccc4[nH]7)C=C6)C=C5)cc2)=C3)cc1C
REMARK SMILES IDX 25 1 24 2 23 3 21 4 22 5 20 6 7 7 8 8 13 9 9 10 12 11 14 12
REMARK SMILES IDX 10 13 11 14 89 15 15 16 6 17 3 18 4 19 91 20 5 21 90 22
REMARK SMILES IDX 92 23 2 24 1 25 16 26 17 27 18 28 19 29 26 30 27 31 28 32
REMARK SMILES IDX 29 33 30 34 88 35 31 36 87 37 32 38 33 39 34 40 81 41 35 42
REMARK SMILES IDX 86 43 80 44 82 45 36 46 85 47 79 48 78 49 37 51 67 52 48 53
REMARK SMILES IDX 66 54 49 55 52 56 65 57 83 58 50 59 51 60 64 62 84 63 53 64
REMARK SMILES IDX 38 65 39 66 47 67 40 68 46 69 41 70 42 71 43 72 44 73 45 74
REMARK SMILES IDX 68 75 69 76 77 77 70 78 76 79 71 80 72 81 73 82 74 83 75 84
REMARK SMILES IDX 54 85 55 86 63 87 56 88 62 89 57 90 58 91 59 92 60 93 61 94
REMARK H PARENT 82 50 52 61
REMARK Flexibility Score: inf
ROOT
ATOM      1  C   UNL A   1      42.168  37.443  28.059  1.00  0.00     0.275 C 
ENDROOT
BRANCH   1   2
ATOM      2  C   UNL A   1      43.135  38.599  27.602  1.00  0.00     0.275 C 
BRANCH   2   3
ATOM      3  O   UNL A   1      42.704  39.619  26.194  1.00  0.00    -0.459 OA
BRANCH   3   4
ATOM      4  C   UNL A   1      43.152  41.368  25.399  1.00  0.00     0.338 C 
ATOM      5  O   UNL A   1      43.302  41.592  24.184  1.00  0.00    -0.246 OA
BRANCH   4   6
ATOM      6  C   UNL A   1      43.922  42.534  26.154  1.00  0.00     0.087 C 
ATOM      7  C   UNL A   1      47.298  39.848  26.489  1.00  0.00     0.026 A 
ATOM      8  C   UNL A   1      48.265  40.333  27.394  1.00  0.00     0.033 A 
ATOM      9  C   UNL A   1      46.385  41.097  25.749  1.00  0.00     0.135 A 
ATOM     10  C   UNL A   1      48.389  41.704  27.681  1.00  0.00     0.042 A 
ATOM     11  C   UNL A   1      46.450  42.368  26.319  1.00  0.00     0.019 A 
ATOM     12  O   UNL A   1      45.236  41.229  24.714  1.00  0.00    -0.475 OA
ATOM     13  Cl  UNL A   1      49.533  42.175  28.897  1.00  0.00    -0.084 Cl
ATOM     14  C   UNL A   1      47.511  42.690  27.182  1.00  0.00     0.032 A 
ATOM     15  C   UNL A   1      45.134  42.995  26.558  1.00  0.00     0.027 C 
ATOM     16  C   UNL A   1      43.542  42.119  24.705  1.00  0.00     0.316 C 
BRANCH   7  17
ATOM     17  C   UNL A   1      47.059  38.103  26.958  1.00  0.00    -0.014 A 
ATOM     18  C   UNL A   1      47.890  35.330  27.903  1.00  0.00     0.121 A 
ATOM     19  C   UNL A   1      47.310  36.286  28.724  1.00  0.00     0.047 A 
ATOM     20  C   UNL A   1      47.735  35.592  26.544  1.00  0.00    -0.008 A 
ATOM     21  C   UNL A   1      46.788  37.562  28.241  1.00  0.00     0.013 A 
ATOM     22  C   UNL A   1      47.303  36.955  26.088  1.00  0.00     0.016 A 
ATOM     23  C   UNL A   1      48.141  34.509  25.573  1.00  0.00     0.048 C 
BRANCH  18  24
ATOM     24  O   UNL A   1      48.400  34.202  28.504  1.00  0.00    -0.496 OA
ATOM     25  C   UNL A   1      49.300  34.300  29.622  1.00  0.00     0.278 C 
ENDBRANCH  18  24
ENDBRANCH   7  17
BRANCH  16  26
ATOM     26  C   UNL A   1      42.375  43.350  23.264  1.00  0.00     0.430 C 
ATOM     27  F   UNL A   1      42.780  43.487  21.880  1.00  0.00    -0.167 F 
ATOM     28  F   UNL A   1      41.029  42.972  23.020  1.00  0.00    -0.167 F 
ATOM     29  F   UNL A   1      42.212  44.737  23.384  1.00  0.00    -0.167 F 
ENDBRANCH  16  26
ENDBRANCH   4   6
ENDBRANCH   3   4
ENDBRANCH   2   3
ENDBRANCH   1   2
BRANCH   1  30
ATOM     30  O   UNL A   1      42.696  36.067  28.085  1.00  0.00    -0.458 OA
BRANCH  30  31
ATOM     31  C   UNL A   1      43.240  35.261  27.112  1.00  0.00     0.338 C 
ATOM     32  O   UNL A   1      43.017  35.464  25.925  1.00  0.00    -0.246 OA
BRANCH  31  33
ATOM     33  C   UNL A   1      44.300  34.286  27.526  1.00  0.00     0.060 A 
ATOM     34  C   UNL A   1      44.762  34.001  29.463  1.00  0.00     0.016 A 
ATOM     35  C   UNL A   1      44.211  32.800  26.248  1.00  0.00     0.016 A 
ATOM     36  C   UNL A   1      44.719  32.054  29.985  1.00  0.00     0.010 A 
ATOM     37  C   UNL A   1      44.099  30.896  26.708  1.00  0.00     0.010 A 
ATOM     38  C   UNL A   1      44.347  30.650  28.640  1.00  0.00    -0.014 A 
BRANCH  38  39
ATOM     39  C   UNL A   1      44.489  29.166  28.679  1.00  0.00     0.031 A 
ATOM     40  C   UNL A   1      45.831  28.669  28.518  1.00  0.00     0.074 A 
ATOM     41  C   UNL A   1      43.483  28.427  29.253  1.00  0.00     0.049 A 
ATOM     42  N   UNL A   1      46.167  27.629  27.832  1.00  0.00    -0.248 NA
ATOM     43  C   UNL A   1      46.964  29.442  29.041  1.00  0.00     0.031 C 
ATOM     44  C   UNL A   1      43.422  27.236  30.099  1.00  0.00     0.029 A 
ATOM     45  N   UNL A   1      42.151  28.732  29.259  1.00  0.00    -0.354 N 
ATOM     46  C   UNL A   1      47.391  27.342  28.390  1.00  0.00     0.074 A 
ATOM     47  C   UNL A   1      47.958  28.642  28.653  1.00  0.00     0.031 C 
ATOM     48  C   UNL A   1      42.152  26.776  30.237  1.00  0.00     0.029 A 
ATOM     49  C   UNL A   1      41.287  27.714  29.592  1.00  0.00     0.049 A 
ATOM     50  H   UNL A   1      41.826  29.635  29.036  1.00  0.00     0.167 HD
ATOM     51  C   UNL A   1      47.496  26.236  29.196  1.00  0.00     0.031 A 
ATOM     52  C   UNL A   1      40.185  27.528  28.826  1.00  0.00     0.031 A 
ATOM     53  C   UNL A   1      46.251  25.429  29.248  1.00  0.00     0.049 A 
ATOM     54  C   UNL A   1      40.745  26.650  27.687  1.00  0.00     0.074 A 
ATOM     55  C   UNL A   1      45.493  24.874  30.270  1.00  0.00     0.029 A 
ATOM     56  N   UNL A   1      45.456  25.301  28.107  1.00  0.00    -0.354 N 
ATOM     57  N   UNL A   1      42.022  26.346  27.638  1.00  0.00    -0.248 NA
ATOM     58  C   UNL A   1      39.998  25.866  26.708  1.00  0.00     0.031 C 
ATOM     59  C   UNL A   1      44.256  24.402  29.710  1.00  0.00     0.029 A 
ATOM     60  C   UNL A   1      44.226  24.726  28.359  1.00  0.00     0.049 A 
ATOM     61  H   UNL A   1      45.744  25.593  27.212  1.00  0.00     0.167 HD
ATOM     62  C   UNL A   1      42.208  25.162  27.007  1.00  0.00     0.074 A 
ATOM     63  C   UNL A   1      40.944  24.993  26.294  1.00  0.00     0.031 C 
ATOM     64  C   UNL A   1      43.335  24.405  27.226  1.00  0.00     0.031 A 
BRANCH  51  65
ATOM     65  C   UNL A   1      48.671  26.005  30.140  1.00  0.00    -0.014 A 
ATOM     66  C   UNL A   1      48.435  26.024  31.526  1.00  0.00     0.010 A 
ATOM     67  C   UNL A   1      50.003  25.725  29.756  1.00  0.00     0.010 A 
ATOM     68  C   UNL A   1      49.443  25.734  32.459  1.00  0.00     0.020 A 
ATOM     69  C   UNL A   1      51.017  25.413  30.671  1.00  0.00     0.020 A 
ATOM     70  C   UNL A   1      50.723  25.403  32.024  1.00  0.00     0.054 A 
BRANCH  70  71
ATOM     71  S   UNL A   1      51.974  24.911  33.231  1.00  0.00     0.124 S 
ATOM     72  O   UNL A   1      53.150  24.700  32.392  1.00  0.00    -0.237 OA
ATOM     73  O   UNL A   1      52.025  26.072  34.116  1.00  0.00    -0.237 OA
ATOM     74  O   UNL A   1      51.421  23.700  33.835  1.00  0.00    -0.744 OA
ENDBRANCH  70  71
ENDBRANCH  51  65
BRANCH  52  75
ATOM     75  C   UNL A   1      39.519  28.883  28.854  1.00  0.00    -0.014 A 
ATOM     76  C   UNL A   1      38.892  29.348  27.611  1.00  0.00     0.010 A 
ATOM     77  C   UNL A   1      39.002  29.386  30.000  1.00  0.00     0.010 A 
ATOM     78  C   UNL A   1      37.686  30.134  27.466  1.00  0.00     0.020 A 
ATOM     79  C   UNL A   1      37.817  30.160  29.836  1.00  0.00     0.020 A 
ATOM     80  C   UNL A   1      37.048  30.575  28.595  1.00  0.00     0.054 A 
BRANCH  80  81
ATOM     81  S   UNL A   1      35.305  31.802  28.212  1.00  0.00     0.124 S 
ATOM     82  O   UNL A   1      35.664  33.051  27.550  1.00  0.00    -0.237 OA
ATOM     83  O   UNL A   1      34.508  30.852  27.437  1.00  0.00    -0.237 OA
ATOM     84  O   UNL A   1      34.585  32.158  29.408  1.00  0.00    -0.744 OA
ENDBRANCH  80  81
ENDBRANCH  52  75
BRANCH  64  85
ATOM     85  C   UNL A   1      43.766  23.221  26.404  1.00  0.00    -0.014 A 
ATOM     86  C   UNL A   1      44.947  23.155  25.675  1.00  0.00     0.010 A 
ATOM     87  C   UNL A   1      42.954  22.054  26.411  1.00  0.00     0.010 A 
ATOM     88  C   UNL A   1      45.351  21.970  25.068  1.00  0.00     0.020 A 
ATOM     89  C   UNL A   1      43.342  20.862  25.815  1.00  0.00     0.020 A 
ATOM     90  C   UNL A   1      44.555  20.830  25.155  1.00  0.00     0.054 A 
BRANCH  90  91
ATOM     91  S   UNL A   1      45.129  19.336  24.347  1.00  0.00     0.124 S 
ATOM     92  O   UNL A   1      46.579  19.512  24.394  1.00  0.00    -0.237 OA
ATOM     93  O   UNL A   1      44.592  18.295  25.218  1.00  0.00    -0.237 OA
ATOM     94  O   UNL A   1      44.534  19.406  23.015  1.00  0.00    -0.744 OA
ENDBRANCH  90  91
ENDBRANCH  64  85
ENDBRANCH  38  39
ENDBRANCH  31  33
ENDBRANCH  30  31
ENDBRANCH   1  30
TORSDOF 17
ENDMDL
MODEL 3
REMARK VINA RESULT:     -13.3      4.686     11.417
REMARK SMILES COc1ccc(-c2cc(Cl)cc3c2O[C@H](C(F)(F)F)C(C(=O)OCCOC(=O)c2ccc(-c4c5nc(c(-c6ccc(S(=O)(=O)[O-])cc6)c6ccc([nH]6)c(-c6ccc(S(=O)(=O)[O-])cc6)c6nc(c(-c7ccc(S(=O)(=O)[O-])cc7)c7ccc4[nH]7)C=C6)C=C5)cc2)=C3)cc1C
REMARK SMILES IDX 25 1 24 2 23 3 21 4 22 5 20 6 7 7 8 8 13 9 9 10 12 11 14 12
REMARK SMILES IDX 10 13 11 14 89 15 15 16 6 17 3 18 4 19 91 20 5 21 90 22
REMARK SMILES IDX 92 23 2 24 1 25 16 26 17 27 18 28 19 29 26 30 27 31 28 32
REMARK SMILES IDX 29 33 30 34 88 35 31 36 87 37 32 38 33 39 34 40 81 41 35 42
REMARK SMILES IDX 86 43 80 44 82 45 36 46 85 47 79 48 78 49 37 51 67 52 48 53
REMARK SMILES IDX 66 54 49 55 52 56 65 57 83 58 50 59 51 60 64 62 84 63 53 64
REMARK SMILES IDX 38 65 39 66 47 67 40 68 46 69 41 70 42 71 43 72 44 73 45 74
REMARK SMILES IDX 68 75 69 76 77 77 70 78 76 79 71 80 72 81 73 82 74 83 75 84
REMARK SMILES IDX 54 85 55 86 63 87 56 88 62 89 57 90 58 91 59 92 60 93 61 94
REMARK H PARENT 82 50 52 61
REMARK Flexibility Score: inf
ROOT
ATOM      1  C   UNL A   1      48.619  31.582  29.899  1.00  0.00     0.275 C 
ENDROOT
BRANCH   1   2
ATOM      2  C   UNL A   1      47.375  30.859  30.541  1.00  0.00     0.275 C 
BRANCH   2   3
ATOM      3  O   UNL A   1      47.210  29.081  30.408  1.00  0.00    -0.459 OA
BRANCH   3   4
ATOM      4  C   UNL A   1      46.047  27.618  31.042  1.00  0.00     0.338 C 
ATOM      5  O   UNL A   1      46.384  26.718  31.833  1.00  0.00    -0.246 OA
BRANCH   4   6
ATOM      6  C   UNL A   1      44.792  27.052  30.249  1.00  0.00     0.087 C 
ATOM      7  C   UNL A   1      47.583  25.084  27.591  1.00  0.00     0.026 A 
ATOM      8  C   UNL A   1      46.947  24.601  26.429  1.00  0.00     0.033 A 
ATOM      9  C   UNL A   1      46.535  25.165  28.946  1.00  0.00     0.135 A 
ATOM     10  C   UNL A   1      45.576  24.291  26.410  1.00  0.00     0.042 A 
ATOM     11  C   UNL A   1      45.165  25.069  28.708  1.00  0.00     0.019 A 
ATOM     12  O   UNL A   1      46.609  25.580  30.440  1.00  0.00    -0.475 OA
ATOM     13  Cl  UNL A   1      44.875  23.816  24.895  1.00  0.00    -0.084 Cl
ATOM     14  C   UNL A   1      44.704  24.528  27.495  1.00  0.00     0.032 A 
ATOM     15  C   UNL A   1      44.359  26.125  29.356  1.00  0.00     0.027 C 
ATOM     16  C   UNL A   1      45.592  26.762  31.549  1.00  0.00     0.316 C 
BRANCH   7  17
ATOM     17  C   UNL A   1      49.063  25.955  26.980  1.00  0.00    -0.014 A 
ATOM     18  C   UNL A   1      51.308  26.609  25.029  1.00  0.00     0.121 A 
ATOM     19  C   UNL A   1      50.145  27.356  25.149  1.00  0.00     0.047 A 
ATOM     20  C   UNL A   1      51.540  25.759  26.107  1.00  0.00    -0.008 A 
ATOM     21  C   UNL A   1      49.133  27.122  26.176  1.00  0.00     0.013 A 
ATOM     22  C   UNL A   1      50.434  25.459  27.076  1.00  0.00     0.016 A 
ATOM     23  C   UNL A   1      52.879  25.065  26.174  1.00  0.00     0.048 C 
BRANCH  18  24
ATOM     24  O   UNL A   1      52.140  26.897  23.972  1.00  0.00    -0.496 OA
ATOM     25  C   UNL A   1      51.987  28.112  23.217  1.00  0.00     0.278 C 
ENDBRANCH  18  24
ENDBRANCH   7  17
BRANCH  16  26
ATOM     26  C   UNL A   1      44.751  26.714  33.609  1.00  0.00     0.430 C 
ATOM     27  F   UNL A   1      44.546  27.926  34.374  1.00  0.00    -0.167 F 
ATOM     28  F   UNL A   1      43.447  26.178  33.771  1.00  0.00    -0.167 F 
ATOM     29  F   UNL A   1      45.393  26.102  34.695  1.00  0.00    -0.167 F 
ENDBRANCH  16  26
ENDBRANCH   4   6
ENDBRANCH   3   4
ENDBRANCH   2   3
ENDBRANCH   1   2
BRANCH   1  30
ATOM     30  O   UNL A   1      48.374  32.768  29.059  1.00  0.00    -0.458 OA
BRANCH  30  31
ATOM     31  C   UNL A   1      48.260  32.937  27.698  1.00  0.00     0.338 C 
ATOM     32  O   UNL A   1      49.084  33.591  27.071  1.00  0.00    -0.246 OA
BRANCH  31  33
ATOM     33  C   UNL A   1      47.247  32.104  26.974  1.00  0.00     0.060 A 
ATOM     34  C   UNL A   1      47.469  30.114  26.784  1.00  0.00     0.016 A 
ATOM     35  C   UNL A   1      45.501  32.926  27.331  1.00  0.00     0.016 A 
ATOM     36  C   UNL A   1      45.835  29.097  27.383  1.00  0.00     0.010 A 
ATOM     37  C   UNL A   1      43.903  31.992  27.979  1.00  0.00     0.010 A 
ATOM     38  C   UNL A   1      44.208  30.052  27.984  1.00  0.00    -0.014 A 
BRANCH  38  39
ATOM     39  C   UNL A   1      42.814  29.588  28.240  1.00  0.00     0.031 A 
ATOM     40  C   UNL A   1      42.267  28.700  27.248  1.00  0.00     0.074 A 
ATOM     41  C   UNL A   1      42.319  29.675  29.518  1.00  0.00     0.049 A 
ATOM     42  N   UNL A   1      41.054  28.727  26.806  1.00  0.00    -0.248 NA
ATOM     43  C   UNL A   1      43.145  27.755  26.548  1.00  0.00     0.031 C 
ATOM     44  C   UNL A   1      41.468  28.838  30.362  1.00  0.00     0.029 A 
ATOM     45  N   UNL A   1      42.636  30.624  30.451  1.00  0.00    -0.354 N 
ATOM     46  C   UNL A   1      40.940  27.453  26.302  1.00  0.00     0.074 A 
ATOM     47  C   UNL A   1      42.244  27.189  25.745  1.00  0.00     0.031 C 
ATOM     48  C   UNL A   1      41.101  29.475  31.504  1.00  0.00     0.029 A 
ATOM     49  C   UNL A   1      41.796  30.724  31.537  1.00  0.00     0.049 A 
ATOM     50  H   UNL A   1      43.424  31.205  30.350  1.00  0.00     0.167 HD
ATOM     51  C   UNL A   1      40.152  26.554  26.977  1.00  0.00     0.031 A 
ATOM     52  C   UNL A   1      41.394  31.957  31.928  1.00  0.00     0.031 A 
ATOM     53  C   UNL A   1      39.429  27.155  28.126  1.00  0.00     0.049 A 
ATOM     54  C   UNL A   1      40.184  32.196  31.000  1.00  0.00     0.074 A 
ATOM     55  C   UNL A   1      39.248  26.801  29.455  1.00  0.00     0.029 A 
ATOM     56  N   UNL A   1      38.954  28.466  28.040  1.00  0.00    -0.354 N 
ATOM     57  N   UNL A   1      39.856  31.315  30.083  1.00  0.00    -0.248 NA
ATOM     58  C   UNL A   1      39.140  33.209  31.129  1.00  0.00     0.031 C 
ATOM     59  C   UNL A   1      38.644  27.911  30.141  1.00  0.00     0.029 A 
ATOM     60  C   UNL A   1      38.515  28.968  29.249  1.00  0.00     0.049 A 
ATOM     61  H   UNL A   1      38.935  28.981  27.201  1.00  0.00     0.167 HD
ATOM     62  C   UNL A   1      38.529  31.369  29.820  1.00  0.00     0.074 A 
ATOM     63  C   UNL A   1      38.162  32.676  30.362  1.00  0.00     0.031 C 
ATOM     64  C   UNL A   1      37.862  30.292  29.285  1.00  0.00     0.031 A 
BRANCH  51  65
ATOM     65  C   UNL A   1      40.216  25.049  26.737  1.00  0.00    -0.014 A 
ATOM     66  C   UNL A   1      41.478  24.440  26.618  1.00  0.00     0.010 A 
ATOM     67  C   UNL A   1      39.109  24.172  26.660  1.00  0.00     0.010 A 
ATOM     68  C   UNL A   1      41.626  23.051  26.484  1.00  0.00     0.020 A 
ATOM     69  C   UNL A   1      39.239  22.781  26.548  1.00  0.00     0.020 A 
ATOM     70  C   UNL A   1      40.505  22.226  26.478  1.00  0.00     0.054 A 
BRANCH  70  71
ATOM     71  S   UNL A   1      40.719  20.432  26.431  1.00  0.00     0.124 S 
ATOM     72  O   UNL A   1      40.837  20.096  27.847  1.00  0.00    -0.237 OA
ATOM     73  O   UNL A   1      39.493  19.990  25.774  1.00  0.00    -0.237 OA
ATOM     74  O   UNL A   1      41.940  20.246  25.648  1.00  0.00    -0.744 OA
ENDBRANCH  70  71
ENDBRANCH  51  65
BRANCH  52  75
ATOM     75  C   UNL A   1      42.697  32.690  32.136  1.00  0.00    -0.014 A 
ATOM     76  C   UNL A   1      42.828  34.014  31.516  1.00  0.00     0.010 A 
ATOM     77  C   UNL A   1      43.453  32.478  33.240  1.00  0.00     0.010 A 
ATOM     78  C   UNL A   1      43.526  35.172  32.035  1.00  0.00     0.020 A 
ATOM     79  C   UNL A   1      44.134  33.628  33.733  1.00  0.00     0.020 A 
ATOM     80  C   UNL A   1      44.213  35.052  33.213  1.00  0.00     0.054 A 
BRANCH  80  81
ATOM     81  S   UNL A   1      45.266  36.845  33.817  1.00  0.00     0.124 S 
ATOM     82  O   UNL A   1      45.202  37.044  35.260  1.00  0.00    -0.237 OA
ATOM     83  O   UNL A   1      46.582  36.553  33.251  1.00  0.00    -0.237 OA
ATOM     84  O   UNL A   1      44.746  38.043  33.210  1.00  0.00    -0.744 OA
ENDBRANCH  80  81
ENDBRANCH  52  75
BRANCH  64  85
ATOM     85  C   UNL A   1      36.468  30.320  28.720  1.00  0.00    -0.014 A 
ATOM     86  C   UNL A   1      35.639  31.436  28.719  1.00  0.00     0.010 A 
ATOM     87  C   UNL A   1      35.966  29.153  28.081  1.00  0.00     0.010 A 
ATOM     88  C   UNL A   1      34.426  31.428  28.040  1.00  0.00     0.020 A 
ATOM     89  C   UNL A   1      34.761  29.128  27.395  1.00  0.00     0.020 A 
ATOM     90  C   UNL A   1      34.003  30.282  27.371  1.00  0.00     0.054 A 
BRANCH  90  91
ATOM     91  S   UNL A   1      32.426  30.335  26.518  1.00  0.00     0.124 S 
ATOM     92  O   UNL A   1      32.820  30.016  25.148  1.00  0.00    -0.237 OA
ATOM     93  O   UNL A   1      31.670  29.298  27.214  1.00  0.00    -0.237 OA
ATOM     94  O   UNL A   1      31.957  31.701  26.732  1.00  0.00    -0.744 OA
ENDBRANCH  90  91
ENDBRANCH  64  85
ENDBRANCH  38  39
ENDBRANCH  31  33
ENDBRANCH  30  31
ENDBRANCH   1  30
TORSDOF 17
ENDMDL
