MODEL 1
REMARK VINA RESULT:      -7.6      0.000      0.000
REMARK SMILES CCCCCCNC(=O)Oc1cccc(-c2ccc([C@@H](C)C(=O)OCCOC(=O)c3ccc(-c4c5nc(c(-c6ccc(S(=O)(=O)[O-])cc6)c6ccc([nH]6)c(-c6ccc(S(=O)(=O)[O-])cc6)c6nc(c(-c7ccc(S(=O)(=O)[O-])cc7)c7ccc4[nH]7)C=C6)C=C5)cc3)cc2Cl)c1
REMARK SMILES IDX 20 1 21 2 19 3 16 4 17 5 91 6 18 7 90 8 92 9 15 10 11 11
REMARK SMILES IDX 12 12 93 13 13 14 14 15 10 16 8 17 7 18 9 20 6 21 5 22 4 23
REMARK SMILES IDX 3 24 2 25 1 26 22 27 23 28 24 29 25 30 26 31 27 32 28 33
REMARK SMILES IDX 29 34 30 35 31 36 89 37 32 38 88 39 33 40 34 41 35 42 82 43
REMARK SMILES IDX 36 44 87 45 81 46 83 47 37 48 86 49 80 50 79 51 38 53 68 54
REMARK SMILES IDX 49 55 67 56 50 57 53 58 66 59 84 60 51 61 52 62 65 64 85 65
REMARK SMILES IDX 54 66 39 67 40 68 48 69 41 70 47 71 42 72 43 73 44 74 45 75
REMARK SMILES IDX 46 76 69 77 70 78 78 79 71 80 77 81 72 82 73 83 74 84 75 85
REMARK SMILES IDX 76 86 55 87 56 88 64 89 57 90 63 91 58 92 59 93 60 94 61 95
REMARK SMILES IDX 62 96
REMARK H PARENT 7 19 83 52 53 63
REMARK Flexibility Score: inf
ROOT
ATOM      1  C   UNL A   1      36.050  30.592  27.633  1.00  0.00     0.126 C 
ATOM      2  C   UNL A   1      35.327  29.299  27.258  1.00  0.00     0.025 C 
ENDROOT
BRANCH   1   3
ATOM      3  C   UNL A   1      37.104  30.376  28.710  1.00  0.00    -0.033 A 
ATOM      4  C   UNL A   1      39.108  30.029  30.714  1.00  0.00     0.000 A 
ATOM      5  C   UNL A   1      38.345  28.947  30.237  1.00  0.00     0.010 A 
ATOM      6  C   UNL A   1      38.840  31.297  30.168  1.00  0.00     0.049 A 
ATOM      7  C   UNL A   1      37.370  29.113  29.247  1.00  0.00     0.005 A 
ATOM      8  C   UNL A   1      37.853  31.465  29.185  1.00  0.00     0.025 A 
ATOM      9  Cl  UNL A   1      39.745  32.707  30.611  1.00  0.00    -0.084 Cl
BRANCH   4  10
ATOM     10  C   UNL A   1      40.161  29.772  31.717  1.00  0.00    -0.013 A 
ATOM     11  C   UNL A   1      40.887  29.092  33.929  1.00  0.00     0.133 A 
ATOM     12  C   UNL A   1      42.220  29.325  33.594  1.00  0.00     0.047 A 
ATOM     13  C   UNL A   1      39.859  29.313  33.009  1.00  0.00     0.056 A 
ATOM     14  C   UNL A   1      42.534  29.764  32.313  1.00  0.00     0.004 A 
ATOM     15  C   UNL A   1      41.514  29.987  31.385  1.00  0.00     0.009 A 
BRANCH  11  16
ATOM     16  O   UNL A   1      40.626  28.760  35.268  1.00  0.00    -0.410 OA
BRANCH  16  17
ATOM     17  C   UNL A   1      41.682  28.764  36.168  1.00  0.00     0.412 C 
ATOM     18  N   UNL A   1      42.155  27.509  36.445  1.00  0.00    -0.321 N 
ATOM     19  H   UNL A   1      42.924  27.455  37.056  1.00  0.00     0.167 HD
ATOM     20  O   UNL A   1      42.159  29.751  36.715  1.00  0.00    -0.224 OA
BRANCH  18  21
ATOM     21  C   UNL A   1      41.643  26.252  35.933  1.00  0.00     0.119 C 
BRANCH  21  22
ATOM     22  C   UNL A   1      42.634  25.103  36.108  1.00  0.00     0.021 C 
BRANCH  22  23
ATOM     23  C   UNL A   1      42.334  23.852  35.272  1.00  0.00     0.002 C 
BRANCH  23  24
ATOM     24  C   UNL A   1      43.557  23.071  34.779  1.00  0.00    -0.000 C 
BRANCH  24  25
ATOM     25  C   UNL A   1      43.866  23.200  33.285  1.00  0.00    -0.003 C 
ATOM     26  C   UNL A   1      44.388  24.573  32.893  1.00  0.00     0.004 C 
ENDBRANCH  24  25
ENDBRANCH  23  24
ENDBRANCH  22  23
ENDBRANCH  21  22
ENDBRANCH  18  21
ENDBRANCH  16  17
ENDBRANCH  11  16
ENDBRANCH   4  10
ENDBRANCH   1   3
BRANCH   1  27
ATOM     27  C   UNL A   1      35.034  31.698  27.898  1.00  0.00     0.313 C 
ATOM     28  O   UNL A   1      33.908  31.458  28.323  1.00  0.00    -0.252 OA
BRANCH  27  29
ATOM     29  O   UNL A   1      35.511  32.948  27.664  1.00  0.00    -0.462 OA
BRANCH  29  30
ATOM     30  C   UNL A   1      34.583  34.039  27.821  1.00  0.00     0.274 C 
BRANCH  30  31
ATOM     31  C   UNL A   1      34.840  34.797  29.125  1.00  0.00     0.275 C 
BRANCH  31  32
ATOM     32  O   UNL A   1      35.771  34.092  29.963  1.00  0.00    -0.458 OA
BRANCH  32  33
ATOM     33  C   UNL A   1      35.238  33.543  31.079  1.00  0.00     0.338 C 
ATOM     34  O   UNL A   1      34.116  33.090  31.219  1.00  0.00    -0.246 OA
BRANCH  33  35
ATOM     35  C   UNL A   1      36.275  33.451  32.115  1.00  0.00     0.060 A 
ATOM     36  C   UNL A   1      36.579  32.190  32.633  1.00  0.00     0.016 A 
ATOM     37  C   UNL A   1      36.886  34.596  32.625  1.00  0.00     0.016 A 
ATOM     38  C   UNL A   1      37.490  32.065  33.676  1.00  0.00     0.010 A 
ATOM     39  C   UNL A   1      37.813  34.468  33.664  1.00  0.00     0.010 A 
ATOM     40  C   UNL A   1      38.112  33.204  34.202  1.00  0.00    -0.014 A 
BRANCH  40  41
ATOM     41  C   UNL A   1      39.054  33.070  35.338  1.00  0.00     0.031 A 
ATOM     42  C   UNL A   1      40.531  32.997  35.082  1.00  0.00     0.074 A 
ATOM     43  C   UNL A   1      38.580  33.031  36.597  1.00  0.00     0.049 A 
ATOM     44  N   UNL A   1      41.507  32.810  35.933  1.00  0.00    -0.248 NA
ATOM     45  C   UNL A   1      40.968  33.153  33.686  1.00  0.00     0.031 C 
ATOM     46  C   UNL A   1      37.170  33.151  36.972  1.00  0.00     0.029 A 
ATOM     47  N   UNL A   1      39.234  32.885  37.793  1.00  0.00    -0.354 N 
ATOM     48  C   UNL A   1      42.672  32.796  35.176  1.00  0.00     0.074 A 
ATOM     49  C   UNL A   1      42.278  32.985  33.794  1.00  0.00     0.031 C 
ATOM     50  C   UNL A   1      37.068  33.090  38.310  1.00  0.00     0.029 A 
ATOM     51  C   UNL A   1      38.394  32.872  38.880  1.00  0.00     0.049 A 
ATOM     52  H   UNL A   1      40.212  32.797  37.866  1.00  0.00     0.167 HD
ATOM     53  C   UNL A   1      43.951  32.638  35.593  1.00  0.00     0.031 A 
ATOM     54  C   UNL A   1      38.658  32.678  40.186  1.00  0.00     0.031 A 
ATOM     55  C   UNL A   1      44.334  32.450  36.967  1.00  0.00     0.049 A 
ATOM     56  C   UNL A   1      40.076  32.427  40.616  1.00  0.00     0.074 A 
ATOM     57  C   UNL A   1      45.604  32.302  37.497  1.00  0.00     0.029 A 
ATOM     58  N   UNL A   1      43.447  32.375  38.032  1.00  0.00    -0.354 N 
ATOM     59  N   UNL A   1      41.167  32.412  39.889  1.00  0.00    -0.248 NA
ATOM     60  C   UNL A   1      40.296  32.151  42.042  1.00  0.00     0.031 C 
ATOM     61  C   UNL A   1      45.481  32.087  38.875  1.00  0.00     0.029 A 
ATOM     62  C   UNL A   1      44.139  32.150  39.211  1.00  0.00     0.049 A 
ATOM     63  H   UNL A   1      42.470  32.469  37.960  1.00  0.00     0.167 HD
ATOM     64  C   UNL A   1      42.206  32.136  40.769  1.00  0.00     0.074 A 
ATOM     65  C   UNL A   1      41.614  32.006  42.086  1.00  0.00     0.031 C 
ATOM     66  C   UNL A   1      43.531  32.002  40.510  1.00  0.00     0.031 A 
BRANCH  53  67
ATOM     67  C   UNL A   1      45.019  32.602  34.533  1.00  0.00    -0.014 A 
ATOM     68  C   UNL A   1      45.627  33.780  34.062  1.00  0.00     0.010 A 
ATOM     69  C   UNL A   1      45.415  31.364  33.993  1.00  0.00     0.010 A 
ATOM     70  C   UNL A   1      46.571  33.724  33.032  1.00  0.00     0.020 A 
ATOM     71  C   UNL A   1      46.375  31.302  32.980  1.00  0.00     0.020 A 
ATOM     72  C   UNL A   1      46.929  32.486  32.488  1.00  0.00     0.054 A 
BRANCH  72  73
ATOM     73  S   UNL A   1      48.139  32.438  31.138  1.00  0.00     0.124 S 
ATOM     74  O   UNL A   1      47.300  32.710  29.973  1.00  0.00    -0.237 OA
ATOM     75  O   UNL A   1      49.072  33.502  31.499  1.00  0.00    -0.237 OA
ATOM     76  O   UNL A   1      48.686  31.086  31.209  1.00  0.00    -0.744 OA
ENDBRANCH  72  73
ENDBRANCH  53  67
BRANCH  54  77
ATOM     77  C   UNL A   1      37.546  32.697  41.172  1.00  0.00    -0.014 A 
ATOM     78  C   UNL A   1      37.266  33.861  41.907  1.00  0.00     0.010 A 
ATOM     79  C   UNL A   1      36.731  31.562  41.346  1.00  0.00     0.010 A 
ATOM     80  C   UNL A   1      36.187  33.892  42.795  1.00  0.00     0.020 A 
ATOM     81  C   UNL A   1      35.638  31.598  42.216  1.00  0.00     0.020 A 
ATOM     82  C   UNL A   1      35.375  32.763  42.939  1.00  0.00     0.054 A 
BRANCH  82  83
ATOM     83  S   UNL A   1      33.929  32.855  44.032  1.00  0.00     0.124 S 
ATOM     84  O   UNL A   1      32.847  33.093  43.083  1.00  0.00    -0.237 OA
ATOM     85  O   UNL A   1      33.931  31.543  44.674  1.00  0.00    -0.237 OA
ATOM     86  O   UNL A   1      34.243  33.974  44.918  1.00  0.00    -0.744 OA
ENDBRANCH  82  83
ENDBRANCH  54  77
BRANCH  66  87
ATOM     87  C   UNL A   1      44.431  31.706  41.678  1.00  0.00    -0.014 A 
ATOM     88  C   UNL A   1      44.988  32.746  42.443  1.00  0.00     0.010 A 
ATOM     89  C   UNL A   1      44.686  30.372  42.042  1.00  0.00     0.010 A 
ATOM     90  C   UNL A   1      45.806  32.457  43.538  1.00  0.00     0.020 A 
ATOM     91  C   UNL A   1      45.486  30.078  43.151  1.00  0.00     0.020 A 
ATOM     92  C   UNL A   1      46.051  31.124  43.884  1.00  0.00     0.054 A 
BRANCH  92  93
ATOM     93  S   UNL A   1      47.080  30.771  45.336  1.00  0.00     0.124 S 
ATOM     94  O   UNL A   1      46.085  30.344  46.316  1.00  0.00    -0.237 OA
ATOM     95  O   UNL A   1      47.975  29.722  44.851  1.00  0.00    -0.237 OA
ATOM     96  O   UNL A   1      47.727  32.049  45.619  1.00  0.00    -0.744 OA
ENDBRANCH  92  93
ENDBRANCH  66  87
ENDBRANCH  40  41
ENDBRANCH  33  35
ENDBRANCH  32  33
ENDBRANCH  31  32
ENDBRANCH  30  31
ENDBRANCH  29  30
ENDBRANCH  27  29
ENDBRANCH   1  27
TORSDOF 23
ENDMDL
MODEL 2
REMARK VINA RESULT:      -7.5      7.049     12.660
REMARK SMILES CCCCCCNC(=O)Oc1cccc(-c2ccc([C@@H](C)C(=O)OCCOC(=O)c3ccc(-c4c5nc(c(-c6ccc(S(=O)(=O)[O-])cc6)c6ccc([nH]6)c(-c6ccc(S(=O)(=O)[O-])cc6)c6nc(c(-c7ccc(S(=O)(=O)[O-])cc7)c7ccc4[nH]7)C=C6)C=C5)cc3)cc2Cl)c1
REMARK SMILES IDX 20 1 21 2 19 3 16 4 17 5 91 6 18 7 90 8 92 9 15 10 11 11
REMARK SMILES IDX 12 12 93 13 13 14 14 15 10 16 8 17 7 18 9 20 6 21 5 22 4 23
REMARK SMILES IDX 3 24 2 25 1 26 22 27 23 28 24 29 25 30 26 31 27 32 28 33
REMARK SMILES IDX 29 34 30 35 31 36 89 37 32 38 88 39 33 40 34 41 35 42 82 43
REMARK SMILES IDX 36 44 87 45 81 46 83 47 37 48 86 49 80 50 79 51 38 53 68 54
REMARK SMILES IDX 49 55 67 56 50 57 53 58 66 59 84 60 51 61 52 62 65 64 85 65
REMARK SMILES IDX 54 66 39 67 40 68 48 69 41 70 47 71 42 72 43 73 44 74 45 75
REMARK SMILES IDX 46 76 69 77 70 78 78 79 71 80 77 81 72 82 73 83 74 84 75 85
REMARK SMILES IDX 76 86 55 87 56 88 64 89 57 90 63 91 58 92 59 93 60 94 61 95
REMARK SMILES IDX 62 96
REMARK H PARENT 7 19 83 52 53 63
REMARK Flexibility Score: inf
ROOT
ATOM      1  C   UNL A   1      35.298  32.868  29.080  1.00  0.00     0.126 C 
ATOM      2  C   UNL A   1      35.439  34.158  28.274  1.00  0.00     0.025 C 
ENDROOT
BRANCH   1   3
ATOM      3  C   UNL A   1      34.933  31.676  28.207  1.00  0.00    -0.033 A 
ATOM      4  C   UNL A   1      34.186  29.455  26.575  1.00  0.00     0.000 A 
ATOM      5  C   UNL A   1      35.426  29.500  27.240  1.00  0.00     0.010 A 
ATOM      6  C   UNL A   1      33.326  30.556  26.741  1.00  0.00     0.049 A 
ATOM      7  C   UNL A   1      35.789  30.581  28.049  1.00  0.00     0.005 A 
ATOM      8  C   UNL A   1      33.697  31.646  27.542  1.00  0.00     0.025 A 
ATOM      9  Cl  UNL A   1      31.743  30.610  26.037  1.00  0.00    -0.084 Cl
BRANCH   4  10
ATOM     10  C   UNL A   1      33.842  28.256  25.786  1.00  0.00    -0.013 A 
ATOM     11  C   UNL A   1      33.184  25.928  25.608  1.00  0.00     0.133 A 
ATOM     12  C   UNL A   1      33.223  25.993  24.217  1.00  0.00     0.047 A 
ATOM     13  C   UNL A   1      33.492  27.040  26.395  1.00  0.00     0.056 A 
ATOM     14  C   UNL A   1      33.552  27.195  23.600  1.00  0.00     0.004 A 
ATOM     15  C   UNL A   1      33.861  28.313  24.378  1.00  0.00     0.009 A 
BRANCH  11  16
ATOM     16  O   UNL A   1      32.956  24.662  26.170  1.00  0.00    -0.410 OA
BRANCH  16  17
ATOM     17  C   UNL A   1      31.807  23.975  25.808  1.00  0.00     0.412 C 
ATOM     18  N   UNL A   1      32.065  22.838  25.091  1.00  0.00    -0.321 N 
ATOM     19  H   UNL A   1      31.286  22.295  24.833  1.00  0.00     0.167 HD
ATOM     20  O   UNL A   1      30.655  24.321  26.047  1.00  0.00    -0.224 OA
BRANCH  18  21
ATOM     21  C   UNL A   1      33.365  22.347  24.673  1.00  0.00     0.119 C 
BRANCH  21  22
ATOM     22  C   UNL A   1      33.551  20.859  24.967  1.00  0.00     0.021 C 
BRANCH  22  23
ATOM     23  C   UNL A   1      32.452  19.945  24.412  1.00  0.00     0.002 C 
BRANCH  23  24
ATOM     24  C   UNL A   1      32.711  18.439  24.539  1.00  0.00    -0.000 C 
BRANCH  24  25
ATOM     25  C   UNL A   1      32.873  17.682  23.219  1.00  0.00    -0.003 C 
ATOM     26  C   UNL A   1      34.123  16.819  23.167  1.00  0.00     0.004 C 
ENDBRANCH  24  25
ENDBRANCH  23  24
ENDBRANCH  22  23
ENDBRANCH  21  22
ENDBRANCH  18  21
ENDBRANCH  16  17
ENDBRANCH  11  16
ENDBRANCH   4  10
ENDBRANCH   1   3
BRANCH   1  27
ATOM     27  C   UNL A   1      34.408  33.109  30.295  1.00  0.00     0.313 C 
ATOM     28  O   UNL A   1      33.734  34.128  30.416  1.00  0.00    -0.252 OA
BRANCH  27  29
ATOM     29  O   UNL A   1      34.403  32.083  31.184  1.00  0.00    -0.462 OA
BRANCH  29  30
ATOM     30  C   UNL A   1      35.272  32.206  32.327  1.00  0.00     0.274 C 
BRANCH  30  31
ATOM     31  C   UNL A   1      36.679  31.698  32.007  1.00  0.00     0.275 C 
BRANCH  31  32
ATOM     32  O   UNL A   1      37.618  32.783  31.915  1.00  0.00    -0.458 OA
BRANCH  32  33
ATOM     33  C   UNL A   1      38.628  32.746  32.815  1.00  0.00     0.338 C 
ATOM     34  O   UNL A   1      38.607  33.130  33.970  1.00  0.00    -0.246 OA
BRANCH  33  35
ATOM     35  C   UNL A   1      39.773  32.039  32.226  1.00  0.00     0.060 A 
ATOM     36  C   UNL A   1      40.468  31.130  33.026  1.00  0.00     0.016 A 
ATOM     37  C   UNL A   1      40.205  32.323  30.931  1.00  0.00     0.016 A 
ATOM     38  C   UNL A   1      41.611  30.504  32.539  1.00  0.00     0.010 A 
ATOM     39  C   UNL A   1      41.345  31.682  30.437  1.00  0.00     0.010 A 
ATOM     40  C   UNL A   1      42.060  30.778  31.241  1.00  0.00    -0.014 A 
BRANCH  40  41
ATOM     41  C   UNL A   1      43.299  30.137  30.741  1.00  0.00     0.031 A 
ATOM     42  C   UNL A   1      44.619  30.836  30.893  1.00  0.00     0.074 A 
ATOM     43  C   UNL A   1      43.236  28.922  30.166  1.00  0.00     0.049 A 
ATOM     44  N   UNL A   1      45.799  30.472  30.461  1.00  0.00    -0.248 NA
ATOM     45  C   UNL A   1      44.610  32.111  31.627  1.00  0.00     0.031 C 
ATOM     46  C   UNL A   1      42.019  28.122  30.014  1.00  0.00     0.029 A 
ATOM     47  N   UNL A   1      44.219  28.146  29.608  1.00  0.00    -0.354 N 
ATOM     48  C   UNL A   1      46.670  31.486  30.843  1.00  0.00     0.074 A 
ATOM     49  C   UNL A   1      45.879  32.483  31.534  1.00  0.00     0.031 C 
ATOM     50  C   UNL A   1      42.333  26.960  29.418  1.00  0.00     0.029 A 
ATOM     51  C   UNL A   1      43.758  26.958  29.097  1.00  0.00     0.049 A 
ATOM     52  H   UNL A   1      45.166  28.415  29.577  1.00  0.00     0.167 HD
ATOM     53  C   UNL A   1      48.005  31.577  30.633  1.00  0.00     0.031 A 
ATOM     54  C   UNL A   1      44.402  25.988  28.421  1.00  0.00     0.031 A 
ATOM     55  C   UNL A   1      48.784  30.582  29.945  1.00  0.00     0.049 A 
ATOM     56  C   UNL A   1      45.869  26.149  28.132  1.00  0.00     0.074 A 
ATOM     57  C   UNL A   1      50.146  30.570  29.699  1.00  0.00     0.029 A 
ATOM     58  N   UNL A   1      48.267  29.424  29.382  1.00  0.00    -0.354 N 
ATOM     59  N   UNL A   1      46.679  27.113  28.495  1.00  0.00    -0.248 NA
ATOM     60  C   UNL A   1      46.504  25.095  27.330  1.00  0.00     0.031 C 
ATOM     61  C   UNL A   1      50.445  29.429  28.945  1.00  0.00     0.029 A 
ATOM     62  C   UNL A   1      49.277  28.706  28.761  1.00  0.00     0.049 A 
ATOM     63  H   UNL A   1      47.322  29.151  29.419  1.00  0.00     0.167 HD
ATOM     64  C   UNL A   1      47.923  26.780  27.974  1.00  0.00     0.074 A 
ATOM     65  C   UNL A   1      47.761  25.515  27.284  1.00  0.00     0.031 C 
ATOM     66  C   UNL A   1      49.094  27.460  28.061  1.00  0.00     0.031 A 
BRANCH  53  67
ATOM     67  C   UNL A   1      48.689  32.831  31.108  1.00  0.00    -0.014 A 
ATOM     68  C   UNL A   1      49.237  32.926  32.400  1.00  0.00     0.010 A 
ATOM     69  C   UNL A   1      48.778  33.938  30.244  1.00  0.00     0.010 A 
ATOM     70  C   UNL A   1      49.811  34.123  32.838  1.00  0.00     0.020 A 
ATOM     71  C   UNL A   1      49.372  35.129  30.669  1.00  0.00     0.020 A 
ATOM     72  C   UNL A   1      49.863  35.222  31.973  1.00  0.00     0.054 A 
BRANCH  72  73
ATOM     73  S   UNL A   1      50.592  36.772  32.569  1.00  0.00     0.124 S 
ATOM     74  O   UNL A   1      49.531  37.292  33.430  1.00  0.00    -0.237 OA
ATOM     75  O   UNL A   1      51.796  36.321  33.262  1.00  0.00    -0.237 OA
ATOM     76  O   UNL A   1      50.831  37.535  31.347  1.00  0.00    -0.744 OA
ENDBRANCH  72  73
ENDBRANCH  53  67
BRANCH  54  77
ATOM     77  C   UNL A   1      43.652  24.792  27.956  1.00  0.00    -0.014 A 
ATOM     78  C   UNL A   1      43.492  23.680  28.801  1.00  0.00     0.010 A 
ATOM     79  C   UNL A   1      43.053  24.778  26.683  1.00  0.00     0.010 A 
ATOM     80  C   UNL A   1      42.742  22.578  28.382  1.00  0.00     0.020 A 
ATOM     81  C   UNL A   1      42.284  23.687  26.270  1.00  0.00     0.020 A 
ATOM     82  C   UNL A   1      42.137  22.591  27.121  1.00  0.00     0.054 A 
BRANCH  82  83
ATOM     83  S   UNL A   1      41.096  21.186  26.634  1.00  0.00     0.124 S 
ATOM     84  O   UNL A   1      39.967  21.853  25.994  1.00  0.00    -0.237 OA
ATOM     85  O   UNL A   1      41.975  20.433  25.743  1.00  0.00    -0.237 OA
ATOM     86  O   UNL A   1      40.797  20.527  27.904  1.00  0.00    -0.744 OA
ENDBRANCH  82  83
ENDBRANCH  54  77
BRANCH  66  87
ATOM     87  C   UNL A   1      50.294  26.843  27.397  1.00  0.00    -0.014 A 
ATOM     88  C   UNL A   1      50.545  27.044  26.028  1.00  0.00     0.010 A 
ATOM     89  C   UNL A   1      51.206  26.091  28.160  1.00  0.00     0.010 A 
ATOM     90  C   UNL A   1      51.675  26.483  25.428  1.00  0.00     0.020 A 
ATOM     91  C   UNL A   1      52.348  25.547  27.568  1.00  0.00     0.020 A 
ATOM     92  C   UNL A   1      52.569  25.735  26.202  1.00  0.00     0.054 A 
BRANCH  92  93
ATOM     93  S   UNL A   1      54.052  25.053  25.412  1.00  0.00     0.124 S 
ATOM     94  O   UNL A   1      53.485  24.039  24.527  1.00  0.00    -0.237 OA
ATOM     95  O   UNL A   1      54.629  26.218  24.744  1.00  0.00    -0.237 OA
ATOM     96  O   UNL A   1      54.834  24.537  26.533  1.00  0.00    -0.744 OA
ENDBRANCH  92  93
ENDBRANCH  66  87
ENDBRANCH  40  41
ENDBRANCH  33  35
ENDBRANCH  32  33
ENDBRANCH  31  32
ENDBRANCH  30  31
ENDBRANCH  29  30
ENDBRANCH  27  29
ENDBRANCH   1  27
TORSDOF 23
ENDMDL
MODEL 3
REMARK VINA RESULT:      -7.3      4.907     10.736
REMARK SMILES CCCCCCNC(=O)Oc1cccc(-c2ccc([C@@H](C)C(=O)OCCOC(=O)c3ccc(-c4c5nc(c(-c6ccc(S(=O)(=O)[O-])cc6)c6ccc([nH]6)c(-c6ccc(S(=O)(=O)[O-])cc6)c6nc(c(-c7ccc(S(=O)(=O)[O-])cc7)c7ccc4[nH]7)C=C6)C=C5)cc3)cc2Cl)c1
REMARK SMILES IDX 20 1 21 2 19 3 16 4 17 5 91 6 18 7 90 8 92 9 15 10 11 11
REMARK SMILES IDX 12 12 93 13 13 14 14 15 10 16 8 17 7 18 9 20 6 21 5 22 4 23
REMARK SMILES IDX 3 24 2 25 1 26 22 27 23 28 24 29 25 30 26 31 27 32 28 33
REMARK SMILES IDX 29 34 30 35 31 36 89 37 32 38 88 39 33 40 34 41 35 42 82 43
REMARK SMILES IDX 36 44 87 45 81 46 83 47 37 48 86 49 80 50 79 51 38 53 68 54
REMARK SMILES IDX 49 55 67 56 50 57 53 58 66 59 84 60 51 61 52 62 65 64 85 65
REMARK SMILES IDX 54 66 39 67 40 68 48 69 41 70 47 71 42 72 43 73 44 74 45 75
REMARK SMILES IDX 46 76 69 77 70 78 78 79 71 80 77 81 72 82 73 83 74 84 75 85
REMARK SMILES IDX 76 86 55 87 56 88 64 89 57 90 63 91 58 92 59 93 60 94 61 95
REMARK SMILES IDX 62 96
REMARK H PARENT 7 19 83 52 53 63
REMARK Flexibility Score: inf
ROOT
ATOM      1  C   UNL A   1      36.556  32.999  32.327  1.00  0.00     0.126 C 
ATOM      2  C   UNL A   1      36.106  31.553  32.526  1.00  0.00     0.025 C 
ENDROOT
BRANCH   1   3
ATOM      3  C   UNL A   1      37.426  33.499  33.471  1.00  0.00    -0.033 A 
ATOM      4  C   UNL A   1      39.007  34.430  35.659  1.00  0.00     0.000 A 
ATOM      5  C   UNL A   1      39.362  34.698  34.323  1.00  0.00     0.010 A 
ATOM      6  C   UNL A   1      37.840  33.676  35.876  1.00  0.00     0.049 A 
ATOM      7  C   UNL A   1      38.583  34.253  33.250  1.00  0.00     0.005 A 
ATOM      8  C   UNL A   1      37.066  33.218  34.799  1.00  0.00     0.025 A 
ATOM      9  Cl  UNL A   1      37.246  33.326  37.466  1.00  0.00    -0.084 Cl
BRANCH   4  10
ATOM     10  C   UNL A   1      39.843  34.982  36.743  1.00  0.00    -0.013 A 
ATOM     11  C   UNL A   1      41.758  34.882  38.230  1.00  0.00     0.133 A 
ATOM     12  C   UNL A   1      41.382  36.078  38.840  1.00  0.00     0.047 A 
ATOM     13  C   UNL A   1      41.002  34.329  37.193  1.00  0.00     0.056 A 
ATOM     14  C   UNL A   1      40.246  36.744  38.393  1.00  0.00     0.004 A 
ATOM     15  C   UNL A   1      39.484  36.199  37.357  1.00  0.00     0.009 A 
BRANCH  11  16
ATOM     16  O   UNL A   1      42.847  34.203  38.799  1.00  0.00    -0.410 OA
BRANCH  16  17
ATOM     17  C   UNL A   1      44.074  34.267  38.156  1.00  0.00     0.412 C 
ATOM     18  N   UNL A   1      44.383  33.118  37.477  1.00  0.00    -0.321 N 
ATOM     19  H   UNL A   1      45.231  33.119  36.977  1.00  0.00     0.167 HD
ATOM     20  O   UNL A   1      44.856  35.210  38.186  1.00  0.00    -0.224 OA
BRANCH  18  21
ATOM     21  C   UNL A   1      43.594  31.903  37.415  1.00  0.00     0.119 C 
BRANCH  21  22
ATOM     22  C   UNL A   1      44.411  30.657  37.755  1.00  0.00     0.021 C 
BRANCH  22  23
ATOM     23  C   UNL A   1      44.082  29.415  36.918  1.00  0.00     0.002 C 
BRANCH  23  24
ATOM     24  C   UNL A   1      45.226  28.871  36.055  1.00  0.00    -0.000 C 
BRANCH  24  25
ATOM     25  C   UNL A   1      44.817  27.883  34.960  1.00  0.00    -0.003 C 
ATOM     26  C   UNL A   1      45.919  26.904  34.588  1.00  0.00     0.004 C 
ENDBRANCH  24  25
ENDBRANCH  23  24
ENDBRANCH  22  23
ENDBRANCH  21  22
ENDBRANCH  18  21
ENDBRANCH  16  17
ENDBRANCH  11  16
ENDBRANCH   4  10
ENDBRANCH   1   3
BRANCH   1  27
ATOM     27  C   UNL A   1      35.357  33.870  31.963  1.00  0.00     0.313 C 
ATOM     28  O   UNL A   1      35.280  35.046  32.306  1.00  0.00    -0.252 OA
BRANCH  27  29
ATOM     29  O   UNL A   1      34.431  33.236  31.198  1.00  0.00    -0.462 OA
BRANCH  29  30
ATOM     30  C   UNL A   1      34.408  33.567  29.796  1.00  0.00     0.274 C 
BRANCH  30  31
ATOM     31  C   UNL A   1      35.209  32.552  28.978  1.00  0.00     0.275 C 
BRANCH  31  32
ATOM     32  O   UNL A   1      34.406  31.972  27.936  1.00  0.00    -0.458 OA
BRANCH  32  33
ATOM     33  C   UNL A   1      34.404  30.619  27.900  1.00  0.00     0.338 C 
ATOM     34  O   UNL A   1      33.485  29.887  27.578  1.00  0.00    -0.246 OA
BRANCH  33  35
ATOM     35  C   UNL A   1      35.754  30.125  28.199  1.00  0.00     0.060 A 
ATOM     36  C   UNL A   1      35.998  29.604  29.471  1.00  0.00     0.016 A 
ATOM     37  C   UNL A   1      36.786  30.244  27.269  1.00  0.00     0.016 A 
ATOM     38  C   UNL A   1      37.282  29.205  29.828  1.00  0.00     0.010 A 
ATOM     39  C   UNL A   1      38.073  29.830  27.622  1.00  0.00     0.010 A 
ATOM     40  C   UNL A   1      38.331  29.319  28.907  1.00  0.00    -0.014 A 
BRANCH  40  41
ATOM     41  C   UNL A   1      39.704  28.929  29.304  1.00  0.00     0.031 A 
ATOM     42  C   UNL A   1      40.551  29.876  30.104  1.00  0.00     0.074 A 
ATOM     43  C   UNL A   1      40.180  27.718  28.959  1.00  0.00     0.049 A 
ATOM     44  N   UNL A   1      41.796  29.747  30.487  1.00  0.00    -0.248 NA
ATOM     45  C   UNL A   1      39.915  31.133  30.527  1.00  0.00     0.031 C 
ATOM     46  C   UNL A   1      39.431  26.692  28.232  1.00  0.00     0.029 A 
ATOM     47  N   UNL A   1      41.407  27.146  29.178  1.00  0.00    -0.354 N 
ATOM     48  C   UNL A   1      42.103  30.917  31.171  1.00  0.00     0.074 A 
ATOM     49  C   UNL A   1      40.916  31.747  31.142  1.00  0.00     0.031 C 
ATOM     50  C   UNL A   1      40.209  25.609  28.081  1.00  0.00     0.029 A 
ATOM     51  C   UNL A   1      41.526  25.884  28.649  1.00  0.00     0.049 A 
ATOM     52  H   UNL A   1      42.133  27.596  29.668  1.00  0.00     0.167 HD
ATOM     53  C   UNL A   1      43.269  31.268  31.765  1.00  0.00     0.031 A 
ATOM     54  C   UNL A   1      42.584  25.052  28.602  1.00  0.00     0.031 A 
ATOM     55  C   UNL A   1      44.445  30.438  31.789  1.00  0.00     0.049 A 
ATOM     56  C   UNL A   1      43.890  25.495  29.200  1.00  0.00     0.074 A 
ATOM     57  C   UNL A   1      45.669  30.692  32.384  1.00  0.00     0.029 A 
ATOM     58  N   UNL A   1      44.546  29.194  31.183  1.00  0.00    -0.354 N 
ATOM     59  N   UNL A   1      44.168  26.605  29.840  1.00  0.00    -0.248 NA
ATOM     60  C   UNL A   1      45.028  24.578  29.057  1.00  0.00     0.031 C 
ATOM     61  C   UNL A   1      46.525  29.623  32.094  1.00  0.00     0.029 A 
ATOM     62  C   UNL A   1      45.821  28.682  31.360  1.00  0.00     0.049 A 
ATOM     63  H   UNL A   1      43.819  28.740  30.699  1.00  0.00     0.167 HD
ATOM     64  C   UNL A   1      45.511  26.517  30.185  1.00  0.00     0.074 A 
ATOM     65  C   UNL A   1      45.985  25.237  29.696  1.00  0.00     0.031 C 
ATOM     66  C   UNL A   1      46.281  27.415  30.848  1.00  0.00     0.031 A 
BRANCH  53  67
ATOM     67  C   UNL A   1      43.338  32.637  32.385  1.00  0.00    -0.014 A 
ATOM     68  C   UNL A   1      43.052  32.843  33.747  1.00  0.00     0.010 A 
ATOM     69  C   UNL A   1      43.689  33.741  31.586  1.00  0.00     0.010 A 
ATOM     70  C   UNL A   1      43.062  34.134  34.284  1.00  0.00     0.020 A 
ATOM     71  C   UNL A   1      43.723  35.029  32.123  1.00  0.00     0.020 A 
ATOM     72  C   UNL A   1      43.384  35.221  33.464  1.00  0.00     0.054 A 
BRANCH  72  73
ATOM     73  S   UNL A   1      43.369  36.890  34.175  1.00  0.00     0.124 S 
ATOM     74  O   UNL A   1      43.458  37.727  32.981  1.00  0.00    -0.237 OA
ATOM     75  O   UNL A   1      42.088  36.934  34.876  1.00  0.00    -0.237 OA
ATOM     76  O   UNL A   1      44.547  36.909  35.039  1.00  0.00    -0.744 OA
ENDBRANCH  72  73
ENDBRANCH  53  67
BRANCH  54  77
ATOM     77  C   UNL A   1      42.448  23.726  27.944  1.00  0.00    -0.014 A 
ATOM     78  C   UNL A   1      42.741  23.576  26.578  1.00  0.00     0.010 A 
ATOM     79  C   UNL A   1      42.069  22.596  28.693  1.00  0.00     0.010 A 
ATOM     80  C   UNL A   1      42.663  22.318  25.974  1.00  0.00     0.020 A 
ATOM     81  C   UNL A   1      42.012  21.334  28.097  1.00  0.00     0.020 A 
ATOM     82  C   UNL A   1      42.305  21.203  26.738  1.00  0.00     0.054 A 
BRANCH  82  83
ATOM     83  S   UNL A   1      42.295  19.568  25.952  1.00  0.00     0.124 S 
ATOM     84  O   UNL A   1      42.737  18.704  27.043  1.00  0.00    -0.237 OA
ATOM     85  O   UNL A   1      40.898  19.416  25.551  1.00  0.00    -0.237 OA
ATOM     86  O   UNL A   1      43.239  19.715  24.847  1.00  0.00    -0.744 OA
ENDBRANCH  82  83
ENDBRANCH  54  77
BRANCH  66  87
ATOM     87  C   UNL A   1      47.718  27.040  31.088  1.00  0.00    -0.014 A 
ATOM     88  C   UNL A   1      48.051  25.883  31.816  1.00  0.00     0.010 A 
ATOM     89  C   UNL A   1      48.747  27.828  30.541  1.00  0.00     0.010 A 
ATOM     90  C   UNL A   1      49.389  25.535  32.014  1.00  0.00     0.020 A 
ATOM     91  C   UNL A   1      50.086  27.471  30.718  1.00  0.00     0.020 A 
ATOM     92  C   UNL A   1      50.399  26.332  31.465  1.00  0.00     0.054 A 
BRANCH  92  93
ATOM     93  S   UNL A   1      52.129  25.838  31.696  1.00  0.00     0.124 S 
ATOM     94  O   UNL A   1      51.993  24.440  32.096  1.00  0.00    -0.237 OA
ATOM     95  O   UNL A   1      52.709  26.060  30.373  1.00  0.00    -0.237 OA
ATOM     96  O   UNL A   1      52.610  26.741  32.738  1.00  0.00    -0.744 OA
ENDBRANCH  92  93
ENDBRANCH  66  87
ENDBRANCH  40  41
ENDBRANCH  33  35
ENDBRANCH  32  33
ENDBRANCH  31  32
ENDBRANCH  30  31
ENDBRANCH  29  30
ENDBRANCH  27  29
ENDBRANCH   1  27
TORSDOF 23
ENDMDL
