MODEL 1
REMARK VINA RESULT:      -9.9      0.000      0.000
REMARK SMILES C[C@H]([NH2+][C@@H]1CC(=O)N(C)C1=O)[C@H](C)C(=O)OCCOC(=O)c1ccc(-c2c3nc(c(-c4ccc(S(=O)(=O)[O-])cc4)c4ccc([nH]4)c(-c4ccc(S(=O)(=O)[O-])cc4)c4nc(c(-c5ccc(S(=O)(=O)[O-])cc5)c5ccc2[nH]5)C=C4)C=C3)cc1
REMARK SMILES IDX 17 1 16 2 14 3 15 4 12 5 13 6 2 7 1 8 3 9 4 12 5 13 10 14
REMARK SMILES IDX 6 15 8 16 11 17 7 18 9 19 18 20 19 21 20 22 21 23 22 24
REMARK SMILES IDX 23 25 81 26 24 27 80 28 25 29 26 30 27 31 74 32 28 33 79 34
REMARK SMILES IDX 73 35 75 36 29 37 78 38 72 39 71 40 30 42 60 43 41 44 59 45
REMARK SMILES IDX 42 46 45 47 58 48 76 49 43 50 44 51 57 53 77 54 46 55 31 56
REMARK SMILES IDX 32 57 40 58 33 59 39 60 34 61 35 62 36 63 37 64 38 65 61 66
REMARK SMILES IDX 62 67 70 68 63 69 69 70 64 71 65 72 66 73 67 74 68 75 47 76
REMARK SMILES IDX 48 77 56 78 49 79 55 80 50 81 51 82 52 83 53 84 54 85
REMARK H PARENT 3 10 3 11 75 41 45 52
REMARK Flexibility Score: inf
ROOT
ATOM      1  C   UNL A   1      32.036  29.065  26.093  1.00  0.00     0.274 C 
ENDROOT
BRANCH   1   2
ATOM      2  O   UNL A   1      31.171  29.583  25.064  1.00  0.00    -0.462 OA
BRANCH   2   3
ATOM      3  C   UNL A   1      31.230  29.043  23.833  1.00  0.00     0.314 C 
ATOM      4  O   UNL A   1      32.166  29.172  23.052  1.00  0.00    -0.252 OA
BRANCH   3   5
ATOM      5  C   UNL A   1      29.985  28.234  23.503  1.00  0.00     0.154 C 
ATOM      6  C   UNL A   1      29.002  28.952  22.574  1.00  0.00     0.026 C 
BRANCH   5   7
ATOM      7  C   UNL A   1      30.308  26.756  23.125  1.00  0.00     0.194 C 
ATOM      8  C   UNL A   1      30.021  25.856  24.341  1.00  0.00     0.076 C 
BRANCH   7   9
ATOM      9  N   UNL A   1      31.629  26.344  22.587  1.00  0.00    -0.333 N 
ATOM     10  H   UNL A   1      32.157  27.189  22.368  1.00  0.00     0.347 HD
ATOM     11  H   UNL A   1      31.430  25.761  21.774  1.00  0.00     0.347 HD
BRANCH   9  12
ATOM     12  C   UNL A   1      32.445  25.524  23.478  1.00  0.00     0.282 C 
ATOM     13  C   UNL A   1      33.608  26.146  24.242  1.00  0.00     0.176 C 
ATOM     14  C   UNL A   1      33.249  24.445  22.764  1.00  0.00     0.287 C 
ATOM     15  C   UNL A   1      34.367  24.883  24.628  1.00  0.00     0.235 C 
ATOM     16  N   UNL A   1      34.036  23.904  23.736  1.00  0.00    -0.280 N 
ATOM     17  O   UNL A   1      33.358  24.225  21.569  1.00  0.00    -0.267 OA
ATOM     18  O   UNL A   1      35.198  24.819  25.521  1.00  0.00    -0.274 OA
ATOM     19  C   UNL A   1      34.621  22.590  23.636  1.00  0.00     0.156 C 
ENDBRANCH   9  12
ENDBRANCH   7   9
ENDBRANCH   5   7
ENDBRANCH   3   5
ENDBRANCH   2   3
ENDBRANCH   1   2
BRANCH   1  20
ATOM     20  C   UNL A   1      33.138  30.082  26.376  1.00  0.00     0.275 C 
BRANCH  20  21
ATOM     21  O   UNL A   1      33.914  29.638  27.502  1.00  0.00    -0.458 OA
BRANCH  21  22
ATOM     22  C   UNL A   1      34.623  30.609  28.126  1.00  0.00     0.338 C 
ATOM     23  O   UNL A   1      34.223  31.668  28.562  1.00  0.00    -0.246 OA
BRANCH  22  24
ATOM     24  C   UNL A   1      35.983  30.095  28.339  1.00  0.00     0.060 A 
ATOM     25  C   UNL A   1      36.333  29.620  29.605  1.00  0.00     0.016 A 
ATOM     26  C   UNL A   1      36.909  30.109  27.301  1.00  0.00     0.016 A 
ATOM     27  C   UNL A   1      37.628  29.199  29.867  1.00  0.00     0.010 A 
ATOM     28  C   UNL A   1      38.202  29.659  27.552  1.00  0.00     0.010 A 
ATOM     29  C   UNL A   1      38.568  29.222  28.840  1.00  0.00    -0.014 A 
BRANCH  29  30
ATOM     30  C   UNL A   1      39.971  28.869  29.113  1.00  0.00     0.031 A 
ATOM     31  C   UNL A   1      40.885  29.935  29.630  1.00  0.00     0.074 A 
ATOM     32  C   UNL A   1      40.411  27.622  28.869  1.00  0.00     0.049 A 
ATOM     33  N   UNL A   1      42.186  29.936  29.711  1.00  0.00    -0.248 NA
ATOM     34  C   UNL A   1      40.244  31.173  30.106  1.00  0.00     0.031 C 
ATOM     35  C   UNL A   1      39.577  26.491  28.458  1.00  0.00     0.029 A 
ATOM     36  N   UNL A   1      41.680  27.107  28.909  1.00  0.00    -0.354 N 
ATOM     37  C   UNL A   1      42.526  31.189  30.205  1.00  0.00     0.074 A 
ATOM     38  C   UNL A   1      41.295  31.922  30.405  1.00  0.00     0.031 C 
ATOM     39  C   UNL A   1      40.361  25.419  28.259  1.00  0.00     0.029 A 
ATOM     40  C   UNL A   1      41.752  25.809  28.461  1.00  0.00     0.049 A 
ATOM     41  H   UNL A   1      42.461  27.615  29.226  1.00  0.00     0.167 HD
ATOM     42  C   UNL A   1      43.761  31.679  30.451  1.00  0.00     0.031 A 
ATOM     43  C   UNL A   1      42.830  25.048  28.191  1.00  0.00     0.031 A 
ATOM     44  C   UNL A   1      44.966  30.925  30.235  1.00  0.00     0.049 A 
ATOM     45  C   UNL A   1      44.198  25.641  28.393  1.00  0.00     0.074 A 
ATOM     46  C   UNL A   1      46.276  31.318  30.433  1.00  0.00     0.029 A 
ATOM     47  N   UNL A   1      45.002  29.616  29.774  1.00  0.00    -0.354 N 
ATOM     48  N   UNL A   1      44.519  26.841  28.821  1.00  0.00    -0.248 NA
ATOM     49  C   UNL A   1      45.349  24.787  28.073  1.00  0.00     0.031 C 
ATOM     50  C   UNL A   1      47.106  30.263  30.045  1.00  0.00     0.029 A 
ATOM     51  C   UNL A   1      46.311  29.190  29.667  1.00  0.00     0.049 A 
ATOM     52  H   UNL A   1      44.211  29.073  29.554  1.00  0.00     0.167 HD
ATOM     53  C   UNL A   1      45.908  26.870  28.860  1.00  0.00     0.074 A 
ATOM     54  C   UNL A   1      46.365  25.571  28.408  1.00  0.00     0.031 C 
ATOM     55  C   UNL A   1      46.731  27.877  29.241  1.00  0.00     0.031 A 
BRANCH  42  56
ATOM     56  C   UNL A   1      43.865  33.104  30.920  1.00  0.00    -0.014 A 
ATOM     57  C   UNL A   1      44.022  34.167  30.013  1.00  0.00     0.010 A 
ATOM     58  C   UNL A   1      43.789  33.385  32.297  1.00  0.00     0.010 A 
ATOM     59  C   UNL A   1      44.140  35.480  30.476  1.00  0.00     0.020 A 
ATOM     60  C   UNL A   1      43.880  34.699  32.763  1.00  0.00     0.020 A 
ATOM     61  C   UNL A   1      44.073  35.737  31.849  1.00  0.00     0.054 A 
BRANCH  61  62
ATOM     62  S   UNL A   1      44.213  37.452  32.422  1.00  0.00     0.124 S 
ATOM     63  O   UNL A   1      45.628  37.535  32.777  1.00  0.00    -0.237 OA
ATOM     64  O   UNL A   1      43.817  38.217  31.243  1.00  0.00    -0.237 OA
ATOM     65  O   UNL A   1      43.285  37.520  33.547  1.00  0.00    -0.744 OA
ENDBRANCH  61  62
ENDBRANCH  42  56
BRANCH  43  66
ATOM     66  C   UNL A   1      42.652  23.666  27.665  1.00  0.00    -0.014 A 
ATOM     67  C   UNL A   1      42.485  22.584  28.545  1.00  0.00     0.010 A 
ATOM     68  C   UNL A   1      42.634  23.428  26.278  1.00  0.00     0.010 A 
ATOM     69  C   UNL A   1      42.320  21.286  28.049  1.00  0.00     0.020 A 
ATOM     70  C   UNL A   1      42.441  22.137  25.777  1.00  0.00     0.020 A 
ATOM     71  C   UNL A   1      42.298  21.071  26.668  1.00  0.00     0.054 A 
BRANCH  71  72
ATOM     72  S   UNL A   1      42.041  19.385  26.049  1.00  0.00     0.124 S 
ATOM     73  O   UNL A   1      42.520  18.577  27.165  1.00  0.00    -0.237 OA
ATOM     74  O   UNL A   1      40.600  19.352  25.816  1.00  0.00    -0.237 OA
ATOM     75  O   UNL A   1      42.861  19.335  24.841  1.00  0.00    -0.744 OA
ENDBRANCH  71  72
ENDBRANCH  43  66
BRANCH  55  76
ATOM     76  C   UNL A   1      48.208  27.601  29.266  1.00  0.00    -0.014 A 
ATOM     77  C   UNL A   1      49.034  27.933  28.180  1.00  0.00     0.010 A 
ATOM     78  C   UNL A   1      48.787  27.105  30.450  1.00  0.00     0.010 A 
ATOM     79  C   UNL A   1      50.418  27.774  28.279  1.00  0.00     0.020 A 
ATOM     80  C   UNL A   1      50.171  26.970  30.560  1.00  0.00     0.020 A 
ATOM     81  C   UNL A   1      50.978  27.303  29.472  1.00  0.00     0.054 A 
BRANCH  81  82
ATOM     82  S   UNL A   1      52.784  27.200  29.608  1.00  0.00     0.124 S 
ATOM     83  O   UNL A   1      53.178  28.602  29.504  1.00  0.00    -0.237 OA
ATOM     84  O   UNL A   1      52.972  26.589  30.922  1.00  0.00    -0.237 OA
ATOM     85  O   UNL A   1      53.170  26.359  28.476  1.00  0.00    -0.744 OA
ENDBRANCH  81  82
ENDBRANCH  55  76
ENDBRANCH  29  30
ENDBRANCH  22  24
ENDBRANCH  21  22
ENDBRANCH  20  21
ENDBRANCH   1  20
TORSDOF 17
ENDMDL
MODEL 2
REMARK VINA RESULT:      -9.8      4.932     10.252
REMARK SMILES C[C@H]([NH2+][C@@H]1CC(=O)N(C)C1=O)[C@H](C)C(=O)OCCOC(=O)c1ccc(-c2c3nc(c(-c4ccc(S(=O)(=O)[O-])cc4)c4ccc([nH]4)c(-c4ccc(S(=O)(=O)[O-])cc4)c4nc(c(-c5ccc(S(=O)(=O)[O-])cc5)c5ccc2[nH]5)C=C4)C=C3)cc1
REMARK SMILES IDX 17 1 16 2 14 3 15 4 12 5 13 6 2 7 1 8 3 9 4 12 5 13 10 14
REMARK SMILES IDX 6 15 8 16 11 17 7 18 9 19 18 20 19 21 20 22 21 23 22 24
REMARK SMILES IDX 23 25 81 26 24 27 80 28 25 29 26 30 27 31 74 32 28 33 79 34
REMARK SMILES IDX 73 35 75 36 29 37 78 38 72 39 71 40 30 42 60 43 41 44 59 45
REMARK SMILES IDX 42 46 45 47 58 48 76 49 43 50 44 51 57 53 77 54 46 55 31 56
REMARK SMILES IDX 32 57 40 58 33 59 39 60 34 61 35 62 36 63 37 64 38 65 61 66
REMARK SMILES IDX 62 67 70 68 63 69 69 70 64 71 65 72 66 73 67 74 68 75 47 76
REMARK SMILES IDX 48 77 56 78 49 79 55 80 50 81 51 82 52 83 53 84 54 85
REMARK H PARENT 3 10 3 11 75 41 45 52
REMARK Flexibility Score: inf
ROOT
ATOM      1  C   UNL A   1      31.749  30.996  26.793  1.00  0.00     0.274 C 
ENDROOT
BRANCH   1   2
ATOM      2  O   UNL A   1      32.457  30.699  25.573  1.00  0.00    -0.462 OA
BRANCH   2   3
ATOM      3  C   UNL A   1      32.796  29.423  25.312  1.00  0.00     0.314 C 
ATOM      4  O   UNL A   1      33.487  28.716  26.037  1.00  0.00    -0.252 OA
BRANCH   3   5
ATOM      5  C   UNL A   1      32.215  28.936  23.993  1.00  0.00     0.154 C 
ATOM      6  C   UNL A   1      33.047  27.845  23.311  1.00  0.00     0.026 C 
BRANCH   5   7
ATOM      7  C   UNL A   1      30.683  28.659  24.073  1.00  0.00     0.194 C 
ATOM      8  C   UNL A   1      30.461  27.186  24.459  1.00  0.00     0.076 C 
BRANCH   7   9
ATOM      9  N   UNL A   1      29.763  28.952  22.943  1.00  0.00    -0.333 N 
ATOM     10  H   UNL A   1      28.839  28.601  23.193  1.00  0.00     0.347 HD
ATOM     11  H   UNL A   1      30.170  28.496  22.127  1.00  0.00     0.347 HD
BRANCH   9  12
ATOM     12  C   UNL A   1      29.628  30.362  22.590  1.00  0.00     0.282 C 
ATOM     13  C   UNL A   1      29.093  31.360  23.610  1.00  0.00     0.176 C 
ATOM     14  C   UNL A   1      28.591  30.631  21.507  1.00  0.00     0.287 C 
ATOM     15  C   UNL A   1      28.727  32.508  22.679  1.00  0.00     0.235 C 
ATOM     16  N   UNL A   1      28.517  31.990  21.434  1.00  0.00    -0.280 N 
ATOM     17  O   UNL A   1      27.825  29.856  20.959  1.00  0.00    -0.267 OA
ATOM     18  O   UNL A   1      28.558  33.664  23.036  1.00  0.00    -0.274 OA
ATOM     19  C   UNL A   1      28.018  32.691  20.277  1.00  0.00     0.156 C 
ENDBRANCH   9  12
ENDBRANCH   7   9
ENDBRANCH   5   7
ENDBRANCH   3   5
ENDBRANCH   2   3
ENDBRANCH   1   2
BRANCH   1  20
ATOM     20  C   UNL A   1      32.008  32.450  27.178  1.00  0.00     0.275 C 
BRANCH  20  21
ATOM     21  O   UNL A   1      33.345  32.572  27.691  1.00  0.00    -0.458 OA
BRANCH  21  22
ATOM     22  C   UNL A   1      33.570  33.680  28.438  1.00  0.00     0.338 C 
ATOM     23  O   UNL A   1      32.883  34.676  28.531  1.00  0.00    -0.246 OA
BRANCH  22  24
ATOM     24  C   UNL A   1      34.751  33.417  29.272  1.00  0.00     0.060 A 
ATOM     25  C   UNL A   1      35.949  34.071  28.970  1.00  0.00     0.016 A 
ATOM     26  C   UNL A   1      34.679  32.510  30.324  1.00  0.00     0.016 A 
ATOM     27  C   UNL A   1      37.103  33.792  29.685  1.00  0.00     0.010 A 
ATOM     28  C   UNL A   1      35.830  32.250  31.063  1.00  0.00     0.010 A 
ATOM     29  C   UNL A   1      37.047  32.875  30.732  1.00  0.00    -0.014 A 
BRANCH  29  30
ATOM     30  C   UNL A   1      38.277  32.491  31.446  1.00  0.00     0.031 A 
ATOM     31  C   UNL A   1      39.094  31.363  30.898  1.00  0.00     0.074 A 
ATOM     32  C   UNL A   1      38.625  33.129  32.577  1.00  0.00     0.049 A 
ATOM     33  N   UNL A   1      40.058  30.694  31.466  1.00  0.00    -0.248 NA
ATOM     34  C   UNL A   1      38.767  30.921  29.532  1.00  0.00     0.031 C 
ATOM     35  C   UNL A   1      37.948  34.300  33.135  1.00  0.00     0.029 A 
ATOM     36  N   UNL A   1      39.626  32.859  33.473  1.00  0.00    -0.354 N 
ATOM     37  C   UNL A   1      40.427  29.722  30.545  1.00  0.00     0.074 A 
ATOM     38  C   UNL A   1      39.583  29.887  29.383  1.00  0.00     0.031 C 
ATOM     39  C   UNL A   1      38.538  34.635  34.294  1.00  0.00     0.029 A 
ATOM     40  C   UNL A   1      39.584  33.661  34.589  1.00  0.00     0.049 A 
ATOM     41  H   UNL A   1      40.306  32.161  33.333  1.00  0.00     0.167 HD
ATOM     42  C   UNL A   1      41.377  28.770  30.676  1.00  0.00     0.031 A 
ATOM     43  C   UNL A   1      40.277  33.576  35.740  1.00  0.00     0.031 A 
ATOM     44  C   UNL A   1      42.195  28.629  31.849  1.00  0.00     0.049 A 
ATOM     45  C   UNL A   1      41.272  32.458  35.899  1.00  0.00     0.074 A 
ATOM     46  C   UNL A   1      43.180  27.694  32.107  1.00  0.00     0.029 A 
ATOM     47  N   UNL A   1      42.121  29.454  32.963  1.00  0.00    -0.354 N 
ATOM     48  N   UNL A   1      41.590  31.513  35.043  1.00  0.00    -0.248 NA
ATOM     49  C   UNL A   1      41.997  32.386  37.173  1.00  0.00     0.031 C 
ATOM     50  C   UNL A   1      43.669  27.926  33.395  1.00  0.00     0.029 A 
ATOM     51  C   UNL A   1      43.033  29.043  33.916  1.00  0.00     0.049 A 
ATOM     52  H   UNL A   1      41.508  30.218  33.060  1.00  0.00     0.167 HD
ATOM     53  C   UNL A   1      42.582  30.761  35.661  1.00  0.00     0.074 A 
ATOM     54  C   UNL A   1      42.807  31.356  36.963  1.00  0.00     0.031 C 
ATOM     55  C   UNL A   1      43.251  29.679  35.192  1.00  0.00     0.031 A 
BRANCH  42  56
ATOM     56  C   UNL A   1      41.535  27.783  29.553  1.00  0.00    -0.014 A 
ATOM     57  C   UNL A   1      40.593  26.761  29.335  1.00  0.00     0.010 A 
ATOM     58  C   UNL A   1      42.640  27.890  28.689  1.00  0.00     0.010 A 
ATOM     59  C   UNL A   1      40.775  25.841  28.298  1.00  0.00     0.020 A 
ATOM     60  C   UNL A   1      42.812  26.990  27.635  1.00  0.00     0.020 A 
ATOM     61  C   UNL A   1      41.886  25.959  27.457  1.00  0.00     0.054 A 
BRANCH  61  62
ATOM     62  S   UNL A   1      42.090  24.762  26.110  1.00  0.00     0.124 S 
ATOM     63  O   UNL A   1      43.440  24.261  26.356  1.00  0.00    -0.237 OA
ATOM     64  O   UNL A   1      41.012  23.810  26.362  1.00  0.00    -0.237 OA
ATOM     65  O   UNL A   1      41.937  25.569  24.902  1.00  0.00    -0.744 OA
ENDBRANCH  61  62
ENDBRANCH  42  56
BRANCH  43  66
ATOM     66  C   UNL A   1      40.021  34.548  36.838  1.00  0.00    -0.014 A 
ATOM     67  C   UNL A   1      40.735  35.757  36.900  1.00  0.00     0.010 A 
ATOM     68  C   UNL A   1      39.049  34.277  37.819  1.00  0.00     0.010 A 
ATOM     69  C   UNL A   1      40.494  36.669  37.933  1.00  0.00     0.020 A 
ATOM     70  C   UNL A   1      38.785  35.198  38.837  1.00  0.00     0.020 A 
ATOM     71  C   UNL A   1      39.520  36.385  38.895  1.00  0.00     0.054 A 
BRANCH  71  72
ATOM     72  S   UNL A   1      39.197  37.603  40.200  1.00  0.00     0.124 S 
ATOM     73  O   UNL A   1      40.502  38.238  40.350  1.00  0.00    -0.237 OA
ATOM     74  O   UNL A   1      38.153  38.433  39.605  1.00  0.00    -0.237 OA
ATOM     75  O   UNL A   1      38.764  36.786  41.331  1.00  0.00    -0.744 OA
ENDBRANCH  71  72
ENDBRANCH  43  66
BRANCH  55  76
ATOM     76  C   UNL A   1      44.346  29.109  36.050  1.00  0.00    -0.014 A 
ATOM     77  C   UNL A   1      44.109  28.036  36.923  1.00  0.00     0.010 A 
ATOM     78  C   UNL A   1      45.659  29.590  35.885  1.00  0.00     0.010 A 
ATOM     79  C   UNL A   1      45.171  27.451  37.618  1.00  0.00     0.020 A 
ATOM     80  C   UNL A   1      46.724  28.992  36.557  1.00  0.00     0.020 A 
ATOM     81  C   UNL A   1      46.473  27.926  37.423  1.00  0.00     0.054 A 
BRANCH  81  82
ATOM     82  S   UNL A   1      47.844  27.086  38.260  1.00  0.00     0.124 S 
ATOM     83  O   UNL A   1      47.314  26.905  39.608  1.00  0.00    -0.237 OA
ATOM     84  O   UNL A   1      47.998  25.863  37.476  1.00  0.00    -0.237 OA
ATOM     85  O   UNL A   1      48.952  28.033  38.149  1.00  0.00    -0.744 OA
ENDBRANCH  81  82
ENDBRANCH  55  76
ENDBRANCH  29  30
ENDBRANCH  22  24
ENDBRANCH  21  22
ENDBRANCH  20  21
ENDBRANCH   1  20
TORSDOF 17
ENDMDL
MODEL 3
REMARK VINA RESULT:      -9.5      5.395     10.885
REMARK SMILES C[C@H]([NH2+][C@@H]1CC(=O)N(C)C1=O)[C@H](C)C(=O)OCCOC(=O)c1ccc(-c2c3nc(c(-c4ccc(S(=O)(=O)[O-])cc4)c4ccc([nH]4)c(-c4ccc(S(=O)(=O)[O-])cc4)c4nc(c(-c5ccc(S(=O)(=O)[O-])cc5)c5ccc2[nH]5)C=C4)C=C3)cc1
REMARK SMILES IDX 17 1 16 2 14 3 15 4 12 5 13 6 2 7 1 8 3 9 4 12 5 13 10 14
REMARK SMILES IDX 6 15 8 16 11 17 7 18 9 19 18 20 19 21 20 22 21 23 22 24
REMARK SMILES IDX 23 25 81 26 24 27 80 28 25 29 26 30 27 31 74 32 28 33 79 34
REMARK SMILES IDX 73 35 75 36 29 37 78 38 72 39 71 40 30 42 60 43 41 44 59 45
REMARK SMILES IDX 42 46 45 47 58 48 76 49 43 50 44 51 57 53 77 54 46 55 31 56
REMARK SMILES IDX 32 57 40 58 33 59 39 60 34 61 35 62 36 63 37 64 38 65 61 66
REMARK SMILES IDX 62 67 70 68 63 69 69 70 64 71 65 72 66 73 67 74 68 75 47 76
REMARK SMILES IDX 48 77 56 78 49 79 55 80 50 81 51 82 52 83 53 84 54 85
REMARK H PARENT 3 10 3 11 75 41 45 52
REMARK Flexibility Score: inf
ROOT
ATOM      1  C   UNL A   1      37.381  23.186  24.883  1.00  0.00     0.274 C 
ENDROOT
BRANCH   1   2
ATOM      2  O   UNL A   1      36.018  23.059  25.331  1.00  0.00    -0.462 OA
BRANCH   2   3
ATOM      3  C   UNL A   1      35.283  22.021  24.894  1.00  0.00     0.314 C 
ATOM      4  O   UNL A   1      35.721  20.902  24.652  1.00  0.00    -0.252 OA
BRANCH   3   5
ATOM      5  C   UNL A   1      33.816  22.387  24.732  1.00  0.00     0.154 C 
ATOM      6  C   UNL A   1      33.352  22.474  23.275  1.00  0.00     0.026 C 
BRANCH   5   7
ATOM      7  C   UNL A   1      32.883  21.580  25.685  1.00  0.00     0.194 C 
ATOM      8  C   UNL A   1      33.665  21.218  26.961  1.00  0.00     0.076 C 
BRANCH   7   9
ATOM      9  N   UNL A   1      32.176  20.348  25.250  1.00  0.00    -0.333 N 
ATOM     10  H   UNL A   1      31.491  20.612  24.542  1.00  0.00     0.347 HD
ATOM     11  H   UNL A   1      31.764  19.950  26.094  1.00  0.00     0.347 HD
BRANCH   9  12
ATOM     12  C   UNL A   1      33.023  19.301  24.686  1.00  0.00     0.282 C 
ATOM     13  C   UNL A   1      32.697  18.702  23.323  1.00  0.00     0.176 C 
ATOM     14  C   UNL A   1      33.001  17.996  25.472  1.00  0.00     0.287 C 
ATOM     15  C   UNL A   1      33.531  17.430  23.394  1.00  0.00     0.235 C 
ATOM     16  N   UNL A   1      33.723  17.126  24.711  1.00  0.00    -0.280 N 
ATOM     17  O   UNL A   1      32.332  17.690  26.444  1.00  0.00    -0.267 OA
ATOM     18  O   UNL A   1      33.866  16.765  22.426  1.00  0.00    -0.274 OA
ATOM     19  C   UNL A   1      34.337  15.935  25.244  1.00  0.00     0.156 C 
ENDBRANCH   9  12
ENDBRANCH   7   9
ENDBRANCH   5   7
ENDBRANCH   3   5
ENDBRANCH   2   3
ENDBRANCH   1   2
BRANCH   1  20
ATOM     20  C   UNL A   1      38.315  23.073  26.085  1.00  0.00     0.275 C 
BRANCH  20  21
ATOM     21  O   UNL A   1      38.723  24.389  26.493  1.00  0.00    -0.458 OA
BRANCH  21  22
ATOM     22  C   UNL A   1      40.054  24.535  26.700  1.00  0.00     0.338 C 
ATOM     23  O   UNL A   1      40.970  24.038  26.079  1.00  0.00    -0.246 OA
BRANCH  22  24
ATOM     24  C   UNL A   1      40.229  25.554  27.744  1.00  0.00     0.060 A 
ATOM     25  C   UNL A   1      39.289  25.629  28.776  1.00  0.00     0.016 A 
ATOM     26  C   UNL A   1      41.296  26.444  27.685  1.00  0.00     0.016 A 
ATOM     27  C   UNL A   1      39.376  26.625  29.737  1.00  0.00     0.010 A 
ATOM     28  C   UNL A   1      41.403  27.427  28.665  1.00  0.00     0.010 A 
ATOM     29  C   UNL A   1      40.432  27.530  29.680  1.00  0.00    -0.014 A 
BRANCH  29  30
ATOM     30  C   UNL A   1      40.497  28.653  30.632  1.00  0.00     0.031 A 
ATOM     31  C   UNL A   1      41.496  28.585  31.744  1.00  0.00     0.074 A 
ATOM     32  C   UNL A   1      39.649  29.689  30.508  1.00  0.00     0.049 A 
ATOM     33  N   UNL A   1      41.576  29.312  32.823  1.00  0.00    -0.248 NA
ATOM     34  C   UNL A   1      42.535  27.547  31.629  1.00  0.00     0.031 C 
ATOM     35  C   UNL A   1      38.709  29.892  29.404  1.00  0.00     0.029 A 
ATOM     36  N   UNL A   1      39.430  30.757  31.338  1.00  0.00    -0.354 N 
ATOM     37  C   UNL A   1      42.647  28.793  33.540  1.00  0.00     0.074 A 
ATOM     38  C   UNL A   1      43.184  27.691  32.774  1.00  0.00     0.031 C 
ATOM     39  C   UNL A   1      37.994  31.004  29.638  1.00  0.00     0.029 A 
ATOM     40  C   UNL A   1      38.379  31.547  30.937  1.00  0.00     0.049 A 
ATOM     41  H   UNL A   1      39.969  30.940  32.141  1.00  0.00     0.167 HD
ATOM     42  C   UNL A   1      43.120  29.200  34.740  1.00  0.00     0.031 A 
ATOM     43  C   UNL A   1      37.765  32.559  31.579  1.00  0.00     0.031 A 
ATOM     44  C   UNL A   1      42.557  30.296  35.478  1.00  0.00     0.049 A 
ATOM     45  C   UNL A   1      38.254  32.942  32.950  1.00  0.00     0.074 A 
ATOM     46  C   UNL A   1      42.939  30.792  36.711  1.00  0.00     0.029 A 
ATOM     47  N   UNL A   1      41.488  31.070  35.045  1.00  0.00    -0.354 N 
ATOM     48  N   UNL A   1      39.240  32.423  33.645  1.00  0.00    -0.248 NA
ATOM     49  C   UNL A   1      37.550  34.039  33.627  1.00  0.00     0.031 C 
ATOM     50  C   UNL A   1      42.070  31.836  37.043  1.00  0.00     0.029 A 
ATOM     51  C   UNL A   1      41.188  32.031  35.990  1.00  0.00     0.049 A 
ATOM     52  H   UNL A   1      41.014  30.950  34.190  1.00  0.00     0.167 HD
ATOM     53  C   UNL A   1      39.300  33.158  34.823  1.00  0.00     0.074 A 
ATOM     54  C   UNL A   1      38.249  34.152  34.749  1.00  0.00     0.031 C 
ATOM     55  C   UNL A   1      40.151  33.027  35.870  1.00  0.00     0.031 A 
BRANCH  42  56
ATOM     56  C   UNL A   1      44.255  28.419  35.341  1.00  0.00    -0.014 A 
ATOM     57  C   UNL A   1      44.026  27.265  36.113  1.00  0.00     0.010 A 
ATOM     58  C   UNL A   1      45.578  28.842  35.119  1.00  0.00     0.010 A 
ATOM     59  C   UNL A   1      45.098  26.572  36.681  1.00  0.00     0.020 A 
ATOM     60  C   UNL A   1      46.654  28.136  35.663  1.00  0.00     0.020 A 
ATOM     61  C   UNL A   1      46.405  27.014  36.456  1.00  0.00     0.054 A 
BRANCH  61  62
ATOM     62  S   UNL A   1      47.779  26.087  37.193  1.00  0.00     0.124 S 
ATOM     63  O   UNL A   1      47.082  24.963  37.815  1.00  0.00    -0.237 OA
ATOM     64  O   UNL A   1      48.598  25.751  36.032  1.00  0.00    -0.237 OA
ATOM     65  O   UNL A   1      48.381  27.037  38.123  1.00  0.00    -0.744 OA
ENDBRANCH  61  62
ENDBRANCH  42  56
BRANCH  43  66
ATOM     66  C   UNL A   1      36.602  33.244  30.950  1.00  0.00    -0.014 A 
ATOM     67  C   UNL A   1      35.338  33.213  31.565  1.00  0.00     0.010 A 
ATOM     68  C   UNL A   1      36.755  33.945  29.739  1.00  0.00     0.010 A 
ATOM     69  C   UNL A   1      34.246  33.855  30.971  1.00  0.00     0.020 A 
ATOM     70  C   UNL A   1      35.673  34.612  29.157  1.00  0.00     0.020 A 
ATOM     71  C   UNL A   1      34.421  34.551  29.772  1.00  0.00     0.054 A 
BRANCH  71  72
ATOM     72  S   UNL A   1      32.998  35.411  29.045  1.00  0.00     0.124 S 
ATOM     73  O   UNL A   1      32.504  34.424  28.091  1.00  0.00    -0.237 OA
ATOM     74  O   UNL A   1      32.146  35.650  30.207  1.00  0.00    -0.237 OA
ATOM     75  O   UNL A   1      33.587  36.611  28.457  1.00  0.00    -0.744 OA
ENDBRANCH  71  72
ENDBRANCH  43  66
BRANCH  55  76
ATOM     76  C   UNL A   1      40.042  34.025  36.989  1.00  0.00    -0.014 A 
ATOM     77  C   UNL A   1      40.662  35.282  36.912  1.00  0.00     0.010 A 
ATOM     78  C   UNL A   1      39.203  33.732  38.081  1.00  0.00     0.010 A 
ATOM     79  C   UNL A   1      40.444  36.232  37.913  1.00  0.00     0.020 A 
ATOM     80  C   UNL A   1      38.963  34.687  39.068  1.00  0.00     0.020 A 
ATOM     81  C   UNL A   1      39.588  35.932  38.979  1.00  0.00     0.054 A 
BRANCH  81  82
ATOM     82  S   UNL A   1      39.244  37.217  40.211  1.00  0.00     0.124 S 
ATOM     83  O   UNL A   1      38.505  36.475  41.228  1.00  0.00    -0.237 OA
ATOM     84  O   UNL A   1      40.583  37.654  40.601  1.00  0.00    -0.237 OA
ATOM     85  O   UNL A   1      38.464  38.207  39.472  1.00  0.00    -0.744 OA
ENDBRANCH  81  82
ENDBRANCH  55  76
ENDBRANCH  29  30
ENDBRANCH  22  24
ENDBRANCH  21  22
ENDBRANCH  20  21
ENDBRANCH   1  20
TORSDOF 17
ENDMDL
