MODEL 1
REMARK VINA RESULT:     -11.1      0.000      0.000
REMARK SMILES CC[C@H](NC(=O)Cc1c(C)c2cc(Cl)c(OC)cc2oc1=O)C(=O)OCCOC(=O)c1ccc(-c2c3nc(c(-c4ccc(S(=O)(=O)[O-])cc4)c4ccc([nH]4)c(-c4ccc(S(=O)(=O)[O-])cc4)c4nc(c(-c5ccc(S(=O)(=O)[O-])cc5)c5ccc2[nH]5)C=C4)C=C3)cc1
REMARK SMILES IDX 26 1 25 2 23 3 24 4 3 5 2 6 1 7 4 8 5 9 6 11 7 12 8 13 9 14
REMARK SMILES IDX 21 15 10 16 11 17 20 18 22 19 12 20 19 21 13 22 18 23 14 24
REMARK SMILES IDX 15 25 16 26 17 27 27 28 28 29 29 30 30 31 31 32 32 33 90 34
REMARK SMILES IDX 33 35 89 36 34 37 35 38 36 39 83 40 37 41 88 42 82 43 84 44
REMARK SMILES IDX 38 45 87 46 81 47 80 48 39 50 69 51 50 52 68 53 51 54 54 55
REMARK SMILES IDX 67 56 85 57 52 58 53 59 66 61 86 62 55 63 40 64 41 65 49 66
REMARK SMILES IDX 42 67 48 68 43 69 44 70 45 71 46 72 47 73 70 74 71 75 79 76
REMARK SMILES IDX 72 77 78 78 73 79 74 80 75 81 76 82 77 83 56 84 57 85 65 86
REMARK SMILES IDX 58 87 64 88 59 89 60 90 61 91 62 92 63 93
REMARK H PARENT 4 10 84 49 54 60
REMARK Flexibility Score: inf
ROOT
ATOM      1  C   UNL A   1      32.378  31.117  26.931  1.00  0.00     0.274 C 
ENDROOT
BRANCH   1   2
ATOM      2  O   UNL A   1      32.922  30.430  25.772  1.00  0.00    -0.461 OA
BRANCH   2   3
ATOM      3  C   UNL A   1      33.269  29.115  25.918  1.00  0.00     0.328 C 
ATOM      4  O   UNL A   1      33.773  28.671  26.944  1.00  0.00    -0.250 OA
BRANCH   3   5
ATOM      5  C   UNL A   1      32.794  28.215  24.705  1.00  0.00     0.192 C 
BRANCH   5   6
ATOM      6  C   UNL A   1      33.634  28.470  23.435  1.00  0.00     0.033 C 
ATOM      7  C   UNL A   1      33.606  27.386  22.380  1.00  0.00     0.007 C 
ENDBRANCH   5   6
BRANCH   5   8
ATOM      8  N   UNL A   1      31.410  27.782  24.511  1.00  0.00    -0.342 N 
ATOM      9  C   UNL A   1      30.905  26.615  25.033  1.00  0.00     0.225 C 
ATOM     10  H   UNL A   1      30.811  28.355  23.980  1.00  0.00     0.164 HD
ATOM     11  O   UNL A   1      29.941  26.071  24.496  1.00  0.00    -0.275 OA
BRANCH   9  12
ATOM     12  C   UNL A   1      31.493  26.095  26.325  1.00  0.00     0.143 C 
BRANCH  12  13
ATOM     13  C   UNL A   1      31.863  24.647  26.531  1.00  0.00     0.051 A 
ATOM     14  C   UNL A   1      33.318  24.269  26.167  1.00  0.00    -0.029 A 
ATOM     15  C   UNL A   1      30.356  23.386  26.657  1.00  0.00     0.340 A 
ATOM     16  C   UNL A   1      34.474  25.184  25.861  1.00  0.00     0.046 C 
ATOM     17  C   UNL A   1      33.763  22.514  25.708  1.00  0.00     0.023 A 
ATOM     18  O   UNL A   1      30.678  21.737  26.075  1.00  0.00    -0.422 OA
ATOM     19  O   UNL A   1      29.364  23.482  27.364  1.00  0.00    -0.246 OA
ATOM     20  C   UNL A   1      35.425  21.994  25.342  1.00  0.00     0.036 A 
ATOM     21  C   UNL A   1      32.260  21.124  25.558  1.00  0.00     0.142 A 
ATOM     22  C   UNL A   1      35.677  20.293  24.835  1.00  0.00     0.083 A 
ATOM     23  C   UNL A   1      32.593  19.460  24.987  1.00  0.00     0.095 A 
ATOM     24  Cl  UNL A   1      37.264  19.873  24.283  1.00  0.00    -0.080 Cl
ATOM     25  C   UNL A   1      34.333  19.078  24.656  1.00  0.00     0.141 A 
BRANCH  25  26
ATOM     26  O   UNL A   1      34.704  17.911  24.028  1.00  0.00    -0.495 OA
ATOM     27  C   UNL A   1      34.504  16.778  24.856  1.00  0.00     0.278 C 
ENDBRANCH  25  26
ENDBRANCH  12  13
ENDBRANCH   9  12
ENDBRANCH   5   8
ENDBRANCH   3   5
ENDBRANCH   2   3
ENDBRANCH   1   2
BRANCH   1  28
ATOM     28  C   UNL A   1      33.245  32.348  27.348  1.00  0.00     0.275 C 
BRANCH  28  29
ATOM     29  O   UNL A   1      34.182  32.208  28.462  1.00  0.00    -0.458 OA
BRANCH  29  30
ATOM     30  C   UNL A   1      35.494  32.387  28.190  1.00  0.00     0.338 C 
ATOM     31  O   UNL A   1      35.952  33.434  27.766  1.00  0.00    -0.246 OA
BRANCH  30  32
ATOM     32  C   UNL A   1      36.382  31.065  28.426  1.00  0.00     0.060 A 
ATOM     33  C   UNL A   1      36.580  31.084  30.069  1.00  0.00     0.016 A 
ATOM     34  C   UNL A   1      37.510  29.933  27.222  1.00  0.00     0.016 A 
ATOM     35  C   UNL A   1      37.916  30.167  30.532  1.00  0.00     0.010 A 
ATOM     36  C   UNL A   1      38.768  29.015  27.637  1.00  0.00     0.010 A 
ATOM     37  C   UNL A   1      39.102  29.142  29.261  1.00  0.00    -0.014 A 
BRANCH  37  38
ATOM     38  C   UNL A   1      40.639  28.677  29.112  1.00  0.00     0.031 A 
ATOM     39  C   UNL A   1      41.086  27.243  28.776  1.00  0.00     0.074 A 
ATOM     40  C   UNL A   1      41.585  29.551  29.472  1.00  0.00     0.049 A 
ATOM     41  N   UNL A   1      42.188  26.872  28.170  1.00  0.00    -0.248 NA
ATOM     42  C   UNL A   1      40.227  26.089  29.128  1.00  0.00     0.031 C 
ATOM     43  C   UNL A   1      41.309  30.786  30.179  1.00  0.00     0.029 A 
ATOM     44  N   UNL A   1      42.870  29.669  29.023  1.00  0.00    -0.354 N 
ATOM     45  C   UNL A   1      42.083  25.501  27.938  1.00  0.00     0.074 A 
ATOM     46  C   UNL A   1      40.860  25.064  28.561  1.00  0.00     0.031 C 
ATOM     47  C   UNL A   1      42.222  31.679  29.799  1.00  0.00     0.029 A 
ATOM     48  C   UNL A   1      43.239  30.999  28.999  1.00  0.00     0.049 A 
ATOM     49  H   UNL A   1      43.447  28.917  28.755  1.00  0.00     0.167 HD
ATOM     50  C   UNL A   1      42.929  24.718  27.222  1.00  0.00     0.031 A 
ATOM     51  C   UNL A   1      44.247  31.611  28.349  1.00  0.00     0.031 A 
ATOM     52  C   UNL A   1      44.166  25.230  26.674  1.00  0.00     0.049 A 
ATOM     53  C   UNL A   1      45.174  30.743  27.559  1.00  0.00     0.074 A 
ATOM     54  C   UNL A   1      45.137  24.554  25.959  1.00  0.00     0.029 A 
ATOM     55  N   UNL A   1      44.608  26.544  26.800  1.00  0.00    -0.354 N 
ATOM     56  N   UNL A   1      45.043  29.475  27.240  1.00  0.00    -0.248 NA
ATOM     57  C   UNL A   1      46.416  31.364  27.098  1.00  0.00     0.031 C 
ATOM     58  C   UNL A   1      46.200  25.431  25.735  1.00  0.00     0.029 A 
ATOM     59  C   UNL A   1      45.852  26.688  26.210  1.00  0.00     0.049 A 
ATOM     60  H   UNL A   1      44.109  27.267  27.245  1.00  0.00     0.167 HD
ATOM     61  C   UNL A   1      46.214  29.129  26.581  1.00  0.00     0.074 A 
ATOM     62  C   UNL A   1      47.004  30.344  26.485  1.00  0.00     0.031 C 
ATOM     63  C   UNL A   1      46.620  27.913  26.137  1.00  0.00     0.031 A 
BRANCH  50  64
ATOM     64  C   UNL A   1      42.591  23.260  26.957  1.00  0.00    -0.014 A 
ATOM     65  C   UNL A   1      42.513  22.345  28.027  1.00  0.00     0.010 A 
ATOM     66  C   UNL A   1      42.541  22.749  25.645  1.00  0.00     0.010 A 
ATOM     67  C   UNL A   1      42.442  20.963  27.799  1.00  0.00     0.020 A 
ATOM     68  C   UNL A   1      42.439  21.368  25.410  1.00  0.00     0.020 A 
ATOM     69  C   UNL A   1      42.415  20.482  26.489  1.00  0.00     0.054 A 
BRANCH  69  70
ATOM     70  S   UNL A   1      42.370  18.684  26.218  1.00  0.00     0.124 S 
ATOM     71  O   UNL A   1      42.755  18.160  27.526  1.00  0.00    -0.237 OA
ATOM     72  O   UNL A   1      40.980  18.457  25.833  1.00  0.00    -0.237 OA
ATOM     73  O   UNL A   1      43.346  18.470  25.152  1.00  0.00    -0.744 OA
ENDBRANCH  69  70
ENDBRANCH  50  64
BRANCH  51  74
ATOM     74  C   UNL A   1      44.375  33.092  28.462  1.00  0.00    -0.014 A 
ATOM     75  C   UNL A   1      45.074  33.634  29.561  1.00  0.00     0.010 A 
ATOM     76  C   UNL A   1      43.684  33.967  27.607  1.00  0.00     0.010 A 
ATOM     77  C   UNL A   1      44.940  34.975  29.904  1.00  0.00     0.020 A 
ATOM     78  C   UNL A   1      43.621  35.337  27.899  1.00  0.00     0.020 A 
ATOM     79  C   UNL A   1      44.202  35.819  29.077  1.00  0.00     0.054 A 
BRANCH  79  80
ATOM     80  S   UNL A   1      44.000  37.542  29.593  1.00  0.00     0.124 S 
ATOM     81  O   UNL A   1      43.809  37.405  31.035  1.00  0.00    -0.237 OA
ATOM     82  O   UNL A   1      45.268  38.143  29.185  1.00  0.00    -0.237 OA
ATOM     83  O   UNL A   1      42.830  37.992  28.845  1.00  0.00    -0.744 OA
ENDBRANCH  79  80
ENDBRANCH  51  74
BRANCH  63  84
ATOM     84  C   UNL A   1      47.999  27.818  25.534  1.00  0.00    -0.014 A 
ATOM     85  C   UNL A   1      49.132  28.097  26.320  1.00  0.00     0.010 A 
ATOM     86  C   UNL A   1      48.164  27.585  24.156  1.00  0.00     0.010 A 
ATOM     87  C   UNL A   1      50.393  28.203  25.732  1.00  0.00     0.020 A 
ATOM     88  C   UNL A   1      49.431  27.642  23.573  1.00  0.00     0.020 A 
ATOM     89  C   UNL A   1      50.532  27.986  24.360  1.00  0.00     0.054 A 
BRANCH  89  90
ATOM     90  S   UNL A   1      52.167  28.200  23.607  1.00  0.00     0.124 S 
ATOM     91  O   UNL A   1      52.247  27.049  22.715  1.00  0.00    -0.237 OA
ATOM     92  O   UNL A   1      52.045  29.500  22.952  1.00  0.00    -0.237 OA
ATOM     93  O   UNL A   1      53.079  28.168  24.749  1.00  0.00    -0.744 OA
ENDBRANCH  89  90
ENDBRANCH  63  84
ENDBRANCH  37  38
ENDBRANCH  30  32
ENDBRANCH  29  30
ENDBRANCH  28  29
ENDBRANCH   1  28
TORSDOF 19
ENDMDL
MODEL 2
REMARK VINA RESULT:     -10.9      2.441      8.548
REMARK SMILES CC[C@H](NC(=O)Cc1c(C)c2cc(Cl)c(OC)cc2oc1=O)C(=O)OCCOC(=O)c1ccc(-c2c3nc(c(-c4ccc(S(=O)(=O)[O-])cc4)c4ccc([nH]4)c(-c4ccc(S(=O)(=O)[O-])cc4)c4nc(c(-c5ccc(S(=O)(=O)[O-])cc5)c5ccc2[nH]5)C=C4)C=C3)cc1
REMARK SMILES IDX 26 1 25 2 23 3 24 4 3 5 2 6 1 7 4 8 5 9 6 11 7 12 8 13 9 14
REMARK SMILES IDX 21 15 10 16 11 17 20 18 22 19 12 20 19 21 13 22 18 23 14 24
REMARK SMILES IDX 15 25 16 26 17 27 27 28 28 29 29 30 30 31 31 32 32 33 90 34
REMARK SMILES IDX 33 35 89 36 34 37 35 38 36 39 83 40 37 41 88 42 82 43 84 44
REMARK SMILES IDX 38 45 87 46 81 47 80 48 39 50 69 51 50 52 68 53 51 54 54 55
REMARK SMILES IDX 67 56 85 57 52 58 53 59 66 61 86 62 55 63 40 64 41 65 49 66
REMARK SMILES IDX 42 67 48 68 43 69 44 70 45 71 46 72 47 73 70 74 71 75 79 76
REMARK SMILES IDX 72 77 78 78 73 79 74 80 75 81 76 82 77 83 56 84 57 85 65 86
REMARK SMILES IDX 58 87 64 88 59 89 60 90 61 91 62 92 63 93
REMARK H PARENT 4 10 84 49 54 60
REMARK Flexibility Score: inf
ROOT
ATOM      1  C   UNL A   1      34.032  29.403  27.635  1.00  0.00     0.274 C 
ENDROOT
BRANCH   1   2
ATOM      2  O   UNL A   1      33.675  29.929  26.329  1.00  0.00    -0.461 OA
BRANCH   2   3
ATOM      3  C   UNL A   1      32.363  29.844  25.947  1.00  0.00     0.328 C 
ATOM      4  O   UNL A   1      31.452  30.359  26.585  1.00  0.00    -0.250 OA
BRANCH   3   5
ATOM      5  C   UNL A   1      32.178  29.171  24.526  1.00  0.00     0.192 C 
BRANCH   5   6
ATOM      6  C   UNL A   1      33.458  28.442  24.063  1.00  0.00     0.033 C 
ATOM      7  C   UNL A   1      33.984  28.809  22.692  1.00  0.00     0.007 C 
ENDBRANCH   5   6
BRANCH   5   8
ATOM      8  N   UNL A   1      31.306  29.710  23.483  1.00  0.00    -0.342 N 
ATOM      9  C   UNL A   1      30.507  28.922  22.686  1.00  0.00     0.225 C 
ATOM     10  H   UNL A   1      31.290  30.684  23.343  1.00  0.00     0.164 HD
ATOM     11  O   UNL A   1      30.167  29.322  21.574  1.00  0.00    -0.275 OA
BRANCH   9  12
ATOM     12  C   UNL A   1      29.985  27.624  23.259  1.00  0.00     0.143 C 
BRANCH  12  13
ATOM     13  C   UNL A   1      30.756  26.329  23.187  1.00  0.00     0.051 A 
ATOM     14  C   UNL A   1      30.958  25.594  24.533  1.00  0.00    -0.029 A 
ATOM     15  C   UNL A   1      31.856  26.075  21.574  1.00  0.00     0.340 A 
ATOM     16  C   UNL A   1      30.297  25.868  25.857  1.00  0.00     0.046 C 
ATOM     17  C   UNL A   1      32.387  24.414  24.772  1.00  0.00     0.023 A 
ATOM     18  O   UNL A   1      33.324  25.093  21.786  1.00  0.00    -0.422 OA
ATOM     19  O   UNL A   1      31.510  26.212  20.409  1.00  0.00    -0.246 OA
ATOM     20  C   UNL A   1      32.643  23.486  26.268  1.00  0.00     0.036 A 
ATOM     21  C   UNL A   1      33.766  24.219  23.265  1.00  0.00     0.142 A 
ATOM     22  C   UNL A   1      34.109  22.459  26.374  1.00  0.00     0.083 A 
ATOM     23  C   UNL A   1      35.234  23.216  23.478  1.00  0.00     0.095 A 
ATOM     24  Cl  UNL A   1      34.442  21.736  27.913  1.00  0.00    -0.080 Cl
ATOM     25  C   UNL A   1      35.354  22.328  25.053  1.00  0.00     0.141 A 
BRANCH  25  26
ATOM     26  O   UNL A   1      36.512  21.686  25.427  1.00  0.00    -0.495 OA
ATOM     27  C   UNL A   1      36.536  20.339  24.986  1.00  0.00     0.278 C 
ENDBRANCH  25  26
ENDBRANCH  12  13
ENDBRANCH   9  12
ENDBRANCH   5   8
ENDBRANCH   3   5
ENDBRANCH   2   3
ENDBRANCH   1   2
BRANCH   1  28
ATOM     28  C   UNL A   1      35.512  29.729  28.016  1.00  0.00     0.275 C 
BRANCH  28  29
ATOM     29  O   UNL A   1      35.784  30.400  29.286  1.00  0.00    -0.458 OA
BRANCH  29  30
ATOM     30  C   UNL A   1      36.790  29.904  30.042  1.00  0.00     0.338 C 
ATOM     31  O   UNL A   1      36.881  30.098  31.242  1.00  0.00    -0.246 OA
BRANCH  30  32
ATOM     32  C   UNL A   1      37.882  29.082  29.193  1.00  0.00     0.060 A 
ATOM     33  C   UNL A   1      38.563  28.125  30.359  1.00  0.00     0.016 A 
ATOM     34  C   UNL A   1      38.739  29.372  27.409  1.00  0.00     0.016 A 
ATOM     35  C   UNL A   1      40.089  27.588  29.892  1.00  0.00     0.010 A 
ATOM     36  C   UNL A   1      40.179  28.840  26.916  1.00  0.00     0.010 A 
ATOM     37  C   UNL A   1      40.967  28.015  28.125  1.00  0.00    -0.014 A 
BRANCH  37  38
ATOM     38  C   UNL A   1      42.435  28.246  27.502  1.00  0.00     0.031 A 
ATOM     39  C   UNL A   1      43.324  29.469  27.794  1.00  0.00     0.074 A 
ATOM     40  C   UNL A   1      42.835  27.408  26.539  1.00  0.00     0.049 A 
ATOM     41  N   UNL A   1      44.633  29.529  27.764  1.00  0.00    -0.248 NA
ATOM     42  C   UNL A   1      42.713  30.763  28.174  1.00  0.00     0.031 C 
ATOM     43  C   UNL A   1      41.956  26.460  25.885  1.00  0.00     0.029 A 
ATOM     44  N   UNL A   1      44.101  27.026  26.194  1.00  0.00    -0.354 N 
ATOM     45  C   UNL A   1      44.993  30.783  28.258  1.00  0.00     0.074 A 
ATOM     46  C   UNL A   1      43.770  31.510  28.484  1.00  0.00     0.031 C 
ATOM     47  C   UNL A   1      42.688  25.400  25.545  1.00  0.00     0.029 A 
ATOM     48  C   UNL A   1      44.098  25.710  25.777  1.00  0.00     0.049 A 
ATOM     49  H   UNL A   1      44.897  27.604  26.238  1.00  0.00     0.167 HD
ATOM     50  C   UNL A   1      46.243  31.235  28.531  1.00  0.00     0.031 A 
ATOM     51  C   UNL A   1      45.112  24.833  25.657  1.00  0.00     0.031 A 
ATOM     52  C   UNL A   1      47.422  30.455  28.223  1.00  0.00     0.049 A 
ATOM     53  C   UNL A   1      46.487  25.335  25.963  1.00  0.00     0.074 A 
ATOM     54  C   UNL A   1      48.751  30.791  28.408  1.00  0.00     0.029 A 
ATOM     55  N   UNL A   1      47.410  29.189  27.645  1.00  0.00    -0.354 N 
ATOM     56  N   UNL A   1      46.844  26.469  26.524  1.00  0.00    -0.248 NA
ATOM     57  C   UNL A   1      47.601  24.476  25.561  1.00  0.00     0.031 C 
ATOM     58  C   UNL A   1      49.535  29.774  27.861  1.00  0.00     0.029 A 
ATOM     59  C   UNL A   1      48.705  28.748  27.434  1.00  0.00     0.049 A 
ATOM     60  H   UNL A   1      46.598  28.680  27.419  1.00  0.00     0.167 HD
ATOM     61  C   UNL A   1      48.231  26.484  26.495  1.00  0.00     0.074 A 
ATOM     62  C   UNL A   1      48.643  25.211  25.931  1.00  0.00     0.031 C 
ATOM     63  C   UNL A   1      49.084  27.474  26.860  1.00  0.00     0.031 A 
BRANCH  50  64
ATOM     64  C   UNL A   1      46.446  32.588  29.192  1.00  0.00    -0.014 A 
ATOM     65  C   UNL A   1      46.507  32.688  30.597  1.00  0.00     0.010 A 
ATOM     66  C   UNL A   1      46.382  33.782  28.446  1.00  0.00     0.010 A 
ATOM     67  C   UNL A   1      46.452  33.933  31.241  1.00  0.00     0.020 A 
ATOM     68  C   UNL A   1      46.358  35.033  29.084  1.00  0.00     0.020 A 
ATOM     69  C   UNL A   1      46.368  35.100  30.479  1.00  0.00     0.054 A 
BRANCH  69  70
ATOM     70  S   UNL A   1      46.252  36.699  31.337  1.00  0.00     0.124 S 
ATOM     71  O   UNL A   1      47.116  37.553  30.528  1.00  0.00    -0.237 OA
ATOM     72  O   UNL A   1      44.824  36.996  31.260  1.00  0.00    -0.237 OA
ATOM     73  O   UNL A   1      46.747  36.407  32.680  1.00  0.00    -0.744 OA
ENDBRANCH  69  70
ENDBRANCH  50  64
BRANCH  51  74
ATOM     74  C   UNL A   1      44.804  23.439  25.230  1.00  0.00    -0.014 A 
ATOM     75  C   UNL A   1      44.509  22.473  26.215  1.00  0.00     0.010 A 
ATOM     76  C   UNL A   1      44.961  23.015  23.899  1.00  0.00     0.010 A 
ATOM     77  C   UNL A   1      44.550  21.115  25.921  1.00  0.00     0.020 A 
ATOM     78  C   UNL A   1      44.912  21.650  23.582  1.00  0.00     0.020 A 
ATOM     79  C   UNL A   1      44.765  20.709  24.605  1.00  0.00     0.054 A 
BRANCH  79  80
ATOM     80  S   UNL A   1      44.874  18.932  24.277  1.00  0.00     0.124 S 
ATOM     81  O   UNL A   1      46.106  18.571  24.974  1.00  0.00    -0.237 OA
ATOM     82  O   UNL A   1      43.643  18.425  24.881  1.00  0.00    -0.237 OA
ATOM     83  O   UNL A   1      44.930  18.852  22.821  1.00  0.00    -0.744 OA
ENDBRANCH  79  80
ENDBRANCH  51  74
BRANCH  63  84
ATOM     84  C   UNL A   1      50.556  27.242  26.629  1.00  0.00    -0.014 A 
ATOM     85  C   UNL A   1      51.334  26.618  27.622  1.00  0.00     0.010 A 
ATOM     86  C   UNL A   1      51.193  27.761  25.487  1.00  0.00     0.010 A 
ATOM     87  C   UNL A   1      52.724  26.570  27.506  1.00  0.00     0.020 A 
ATOM     88  C   UNL A   1      52.580  27.671  25.345  1.00  0.00     0.020 A 
ATOM     89  C   UNL A   1      53.338  27.108  26.373  1.00  0.00     0.054 A 
BRANCH  89  90
ATOM     90  S   UNL A   1      55.148  27.100  26.279  1.00  0.00     0.124 S 
ATOM     91  O   UNL A   1      55.416  28.252  25.425  1.00  0.00    -0.237 OA
ATOM     92  O   UNL A   1      55.538  27.247  27.679  1.00  0.00    -0.237 OA
ATOM     93  O   UNL A   1      55.457  25.799  25.686  1.00  0.00    -0.744 OA
ENDBRANCH  89  90
ENDBRANCH  63  84
ENDBRANCH  37  38
ENDBRANCH  30  32
ENDBRANCH  29  30
ENDBRANCH  28  29
ENDBRANCH   1  28
TORSDOF 19
ENDMDL
MODEL 3
REMARK VINA RESULT:     -10.4      6.302     10.270
REMARK SMILES CC[C@H](NC(=O)Cc1c(C)c2cc(Cl)c(OC)cc2oc1=O)C(=O)OCCOC(=O)c1ccc(-c2c3nc(c(-c4ccc(S(=O)(=O)[O-])cc4)c4ccc([nH]4)c(-c4ccc(S(=O)(=O)[O-])cc4)c4nc(c(-c5ccc(S(=O)(=O)[O-])cc5)c5ccc2[nH]5)C=C4)C=C3)cc1
REMARK SMILES IDX 26 1 25 2 23 3 24 4 3 5 2 6 1 7 4 8 5 9 6 11 7 12 8 13 9 14
REMARK SMILES IDX 21 15 10 16 11 17 20 18 22 19 12 20 19 21 13 22 18 23 14 24
REMARK SMILES IDX 15 25 16 26 17 27 27 28 28 29 29 30 30 31 31 32 32 33 90 34
REMARK SMILES IDX 33 35 89 36 34 37 35 38 36 39 83 40 37 41 88 42 82 43 84 44
REMARK SMILES IDX 38 45 87 46 81 47 80 48 39 50 69 51 50 52 68 53 51 54 54 55
REMARK SMILES IDX 67 56 85 57 52 58 53 59 66 61 86 62 55 63 40 64 41 65 49 66
REMARK SMILES IDX 42 67 48 68 43 69 44 70 45 71 46 72 47 73 70 74 71 75 79 76
REMARK SMILES IDX 72 77 78 78 73 79 74 80 75 81 76 82 77 83 56 84 57 85 65 86
REMARK SMILES IDX 58 87 64 88 59 89 60 90 61 91 62 92 63 93
REMARK H PARENT 4 10 84 49 54 60
REMARK Flexibility Score: inf
ROOT
ATOM      1  C   UNL A   1      31.998  29.038  26.651  1.00  0.00     0.274 C 
ENDROOT
BRANCH   1   2
ATOM      2  O   UNL A   1      31.381  29.083  25.337  1.00  0.00    -0.461 OA
BRANCH   2   3
ATOM      3  C   UNL A   1      31.650  28.056  24.474  1.00  0.00     0.328 C 
ATOM      4  O   UNL A   1      32.677  28.001  23.807  1.00  0.00    -0.250 OA
BRANCH   3   5
ATOM      5  C   UNL A   1      30.589  26.883  24.564  1.00  0.00     0.192 C 
BRANCH   5   6
ATOM      6  C   UNL A   1      29.397  27.111  23.609  1.00  0.00     0.033 C 
ATOM      7  C   UNL A   1      29.449  28.355  22.750  1.00  0.00     0.007 C 
ENDBRANCH   5   6
BRANCH   5   8
ATOM      8  N   UNL A   1      30.328  26.120  25.783  1.00  0.00    -0.342 N 
ATOM      9  C   UNL A   1      30.463  24.754  25.862  1.00  0.00     0.225 C 
ATOM     10  H   UNL A   1      30.039  26.609  26.588  1.00  0.00     0.164 HD
ATOM     11  O   UNL A   1      29.822  24.122  26.700  1.00  0.00    -0.275 OA
BRANCH   9  12
ATOM     12  C   UNL A   1      31.488  24.085  24.974  1.00  0.00     0.143 C 
BRANCH  12  13
ATOM     13  C   UNL A   1      32.655  23.301  25.520  1.00  0.00     0.051 A 
ATOM     14  C   UNL A   1      33.897  24.135  25.911  1.00  0.00    -0.029 A 
ATOM     15  C   UNL A   1      32.658  21.374  25.117  1.00  0.00     0.340 A 
ATOM     16  C   UNL A   1      34.017  25.630  26.042  1.00  0.00     0.046 C 
ATOM     17  C   UNL A   1      35.596  23.359  25.947  1.00  0.00     0.023 A 
ATOM     18  O   UNL A   1      34.261  20.616  24.975  1.00  0.00    -0.422 OA
ATOM     19  O   UNL A   1      31.742  20.579  25.276  1.00  0.00    -0.246 OA
ATOM     20  C   UNL A   1      37.059  24.240  26.450  1.00  0.00     0.036 A 
ATOM     21  C   UNL A   1      35.805  21.416  25.321  1.00  0.00     0.142 A 
ATOM     22  C   UNL A   1      38.629  23.380  26.349  1.00  0.00     0.083 A 
ATOM     23  C   UNL A   1      37.421  20.653  25.196  1.00  0.00     0.095 A 
ATOM     24  Cl  UNL A   1      40.052  24.323  26.642  1.00  0.00    -0.080 Cl
ATOM     25  C   UNL A   1      38.813  21.672  25.747  1.00  0.00     0.141 A 
BRANCH  25  26
ATOM     26  O   UNL A   1      40.116  21.289  25.520  1.00  0.00    -0.495 OA
ATOM     27  C   UNL A   1      40.591  20.411  26.527  1.00  0.00     0.278 C 
ENDBRANCH  25  26
ENDBRANCH  12  13
ENDBRANCH   9  12
ENDBRANCH   5   8
ENDBRANCH   3   5
ENDBRANCH   2   3
ENDBRANCH   1   2
BRANCH   1  28
ATOM     28  C   UNL A   1      33.548  29.223  26.581  1.00  0.00     0.275 C 
BRANCH  28  29
ATOM     29  O   UNL A   1      34.132  30.477  27.056  1.00  0.00    -0.458 OA
BRANCH  29  30
ATOM     30  C   UNL A   1      35.382  30.419  27.568  1.00  0.00     0.338 C 
ATOM     31  O   UNL A   1      36.310  29.864  27.004  1.00  0.00    -0.246 OA
BRANCH  30  32
ATOM     32  C   UNL A   1      35.511  31.106  29.018  1.00  0.00     0.060 A 
ATOM     33  C   UNL A   1      35.173  32.688  28.671  1.00  0.00     0.016 A 
ATOM     34  C   UNL A   1      36.376  30.545  30.733  1.00  0.00     0.016 A 
ATOM     35  C   UNL A   1      35.783  33.716  29.858  1.00  0.00     0.010 A 
ATOM     36  C   UNL A   1      36.934  31.500  31.906  1.00  0.00     0.010 A 
ATOM     37  C   UNL A   1      36.763  33.106  31.513  1.00  0.00    -0.014 A 
BRANCH  37  38
ATOM     38  C   UNL A   1      37.924  33.607  32.513  1.00  0.00     0.031 A 
ATOM     39  C   UNL A   1      37.798  33.641  34.048  1.00  0.00     0.074 A 
ATOM     40  C   UNL A   1      38.998  34.189  31.968  1.00  0.00     0.049 A 
ATOM     41  N   UNL A   1      38.763  33.546  34.929  1.00  0.00    -0.248 NA
ATOM     42  C   UNL A   1      36.469  33.779  34.686  1.00  0.00     0.031 C 
ATOM     43  C   UNL A   1      39.076  34.584  30.577  1.00  0.00     0.029 A 
ATOM     44  N   UNL A   1      40.281  34.248  32.436  1.00  0.00    -0.354 N 
ATOM     45  C   UNL A   1      38.160  33.458  36.184  1.00  0.00     0.074 A 
ATOM     46  C   UNL A   1      36.744  33.621  35.979  1.00  0.00     0.031 C 
ATOM     47  C   UNL A   1      40.349  34.473  30.199  1.00  0.00     0.029 A 
ATOM     48  C   UNL A   1      41.168  34.204  31.379  1.00  0.00     0.049 A 
ATOM     49  H   UNL A   1      40.534  34.311  33.386  1.00  0.00     0.167 HD
ATOM     50  C   UNL A   1      38.764  33.216  37.374  1.00  0.00     0.031 A 
ATOM     51  C   UNL A   1      42.483  33.915  31.359  1.00  0.00     0.031 A 
ATOM     52  C   UNL A   1      40.202  33.118  37.498  1.00  0.00     0.049 A 
ATOM     53  C   UNL A   1      43.142  33.645  32.673  1.00  0.00     0.074 A 
ATOM     54  C   UNL A   1      40.958  32.911  38.637  1.00  0.00     0.029 A 
ATOM     55  N   UNL A   1      41.100  33.242  36.442  1.00  0.00    -0.354 N 
ATOM     56  N   UNL A   1      42.586  33.456  33.849  1.00  0.00    -0.248 NA
ATOM     57  C   UNL A   1      44.605  33.616  32.677  1.00  0.00     0.031 C 
ATOM     58  C   UNL A   1      42.306  33.001  38.284  1.00  0.00     0.029 A 
ATOM     59  C   UNL A   1      42.401  33.153  36.908  1.00  0.00     0.049 A 
ATOM     60  H   UNL A   1      40.848  33.374  35.499  1.00  0.00     0.167 HD
ATOM     61  C   UNL A   1      43.637  33.336  34.747  1.00  0.00     0.074 A 
ATOM     62  C   UNL A   1      44.857  33.399  33.962  1.00  0.00     0.031 C 
ATOM     63  C   UNL A   1      43.599  33.229  36.100  1.00  0.00     0.031 A 
BRANCH  50  64
ATOM     64  C   UNL A   1      37.934  33.021  38.633  1.00  0.00    -0.014 A 
ATOM     65  C   UNL A   1      38.001  33.965  39.679  1.00  0.00     0.010 A 
ATOM     66  C   UNL A   1      37.240  31.818  38.872  1.00  0.00     0.010 A 
ATOM     67  C   UNL A   1      37.442  33.697  40.937  1.00  0.00     0.020 A 
ATOM     68  C   UNL A   1      36.651  31.558  40.120  1.00  0.00     0.020 A 
ATOM     69  C   UNL A   1      36.777  32.489  41.153  1.00  0.00     0.054 A 
BRANCH  69  70
ATOM     70  S   UNL A   1      36.101  32.145  42.806  1.00  0.00     0.124 S 
ATOM     71  O   UNL A   1      34.685  31.926  42.527  1.00  0.00    -0.237 OA
ATOM     72  O   UNL A   1      36.852  30.961  43.215  1.00  0.00    -0.237 OA
ATOM     73  O   UNL A   1      36.406  33.358  43.563  1.00  0.00    -0.744 OA
ENDBRANCH  69  70
ENDBRANCH  50  64
BRANCH  51  74
ATOM     74  C   UNL A   1      43.187  33.888  30.045  1.00  0.00    -0.014 A 
ATOM     75  C   UNL A   1      43.436  35.107  29.379  1.00  0.00     0.010 A 
ATOM     76  C   UNL A   1      43.461  32.686  29.371  1.00  0.00     0.010 A 
ATOM     77  C   UNL A   1      43.770  35.130  28.030  1.00  0.00     0.020 A 
ATOM     78  C   UNL A   1      43.887  32.706  28.035  1.00  0.00     0.020 A 
ATOM     79  C   UNL A   1      43.981  33.927  27.359  1.00  0.00     0.054 A 
BRANCH  79  80
ATOM     80  S   UNL A   1      44.353  34.002  25.589  1.00  0.00     0.124 S 
ATOM     81  O   UNL A   1      44.542  32.591  25.261  1.00  0.00    -0.237 OA
ATOM     82  O   UNL A   1      43.145  34.614  25.040  1.00  0.00    -0.237 OA
ATOM     83  O   UNL A   1      45.554  34.828  25.523  1.00  0.00    -0.744 OA
ENDBRANCH  79  80
ENDBRANCH  51  74
BRANCH  63  84
ATOM     84  C   UNL A   1      44.918  33.207  36.832  1.00  0.00    -0.014 A 
ATOM     85  C   UNL A   1      45.490  31.981  37.215  1.00  0.00     0.010 A 
ATOM     86  C   UNL A   1      45.521  34.406  37.255  1.00  0.00     0.010 A 
ATOM     87  C   UNL A   1      46.603  31.951  38.056  1.00  0.00     0.020 A 
ATOM     88  C   UNL A   1      46.665  34.380  38.057  1.00  0.00     0.020 A 
ATOM     89  C   UNL A   1      47.176  33.152  38.481  1.00  0.00     0.054 A 
BRANCH  89  90
ATOM     90  S   UNL A   1      48.575  33.088  39.631  1.00  0.00     0.124 S 
ATOM     91  O   UNL A   1      49.393  32.023  39.059  1.00  0.00    -0.237 OA
ATOM     92  O   UNL A   1      49.131  34.435  39.528  1.00  0.00    -0.237 OA
ATOM     93  O   UNL A   1      47.953  32.774  40.915  1.00  0.00    -0.744 OA
ENDBRANCH  89  90
ENDBRANCH  63  84
ENDBRANCH  37  38
ENDBRANCH  30  32
ENDBRANCH  29  30
ENDBRANCH  28  29
ENDBRANCH   1  28
TORSDOF 19
ENDMDL
