MODEL 1
REMARK VINA RESULT:     -12.2      0.000      0.000
REMARK SMILES Cc1nc2scc(C)n2c1CNc1ccc(C(=O)OCCOC(=O)c2ccc(-c3c4nc(c(-c5ccc(S(=O)(=O)[O-])cc5)c5ccc([nH]5)c(-c5ccc(S(=O)(=O)[O-])cc5)c5nc(c(-c6ccc(S(=O)(=O)[O-])cc6)c6ccc3[nH]6)C=C5)C=C4)cc2)cc1
REMARK SMILES IDX 20 1 19 2 17 3 18 4 16 5 13 6 14 7 86 8 15 9 85 10 12 11
REMARK SMILES IDX 11 13 10 14 1 15 2 16 3 17 4 18 9 19 5 20 7 21 6 22 8 23
REMARK SMILES IDX 21 24 22 25 23 26 24 27 25 28 26 29 84 30 27 31 83 32 28 33
REMARK SMILES IDX 29 34 30 35 77 36 31 37 82 38 76 39 78 40 32 41 81 42 75 43
REMARK SMILES IDX 74 44 33 46 63 47 44 48 62 49 45 50 48 51 61 52 79 53 46 54
REMARK SMILES IDX 47 55 60 57 80 58 49 59 34 60 35 61 43 62 36 63 42 64 37 65
REMARK SMILES IDX 38 66 39 67 40 68 41 69 64 70 65 71 73 72 66 73 72 74 67 75
REMARK SMILES IDX 68 76 69 77 70 78 71 79 50 80 51 81 59 82 52 83 58 84 53 85
REMARK SMILES IDX 54 86 55 87 56 88 57 89
REMARK H PARENT 12 12 78 45 48 56
REMARK Flexibility Score: inf
ROOT
ATOM      1  C   UNL A   1      31.889  30.088  25.366  1.00  0.00     0.275 C 
ENDROOT
BRANCH   1   2
ATOM      2  O   UNL A   1      31.026  28.941  25.330  1.00  0.00    -0.458 OA
BRANCH   2   3
ATOM      3  C   UNL A   1      30.923  28.333  24.123  1.00  0.00     0.338 C 
ATOM      4  O   UNL A   1      30.966  28.879  23.029  1.00  0.00    -0.246 OA
BRANCH   3   5
ATOM      5  C   UNL A   1      30.811  26.866  24.286  1.00  0.00     0.060 A 
ATOM      6  C   UNL A   1      30.945  24.092  24.652  1.00  0.00     0.034 A 
ATOM      7  C   UNL A   1      30.955  24.949  25.755  1.00  0.00     0.026 A 
ATOM      8  C   UNL A   1      30.717  24.637  23.380  1.00  0.00     0.026 A 
ATOM      9  C   UNL A   1      30.916  26.332  25.574  1.00  0.00     0.018 A 
ATOM     10  C   UNL A   1      30.642  26.016  23.193  1.00  0.00     0.018 A 
BRANCH   6  11
ATOM     11  N   UNL A   1      31.359  22.778  24.817  1.00  0.00    -0.379 N 
ATOM     12  H   UNL A   1      31.064  22.077  24.193  1.00  0.00     0.160 HD
BRANCH  11  13
ATOM     13  C   UNL A   1      32.237  22.457  25.927  1.00  0.00     0.169 C 
BRANCH  13  14
ATOM     14  C   UNL A   1      33.495  21.778  25.536  1.00  0.00     0.066 A 
ATOM     15  C   UNL A   1      32.797  19.279  25.459  1.00  0.00     0.069 C 
ATOM     16  C   UNL A   1      33.737  20.419  25.327  1.00  0.00     0.062 A 
ATOM     17  N   UNL A   1      35.029  20.191  24.904  1.00  0.00    -0.224 NA
ATOM     18  C   UNL A   1      35.547  21.385  24.867  1.00  0.00     0.194 A 
ATOM     19  N   UNL A   1      34.688  22.394  25.216  1.00  0.00    -0.290 N 
ATOM     20  S   UNL A   1      37.110  21.980  24.409  1.00  0.00    -0.105 S 
ATOM     21  C   UNL A   1      35.245  23.669  25.121  1.00  0.00     0.032 A 
ATOM     22  C   UNL A   1      36.527  23.613  24.704  1.00  0.00     0.090 A 
ATOM     23  C   UNL A   1      34.545  24.947  25.406  1.00  0.00     0.066 C 
ENDBRANCH  13  14
ENDBRANCH  11  13
ENDBRANCH   6  11
ENDBRANCH   3   5
ENDBRANCH   2   3
ENDBRANCH   1   2
BRANCH   1  24
ATOM     24  C   UNL A   1      32.389  30.350  26.778  1.00  0.00     0.275 C 
BRANCH  24  25
ATOM     25  O   UNL A   1      33.814  30.403  26.840  1.00  0.00    -0.458 OA
BRANCH  25  26
ATOM     26  C   UNL A   1      34.306  31.393  27.621  1.00  0.00     0.338 C 
ATOM     27  O   UNL A   1      33.942  32.555  27.656  1.00  0.00    -0.246 OA
BRANCH  26  28
ATOM     28  C   UNL A   1      35.540  30.933  28.262  1.00  0.00     0.060 A 
ATOM     29  C   UNL A   1      36.469  31.899  28.658  1.00  0.00     0.016 A 
ATOM     30  C   UNL A   1      35.867  29.571  28.205  1.00  0.00     0.016 A 
ATOM     31  C   UNL A   1      37.775  31.507  28.877  1.00  0.00     0.010 A 
ATOM     32  C   UNL A   1      37.172  29.186  28.402  1.00  0.00     0.010 A 
ATOM     33  C   UNL A   1      38.122  30.164  28.684  1.00  0.00    -0.014 A 
BRANCH  33  34
ATOM     34  C   UNL A   1      39.484  29.754  28.966  1.00  0.00     0.031 A 
ATOM     35  C   UNL A   1      39.788  29.764  30.415  1.00  0.00     0.074 A 
ATOM     36  C   UNL A   1      40.314  29.260  28.027  1.00  0.00     0.049 A 
ATOM     37  N   UNL A   1      40.616  30.536  31.033  1.00  0.00    -0.248 NA
ATOM     38  C   UNL A   1      38.937  28.957  31.308  1.00  0.00     0.031 C 
ATOM     39  C   UNL A   1      40.007  28.966  26.625  1.00  0.00     0.029 A 
ATOM     40  N   UNL A   1      41.582  28.790  28.167  1.00  0.00    -0.354 N 
ATOM     41  C   UNL A   1      40.570  30.138  32.363  1.00  0.00     0.074 A 
ATOM     42  C   UNL A   1      39.383  29.335  32.505  1.00  0.00     0.031 C 
ATOM     43  C   UNL A   1      40.962  28.146  26.128  1.00  0.00     0.029 A 
ATOM     44  C   UNL A   1      41.995  27.955  27.134  1.00  0.00     0.049 A 
ATOM     45  H   UNL A   1      42.157  29.019  28.933  1.00  0.00     0.167 HD
ATOM     46  C   UNL A   1      41.662  30.249  33.167  1.00  0.00     0.031 A 
ATOM     47  C   UNL A   1      43.057  27.106  27.146  1.00  0.00     0.031 A 
ATOM     48  C   UNL A   1      42.645  31.141  32.607  1.00  0.00     0.049 A 
ATOM     49  C   UNL A   1      43.972  27.562  28.225  1.00  0.00     0.074 A 
ATOM     50  C   UNL A   1      42.627  32.457  32.186  1.00  0.00     0.029 A 
ATOM     51  N   UNL A   1      43.752  30.568  32.024  1.00  0.00    -0.354 N 
ATOM     52  N   UNL A   1      44.630  28.686  28.170  1.00  0.00    -0.248 NA
ATOM     53  C   UNL A   1      43.790  27.015  29.561  1.00  0.00     0.031 C 
ATOM     54  C   UNL A   1      43.431  32.478  31.012  1.00  0.00     0.029 A 
ATOM     55  C   UNL A   1      43.965  31.201  30.827  1.00  0.00     0.049 A 
ATOM     56  H   UNL A   1      44.293  29.836  32.398  1.00  0.00     0.167 HD
ATOM     57  C   UNL A   1      44.538  29.210  29.452  1.00  0.00     0.074 A 
ATOM     58  C   UNL A   1      44.101  28.093  30.288  1.00  0.00     0.031 C 
ATOM     59  C   UNL A   1      44.539  30.560  29.664  1.00  0.00     0.031 A 
BRANCH  46  60
ATOM     60  C   UNL A   1      42.020  29.209  34.199  1.00  0.00    -0.014 A 
ATOM     61  C   UNL A   1      42.175  27.873  33.783  1.00  0.00     0.010 A 
ATOM     62  C   UNL A   1      41.914  29.440  35.588  1.00  0.00     0.010 A 
ATOM     63  C   UNL A   1      42.135  26.819  34.703  1.00  0.00     0.020 A 
ATOM     64  C   UNL A   1      41.922  28.401  36.517  1.00  0.00     0.020 A 
ATOM     65  C   UNL A   1      41.995  27.093  36.064  1.00  0.00     0.054 A 
BRANCH  65  66
ATOM     66  S   UNL A   1      41.840  25.723  37.233  1.00  0.00     0.124 S 
ATOM     67  O   UNL A   1      42.048  24.567  36.368  1.00  0.00    -0.237 OA
ATOM     68  O   UNL A   1      42.912  26.008  38.183  1.00  0.00    -0.237 OA
ATOM     69  O   UNL A   1      40.487  25.878  37.762  1.00  0.00    -0.744 OA
ENDBRANCH  65  66
ENDBRANCH  46  60
BRANCH  47  70
ATOM     70  C   UNL A   1      43.172  25.767  26.502  1.00  0.00    -0.014 A 
ATOM     71  C   UNL A   1      43.957  25.575  25.348  1.00  0.00     0.010 A 
ATOM     72  C   UNL A   1      42.724  24.613  27.177  1.00  0.00     0.010 A 
ATOM     73  C   UNL A   1      44.336  24.284  24.931  1.00  0.00     0.020 A 
ATOM     74  C   UNL A   1      43.086  23.325  26.762  1.00  0.00     0.020 A 
ATOM     75  C   UNL A   1      43.915  23.167  25.657  1.00  0.00     0.054 A 
BRANCH  75  76
ATOM     76  S   UNL A   1      44.565  21.520  25.243  1.00  0.00     0.124 S 
ATOM     77  O   UNL A   1      43.616  20.632  25.909  1.00  0.00    -0.237 OA
ATOM     78  O   UNL A   1      44.519  21.515  23.783  1.00  0.00    -0.237 OA
ATOM     79  O   UNL A   1      45.911  21.527  25.815  1.00  0.00    -0.744 OA
ENDBRANCH  75  76
ENDBRANCH  47  70
BRANCH  59  80
ATOM     80  C   UNL A   1      44.942  31.478  28.533  1.00  0.00    -0.014 A 
ATOM     81  C   UNL A   1      44.104  31.816  27.454  1.00  0.00     0.010 A 
ATOM     82  C   UNL A   1      46.168  32.154  28.667  1.00  0.00     0.010 A 
ATOM     83  C   UNL A   1      44.497  32.787  26.519  1.00  0.00     0.020 A 
ATOM     84  C   UNL A   1      46.556  33.135  27.754  1.00  0.00     0.020 A 
ATOM     85  C   UNL A   1      45.724  33.440  26.677  1.00  0.00     0.054 A 
BRANCH  85  86
ATOM     86  S   UNL A   1      46.213  34.726  25.494  1.00  0.00     0.124 S 
ATOM     87  O   UNL A   1      45.888  35.956  26.210  1.00  0.00    -0.237 OA
ATOM     88  O   UNL A   1      47.638  34.466  25.301  1.00  0.00    -0.237 OA
ATOM     89  O   UNL A   1      45.381  34.456  24.321  1.00  0.00    -0.744 OA
ENDBRANCH  85  86
ENDBRANCH  59  80
ENDBRANCH  33  34
ENDBRANCH  26  28
ENDBRANCH  25  26
ENDBRANCH  24  25
ENDBRANCH   1  24
TORSDOF 17
ENDMDL
MODEL 2
REMARK VINA RESULT:     -11.9      3.203      9.376
REMARK SMILES Cc1nc2scc(C)n2c1CNc1ccc(C(=O)OCCOC(=O)c2ccc(-c3c4nc(c(-c5ccc(S(=O)(=O)[O-])cc5)c5ccc([nH]5)c(-c5ccc(S(=O)(=O)[O-])cc5)c5nc(c(-c6ccc(S(=O)(=O)[O-])cc6)c6ccc3[nH]6)C=C5)C=C4)cc2)cc1
REMARK SMILES IDX 20 1 19 2 17 3 18 4 16 5 13 6 14 7 86 8 15 9 85 10 12 11
REMARK SMILES IDX 11 13 10 14 1 15 2 16 3 17 4 18 9 19 5 20 7 21 6 22 8 23
REMARK SMILES IDX 21 24 22 25 23 26 24 27 25 28 26 29 84 30 27 31 83 32 28 33
REMARK SMILES IDX 29 34 30 35 77 36 31 37 82 38 76 39 78 40 32 41 81 42 75 43
REMARK SMILES IDX 74 44 33 46 63 47 44 48 62 49 45 50 48 51 61 52 79 53 46 54
REMARK SMILES IDX 47 55 60 57 80 58 49 59 34 60 35 61 43 62 36 63 42 64 37 65
REMARK SMILES IDX 38 66 39 67 40 68 41 69 64 70 65 71 73 72 66 73 72 74 67 75
REMARK SMILES IDX 68 76 69 77 70 78 71 79 50 80 51 81 59 82 52 83 58 84 53 85
REMARK SMILES IDX 54 86 55 87 56 88 57 89
REMARK H PARENT 12 12 78 45 48 56
REMARK Flexibility Score: inf
ROOT
ATOM      1  C   UNL A   1      35.973  21.354  24.639  1.00  0.00     0.275 C 
ENDROOT
BRANCH   1   2
ATOM      2  O   UNL A   1      35.011  20.706  25.484  1.00  0.00    -0.458 OA
BRANCH   2   3
ATOM      3  C   UNL A   1      33.980  20.112  24.835  1.00  0.00     0.338 C 
ATOM      4  O   UNL A   1      33.892  18.927  24.541  1.00  0.00    -0.246 OA
BRANCH   3   5
ATOM      5  C   UNL A   1      32.900  21.088  24.567  1.00  0.00     0.060 A 
ATOM      6  C   UNL A   1      31.112  23.168  23.993  1.00  0.00     0.034 A 
ATOM      7  C   UNL A   1      31.749  22.481  22.956  1.00  0.00     0.026 A 
ATOM      8  C   UNL A   1      31.271  22.700  25.305  1.00  0.00     0.026 A 
ATOM      9  C   UNL A   1      32.660  21.463  23.240  1.00  0.00     0.018 A 
ATOM     10  C   UNL A   1      32.153  21.661  25.596  1.00  0.00     0.018 A 
BRANCH   6  11
ATOM     11  N   UNL A   1      30.521  24.394  23.724  1.00  0.00    -0.379 N 
ATOM     12  H   UNL A   1      29.600  24.581  24.015  1.00  0.00     0.160 HD
BRANCH  11  13
ATOM     13  C   UNL A   1      31.285  25.395  23.004  1.00  0.00     0.169 C 
BRANCH  13  14
ATOM     14  C   UNL A   1      32.068  26.308  23.870  1.00  0.00     0.066 A 
ATOM     15  C   UNL A   1      34.193  24.914  24.398  1.00  0.00     0.069 C 
ATOM     16  C   UNL A   1      33.317  26.109  24.462  1.00  0.00     0.062 A 
ATOM     17  N   UNL A   1      33.741  27.229  25.143  1.00  0.00    -0.224 NA
ATOM     18  C   UNL A   1      32.767  28.074  24.967  1.00  0.00     0.194 A 
ATOM     19  N   UNL A   1      31.732  27.605  24.201  1.00  0.00    -0.290 N 
ATOM     20  S   UNL A   1      32.524  29.717  25.464  1.00  0.00    -0.105 S 
ATOM     21  C   UNL A   1      30.722  28.540  23.981  1.00  0.00     0.032 A 
ATOM     22  C   UNL A   1      30.999  29.713  24.588  1.00  0.00     0.090 A 
ATOM     23  C   UNL A   1      29.499  28.323  23.168  1.00  0.00     0.066 C 
ENDBRANCH  13  14
ENDBRANCH  11  13
ENDBRANCH   6  11
ENDBRANCH   3   5
ENDBRANCH   2   3
ENDBRANCH   1   2
BRANCH   1  24
ATOM     24  C   UNL A   1      37.389  21.094  25.127  1.00  0.00     0.275 C 
BRANCH  24  25
ATOM     25  O   UNL A   1      37.940  22.227  25.801  1.00  0.00    -0.458 OA
BRANCH  25  26
ATOM     26  C   UNL A   1      39.174  22.027  26.317  1.00  0.00     0.338 C 
ATOM     27  O   UNL A   1      39.673  20.966  26.649  1.00  0.00    -0.246 OA
BRANCH  26  28
ATOM     28  C   UNL A   1      39.763  23.320  26.674  1.00  0.00     0.060 A 
ATOM     29  C   UNL A   1      40.928  23.317  27.446  1.00  0.00     0.016 A 
ATOM     30  C   UNL A   1      39.009  24.485  26.477  1.00  0.00     0.016 A 
ATOM     31  C   UNL A   1      41.269  24.467  28.129  1.00  0.00     0.010 A 
ATOM     32  C   UNL A   1      39.338  25.623  27.175  1.00  0.00     0.010 A 
ATOM     33  C   UNL A   1      40.433  25.587  28.035  1.00  0.00    -0.014 A 
BRANCH  33  34
ATOM     34  C   UNL A   1      40.828  26.804  28.715  1.00  0.00     0.031 A 
ATOM     35  C   UNL A   1      42.000  27.451  28.081  1.00  0.00     0.074 A 
ATOM     36  C   UNL A   1      40.103  27.364  29.702  1.00  0.00     0.049 A 
ATOM     37  N   UNL A   1      43.178  27.597  28.586  1.00  0.00    -0.248 NA
ATOM     38  C   UNL A   1      41.910  27.805  26.652  1.00  0.00     0.031 C 
ATOM     39  C   UNL A   1      38.796  26.938  30.207  1.00  0.00     0.029 A 
ATOM     40  N   UNL A   1      40.328  28.524  30.377  1.00  0.00    -0.354 N 
ATOM     41  C   UNL A   1      43.909  28.286  27.626  1.00  0.00     0.074 A 
ATOM     42  C   UNL A   1      43.160  28.190  26.400  1.00  0.00     0.031 C 
ATOM     43  C   UNL A   1      38.243  27.953  30.910  1.00  0.00     0.029 A 
ATOM     44  C   UNL A   1      39.198  29.046  30.999  1.00  0.00     0.049 A 
ATOM     45  H   UNL A   1      41.212  28.955  30.422  1.00  0.00     0.167 HD
ATOM     46  C   UNL A   1      44.914  29.130  27.982  1.00  0.00     0.031 A 
ATOM     47  C   UNL A   1      39.037  30.312  31.469  1.00  0.00     0.031 A 
ATOM     48  C   UNL A   1      45.342  28.903  29.339  1.00  0.00     0.049 A 
ATOM     49  C   UNL A   1      40.395  30.888  31.653  1.00  0.00     0.074 A 
ATOM     50  C   UNL A   1      45.810  27.803  30.032  1.00  0.00     0.029 A 
ATOM     51  N   UNL A   1      44.921  29.805  30.289  1.00  0.00    -0.354 N 
ATOM     52  N   UNL A   1      41.233  30.457  32.555  1.00  0.00    -0.248 NA
ATOM     53  C   UNL A   1      40.998  31.604  30.539  1.00  0.00     0.031 C 
ATOM     54  C   UNL A   1      45.210  27.899  31.319  1.00  0.00     0.029 A 
ATOM     55  C   UNL A   1      44.482  29.089  31.372  1.00  0.00     0.049 A 
ATOM     56  H   UNL A   1      44.933  30.785  30.206  1.00  0.00     0.167 HD
ATOM     57  C   UNL A   1      42.462  30.436  31.912  1.00  0.00     0.074 A 
ATOM     58  C   UNL A   1      42.275  31.248  30.710  1.00  0.00     0.031 C 
ATOM     59  C   UNL A   1      43.423  29.528  32.256  1.00  0.00     0.031 A 
BRANCH  46  60
ATOM     60  C   UNL A   1      45.170  30.435  27.270  1.00  0.00    -0.014 A 
ATOM     61  C   UNL A   1      46.501  30.803  26.997  1.00  0.00     0.010 A 
ATOM     62  C   UNL A   1      44.187  31.438  27.131  1.00  0.00     0.010 A 
ATOM     63  C   UNL A   1      46.839  32.127  26.690  1.00  0.00     0.020 A 
ATOM     64  C   UNL A   1      44.505  32.748  26.778  1.00  0.00     0.020 A 
ATOM     65  C   UNL A   1      45.836  33.092  26.597  1.00  0.00     0.054 A 
BRANCH  65  66
ATOM     66  S   UNL A   1      46.290  34.817  26.303  1.00  0.00     0.124 S 
ATOM     67  O   UNL A   1      44.987  35.474  26.314  1.00  0.00    -0.237 OA
ATOM     68  O   UNL A   1      47.157  35.104  27.443  1.00  0.00    -0.237 OA
ATOM     69  O   UNL A   1      46.964  34.776  25.008  1.00  0.00    -0.744 OA
ENDBRANCH  65  66
ENDBRANCH  46  60
BRANCH  47  70
ATOM     70  C   UNL A   1      37.801  31.143  31.468  1.00  0.00    -0.014 A 
ATOM     71  C   UNL A   1      36.866  31.066  32.520  1.00  0.00     0.010 A 
ATOM     72  C   UNL A   1      37.666  32.216  30.563  1.00  0.00     0.010 A 
ATOM     73  C   UNL A   1      35.885  32.060  32.698  1.00  0.00     0.020 A 
ATOM     74  C   UNL A   1      36.685  33.203  30.725  1.00  0.00     0.020 A 
ATOM     75  C   UNL A   1      35.817  33.137  31.809  1.00  0.00     0.054 A 
BRANCH  75  76
ATOM     76  S   UNL A   1      34.688  34.522  32.148  1.00  0.00     0.124 S 
ATOM     77  O   UNL A   1      34.327  34.967  30.805  1.00  0.00    -0.237 OA
ATOM     78  O   UNL A   1      33.620  33.884  32.913  1.00  0.00    -0.237 OA
ATOM     79  O   UNL A   1      35.514  35.459  32.910  1.00  0.00    -0.744 OA
ENDBRANCH  75  76
ENDBRANCH  47  70
BRANCH  59  80
ATOM     80  C   UNL A   1      43.263  28.743  33.538  1.00  0.00    -0.014 A 
ATOM     81  C   UNL A   1      43.414  29.294  34.825  1.00  0.00     0.010 A 
ATOM     82  C   UNL A   1      42.773  27.430  33.424  1.00  0.00     0.010 A 
ATOM     83  C   UNL A   1      43.108  28.537  35.967  1.00  0.00     0.020 A 
ATOM     84  C   UNL A   1      42.447  26.679  34.554  1.00  0.00     0.020 A 
ATOM     85  C   UNL A   1      42.626  27.233  35.822  1.00  0.00     0.054 A 
BRANCH  85  86
ATOM     86  S   UNL A   1      42.188  26.270  37.296  1.00  0.00     0.124 S 
ATOM     87  O   UNL A   1      43.229  26.652  38.246  1.00  0.00    -0.237 OA
ATOM     88  O   UNL A   1      40.843  26.747  37.610  1.00  0.00    -0.237 OA
ATOM     89  O   UNL A   1      42.250  24.881  36.838  1.00  0.00    -0.744 OA
ENDBRANCH  85  86
ENDBRANCH  59  80
ENDBRANCH  33  34
ENDBRANCH  26  28
ENDBRANCH  25  26
ENDBRANCH  24  25
ENDBRANCH   1  24
TORSDOF 17
ENDMDL
MODEL 3
REMARK VINA RESULT:     -11.6      2.462      9.646
REMARK SMILES Cc1nc2scc(C)n2c1CNc1ccc(C(=O)OCCOC(=O)c2ccc(-c3c4nc(c(-c5ccc(S(=O)(=O)[O-])cc5)c5ccc([nH]5)c(-c5ccc(S(=O)(=O)[O-])cc5)c5nc(c(-c6ccc(S(=O)(=O)[O-])cc6)c6ccc3[nH]6)C=C5)C=C4)cc2)cc1
REMARK SMILES IDX 20 1 19 2 17 3 18 4 16 5 13 6 14 7 86 8 15 9 85 10 12 11
REMARK SMILES IDX 11 13 10 14 1 15 2 16 3 17 4 18 9 19 5 20 7 21 6 22 8 23
REMARK SMILES IDX 21 24 22 25 23 26 24 27 25 28 26 29 84 30 27 31 83 32 28 33
REMARK SMILES IDX 29 34 30 35 77 36 31 37 82 38 76 39 78 40 32 41 81 42 75 43
REMARK SMILES IDX 74 44 33 46 63 47 44 48 62 49 45 50 48 51 61 52 79 53 46 54
REMARK SMILES IDX 47 55 60 57 80 58 49 59 34 60 35 61 43 62 36 63 42 64 37 65
REMARK SMILES IDX 38 66 39 67 40 68 41 69 64 70 65 71 73 72 66 73 72 74 67 75
REMARK SMILES IDX 68 76 69 77 70 78 71 79 50 80 51 81 59 82 52 83 58 84 53 85
REMARK SMILES IDX 54 86 55 87 56 88 57 89
REMARK H PARENT 12 12 78 45 48 56
REMARK Flexibility Score: inf
ROOT
ATOM      1  C   UNL A   1      42.084  19.884  27.415  1.00  0.00     0.275 C 
ENDROOT
BRANCH   1   2
ATOM      2  O   UNL A   1      40.742  20.395  27.398  1.00  0.00    -0.458 OA
BRANCH   2   3
ATOM      3  C   UNL A   1      40.631  21.732  27.587  1.00  0.00     0.338 C 
ATOM      4  O   UNL A   1      41.329  22.423  28.318  1.00  0.00    -0.246 OA
BRANCH   3   5
ATOM      5  C   UNL A   1      39.565  22.294  26.728  1.00  0.00     0.060 A 
ATOM      6  C   UNL A   1      37.345  23.358  25.389  1.00  0.00     0.034 A 
ATOM      7  C   UNL A   1      38.140  24.177  26.195  1.00  0.00     0.026 A 
ATOM      8  C   UNL A   1      37.765  22.042  25.149  1.00  0.00     0.026 A 
ATOM      9  C   UNL A   1      39.230  23.643  26.884  1.00  0.00     0.018 A 
ATOM     10  C   UNL A   1      38.872  21.509  25.806  1.00  0.00     0.018 A 
BRANCH   6  11
ATOM     11  N   UNL A   1      36.080  23.797  25.026  1.00  0.00    -0.379 N 
ATOM     12  H   UNL A   1      35.912  24.750  24.851  1.00  0.00     0.160 HD
BRANCH  11  13
ATOM     13  C   UNL A   1      35.010  22.824  24.908  1.00  0.00     0.169 C 
BRANCH  13  14
ATOM     14  C   UNL A   1      33.746  23.220  25.575  1.00  0.00     0.066 A 
ATOM     15  C   UNL A   1      33.934  22.065  27.891  1.00  0.00     0.069 C 
ATOM     16  C   UNL A   1      33.286  22.904  26.854  1.00  0.00     0.062 A 
ATOM     17  N   UNL A   1      32.087  23.524  27.130  1.00  0.00    -0.224 NA
ATOM     18  C   UNL A   1      31.834  24.190  26.041  1.00  0.00     0.194 A 
ATOM     19  N   UNL A   1      32.789  24.074  25.064  1.00  0.00    -0.290 N 
ATOM     20  S   UNL A   1      30.546  25.253  25.578  1.00  0.00    -0.105 S 
ATOM     21  C   UNL A   1      32.528  24.833  23.924  1.00  0.00     0.032 A 
ATOM     22  C   UNL A   1      31.370  25.517  24.046  1.00  0.00     0.090 A 
ATOM     23  C   UNL A   1      33.396  24.927  22.724  1.00  0.00     0.066 C 
ENDBRANCH  13  14
ENDBRANCH  11  13
ENDBRANCH   6  11
ENDBRANCH   3   5
ENDBRANCH   2   3
ENDBRANCH   1   2
BRANCH   1  24
ATOM     24  C   UNL A   1      42.670  19.844  26.013  1.00  0.00     0.275 C 
BRANCH  24  25
ATOM     25  O   UNL A   1      42.628  21.123  25.378  1.00  0.00    -0.458 OA
BRANCH  25  26
ATOM     26  C   UNL A   1      43.842  21.659  25.115  1.00  0.00     0.338 C 
ATOM     27  O   UNL A   1      44.814  21.092  24.649  1.00  0.00    -0.246 OA
BRANCH  26  28
ATOM     28  C   UNL A   1      43.919  22.994  25.713  1.00  0.00     0.060 A 
ATOM     29  C   UNL A   1      44.592  23.126  26.932  1.00  0.00     0.016 A 
ATOM     30  C   UNL A   1      43.101  24.013  25.206  1.00  0.00     0.016 A 
ATOM     31  C   UNL A   1      44.339  24.240  27.707  1.00  0.00     0.010 A 
ATOM     32  C   UNL A   1      42.835  25.111  25.988  1.00  0.00     0.010 A 
ATOM     33  C   UNL A   1      43.414  25.189  27.252  1.00  0.00    -0.014 A 
BRANCH  33  34
ATOM     34  C   UNL A   1      43.196  26.379  28.049  1.00  0.00     0.031 A 
ATOM     35  C   UNL A   1      44.284  27.371  27.894  1.00  0.00     0.074 A 
ATOM     36  C   UNL A   1      42.051  26.619  28.717  1.00  0.00     0.049 A 
ATOM     37  N   UNL A   1      45.127  27.752  28.792  1.00  0.00    -0.248 NA
ATOM     38  C   UNL A   1      44.594  27.854  26.535  1.00  0.00     0.031 C 
ATOM     39  C   UNL A   1      40.824  25.819  28.707  1.00  0.00     0.029 A 
ATOM     40  N   UNL A   1      41.697  27.711  29.447  1.00  0.00    -0.354 N 
ATOM     41  C   UNL A   1      45.920  28.710  28.174  1.00  0.00     0.074 A 
ATOM     42  C   UNL A   1      45.695  28.570  26.758  1.00  0.00     0.031 C 
ATOM     43  C   UNL A   1      39.803  26.571  29.180  1.00  0.00     0.029 A 
ATOM     44  C   UNL A   1      40.325  27.853  29.627  1.00  0.00     0.049 A 
ATOM     45  H   UNL A   1      42.355  28.344  29.816  1.00  0.00     0.167 HD
ATOM     46  C   UNL A   1      46.464  29.735  28.883  1.00  0.00     0.031 A 
ATOM     47  C   UNL A   1      39.667  28.974  30.027  1.00  0.00     0.031 A 
ATOM     48  C   UNL A   1      46.446  29.469  30.299  1.00  0.00     0.049 A 
ATOM     49  C   UNL A   1      40.661  29.850  30.700  1.00  0.00     0.074 A 
ATOM     50  C   UNL A   1      46.935  28.452  31.096  1.00  0.00     0.029 A 
ATOM     51  N   UNL A   1      45.491  30.118  31.048  1.00  0.00    -0.354 N 
ATOM     52  N   UNL A   1      41.223  29.545  31.837  1.00  0.00    -0.248 NA
ATOM     53  C   UNL A   1      41.385  30.820  29.892  1.00  0.00     0.031 C 
ATOM     54  C   UNL A   1      45.928  28.242  32.081  1.00  0.00     0.029 A 
ATOM     55  C   UNL A   1      44.925  29.194  31.887  1.00  0.00     0.049 A 
ATOM     56  H   UNL A   1      45.257  31.072  30.991  1.00  0.00     0.167 HD
ATOM     57  C   UNL A   1      42.552  29.911  31.681  1.00  0.00     0.074 A 
ATOM     58  C   UNL A   1      42.571  30.783  30.507  1.00  0.00     0.031 C 
ATOM     59  C   UNL A   1      43.550  29.244  32.334  1.00  0.00     0.031 A 
BRANCH  46  60
ATOM     60  C   UNL A   1      46.574  31.136  28.334  1.00  0.00    -0.014 A 
ATOM     61  C   UNL A   1      45.398  31.794  27.925  1.00  0.00     0.010 A 
ATOM     62  C   UNL A   1      47.800  31.706  27.928  1.00  0.00     0.010 A 
ATOM     63  C   UNL A   1      45.448  32.909  27.081  1.00  0.00     0.020 A 
ATOM     64  C   UNL A   1      47.863  32.845  27.128  1.00  0.00     0.020 A 
ATOM     65  C   UNL A   1      46.683  33.417  26.678  1.00  0.00     0.054 A 
BRANCH  65  66
ATOM     66  S   UNL A   1      46.737  34.792  25.506  1.00  0.00     0.124 S 
ATOM     67  O   UNL A   1      46.564  35.942  26.387  1.00  0.00    -0.237 OA
ATOM     68  O   UNL A   1      48.063  34.638  24.914  1.00  0.00    -0.237 OA
ATOM     69  O   UNL A   1      45.621  34.516  24.604  1.00  0.00    -0.744 OA
ENDBRANCH  65  66
ENDBRANCH  46  60
BRANCH  47  70
ATOM     70  C   UNL A   1      38.326  29.458  29.593  1.00  0.00    -0.014 A 
ATOM     71  C   UNL A   1      37.353  29.858  30.531  1.00  0.00     0.010 A 
ATOM     72  C   UNL A   1      38.092  29.783  28.241  1.00  0.00     0.010 A 
ATOM     73  C   UNL A   1      36.232  30.614  30.140  1.00  0.00     0.020 A 
ATOM     74  C   UNL A   1      36.973  30.525  27.842  1.00  0.00     0.020 A 
ATOM     75  C   UNL A   1      36.061  30.962  28.797  1.00  0.00     0.054 A 
BRANCH  75  76
ATOM     76  S   UNL A   1      34.729  32.103  28.319  1.00  0.00     0.124 S 
ATOM     77  O   UNL A   1      35.454  33.150  27.604  1.00  0.00    -0.237 OA
ATOM     78  O   UNL A   1      33.863  31.260  27.500  1.00  0.00    -0.237 OA
ATOM     79  O   UNL A   1      34.153  32.515  29.599  1.00  0.00    -0.744 OA
ENDBRANCH  75  76
ENDBRANCH  47  70
BRANCH  59  80
ATOM     80  C   UNL A   1      43.184  28.301  33.458  1.00  0.00    -0.014 A 
ATOM     81  C   UNL A   1      43.040  26.909  33.306  1.00  0.00     0.010 A 
ATOM     82  C   UNL A   1      43.151  28.840  34.757  1.00  0.00     0.010 A 
ATOM     83  C   UNL A   1      42.841  26.084  34.424  1.00  0.00     0.020 A 
ATOM     84  C   UNL A   1      42.975  28.023  35.874  1.00  0.00     0.020 A 
ATOM     85  C   UNL A   1      42.810  26.649  35.702  1.00  0.00     0.054 A 
BRANCH  85  86
ATOM     86  S   UNL A   1      42.597  25.578  37.151  1.00  0.00     0.124 S 
ATOM     87  O   UNL A   1      43.965  25.424  37.636  1.00  0.00    -0.237 OA
ATOM     88  O   UNL A   1      41.708  26.361  38.008  1.00  0.00    -0.237 OA
ATOM     89  O   UNL A   1      41.996  24.362  36.601  1.00  0.00    -0.744 OA
ENDBRANCH  85  86
ENDBRANCH  59  80
ENDBRANCH  33  34
ENDBRANCH  26  28
ENDBRANCH  25  26
ENDBRANCH  24  25
ENDBRANCH   1  24
TORSDOF 17
ENDMDL
