MODEL 1
REMARK VINA RESULT:     -10.6      0.000      0.000
REMARK SMILES O=C(OCCOC(=O)[C@H]1C=C[C@@H](NS(=O)(=O)c2ccc(Br)cc2)C1)c1ccc(-c2c3nc(c(-c4ccc(S(=O)(=O)[O-])cc4)c4ccc([nH]4)c(-c4ccc(S(=O)(=O)[O-])cc4)c4nc(c(-c5ccc(S(=O)(=O)[O-])cc5)c5ccc2[nH]5)C=C4)C=C3)cc1
REMARK SMILES IDX 4 1 3 2 2 3 1 4 25 5 26 6 84 7 27 8 83 9 28 10 29 11 30 12
REMARK SMILES IDX 77 13 31 14 82 15 76 16 78 17 32 18 81 19 75 20 74 21 33 23
REMARK SMILES IDX 63 24 44 25 62 26 45 27 48 28 61 29 79 30 46 31 47 32 60 34
REMARK SMILES IDX 80 35 49 36 34 37 35 38 43 39 36 40 42 41 37 42 38 43 39 44
REMARK SMILES IDX 40 45 41 46 64 47 65 48 73 49 66 50 72 51 67 52 68 53 69 54
REMARK SMILES IDX 70 55 71 56 50 57 51 58 59 59 52 60 58 61 53 62 54 63 55 64
REMARK SMILES IDX 56 65 57 66 5 67 6 68 7 69 8 70 9 71 10 72 24 73 11 74 12 75
REMARK SMILES IDX 13 76 14 78 15 79 16 80 17 81 18 82 23 83 19 84 22 85 20 86
REMARK SMILES IDX 21 87
REMARK H PARENT 78 22 48 33 13 77
REMARK Flexibility Score: inf
ROOT
ATOM      1  C   UNL A   1      37.243  22.867  24.623  1.00  0.00     0.275 C 
ENDROOT
BRANCH   1   2
ATOM      2  O   UNL A   1      37.905  22.536  25.849  1.00  0.00    -0.458 OA
BRANCH   2   3
ATOM      3  C   UNL A   1      39.147  22.907  26.243  1.00  0.00     0.338 C 
ATOM      4  O   UNL A   1      40.049  22.072  26.206  1.00  0.00    -0.246 OA
BRANCH   3   5
ATOM      5  C   UNL A   1      39.423  24.210  26.934  1.00  0.00     0.060 A 
ATOM      6  C   UNL A   1      39.086  24.560  28.246  1.00  0.00     0.016 A 
ATOM      7  C   UNL A   1      40.139  25.150  26.173  1.00  0.00     0.016 A 
ATOM      8  C   UNL A   1      39.522  25.767  28.815  1.00  0.00     0.010 A 
ATOM      9  C   UNL A   1      40.616  26.330  26.749  1.00  0.00     0.010 A 
ATOM     10  C   UNL A   1      40.311  26.649  28.080  1.00  0.00    -0.014 A 
BRANCH  10  11
ATOM     11  C   UNL A   1      40.708  27.976  28.612  1.00  0.00     0.031 A 
ATOM     12  C   UNL A   1      42.091  28.111  29.184  1.00  0.00     0.074 A 
ATOM     13  C   UNL A   1      39.845  29.010  28.667  1.00  0.00     0.049 A 
ATOM     14  N   UNL A   1      42.612  29.084  29.881  1.00  0.00    -0.248 NA
ATOM     15  C   UNL A   1      42.991  26.965  28.973  1.00  0.00     0.031 C 
ATOM     16  C   UNL A   1      38.481  29.018  28.136  1.00  0.00     0.029 A 
ATOM     17  N   UNL A   1      39.983  30.254  29.233  1.00  0.00    -0.354 N 
ATOM     18  C   UNL A   1      43.879  28.640  30.237  1.00  0.00     0.074 A 
ATOM     19  C   UNL A   1      44.019  27.293  29.735  1.00  0.00     0.031 C 
ATOM     20  C   UNL A   1      37.894  30.188  28.441  1.00  0.00     0.029 A 
ATOM     21  C   UNL A   1      38.837  31.014  29.189  1.00  0.00     0.049 A 
ATOM     22  H   UNL A   1      40.826  30.572  29.632  1.00  0.00     0.167 HD
ATOM     23  C   UNL A   1      44.858  29.305  30.896  1.00  0.00     0.031 A 
ATOM     24  C   UNL A   1      38.579  32.234  29.700  1.00  0.00     0.031 A 
ATOM     25  C   UNL A   1      44.730  30.659  31.346  1.00  0.00     0.049 A 
ATOM     26  C   UNL A   1      39.684  32.978  30.404  1.00  0.00     0.074 A 
ATOM     27  C   UNL A   1      45.672  31.459  31.963  1.00  0.00     0.029 A 
ATOM     28  N   UNL A   1      43.578  31.419  31.209  1.00  0.00    -0.354 N 
ATOM     29  N   UNL A   1      40.900  32.570  30.679  1.00  0.00    -0.248 NA
ATOM     30  C   UNL A   1      39.397  34.354  30.834  1.00  0.00     0.031 C 
ATOM     31  C   UNL A   1      45.084  32.704  32.209  1.00  0.00     0.029 A 
ATOM     32  C   UNL A   1      43.786  32.685  31.718  1.00  0.00     0.049 A 
ATOM     33  H   UNL A   1      42.737  31.102  30.808  1.00  0.00     0.167 HD
ATOM     34  C   UNL A   1      41.538  33.654  31.272  1.00  0.00     0.074 A 
ATOM     35  C   UNL A   1      40.572  34.732  31.326  1.00  0.00     0.031 C 
ATOM     36  C   UNL A   1      42.814  33.751  31.719  1.00  0.00     0.031 A 
BRANCH  23  37
ATOM     37  C   UNL A   1      46.128  28.540  31.147  1.00  0.00    -0.014 A 
ATOM     38  C   UNL A   1      47.266  28.751  30.345  1.00  0.00     0.010 A 
ATOM     39  C   UNL A   1      46.147  27.520  32.113  1.00  0.00     0.010 A 
ATOM     40  C   UNL A   1      48.355  27.882  30.426  1.00  0.00     0.020 A 
ATOM     41  C   UNL A   1      47.251  26.670  32.221  1.00  0.00     0.020 A 
ATOM     42  C   UNL A   1      48.329  26.830  31.344  1.00  0.00     0.054 A 
BRANCH  42  43
ATOM     43  S   UNL A   1      49.707  25.653  31.365  1.00  0.00     0.124 S 
ATOM     44  O   UNL A   1      49.581  25.026  30.052  1.00  0.00    -0.237 OA
ATOM     45  O   UNL A   1      50.872  26.517  31.537  1.00  0.00    -0.237 OA
ATOM     46  O   UNL A   1      49.403  24.789  32.503  1.00  0.00    -0.744 OA
ENDBRANCH  42  43
ENDBRANCH  23  37
BRANCH  24  47
ATOM     47  C   UNL A   1      37.231  32.843  29.527  1.00  0.00    -0.014 A 
ATOM     48  C   UNL A   1      36.337  32.915  30.609  1.00  0.00     0.010 A 
ATOM     49  C   UNL A   1      36.844  33.381  28.286  1.00  0.00     0.010 A 
ATOM     50  C   UNL A   1      35.077  33.502  30.453  1.00  0.00     0.020 A 
ATOM     51  C   UNL A   1      35.593  33.986  28.129  1.00  0.00     0.020 A 
ATOM     52  C   UNL A   1      34.714  34.038  29.214  1.00  0.00     0.054 A 
BRANCH  52  53
ATOM     53  S   UNL A   1      33.099  34.852  29.054  1.00  0.00     0.124 S 
ATOM     54  O   UNL A   1      32.421  33.995  28.087  1.00  0.00    -0.237 OA
ATOM     55  O   UNL A   1      32.584  34.797  30.420  1.00  0.00    -0.237 OA
ATOM     56  O   UNL A   1      33.438  36.190  28.579  1.00  0.00    -0.744 OA
ENDBRANCH  52  53
ENDBRANCH  24  47
BRANCH  36  57
ATOM     57  C   UNL A   1      43.282  35.079  32.242  1.00  0.00    -0.014 A 
ATOM     58  C   UNL A   1      43.788  36.060  31.375  1.00  0.00     0.010 A 
ATOM     59  C   UNL A   1      43.055  35.397  33.594  1.00  0.00     0.010 A 
ATOM     60  C   UNL A   1      44.042  37.350  31.850  1.00  0.00     0.020 A 
ATOM     61  C   UNL A   1      43.291  36.689  34.067  1.00  0.00     0.020 A 
ATOM     62  C   UNL A   1      43.778  37.659  33.190  1.00  0.00     0.054 A 
BRANCH  62  63
ATOM     63  S   UNL A   1      43.980  39.374  33.747  1.00  0.00     0.124 S 
ATOM     64  O   UNL A   1      43.925  39.230  35.199  1.00  0.00    -0.237 OA
ATOM     65  O   UNL A   1      45.283  39.740  33.198  1.00  0.00    -0.237 OA
ATOM     66  O   UNL A   1      42.843  40.068  33.146  1.00  0.00    -0.744 OA
ENDBRANCH  62  63
ENDBRANCH  36  57
ENDBRANCH  10  11
ENDBRANCH   3   5
ENDBRANCH   2   3
ENDBRANCH   1   2
BRANCH   1  67
ATOM     67  C   UNL A   1      35.863  22.224  24.477  1.00  0.00     0.274 C 
BRANCH  67  68
ATOM     68  O   UNL A   1      35.448  21.450  25.620  1.00  0.00    -0.462 OA
BRANCH  68  69
ATOM     69  C   UNL A   1      34.429  20.565  25.390  1.00  0.00     0.312 C 
ATOM     70  O   UNL A   1      34.519  19.597  24.643  1.00  0.00    -0.252 OA
BRANCH  69  71
ATOM     71  C   UNL A   1      33.124  21.008  26.063  1.00  0.00     0.123 C 
ATOM     72  C   UNL A   1      33.388  22.023  27.136  1.00  0.00    -0.015 C 
ATOM     73  C   UNL A   1      32.181  21.795  25.154  1.00  0.00     0.043 C 
ATOM     74  C   UNL A   1      32.547  23.061  27.076  1.00  0.00    -0.011 C 
ATOM     75  C   UNL A   1      31.534  22.911  25.994  1.00  0.00     0.093 C 
BRANCH  75  76
ATOM     76  N   UNL A   1      31.395  24.117  25.187  1.00  0.00    -0.204 NA
ATOM     77  H   UNL A   1      31.011  23.812  24.294  1.00  0.00     0.142 HD
BRANCH  76  78
ATOM     78  S   UNL A   1      30.478  25.442  25.649  1.00  0.00     0.241 S 
ATOM     79  O   UNL A   1      29.830  26.017  24.494  1.00  0.00    -0.207 OA
ATOM     80  O   UNL A   1      29.703  24.953  26.773  1.00  0.00    -0.207 OA
BRANCH  78  81
ATOM     81  C   UNL A   1      31.606  26.660  26.283  1.00  0.00     0.082 A 
ATOM     82  C   UNL A   1      31.103  27.762  26.988  1.00  0.00     0.023 A 
ATOM     83  C   UNL A   1      32.961  26.603  25.945  1.00  0.00     0.023 A 
ATOM     84  C   UNL A   1      31.958  28.811  27.343  1.00  0.00     0.017 A 
ATOM     85  C   UNL A   1      33.816  27.644  26.318  1.00  0.00     0.017 A 
ATOM     86  C   UNL A   1      33.309  28.747  27.003  1.00  0.00     0.018 A 
ATOM     87  Br  UNL A   1      34.454  30.189  27.428  1.00  0.00    -0.051 Br
ENDBRANCH  78  81
ENDBRANCH  76  78
ENDBRANCH  75  76
ENDBRANCH  69  71
ENDBRANCH  68  69
ENDBRANCH  67  68
ENDBRANCH   1  67
TORSDOF 17
ENDMDL
MODEL 2
REMARK VINA RESULT:     -10.3      1.598      2.212
REMARK SMILES O=C(OCCOC(=O)[C@H]1C=C[C@@H](NS(=O)(=O)c2ccc(Br)cc2)C1)c1ccc(-c2c3nc(c(-c4ccc(S(=O)(=O)[O-])cc4)c4ccc([nH]4)c(-c4ccc(S(=O)(=O)[O-])cc4)c4nc(c(-c5ccc(S(=O)(=O)[O-])cc5)c5ccc2[nH]5)C=C4)C=C3)cc1
REMARK SMILES IDX 4 1 3 2 2 3 1 4 25 5 26 6 84 7 27 8 83 9 28 10 29 11 30 12
REMARK SMILES IDX 77 13 31 14 82 15 76 16 78 17 32 18 81 19 75 20 74 21 33 23
REMARK SMILES IDX 63 24 44 25 62 26 45 27 48 28 61 29 79 30 46 31 47 32 60 34
REMARK SMILES IDX 80 35 49 36 34 37 35 38 43 39 36 40 42 41 37 42 38 43 39 44
REMARK SMILES IDX 40 45 41 46 64 47 65 48 73 49 66 50 72 51 67 52 68 53 69 54
REMARK SMILES IDX 70 55 71 56 50 57 51 58 59 59 52 60 58 61 53 62 54 63 55 64
REMARK SMILES IDX 56 65 57 66 5 67 6 68 7 69 8 70 9 71 10 72 24 73 11 74 12 75
REMARK SMILES IDX 13 76 14 78 15 79 16 80 17 81 18 82 23 83 19 84 22 85 20 86
REMARK SMILES IDX 21 87
REMARK H PARENT 78 22 48 33 13 77
REMARK Flexibility Score: inf
ROOT
ATOM      1  C   UNL A   1      37.125  22.006  24.702  1.00  0.00     0.275 C 
ENDROOT
BRANCH   1   2
ATOM      2  O   UNL A   1      37.635  22.927  25.673  1.00  0.00    -0.458 OA
BRANCH   2   3
ATOM      3  C   UNL A   1      38.918  23.064  26.086  1.00  0.00     0.338 C 
ATOM      4  O   UNL A   1      39.635  22.066  26.113  1.00  0.00    -0.246 OA
BRANCH   3   5
ATOM      5  C   UNL A   1      39.435  24.319  26.726  1.00  0.00     0.060 A 
ATOM      6  C   UNL A   1      40.229  25.307  26.133  1.00  0.00     0.016 A 
ATOM      7  C   UNL A   1      39.029  24.522  28.057  1.00  0.00     0.016 A 
ATOM      8  C   UNL A   1      40.533  26.500  26.806  1.00  0.00     0.010 A 
ATOM      9  C   UNL A   1      39.289  25.727  28.713  1.00  0.00     0.010 A 
ATOM     10  C   UNL A   1      40.045  26.731  28.090  1.00  0.00    -0.014 A 
BRANCH  10  11
ATOM     11  C   UNL A   1      40.426  27.934  28.870  1.00  0.00     0.031 A 
ATOM     12  C   UNL A   1      41.712  27.883  29.645  1.00  0.00     0.074 A 
ATOM     13  C   UNL A   1      39.619  29.010  28.961  1.00  0.00     0.049 A 
ATOM     14  N   UNL A   1      42.172  28.705  30.549  1.00  0.00    -0.248 NA
ATOM     15  C   UNL A   1      42.573  26.716  29.389  1.00  0.00     0.031 C 
ATOM     16  C   UNL A   1      38.353  29.195  28.252  1.00  0.00     0.029 A 
ATOM     17  N   UNL A   1      39.735  30.146  29.725  1.00  0.00    -0.354 N 
ATOM     18  C   UNL A   1      43.347  28.122  31.008  1.00  0.00     0.074 A 
ATOM     19  C   UNL A   1      43.491  26.854  30.329  1.00  0.00     0.031 C 
ATOM     20  C   UNL A   1      37.788  30.349  28.647  1.00  0.00     0.029 A 
ATOM     21  C   UNL A   1      38.650  30.987  29.638  1.00  0.00     0.049 A 
ATOM     22  H   UNL A   1      40.524  30.340  30.283  1.00  0.00     0.167 HD
ATOM     23  C   UNL A   1      44.250  28.610  31.891  1.00  0.00     0.031 A 
ATOM     24  C   UNL A   1      38.382  32.137  30.288  1.00  0.00     0.031 A 
ATOM     25  C   UNL A   1      44.126  29.891  32.521  1.00  0.00     0.049 A 
ATOM     26  C   UNL A   1      39.406  32.688  31.246  1.00  0.00     0.074 A 
ATOM     27  C   UNL A   1      45.005  30.522  33.380  1.00  0.00     0.029 A 
ATOM     28  N   UNL A   1      43.049  30.746  32.341  1.00  0.00    -0.354 N 
ATOM     29  N   UNL A   1      40.543  32.155  31.623  1.00  0.00    -0.248 NA
ATOM     30  C   UNL A   1      39.130  34.005  31.838  1.00  0.00     0.031 C 
ATOM     31  C   UNL A   1      44.452  31.759  33.729  1.00  0.00     0.029 A 
ATOM     32  C   UNL A   1      43.244  31.907  33.063  1.00  0.00     0.049 A 
ATOM     33  H   UNL A   1      42.262  30.553  31.783  1.00  0.00     0.167 HD
ATOM     34  C   UNL A   1      41.142  33.092  32.459  1.00  0.00     0.074 A 
ATOM     35  C   UNL A   1      40.235  34.220  32.542  1.00  0.00     0.031 C 
ATOM     36  C   UNL A   1      42.339  33.030  33.091  1.00  0.00     0.031 A 
BRANCH  23  37
ATOM     37  C   UNL A   1      45.426  27.726  32.198  1.00  0.00    -0.014 A 
ATOM     38  C   UNL A   1      45.403  26.858  33.308  1.00  0.00     0.010 A 
ATOM     39  C   UNL A   1      46.605  27.847  31.444  1.00  0.00     0.010 A 
ATOM     40  C   UNL A   1      46.572  26.219  33.725  1.00  0.00     0.020 A 
ATOM     41  C   UNL A   1      47.768  27.180  31.839  1.00  0.00     0.020 A 
ATOM     42  C   UNL A   1      47.753  26.406  33.004  1.00  0.00     0.054 A 
BRANCH  42  43
ATOM     43  S   UNL A   1      49.282  25.649  33.618  1.00  0.00     0.124 S 
ATOM     44  O   UNL A   1      49.281  26.073  35.016  1.00  0.00    -0.237 OA
ATOM     45  O   UNL A   1      49.052  24.223  33.396  1.00  0.00    -0.237 OA
ATOM     46  O   UNL A   1      50.320  26.247  32.783  1.00  0.00    -0.744 OA
ENDBRANCH  42  43
ENDBRANCH  23  37
BRANCH  24  47
ATOM     47  C   UNL A   1      37.109  32.862  30.023  1.00  0.00    -0.014 A 
ATOM     48  C   UNL A   1      37.026  33.800  28.979  1.00  0.00     0.010 A 
ATOM     49  C   UNL A   1      35.962  32.598  30.795  1.00  0.00     0.010 A 
ATOM     50  C   UNL A   1      35.826  34.468  28.718  1.00  0.00     0.020 A 
ATOM     51  C   UNL A   1      34.755  33.251  30.526  1.00  0.00     0.020 A 
ATOM     52  C   UNL A   1      34.696  34.187  29.492  1.00  0.00     0.054 A 
BRANCH  52  53
ATOM     53  S   UNL A   1      33.133  35.021  29.090  1.00  0.00     0.124 S 
ATOM     54  O   UNL A   1      32.540  34.104  28.123  1.00  0.00    -0.237 OA
ATOM     55  O   UNL A   1      32.471  35.087  30.391  1.00  0.00    -0.237 OA
ATOM     56  O   UNL A   1      33.563  36.309  28.553  1.00  0.00    -0.744 OA
ENDBRANCH  52  53
ENDBRANCH  24  47
BRANCH  36  57
ATOM     57  C   UNL A   1      42.792  34.230  33.871  1.00  0.00    -0.014 A 
ATOM     58  C   UNL A   1      42.579  34.315  35.257  1.00  0.00     0.010 A 
ATOM     59  C   UNL A   1      43.581  35.203  33.229  1.00  0.00     0.010 A 
ATOM     60  C   UNL A   1      43.168  35.346  35.993  1.00  0.00     0.020 A 
ATOM     61  C   UNL A   1      44.185  36.223  33.965  1.00  0.00     0.020 A 
ATOM     62  C   UNL A   1      43.979  36.286  35.344  1.00  0.00     0.054 A 
BRANCH  62  63
ATOM     63  S   UNL A   1      44.846  37.529  36.341  1.00  0.00     0.124 S 
ATOM     64  O   UNL A   1      45.900  36.736  36.967  1.00  0.00    -0.237 OA
ATOM     65  O   UNL A   1      45.294  38.491  35.337  1.00  0.00    -0.237 OA
ATOM     66  O   UNL A   1      43.814  38.024  37.250  1.00  0.00    -0.744 OA
ENDBRANCH  62  63
ENDBRANCH  36  57
ENDBRANCH  10  11
ENDBRANCH   3   5
ENDBRANCH   2   3
ENDBRANCH   1   2
BRANCH   1  67
ATOM     67  C   UNL A   1      36.463  20.771  25.317  1.00  0.00     0.274 C 
BRANCH  67  68
ATOM     68  O   UNL A   1      35.092  20.970  25.711  1.00  0.00    -0.462 OA
BRANCH  68  69
ATOM     69  C   UNL A   1      34.166  20.264  24.991  1.00  0.00     0.312 C 
ATOM     70  O   UNL A   1      34.321  19.103  24.628  1.00  0.00    -0.252 OA
BRANCH  69  71
ATOM     71  C   UNL A   1      32.980  21.140  24.569  1.00  0.00     0.123 C 
ATOM     72  C   UNL A   1      32.685  22.184  25.606  1.00  0.00    -0.015 C 
ATOM     73  C   UNL A   1      33.246  22.019  23.348  1.00  0.00     0.043 C 
ATOM     74  C   UNL A   1      32.490  23.394  25.071  1.00  0.00    -0.011 C 
ATOM     75  C   UNL A   1      32.561  23.378  23.584  1.00  0.00     0.093 C 
BRANCH  75  76
ATOM     76  N   UNL A   1      33.395  24.449  23.051  1.00  0.00    -0.204 NA
ATOM     77  H   UNL A   1      33.964  24.022  22.322  1.00  0.00     0.142 HD
BRANCH  76  78
ATOM     78  S   UNL A   1      32.781  25.859  22.386  1.00  0.00     0.241 S 
ATOM     79  O   UNL A   1      33.686  26.362  21.380  1.00  0.00    -0.207 OA
ATOM     80  O   UNL A   1      31.411  25.518  22.054  1.00  0.00    -0.207 OA
BRANCH  78  81
ATOM     81  C   UNL A   1      32.718  27.065  23.690  1.00  0.00     0.082 A 
ATOM     82  C   UNL A   1      31.719  26.967  24.669  1.00  0.00     0.023 A 
ATOM     83  C   UNL A   1      33.552  28.185  23.649  1.00  0.00     0.023 A 
ATOM     84  C   UNL A   1      31.551  27.999  25.598  1.00  0.00     0.017 A 
ATOM     85  C   UNL A   1      33.394  29.205  24.592  1.00  0.00     0.017 A 
ATOM     86  C   UNL A   1      32.388  29.114  25.552  1.00  0.00     0.018 A 
ATOM     87  Br  UNL A   1      32.126  30.537  26.768  1.00  0.00    -0.051 Br
ENDBRANCH  78  81
ENDBRANCH  76  78
ENDBRANCH  75  76
ENDBRANCH  69  71
ENDBRANCH  68  69
ENDBRANCH  67  68
ENDBRANCH   1  67
TORSDOF 17
ENDMDL
MODEL 3
REMARK VINA RESULT:     -10.3      4.888     10.552
REMARK SMILES O=C(OCCOC(=O)[C@H]1C=C[C@@H](NS(=O)(=O)c2ccc(Br)cc2)C1)c1ccc(-c2c3nc(c(-c4ccc(S(=O)(=O)[O-])cc4)c4ccc([nH]4)c(-c4ccc(S(=O)(=O)[O-])cc4)c4nc(c(-c5ccc(S(=O)(=O)[O-])cc5)c5ccc2[nH]5)C=C4)C=C3)cc1
REMARK SMILES IDX 4 1 3 2 2 3 1 4 25 5 26 6 84 7 27 8 83 9 28 10 29 11 30 12
REMARK SMILES IDX 77 13 31 14 82 15 76 16 78 17 32 18 81 19 75 20 74 21 33 23
REMARK SMILES IDX 63 24 44 25 62 26 45 27 48 28 61 29 79 30 46 31 47 32 60 34
REMARK SMILES IDX 80 35 49 36 34 37 35 38 43 39 36 40 42 41 37 42 38 43 39 44
REMARK SMILES IDX 40 45 41 46 64 47 65 48 73 49 66 50 72 51 67 52 68 53 69 54
REMARK SMILES IDX 70 55 71 56 50 57 51 58 59 59 52 60 58 61 53 62 54 63 55 64
REMARK SMILES IDX 56 65 57 66 5 67 6 68 7 69 8 70 9 71 10 72 24 73 11 74 12 75
REMARK SMILES IDX 13 76 14 78 15 79 16 80 17 81 18 82 23 83 19 84 22 85 20 86
REMARK SMILES IDX 21 87
REMARK H PARENT 78 22 48 33 13 77
REMARK Flexibility Score: inf
ROOT
ATOM      1  C   UNL A   1      43.067  24.874  25.346  1.00  0.00     0.275 C 
ENDROOT
BRANCH   1   2
ATOM      2  O   UNL A   1      42.114  25.873  24.964  1.00  0.00    -0.458 OA
BRANCH   2   3
ATOM      3  C   UNL A   1      42.112  27.184  25.306  1.00  0.00     0.338 C 
ATOM      4  O   UNL A   1      42.653  27.989  24.551  1.00  0.00    -0.246 OA
BRANCH   3   5
ATOM      5  C   UNL A   1      41.686  27.668  26.661  1.00  0.00     0.060 A 
ATOM      6  C   UNL A   1      40.940  26.967  27.615  1.00  0.00     0.016 A 
ATOM      7  C   UNL A   1      42.134  28.956  27.003  1.00  0.00     0.016 A 
ATOM      8  C   UNL A   1      40.724  27.488  28.900  1.00  0.00     0.010 A 
ATOM      9  C   UNL A   1      41.962  29.458  28.295  1.00  0.00     0.010 A 
ATOM     10  C   UNL A   1      41.254  28.725  29.258  1.00  0.00    -0.014 A 
BRANCH  10  11
ATOM     11  C   UNL A   1      40.964  29.352  30.572  1.00  0.00     0.031 A 
ATOM     12  C   UNL A   1      39.775  30.267  30.658  1.00  0.00     0.074 A 
ATOM     13  C   UNL A   1      41.775  29.186  31.635  1.00  0.00     0.049 A 
ATOM     14  N   UNL A   1      39.422  31.083  31.614  1.00  0.00    -0.248 NA
ATOM     15  C   UNL A   1      38.892  30.291  29.481  1.00  0.00     0.031 C 
ATOM     16  C   UNL A   1      42.951  28.318  31.691  1.00  0.00     0.029 A 
ATOM     17  N   UNL A   1      41.746  29.778  32.875  1.00  0.00    -0.354 N 
ATOM     18  C   UNL A   1      38.308  31.756  31.126  1.00  0.00     0.074 A 
ATOM     19  C   UNL A   1      38.088  31.298  29.773  1.00  0.00     0.031 C 
ATOM     20  C   UNL A   1      43.556  28.466  32.882  1.00  0.00     0.029 A 
ATOM     21  C   UNL A   1      42.813  29.441  33.675  1.00  0.00     0.049 A 
ATOM     22  H   UNL A   1      41.027  30.386  33.164  1.00  0.00     0.167 HD
ATOM     23  C   UNL A   1      37.513  32.652  31.757  1.00  0.00     0.031 A 
ATOM     24  C   UNL A   1      43.153  29.875  34.906  1.00  0.00     0.031 A 
ATOM     25  C   UNL A   1      37.707  33.063  33.116  1.00  0.00     0.049 A 
ATOM     26  C   UNL A   1      42.246  30.849  35.612  1.00  0.00     0.074 A 
ATOM     27  C   UNL A   1      36.932  33.911  33.883  1.00  0.00     0.029 A 
ATOM     28  N   UNL A   1      38.755  32.634  33.916  1.00  0.00    -0.354 N 
ATOM     29  N   UNL A   1      41.159  31.430  35.160  1.00  0.00    -0.248 NA
ATOM     30  C   UNL A   1      42.586  31.199  36.998  1.00  0.00     0.031 C 
ATOM     31  C   UNL A   1      37.520  34.003  35.149  1.00  0.00     0.029 A 
ATOM     32  C   UNL A   1      38.643  33.189  35.175  1.00  0.00     0.049 A 
ATOM     33  H   UNL A   1      39.473  32.025  33.629  1.00  0.00     0.167 HD
ATOM     34  C   UNL A   1      40.661  32.177  36.222  1.00  0.00     0.074 A 
ATOM     35  C   UNL A   1      41.569  31.984  37.334  1.00  0.00     0.031 C 
ATOM     36  C   UNL A   1      39.544  32.943  36.275  1.00  0.00     0.031 A 
BRANCH  23  37
ATOM     37  C   UNL A   1      36.381  33.222  30.948  1.00  0.00    -0.014 A 
ATOM     38  C   UNL A   1      36.625  33.843  29.707  1.00  0.00     0.010 A 
ATOM     39  C   UNL A   1      35.082  33.243  31.484  1.00  0.00     0.010 A 
ATOM     40  C   UNL A   1      35.617  34.573  29.075  1.00  0.00     0.020 A 
ATOM     41  C   UNL A   1      34.062  33.944  30.835  1.00  0.00     0.020 A 
ATOM     42  C   UNL A   1      34.349  34.641  29.658  1.00  0.00     0.054 A 
BRANCH  42  43
ATOM     43  S   UNL A   1      33.082  35.676  28.876  1.00  0.00     0.124 S 
ATOM     44  O   UNL A   1      32.366  34.700  28.059  1.00  0.00    -0.237 OA
ATOM     45  O   UNL A   1      32.339  36.201  30.019  1.00  0.00    -0.237 OA
ATOM     46  O   UNL A   1      33.858  36.665  28.133  1.00  0.00    -0.744 OA
ENDBRANCH  42  43
ENDBRANCH  23  37
BRANCH  24  47
ATOM     47  C   UNL A   1      44.386  29.360  35.562  1.00  0.00    -0.014 A 
ATOM     48  C   UNL A   1      45.612  30.028  35.401  1.00  0.00     0.010 A 
ATOM     49  C   UNL A   1      44.337  28.213  36.376  1.00  0.00     0.010 A 
ATOM     50  C   UNL A   1      46.768  29.556  36.031  1.00  0.00     0.020 A 
ATOM     51  C   UNL A   1      45.486  27.747  37.023  1.00  0.00     0.020 A 
ATOM     52  C   UNL A   1      46.697  28.418  36.841  1.00  0.00     0.054 A 
BRANCH  52  53
ATOM     53  S   UNL A   1      48.198  27.862  37.700  1.00  0.00     0.124 S 
ATOM     54  O   UNL A   1      47.658  27.360  38.959  1.00  0.00    -0.237 OA
ATOM     55  O   UNL A   1      48.724  26.851  36.786  1.00  0.00    -0.237 OA
ATOM     56  O   UNL A   1      49.002  29.077  37.800  1.00  0.00    -0.744 OA
ENDBRANCH  52  53
ENDBRANCH  24  47
BRANCH  36  57
ATOM     57  C   UNL A   1      39.183  33.579  37.586  1.00  0.00    -0.014 A 
ATOM     58  C   UNL A   1      38.557  32.839  38.602  1.00  0.00     0.010 A 
ATOM     59  C   UNL A   1      39.628  34.888  37.854  1.00  0.00     0.010 A 
ATOM     60  C   UNL A   1      38.399  33.393  39.876  1.00  0.00     0.020 A 
ATOM     61  C   UNL A   1      39.487  35.436  39.130  1.00  0.00     0.020 A 
ATOM     62  C   UNL A   1      38.878  34.682  40.135  1.00  0.00     0.054 A 
BRANCH  62  63
ATOM     63  S   UNL A   1      38.790  35.324  41.829  1.00  0.00     0.124 S 
ATOM     64  O   UNL A   1      39.248  36.699  41.658  1.00  0.00    -0.237 OA
ATOM     65  O   UNL A   1      37.376  35.166  42.161  1.00  0.00    -0.237 OA
ATOM     66  O   UNL A   1      39.697  34.452  42.575  1.00  0.00    -0.744 OA
ENDBRANCH  62  63
ENDBRANCH  36  57
ENDBRANCH  10  11
ENDBRANCH   3   5
ENDBRANCH   2   3
ENDBRANCH   1   2
BRANCH   1  67
ATOM     67  C   UNL A   1      44.517  25.360  25.302  1.00  0.00     0.274 C 
BRANCH  67  68
ATOM     68  O   UNL A   1      45.190  25.328  26.575  1.00  0.00    -0.462 OA
BRANCH  68  69
ATOM     69  C   UNL A   1      45.691  24.108  26.943  1.00  0.00     0.312 C 
ATOM     70  O   UNL A   1      46.596  23.532  26.349  1.00  0.00    -0.252 OA
BRANCH  69  71
ATOM     71  C   UNL A   1      44.891  23.483  28.094  1.00  0.00     0.123 C 
ATOM     72  C   UNL A   1      44.207  24.541  28.910  1.00  0.00    -0.015 C 
ATOM     73  C   UNL A   1      43.692  22.648  27.649  1.00  0.00     0.043 C 
ATOM     74  C   UNL A   1      42.933  24.235  29.178  1.00  0.00    -0.011 C 
ATOM     75  C   UNL A   1      42.543  22.901  28.642  1.00  0.00     0.093 C 
BRANCH  75  76
ATOM     76  N   UNL A   1      41.273  22.933  27.929  1.00  0.00    -0.204 NA
ATOM     77  H   UNL A   1      41.272  23.806  27.402  1.00  0.00     0.142 HD
BRANCH  76  78
ATOM     78  S   UNL A   1      40.783  21.748  26.850  1.00  0.00     0.241 S 
ATOM     79  O   UNL A   1      41.665  21.730  25.707  1.00  0.00    -0.207 OA
ATOM     80  O   UNL A   1      40.615  20.571  27.681  1.00  0.00    -0.207 OA
BRANCH  78  81
ATOM     81  C   UNL A   1      39.170  22.210  26.266  1.00  0.00     0.082 A 
ATOM     82  C   UNL A   1      38.444  21.313  25.469  1.00  0.00     0.023 A 
ATOM     83  C   UNL A   1      38.698  23.510  26.465  1.00  0.00     0.023 A 
ATOM     84  C   UNL A   1      37.254  21.727  24.864  1.00  0.00     0.017 A 
ATOM     85  C   UNL A   1      37.498  23.913  25.874  1.00  0.00     0.017 A 
ATOM     86  C   UNL A   1      36.788  23.025  25.067  1.00  0.00     0.018 A 
ATOM     87  Br  UNL A   1      35.211  23.606  24.203  1.00  0.00    -0.051 Br
ENDBRANCH  78  81
ENDBRANCH  76  78
ENDBRANCH  75  76
ENDBRANCH  69  71
ENDBRANCH  68  69
ENDBRANCH  67  68
ENDBRANCH   1  67
TORSDOF 17
ENDMDL
