MODEL 1
REMARK VINA RESULT:     -10.5      0.000      0.000
REMARK SMILES C[C@@H](C(=O)OCCOC(=O)c1ccc(-c2c3nc(c(-c4ccc(S(=O)(=O)[O-])cc4)c4ccc([nH]4)c(-c4ccc(S(=O)(=O)[O-])cc4)c4nc(c(-c5ccc(S(=O)(=O)[O-])cc5)c5ccc2[nH]5)C=C4)C=C3)cc1)c1ccc(C[C@H]2CCC[C@@H]2O)cc1Br
REMARK SMILES IDX 6 1 5 2 3 3 4 4 2 5 1 6 71 7 72 8 83 9 73 10 82 11 84 12
REMARK SMILES IDX 74 13 75 14 76 15 77 16 80 17 78 18 79 19 81 20 7 22 8 23
REMARK SMILES IDX 9 24 10 25 11 26 12 27 70 28 13 29 69 30 14 31 15 32 16 33
REMARK SMILES IDX 63 34 17 35 68 36 62 37 64 38 18 39 67 40 61 41 60 42 19 44
REMARK SMILES IDX 49 45 30 46 48 47 31 48 34 49 47 50 65 51 32 52 33 53 46 55
REMARK SMILES IDX 66 56 35 57 20 58 21 59 29 60 22 61 28 62 23 63 24 64 25 65
REMARK SMILES IDX 26 66 27 67 50 68 51 69 59 70 52 71 58 72 53 73 54 74 55 75
REMARK SMILES IDX 56 76 57 77 36 78 37 79 45 80 38 81 44 82 39 83 40 84 41 85
REMARK SMILES IDX 42 86 43 87
REMARK H PARENT 81 21 64 43 34 54
REMARK Flexibility Score: inf
ROOT
ATOM      1  C   UNL A   1      39.115  21.541  26.105  1.00  0.00     0.274 C 
ENDROOT
BRANCH   1   2
ATOM      2  O   UNL A   1      38.201  21.883  25.048  1.00  0.00    -0.462 OA
BRANCH   2   3
ATOM      3  C   UNL A   1      37.343  22.907  25.329  1.00  0.00     0.313 C 
ATOM      4  O   UNL A   1      37.591  23.814  26.116  1.00  0.00    -0.252 OA
BRANCH   3   5
ATOM      5  C   UNL A   1      36.003  22.739  24.630  1.00  0.00     0.127 C 
ATOM      6  C   UNL A   1      36.282  22.823  23.109  1.00  0.00     0.025 C 
BRANCH   5   7
ATOM      7  C   UNL A   1      34.809  23.616  25.028  1.00  0.00    -0.020 A 
ATOM      8  C   UNL A   1      34.517  24.686  24.150  1.00  0.00     0.006 A 
ATOM      9  C   UNL A   1      33.958  23.497  26.135  1.00  0.00     0.022 A 
ATOM     10  C   UNL A   1      33.596  25.691  24.456  1.00  0.00     0.004 A 
ATOM     11  C   UNL A   1      33.027  24.518  26.438  1.00  0.00     0.019 A 
ATOM     12  Br  UNL A   1      33.954  22.034  27.348  1.00  0.00    -0.050 Br
ATOM     13  C   UNL A   1      32.916  25.683  25.662  1.00  0.00    -0.047 A 
BRANCH  13  14
ATOM     14  C   UNL A   1      32.046  26.836  26.125  1.00  0.00     0.041 C 
BRANCH  14  15
ATOM     15  C   UNL A   1      30.722  27.156  25.380  1.00  0.00     0.022 C 
ATOM     16  C   UNL A   1      30.800  28.198  24.256  1.00  0.00     0.007 C 
ATOM     17  C   UNL A   1      29.955  26.000  24.735  1.00  0.00     0.117 C 
ATOM     18  C   UNL A   1      29.675  27.867  23.271  1.00  0.00     0.003 C 
ATOM     19  C   UNL A   1      28.901  26.722  23.904  1.00  0.00     0.032 C 
BRANCH  17  20
ATOM     20  O   UNL A   1      29.345  25.138  25.674  1.00  0.00    -0.393 OA
ATOM     21  H   UNL A   1      28.410  25.376  25.772  1.00  0.00     0.210 HD
ENDBRANCH  17  20
ENDBRANCH  14  15
ENDBRANCH  13  14
ENDBRANCH   5   7
ENDBRANCH   3   5
ENDBRANCH   2   3
ENDBRANCH   1   2
BRANCH   1  22
ATOM     22  C   UNL A   1      39.597  20.097  25.937  1.00  0.00     0.275 C 
BRANCH  22  23
ATOM     23  O   UNL A   1      40.626  19.805  26.900  1.00  0.00    -0.458 OA
BRANCH  23  24
ATOM     24  C   UNL A   1      41.862  19.647  26.365  1.00  0.00     0.338 C 
ATOM     25  O   UNL A   1      42.296  18.670  25.780  1.00  0.00    -0.246 OA
BRANCH  24  26
ATOM     26  C   UNL A   1      42.557  20.942  26.396  1.00  0.00     0.060 A 
ATOM     27  C   UNL A   1      42.711  21.531  27.646  1.00  0.00     0.016 A 
ATOM     28  C   UNL A   1      43.016  21.593  25.247  1.00  0.00     0.016 A 
ATOM     29  C   UNL A   1      43.342  22.763  27.748  1.00  0.00     0.010 A 
ATOM     30  C   UNL A   1      43.629  22.853  25.360  1.00  0.00     0.010 A 
ATOM     31  C   UNL A   1      43.793  23.450  26.619  1.00  0.00    -0.014 A 
BRANCH  31  32
ATOM     32  C   UNL A   1      44.325  24.824  26.816  1.00  0.00     0.031 A 
ATOM     33  C   UNL A   1      43.405  25.911  27.302  1.00  0.00     0.074 A 
ATOM     34  C   UNL A   1      45.651  25.065  26.752  1.00  0.00     0.049 A 
ATOM     35  N   UNL A   1      43.687  27.150  27.614  1.00  0.00    -0.248 NA
ATOM     36  C   UNL A   1      41.998  25.538  27.513  1.00  0.00     0.031 C 
ATOM     37  C   UNL A   1      46.677  24.066  26.452  1.00  0.00     0.029 A 
ATOM     38  N   UNL A   1      46.363  26.219  26.972  1.00  0.00    -0.354 N 
ATOM     39  C   UNL A   1      42.496  27.704  28.069  1.00  0.00     0.074 A 
ATOM     40  C   UNL A   1      41.489  26.668  27.984  1.00  0.00     0.031 C 
ATOM     41  C   UNL A   1      47.887  24.650  26.520  1.00  0.00     0.029 A 
ATOM     42  C   UNL A   1      47.721  26.074  26.808  1.00  0.00     0.049 A 
ATOM     43  H   UNL A   1      45.940  27.072  27.225  1.00  0.00     0.167 HD
ATOM     44  C   UNL A   1      42.258  28.962  28.511  1.00  0.00     0.031 A 
ATOM     45  C   UNL A   1      48.713  26.987  26.844  1.00  0.00     0.031 A 
ATOM     46  C   UNL A   1      43.235  30.017  28.544  1.00  0.00     0.049 A 
ATOM     47  C   UNL A   1      48.380  28.432  27.121  1.00  0.00     0.074 A 
ATOM     48  C   UNL A   1      43.055  31.346  28.887  1.00  0.00     0.029 A 
ATOM     49  N   UNL A   1      44.570  29.870  28.202  1.00  0.00    -0.354 N 
ATOM     50  N   UNL A   1      47.237  28.959  27.488  1.00  0.00    -0.248 NA
ATOM     51  C   UNL A   1      49.469  29.409  26.967  1.00  0.00     0.031 C 
ATOM     52  C   UNL A   1      44.267  32.018  28.686  1.00  0.00     0.029 A 
ATOM     53  C   UNL A   1      45.216  31.093  28.280  1.00  0.00     0.049 A 
ATOM     54  H   UNL A   1      44.997  29.022  27.941  1.00  0.00     0.167 HD
ATOM     55  C   UNL A   1      47.473  30.324  27.624  1.00  0.00     0.074 A 
ATOM     56  C   UNL A   1      48.872  30.540  27.318  1.00  0.00     0.031 C 
ATOM     57  C   UNL A   1      46.607  31.308  27.968  1.00  0.00     0.031 A 
BRANCH  44  58
ATOM     58  C   UNL A   1      40.845  29.286  28.909  1.00  0.00    -0.014 A 
ATOM     59  C   UNL A   1      40.459  29.344  30.259  1.00  0.00     0.010 A 
ATOM     60  C   UNL A   1      39.892  29.538  27.906  1.00  0.00     0.010 A 
ATOM     61  C   UNL A   1      39.129  29.609  30.598  1.00  0.00     0.020 A 
ATOM     62  C   UNL A   1      38.567  29.821  28.241  1.00  0.00     0.020 A 
ATOM     63  C   UNL A   1      38.189  29.835  29.586  1.00  0.00     0.054 A 
BRANCH  63  64
ATOM     64  S   UNL A   1      36.466  30.157  30.050  1.00  0.00     0.124 S 
ATOM     65  O   UNL A   1      36.344  29.400  31.294  1.00  0.00    -0.237 OA
ATOM     66  O   UNL A   1      36.437  31.610  30.193  1.00  0.00    -0.237 OA
ATOM     67  O   UNL A   1      35.699  29.629  28.924  1.00  0.00    -0.744 OA
ENDBRANCH  63  64
ENDBRANCH  44  58
BRANCH  45  68
ATOM     68  C   UNL A   1      50.115  26.589  26.530  1.00  0.00    -0.014 A 
ATOM     69  C   UNL A   1      51.010  26.212  27.547  1.00  0.00     0.010 A 
ATOM     70  C   UNL A   1      50.576  26.628  25.200  1.00  0.00     0.010 A 
ATOM     71  C   UNL A   1      52.340  25.900  27.242  1.00  0.00     0.020 A 
ATOM     72  C   UNL A   1      51.894  26.288  24.887  1.00  0.00     0.020 A 
ATOM     73  C   UNL A   1      52.773  25.941  25.912  1.00  0.00     0.054 A 
BRANCH  73  74
ATOM     74  S   UNL A   1      54.492  25.502  25.530  1.00  0.00     0.124 S 
ATOM     75  O   UNL A   1      55.224  26.208  26.576  1.00  0.00    -0.237 OA
ATOM     76  O   UNL A   1      54.478  24.045  25.638  1.00  0.00    -0.237 OA
ATOM     77  O   UNL A   1      54.681  26.017  24.175  1.00  0.00    -0.744 OA
ENDBRANCH  73  74
ENDBRANCH  45  68
BRANCH  57  78
ATOM     78  C   UNL A   1      47.138  32.716  28.053  1.00  0.00    -0.014 A 
ATOM     79  C   UNL A   1      47.758  33.190  29.223  1.00  0.00     0.010 A 
ATOM     80  C   UNL A   1      47.079  33.554  26.924  1.00  0.00     0.010 A 
ATOM     81  C   UNL A   1      48.288  34.483  29.269  1.00  0.00     0.020 A 
ATOM     82  C   UNL A   1      47.632  34.838  26.958  1.00  0.00     0.020 A 
ATOM     83  C   UNL A   1      48.224  35.299  28.135  1.00  0.00     0.054 A 
BRANCH  83  84
ATOM     84  S   UNL A   1      48.972  36.951  28.202  1.00  0.00     0.124 S 
ATOM     85  O   UNL A   1      48.186  37.599  29.247  1.00  0.00    -0.237 OA
ATOM     86  O   UNL A   1      50.362  36.662  28.547  1.00  0.00    -0.237 OA
ATOM     87  O   UNL A   1      48.770  37.477  26.853  1.00  0.00    -0.744 OA
ENDBRANCH  83  84
ENDBRANCH  57  78
ENDBRANCH  31  32
ENDBRANCH  24  26
ENDBRANCH  23  24
ENDBRANCH  22  23
ENDBRANCH   1  22
TORSDOF 18
ENDMDL
MODEL 2
REMARK VINA RESULT:     -10.4      3.619      8.598
REMARK SMILES C[C@@H](C(=O)OCCOC(=O)c1ccc(-c2c3nc(c(-c4ccc(S(=O)(=O)[O-])cc4)c4ccc([nH]4)c(-c4ccc(S(=O)(=O)[O-])cc4)c4nc(c(-c5ccc(S(=O)(=O)[O-])cc5)c5ccc2[nH]5)C=C4)C=C3)cc1)c1ccc(C[C@H]2CCC[C@@H]2O)cc1Br
REMARK SMILES IDX 6 1 5 2 3 3 4 4 2 5 1 6 71 7 72 8 83 9 73 10 82 11 84 12
REMARK SMILES IDX 74 13 75 14 76 15 77 16 80 17 78 18 79 19 81 20 7 22 8 23
REMARK SMILES IDX 9 24 10 25 11 26 12 27 70 28 13 29 69 30 14 31 15 32 16 33
REMARK SMILES IDX 63 34 17 35 68 36 62 37 64 38 18 39 67 40 61 41 60 42 19 44
REMARK SMILES IDX 49 45 30 46 48 47 31 48 34 49 47 50 65 51 32 52 33 53 46 55
REMARK SMILES IDX 66 56 35 57 20 58 21 59 29 60 22 61 28 62 23 63 24 64 25 65
REMARK SMILES IDX 26 66 27 67 50 68 51 69 59 70 52 71 58 72 53 73 54 74 55 75
REMARK SMILES IDX 56 76 57 77 36 78 37 79 45 80 38 81 44 82 39 83 40 84 41 85
REMARK SMILES IDX 42 86 43 87
REMARK H PARENT 81 21 64 43 34 54
REMARK Flexibility Score: inf
ROOT
ATOM      1  C   UNL A   1      32.097  29.091  25.301  1.00  0.00     0.274 C 
ENDROOT
BRANCH   1   2
ATOM      2  O   UNL A   1      30.778  28.634  24.951  1.00  0.00    -0.462 OA
BRANCH   2   3
ATOM      3  C   UNL A   1      30.625  28.242  23.652  1.00  0.00     0.313 C 
ATOM      4  O   UNL A   1      30.460  29.017  22.715  1.00  0.00    -0.252 OA
BRANCH   3   5
ATOM      5  C   UNL A   1      30.580  26.728  23.513  1.00  0.00     0.127 C 
ATOM      6  C   UNL A   1      29.232  26.266  24.120  1.00  0.00     0.025 C 
BRANCH   5   7
ATOM      7  C   UNL A   1      31.745  25.870  24.022  1.00  0.00    -0.020 A 
ATOM      8  C   UNL A   1      31.421  24.942  25.038  1.00  0.00     0.006 A 
ATOM      9  C   UNL A   1      33.084  25.870  23.610  1.00  0.00     0.022 A 
ATOM     10  C   UNL A   1      32.387  24.223  25.748  1.00  0.00     0.004 A 
ATOM     11  C   UNL A   1      34.057  25.139  24.333  1.00  0.00     0.019 A 
ATOM     12  Br  UNL A   1      33.760  26.828  22.116  1.00  0.00    -0.050 Br
ATOM     13  C   UNL A   1      33.735  24.397  25.481  1.00  0.00    -0.047 A 
BRANCH  13  14
ATOM     14  C   UNL A   1      34.829  23.787  26.335  1.00  0.00     0.041 C 
BRANCH  14  15
ATOM     15  C   UNL A   1      36.118  23.239  25.667  1.00  0.00     0.022 C 
ATOM     16  C   UNL A   1      37.453  23.785  26.196  1.00  0.00     0.007 C 
ATOM     17  C   UNL A   1      36.341  21.725  25.651  1.00  0.00     0.117 C 
ATOM     18  C   UNL A   1      38.502  22.699  25.946  1.00  0.00     0.003 C 
ATOM     19  C   UNL A   1      37.783  21.604  25.174  1.00  0.00     0.032 C 
BRANCH  17  20
ATOM     20  O   UNL A   1      35.467  21.039  24.778  1.00  0.00    -0.393 OA
ATOM     21  H   UNL A   1      35.885  20.214  24.485  1.00  0.00     0.210 HD
ENDBRANCH  17  20
ENDBRANCH  14  15
ENDBRANCH  13  14
ENDBRANCH   5   7
ENDBRANCH   3   5
ENDBRANCH   2   3
ENDBRANCH   1   2
BRANCH   1  22
ATOM     22  C   UNL A   1      32.327  28.927  26.806  1.00  0.00     0.275 C 
BRANCH  22  23
ATOM     23  O   UNL A   1      33.737  28.930  27.093  1.00  0.00    -0.458 OA
BRANCH  23  24
ATOM     24  C   UNL A   1      34.199  30.097  27.605  1.00  0.00     0.338 C 
ATOM     25  O   UNL A   1      33.562  31.110  27.836  1.00  0.00    -0.246 OA
BRANCH  24  26
ATOM     26  C   UNL A   1      35.581  29.894  28.065  1.00  0.00     0.060 A 
ATOM     27  C   UNL A   1      36.578  30.037  27.107  1.00  0.00     0.016 A 
ATOM     28  C   UNL A   1      35.907  29.536  29.376  1.00  0.00     0.016 A 
ATOM     29  C   UNL A   1      37.905  29.842  27.467  1.00  0.00     0.010 A 
ATOM     30  C   UNL A   1      37.251  29.314  29.722  1.00  0.00     0.010 A 
ATOM     31  C   UNL A   1      38.263  29.463  28.763  1.00  0.00    -0.014 A 
BRANCH  31  32
ATOM     32  C   UNL A   1      39.692  29.137  29.014  1.00  0.00     0.031 A 
ATOM     33  C   UNL A   1      40.554  30.117  29.763  1.00  0.00     0.074 A 
ATOM     34  C   UNL A   1      40.173  27.905  28.753  1.00  0.00     0.049 A 
ATOM     35  N   UNL A   1      41.796  29.991  30.155  1.00  0.00    -0.248 NA
ATOM     36  C   UNL A   1      39.917  31.380  30.168  1.00  0.00     0.031 C 
ATOM     37  C   UNL A   1      39.403  26.801  28.178  1.00  0.00     0.029 A 
ATOM     38  N   UNL A   1      41.417  27.364  28.973  1.00  0.00    -0.354 N 
ATOM     39  C   UNL A   1      42.089  31.151  30.861  1.00  0.00     0.074 A 
ATOM     40  C   UNL A   1      40.896  31.972  30.837  1.00  0.00     0.031 C 
ATOM     41  C   UNL A   1      40.190  25.713  28.103  1.00  0.00     0.029 A 
ATOM     42  C   UNL A   1      41.534  26.055  28.566  1.00  0.00     0.049 A 
ATOM     43  H   UNL A   1      42.158  27.867  29.384  1.00  0.00     0.167 HD
ATOM     44  C   UNL A   1      43.245  31.508  31.470  1.00  0.00     0.031 A 
ATOM     45  C   UNL A   1      42.606  25.237  28.533  1.00  0.00     0.031 A 
ATOM     46  C   UNL A   1      44.454  30.728  31.451  1.00  0.00     0.049 A 
ATOM     47  C   UNL A   1      43.941  25.747  29.016  1.00  0.00     0.074 A 
ATOM     48  C   UNL A   1      45.697  31.058  31.960  1.00  0.00     0.029 A 
ATOM     49  N   UNL A   1      44.578  29.474  30.874  1.00  0.00    -0.354 N 
ATOM     50  N   UNL A   1      44.222  26.873  29.626  1.00  0.00    -0.248 NA
ATOM     51  C   UNL A   1      45.108  24.881  28.786  1.00  0.00     0.031 C 
ATOM     52  C   UNL A   1      46.591  30.032  31.631  1.00  0.00     0.029 A 
ATOM     53  C   UNL A   1      45.888  29.035  30.973  1.00  0.00     0.049 A 
ATOM     54  H   UNL A   1      43.843  28.970  30.455  1.00  0.00     0.167 HD
ATOM     55  C   UNL A   1      45.593  26.843  29.866  1.00  0.00     0.074 A 
ATOM     56  C   UNL A   1      46.082  25.581  29.353  1.00  0.00     0.031 C 
ATOM     57  C   UNL A   1      46.375  27.781  30.455  1.00  0.00     0.031 A 
BRANCH  44  58
ATOM     58  C   UNL A   1      43.276  32.855  32.134  1.00  0.00    -0.014 A 
ATOM     59  C   UNL A   1      43.586  34.021  31.413  1.00  0.00     0.010 A 
ATOM     60  C   UNL A   1      42.987  32.949  33.508  1.00  0.00     0.010 A 
ATOM     61  C   UNL A   1      43.646  35.256  32.066  1.00  0.00     0.020 A 
ATOM     62  C   UNL A   1      43.028  34.183  34.159  1.00  0.00     0.020 A 
ATOM     63  C   UNL A   1      43.377  35.326  33.437  1.00  0.00     0.054 A 
BRANCH  63  64
ATOM     64  S   UNL A   1      43.481  36.936  34.267  1.00  0.00     0.124 S 
ATOM     65  O   UNL A   1      42.182  37.014  34.931  1.00  0.00    -0.237 OA
ATOM     66  O   UNL A   1      44.630  36.767  35.153  1.00  0.00    -0.237 OA
ATOM     67  O   UNL A   1      43.676  37.880  33.170  1.00  0.00    -0.744 OA
ENDBRANCH  63  64
ENDBRANCH  44  58
BRANCH  45  68
ATOM     68  C   UNL A   1      42.494  23.871  27.945  1.00  0.00    -0.014 A 
ATOM     69  C   UNL A   1      42.875  23.618  26.616  1.00  0.00     0.010 A 
ATOM     70  C   UNL A   1      41.959  22.819  28.711  1.00  0.00     0.010 A 
ATOM     71  C   UNL A   1      42.706  22.344  26.060  1.00  0.00     0.020 A 
ATOM     72  C   UNL A   1      41.817  21.538  28.170  1.00  0.00     0.020 A 
ATOM     73  C   UNL A   1      42.178  21.313  26.843  1.00  0.00     0.054 A 
BRANCH  73  74
ATOM     74  S   UNL A   1      41.996  19.659  26.117  1.00  0.00     0.124 S 
ATOM     75  O   UNL A   1      42.861  19.747  24.946  1.00  0.00    -0.237 OA
ATOM     76  O   UNL A   1      42.468  18.788  27.191  1.00  0.00    -0.237 OA
ATOM     77  O   UNL A   1      40.565  19.567  25.835  1.00  0.00    -0.744 OA
ENDBRANCH  73  74
ENDBRANCH  45  68
BRANCH  57  78
ATOM     78  C   UNL A   1      47.845  27.483  30.600  1.00  0.00    -0.014 A 
ATOM     79  C   UNL A   1      48.348  26.841  31.747  1.00  0.00     0.010 A 
ATOM     80  C   UNL A   1      48.726  27.785  29.546  1.00  0.00     0.010 A 
ATOM     81  C   UNL A   1      49.707  26.528  31.845  1.00  0.00     0.020 A 
ATOM     82  C   UNL A   1      50.081  27.450  29.629  1.00  0.00     0.020 A 
ATOM     83  C   UNL A   1      50.565  26.832  30.784  1.00  0.00     0.054 A 
BRANCH  83  84
ATOM     84  S   UNL A   1      52.314  26.363  30.911  1.00  0.00     0.124 S 
ATOM     85  O   UNL A   1      52.712  26.286  29.509  1.00  0.00    -0.237 OA
ATOM     86  O   UNL A   1      52.891  27.472  31.669  1.00  0.00    -0.237 OA
ATOM     87  O   UNL A   1      52.278  25.085  31.620  1.00  0.00    -0.744 OA
ENDBRANCH  83  84
ENDBRANCH  57  78
ENDBRANCH  31  32
ENDBRANCH  24  26
ENDBRANCH  23  24
ENDBRANCH  22  23
ENDBRANCH   1  22
TORSDOF 18
ENDMDL
MODEL 3
REMARK VINA RESULT:     -10.3      3.923      8.594
REMARK SMILES C[C@@H](C(=O)OCCOC(=O)c1ccc(-c2c3nc(c(-c4ccc(S(=O)(=O)[O-])cc4)c4ccc([nH]4)c(-c4ccc(S(=O)(=O)[O-])cc4)c4nc(c(-c5ccc(S(=O)(=O)[O-])cc5)c5ccc2[nH]5)C=C4)C=C3)cc1)c1ccc(C[C@H]2CCC[C@@H]2O)cc1Br
REMARK SMILES IDX 6 1 5 2 3 3 4 4 2 5 1 6 71 7 72 8 83 9 73 10 82 11 84 12
REMARK SMILES IDX 74 13 75 14 76 15 77 16 80 17 78 18 79 19 81 20 7 22 8 23
REMARK SMILES IDX 9 24 10 25 11 26 12 27 70 28 13 29 69 30 14 31 15 32 16 33
REMARK SMILES IDX 63 34 17 35 68 36 62 37 64 38 18 39 67 40 61 41 60 42 19 44
REMARK SMILES IDX 49 45 30 46 48 47 31 48 34 49 47 50 65 51 32 52 33 53 46 55
REMARK SMILES IDX 66 56 35 57 20 58 21 59 29 60 22 61 28 62 23 63 24 64 25 65
REMARK SMILES IDX 26 66 27 67 50 68 51 69 59 70 52 71 58 72 53 73 54 74 55 75
REMARK SMILES IDX 56 76 57 77 36 78 37 79 45 80 38 81 44 82 39 83 40 84 41 85
REMARK SMILES IDX 42 86 43 87
REMARK H PARENT 81 21 64 43 34 54
REMARK Flexibility Score: inf
ROOT
ATOM      1  C   UNL A   1      32.383  28.932  25.512  1.00  0.00     0.274 C 
ENDROOT
BRANCH   1   2
ATOM      2  O   UNL A   1      31.316  28.068  25.080  1.00  0.00    -0.462 OA
BRANCH   2   3
ATOM      3  C   UNL A   1      31.297  27.792  23.744  1.00  0.00     0.313 C 
ATOM      4  O   UNL A   1      31.811  28.503  22.887  1.00  0.00    -0.252 OA
BRANCH   3   5
ATOM      5  C   UNL A   1      30.475  26.551  23.428  1.00  0.00     0.127 C 
ATOM      6  C   UNL A   1      29.296  26.532  24.432  1.00  0.00     0.025 C 
BRANCH   5   7
ATOM      7  C   UNL A   1      31.153  25.178  23.337  1.00  0.00    -0.020 A 
ATOM      8  C   UNL A   1      30.758  24.235  24.314  1.00  0.00     0.006 A 
ATOM      9  C   UNL A   1      32.103  24.724  22.412  1.00  0.00     0.022 A 
ATOM     10  C   UNL A   1      31.408  23.012  24.499  1.00  0.00     0.004 A 
ATOM     11  C   UNL A   1      32.757  23.484  22.605  1.00  0.00     0.019 A 
ATOM     12  Br  UNL A   1      32.646  25.674  20.859  1.00  0.00    -0.050 Br
ATOM     13  C   UNL A   1      32.497  22.665  23.716  1.00  0.00    -0.047 A 
BRANCH  13  14
ATOM     14  C   UNL A   1      33.351  21.443  23.988  1.00  0.00     0.041 C 
BRANCH  14  15
ATOM     15  C   UNL A   1      32.680  20.102  24.390  1.00  0.00     0.022 C 
ATOM     16  C   UNL A   1      32.522  19.052  23.281  1.00  0.00     0.007 C 
ATOM     17  C   UNL A   1      33.287  19.304  25.545  1.00  0.00     0.117 C 
ATOM     18  C   UNL A   1      32.514  17.684  23.969  1.00  0.00     0.003 C 
ATOM     19  C   UNL A   1      32.544  17.976  25.461  1.00  0.00     0.032 C 
BRANCH  17  20
ATOM     20  O   UNL A   1      33.091  19.906  26.808  1.00  0.00    -0.393 OA
ATOM     21  H   UNL A   1      33.134  19.227  27.500  1.00  0.00     0.210 HD
ENDBRANCH  17  20
ENDBRANCH  14  15
ENDBRANCH  13  14
ENDBRANCH   5   7
ENDBRANCH   3   5
ENDBRANCH   2   3
ENDBRANCH   1   2
BRANCH   1  22
ATOM     22  C   UNL A   1      32.472  28.934  27.041  1.00  0.00     0.275 C 
BRANCH  22  23
ATOM     23  O   UNL A   1      33.846  28.840  27.456  1.00  0.00    -0.458 OA
BRANCH  23  24
ATOM     24  C   UNL A   1      34.423  30.031  27.749  1.00  0.00     0.338 C 
ATOM     25  O   UNL A   1      33.882  31.120  27.819  1.00  0.00    -0.246 OA
BRANCH  24  26
ATOM     26  C   UNL A   1      35.800  29.786  28.202  1.00  0.00     0.060 A 
ATOM     27  C   UNL A   1      36.803  29.961  27.255  1.00  0.00     0.016 A 
ATOM     28  C   UNL A   1      36.117  29.362  29.496  1.00  0.00     0.016 A 
ATOM     29  C   UNL A   1      38.126  29.730  27.608  1.00  0.00     0.010 A 
ATOM     30  C   UNL A   1      37.457  29.105  29.834  1.00  0.00     0.010 A 
ATOM     31  C   UNL A   1      38.474  29.285  28.885  1.00  0.00    -0.014 A 
BRANCH  31  32
ATOM     32  C   UNL A   1      39.898  28.928  29.125  1.00  0.00     0.031 A 
ATOM     33  C   UNL A   1      40.777  29.869  29.903  1.00  0.00     0.074 A 
ATOM     34  C   UNL A   1      40.358  27.696  28.825  1.00  0.00     0.049 A 
ATOM     35  N   UNL A   1      42.016  29.709  30.289  1.00  0.00    -0.248 NA
ATOM     36  C   UNL A   1      40.161  31.129  30.348  1.00  0.00     0.031 C 
ATOM     37  C   UNL A   1      39.569  26.624  28.216  1.00  0.00     0.029 A 
ATOM     38  N   UNL A   1      41.593  27.128  29.026  1.00  0.00    -0.354 N 
ATOM     39  C   UNL A   1      42.329  30.842  31.031  1.00  0.00     0.074 A 
ATOM     40  C   UNL A   1      41.150  31.683  31.034  1.00  0.00     0.031 C 
ATOM     41  C   UNL A   1      40.337  25.526  28.106  1.00  0.00     0.029 A 
ATOM     42  C   UNL A   1      41.687  25.831  28.578  1.00  0.00     0.049 A 
ATOM     43  H   UNL A   1      42.342  27.605  29.452  1.00  0.00     0.167 HD
ATOM     44  C   UNL A   1      43.491  31.160  31.649  1.00  0.00     0.031 A 
ATOM     45  C   UNL A   1      42.745  24.996  28.518  1.00  0.00     0.031 A 
ATOM     46  C   UNL A   1      44.687  30.361  31.604  1.00  0.00     0.049 A 
ATOM     47  C   UNL A   1      44.089  25.468  29.015  1.00  0.00     0.074 A 
ATOM     48  C   UNL A   1      45.936  30.654  32.122  1.00  0.00     0.029 A 
ATOM     49  N   UNL A   1      44.790  29.124  30.988  1.00  0.00    -0.354 N 
ATOM     50  N   UNL A   1      44.390  26.570  29.660  1.00  0.00    -0.248 NA
ATOM     51  C   UNL A   1      45.241  24.590  28.756  1.00  0.00     0.031 C 
ATOM     52  C   UNL A   1      46.813  29.623  31.760  1.00  0.00     0.029 A 
ATOM     53  C   UNL A   1      46.092  28.660  31.072  1.00  0.00     0.049 A 
ATOM     54  H   UNL A   1      44.046  28.645  30.555  1.00  0.00     0.167 HD
ATOM     55  C   UNL A   1      45.760  26.509  29.897  1.00  0.00     0.074 A 
ATOM     56  C   UNL A   1      46.227  25.256  29.344  1.00  0.00     0.031 C 
ATOM     57  C   UNL A   1      46.558  27.415  30.514  1.00  0.00     0.031 A 
BRANCH  44  58
ATOM     58  C   UNL A   1      43.546  32.485  32.355  1.00  0.00    -0.014 A 
ATOM     59  C   UNL A   1      43.636  33.693  31.642  1.00  0.00     0.010 A 
ATOM     60  C   UNL A   1      43.504  32.514  33.761  1.00  0.00     0.010 A 
ATOM     61  C   UNL A   1      43.725  34.908  32.327  1.00  0.00     0.020 A 
ATOM     62  C   UNL A   1      43.574  33.728  34.448  1.00  0.00     0.020 A 
ATOM     63  C   UNL A   1      43.704  34.916  33.726  1.00  0.00     0.054 A 
BRANCH  63  64
ATOM     64  S   UNL A   1      43.841  36.503  34.593  1.00  0.00     0.124 S 
ATOM     65  O   UNL A   1      45.017  37.092  33.955  1.00  0.00    -0.237 OA
ATOM     66  O   UNL A   1      42.568  37.150  34.282  1.00  0.00    -0.237 OA
ATOM     67  O   UNL A   1      44.018  36.121  35.991  1.00  0.00    -0.744 OA
ENDBRANCH  63  64
ENDBRANCH  44  58
BRANCH  45  68
ATOM     68  C   UNL A   1      42.610  23.651  27.887  1.00  0.00    -0.014 A 
ATOM     69  C   UNL A   1      42.070  22.565  28.599  1.00  0.00     0.010 A 
ATOM     70  C   UNL A   1      43.066  23.443  26.572  1.00  0.00     0.010 A 
ATOM     71  C   UNL A   1      42.006  21.295  28.013  1.00  0.00     0.020 A 
ATOM     72  C   UNL A   1      42.977  22.184  25.973  1.00  0.00     0.020 A 
ATOM     73  C   UNL A   1      42.461  21.115  26.703  1.00  0.00     0.054 A 
BRANCH  73  74
ATOM     74  S   UNL A   1      42.341  19.469  25.947  1.00  0.00     0.124 S 
ATOM     75  O   UNL A   1      42.853  18.610  27.010  1.00  0.00    -0.237 OA
ATOM     76  O   UNL A   1      40.911  19.351  25.669  1.00  0.00    -0.237 OA
ATOM     77  O   UNL A   1      43.191  19.576  24.763  1.00  0.00    -0.744 OA
ENDBRANCH  73  74
ENDBRANCH  45  68
BRANCH  57  78
ATOM     78  C   UNL A   1      48.022  27.087  30.648  1.00  0.00    -0.014 A 
ATOM     79  C   UNL A   1      48.939  27.423  29.635  1.00  0.00     0.010 A 
ATOM     80  C   UNL A   1      48.501  26.498  31.833  1.00  0.00     0.010 A 
ATOM     81  C   UNL A   1      50.302  27.155  29.795  1.00  0.00     0.020 A 
ATOM     82  C   UNL A   1      49.866  26.253  32.008  1.00  0.00     0.020 A 
ATOM     83  C   UNL A   1      50.758  26.574  30.983  1.00  0.00     0.054 A 
BRANCH  83  84
ATOM     84  S   UNL A   1      52.539  26.290  31.191  1.00  0.00     0.124 S 
ATOM     85  O   UNL A   1      53.022  26.369  29.816  1.00  0.00    -0.237 OA
ATOM     86  O   UNL A   1      52.940  27.392  32.063  1.00  0.00    -0.237 OA
ATOM     87  O   UNL A   1      52.609  24.964  31.802  1.00  0.00    -0.744 OA
ENDBRANCH  83  84
ENDBRANCH  57  78
ENDBRANCH  31  32
ENDBRANCH  24  26
ENDBRANCH  23  24
ENDBRANCH  22  23
ENDBRANCH   1  22
TORSDOF 18
ENDMDL
