MODEL 1
REMARK VINA RESULT:     -11.1      0.000      0.000
REMARK SMILES Cc1cc(NC(=O)[C@@H]2CCC[C@@H](C(=O)OCCOC(=O)c3ccc(-c4c5nc(c(-c6ccc(S(=O)(=O)[O-])cc6)c6ccc([nH]6)c(-c6ccc(S(=O)(=O)[O-])cc6)c6nc(c(-c7ccc(S(=O)(=O)[O-])cc7)c7ccc4[nH]7)C=C6)C=C5)cc3)C2)ncc1Br
REMARK SMILES IDX 17 1 16 2 15 3 13 4 14 5 12 6 8 7 9 8 81 9 10 10 11 11 6 12
REMARK SMILES IDX 5 13 7 15 4 16 1 17 2 18 3 19 84 20 83 21 85 22 82 23 18 24
REMARK SMILES IDX 19 25 20 26 21 27 22 28 80 29 23 30 79 31 24 32 25 33 26 34
REMARK SMILES IDX 73 35 27 36 78 37 72 38 74 39 28 40 77 41 71 42 70 43 29 45
REMARK SMILES IDX 59 46 40 47 58 48 41 49 44 50 57 51 75 52 42 53 43 54 56 56
REMARK SMILES IDX 76 57 45 58 30 59 31 60 39 61 32 62 38 63 33 64 34 65 35 66
REMARK SMILES IDX 36 67 37 68 60 69 61 70 69 71 62 72 68 73 63 74 64 75 65 76
REMARK SMILES IDX 66 77 67 78 46 79 47 80 55 81 48 82 54 83 49 84 50 85 51 86
REMARK SMILES IDX 52 87 53 88
REMARK H PARENT 5 14 74 44 44 55
REMARK Flexibility Score: inf
ROOT
ATOM      1  C   UNL A   1      44.933  24.774  26.143  1.00  0.00     0.275 C 
ENDROOT
BRANCH   1   2
ATOM      2  C   UNL A   1      45.783  24.371  24.943  1.00  0.00     0.274 C 
BRANCH   2   3
ATOM      3  O   UNL A   1      45.021  23.566  24.019  1.00  0.00    -0.462 OA
BRANCH   3   4
ATOM      4  C   UNL A   1      44.268  22.573  24.564  1.00  0.00     0.309 C 
ATOM      5  O   UNL A   1      43.043  22.570  24.602  1.00  0.00    -0.252 OA
BRANCH   4   6
ATOM      6  C   UNL A   1      45.105  21.440  25.150  1.00  0.00     0.100 C 
ATOM      7  C   UNL A   1      43.468  19.512  25.490  1.00  0.00     0.080 C 
ATOM      8  C   UNL A   1      44.369  18.626  24.622  1.00  0.00     0.013 C 
ATOM      9  C   UNL A   1      44.347  20.572  26.167  1.00  0.00     0.028 C 
ATOM     10  C   UNL A   1      45.010  19.453  23.516  1.00  0.00     0.002 C 
ATOM     11  C   UNL A   1      45.828  20.616  24.077  1.00  0.00     0.015 C 
BRANCH   7  12
ATOM     12  C   UNL A   1      42.699  18.650  26.489  1.00  0.00     0.228 C 
ATOM     13  N   UNL A   1      41.567  19.113  27.104  1.00  0.00    -0.310 N 
ATOM     14  H   UNL A   1      41.116  18.462  27.686  1.00  0.00     0.171 HD
ATOM     15  O   UNL A   1      43.056  17.495  26.741  1.00  0.00    -0.274 OA
BRANCH  13  16
ATOM     16  C   UNL A   1      40.953  20.368  27.033  1.00  0.00     0.132 A 
ATOM     17  C   UNL A   1      38.028  21.909  25.165  1.00  0.00     0.046 C 
ATOM     18  C   UNL A   1      39.204  21.759  26.087  1.00  0.00    -0.032 A 
ATOM     19  C   UNL A   1      39.865  20.518  26.176  1.00  0.00     0.051 A 
ATOM     20  C   UNL A   1      39.650  22.800  26.903  1.00  0.00     0.039 A 
ATOM     21  C   UNL A   1      40.745  22.567  27.716  1.00  0.00     0.129 A 
ATOM     22  Br  UNL A   1      38.831  24.504  26.956  1.00  0.00    -0.049 Br
ATOM     23  N   UNL A   1      41.408  21.392  27.773  1.00  0.00    -0.238 NA
ENDBRANCH  13  16
ENDBRANCH   7  12
ENDBRANCH   4   6
ENDBRANCH   3   4
ENDBRANCH   2   3
ENDBRANCH   1   2
BRANCH   1  24
ATOM     24  O   UNL A   1      44.629  26.170  26.039  1.00  0.00    -0.458 OA
BRANCH  24  25
ATOM     25  C   UNL A   1      43.330  26.484  25.854  1.00  0.00     0.338 C 
ATOM     26  O   UNL A   1      42.668  26.337  24.836  1.00  0.00    -0.246 OA
BRANCH  25  27
ATOM     27  C   UNL A   1      42.817  27.109  27.084  1.00  0.00     0.060 A 
ATOM     28  C   UNL A   1      43.113  28.447  27.331  1.00  0.00     0.016 A 
ATOM     29  C   UNL A   1      42.022  26.389  27.978  1.00  0.00     0.016 A 
ATOM     30  C   UNL A   1      42.648  29.042  28.503  1.00  0.00     0.010 A 
ATOM     31  C   UNL A   1      41.468  27.016  29.090  1.00  0.00     0.010 A 
ATOM     32  C   UNL A   1      41.810  28.338  29.389  1.00  0.00    -0.014 A 
BRANCH  32  33
ATOM     33  C   UNL A   1      41.331  28.988  30.634  1.00  0.00     0.031 A 
ATOM     34  C   UNL A   1      42.120  28.871  31.912  1.00  0.00     0.074 A 
ATOM     35  C   UNL A   1      40.200  29.720  30.600  1.00  0.00     0.049 A 
ATOM     36  N   UNL A   1      41.933  29.492  33.048  1.00  0.00    -0.248 NA
ATOM     37  C   UNL A   1      43.255  27.933  31.929  1.00  0.00     0.031 C 
ATOM     38  C   UNL A   1      39.321  29.851  29.435  1.00  0.00     0.029 A 
ATOM     39  N   UNL A   1      39.614  30.519  31.550  1.00  0.00    -0.354 N 
ATOM     40  C   UNL A   1      42.925  29.027  33.904  1.00  0.00     0.074 A 
ATOM     41  C   UNL A   1      43.669  28.020  33.185  1.00  0.00     0.031 C 
ATOM     42  C   UNL A   1      38.355  30.740  29.712  1.00  0.00     0.029 A 
ATOM     43  C   UNL A   1      38.524  31.217  31.083  1.00  0.00     0.049 A 
ATOM     44  H   UNL A   1      39.941  30.586  32.476  1.00  0.00     0.167 HD
ATOM     45  C   UNL A   1      43.214  29.431  35.163  1.00  0.00     0.031 A 
ATOM     46  C   UNL A   1      37.762  32.158  31.677  1.00  0.00     0.031 A 
ATOM     47  C   UNL A   1      42.478  30.449  35.863  1.00  0.00     0.049 A 
ATOM     48  C   UNL A   1      38.106  32.602  33.070  1.00  0.00     0.074 A 
ATOM     49  C   UNL A   1      42.720  30.965  37.122  1.00  0.00     0.029 A 
ATOM     50  N   UNL A   1      41.366  31.109  35.362  1.00  0.00    -0.354 N 
ATOM     51  N   UNL A   1      39.096  32.204  33.835  1.00  0.00    -0.248 NA
ATOM     52  C   UNL A   1      37.250  33.628  33.678  1.00  0.00     0.031 C 
ATOM     53  C   UNL A   1      41.722  31.899  37.407  1.00  0.00     0.029 A 
ATOM     54  C   UNL A   1      40.897  32.013  36.298  1.00  0.00     0.049 A 
ATOM     55  H   UNL A   1      40.969  30.957  34.475  1.00  0.00     0.167 HD
ATOM     56  C   UNL A   1      38.988  32.941  35.009  1.00  0.00     0.074 A 
ATOM     57  C   UNL A   1      37.850  33.822  34.846  1.00  0.00     0.031 C 
ATOM     58  C   UNL A   1      39.762  32.886  36.120  1.00  0.00     0.031 A 
BRANCH  45  59
ATOM     59  C   UNL A   1      44.397  28.807  35.858  1.00  0.00    -0.014 A 
ATOM     60  C   UNL A   1      44.217  27.695  36.700  1.00  0.00     0.010 A 
ATOM     61  C   UNL A   1      45.674  29.390  35.761  1.00  0.00     0.010 A 
ATOM     62  C   UNL A   1      45.283  27.193  37.451  1.00  0.00     0.020 A 
ATOM     63  C   UNL A   1      46.749  28.874  36.487  1.00  0.00     0.020 A 
ATOM     64  C   UNL A   1      46.542  27.792  37.347  1.00  0.00     0.054 A 
BRANCH  64  65
ATOM     65  S   UNL A   1      47.911  27.145  38.346  1.00  0.00     0.124 S 
ATOM     66  O   UNL A   1      47.665  27.763  39.644  1.00  0.00    -0.237 OA
ATOM     67  O   UNL A   1      47.699  25.700  38.283  1.00  0.00    -0.237 OA
ATOM     68  O   UNL A   1      49.101  27.619  37.642  1.00  0.00    -0.744 OA
ENDBRANCH  64  65
ENDBRANCH  45  59
BRANCH  46  69
ATOM     69  C   UNL A   1      36.653  32.784  30.903  1.00  0.00    -0.014 A 
ATOM     70  C   UNL A   1      36.932  33.691  29.863  1.00  0.00     0.010 A 
ATOM     71  C   UNL A   1      35.315  32.559  31.270  1.00  0.00     0.010 A 
ATOM     72  C   UNL A   1      35.900  34.403  29.245  1.00  0.00     0.020 A 
ATOM     73  C   UNL A   1      34.277  33.249  30.634  1.00  0.00     0.020 A 
ATOM     74  C   UNL A   1      34.579  34.190  29.648  1.00  0.00     0.054 A 
BRANCH  74  75
ATOM     75  S   UNL A   1      33.262  35.175  28.881  1.00  0.00     0.124 S 
ATOM     76  O   UNL A   1      34.026  36.230  28.218  1.00  0.00    -0.237 OA
ATOM     77  O   UNL A   1      32.618  34.211  27.991  1.00  0.00    -0.237 OA
ATOM     78  O   UNL A   1      32.454  35.608  30.016  1.00  0.00    -0.744 OA
ENDBRANCH  74  75
ENDBRANCH  46  69
BRANCH  58  79
ATOM     79  C   UNL A   1      39.422  33.793  37.273  1.00  0.00    -0.014 A 
ATOM     80  C   UNL A   1      39.955  35.094  37.316  1.00  0.00     0.010 A 
ATOM     81  C   UNL A   1      38.716  33.302  38.384  1.00  0.00     0.010 A 
ATOM     82  C   UNL A   1      39.830  35.873  38.468  1.00  0.00     0.020 A 
ATOM     83  C   UNL A   1      38.565  34.089  39.529  1.00  0.00     0.020 A 
ATOM     84  C   UNL A   1      39.148  35.358  39.573  1.00  0.00     0.054 A 
BRANCH  84  85
ATOM     85  S   UNL A   1      39.045  36.360  41.081  1.00  0.00     0.124 S 
ATOM     86  O   UNL A   1      38.735  37.684  40.552  1.00  0.00    -0.237 OA
ATOM     87  O   UNL A   1      37.968  35.711  41.826  1.00  0.00    -0.237 OA
ATOM     88  O   UNL A   1      40.374  36.219  41.676  1.00  0.00    -0.744 OA
ENDBRANCH  84  85
ENDBRANCH  58  79
ENDBRANCH  32  33
ENDBRANCH  25  27
ENDBRANCH  24  25
ENDBRANCH   1  24
TORSDOF 16
ENDMDL
MODEL 2
REMARK VINA RESULT:     -11.0      5.328     11.352
REMARK SMILES Cc1cc(NC(=O)[C@@H]2CCC[C@@H](C(=O)OCCOC(=O)c3ccc(-c4c5nc(c(-c6ccc(S(=O)(=O)[O-])cc6)c6ccc([nH]6)c(-c6ccc(S(=O)(=O)[O-])cc6)c6nc(c(-c7ccc(S(=O)(=O)[O-])cc7)c7ccc4[nH]7)C=C6)C=C5)cc3)C2)ncc1Br
REMARK SMILES IDX 17 1 16 2 15 3 13 4 14 5 12 6 8 7 9 8 81 9 10 10 11 11 6 12
REMARK SMILES IDX 5 13 7 15 4 16 1 17 2 18 3 19 84 20 83 21 85 22 82 23 18 24
REMARK SMILES IDX 19 25 20 26 21 27 22 28 80 29 23 30 79 31 24 32 25 33 26 34
REMARK SMILES IDX 73 35 27 36 78 37 72 38 74 39 28 40 77 41 71 42 70 43 29 45
REMARK SMILES IDX 59 46 40 47 58 48 41 49 44 50 57 51 75 52 42 53 43 54 56 56
REMARK SMILES IDX 76 57 45 58 30 59 31 60 39 61 32 62 38 63 33 64 34 65 35 66
REMARK SMILES IDX 36 67 37 68 60 69 61 70 69 71 62 72 68 73 63 74 64 75 65 76
REMARK SMILES IDX 66 77 67 78 46 79 47 80 55 81 48 82 54 83 49 84 50 85 51 86
REMARK SMILES IDX 52 87 53 88
REMARK H PARENT 5 14 74 44 44 55
REMARK Flexibility Score: inf
ROOT
ATOM      1  C   UNL A   1      32.945  29.931  26.277  1.00  0.00     0.275 C 
ENDROOT
BRANCH   1   2
ATOM      2  C   UNL A   1      31.773  29.152  26.862  1.00  0.00     0.274 C 
BRANCH   2   3
ATOM      3  O   UNL A   1      32.164  27.802  27.190  1.00  0.00    -0.462 OA
BRANCH   3   4
ATOM      4  C   UNL A   1      31.623  26.815  26.427  1.00  0.00     0.309 C 
ATOM      5  O   UNL A   1      31.471  25.656  26.794  1.00  0.00    -0.252 OA
BRANCH   4   6
ATOM      6  C   UNL A   1      31.221  27.290  25.034  1.00  0.00     0.100 C 
ATOM      7  C   UNL A   1      32.295  25.622  23.429  1.00  0.00     0.080 C 
ATOM      8  C   UNL A   1      30.910  25.339  22.834  1.00  0.00     0.013 C 
ATOM      9  C   UNL A   1      32.301  27.060  23.965  1.00  0.00     0.028 C 
ATOM     10  C   UNL A   1      29.846  25.419  23.921  1.00  0.00     0.002 C 
ATOM     11  C   UNL A   1      29.837  26.784  24.608  1.00  0.00     0.015 C 
BRANCH   7  12
ATOM     12  C   UNL A   1      33.372  25.375  22.374  1.00  0.00     0.228 C 
ATOM     13  N   UNL A   1      33.913  24.132  22.189  1.00  0.00    -0.310 N 
ATOM     14  H   UNL A   1      34.558  24.066  21.449  1.00  0.00     0.171 HD
ATOM     15  O   UNL A   1      33.758  26.284  21.633  1.00  0.00    -0.274 OA
BRANCH  13  16
ATOM     16  C   UNL A   1      33.692  22.940  22.887  1.00  0.00     0.132 A 
ATOM     17  C   UNL A   1      35.398  21.023  25.685  1.00  0.00     0.046 C 
ATOM     18  C   UNL A   1      34.412  21.399  24.617  1.00  0.00    -0.032 A 
ATOM     19  C   UNL A   1      34.605  22.580  23.876  1.00  0.00     0.051 A 
ATOM     20  C   UNL A   1      33.271  20.638  24.354  1.00  0.00     0.039 A 
ATOM     21  C   UNL A   1      32.423  21.063  23.347  1.00  0.00     0.129 A 
ATOM     22  Br  UNL A   1      32.828  19.064  25.305  1.00  0.00    -0.049 Br
ATOM     23  N   UNL A   1      32.627  22.172  22.605  1.00  0.00    -0.238 NA
ENDBRANCH  13  16
ENDBRANCH   7  12
ENDBRANCH   4   6
ENDBRANCH   3   4
ENDBRANCH   2   3
ENDBRANCH   1   2
BRANCH   1  24
ATOM     24  O   UNL A   1      34.139  29.551  26.973  1.00  0.00    -0.458 OA
BRANCH  24  25
ATOM     25  C   UNL A   1      34.633  30.454  27.845  1.00  0.00     0.338 C 
ATOM     26  O   UNL A   1      34.084  31.468  28.255  1.00  0.00    -0.246 OA
BRANCH  25  27
ATOM     27  C   UNL A   1      36.005  30.062  28.202  1.00  0.00     0.060 A 
ATOM     28  C   UNL A   1      37.014  30.208  27.254  1.00  0.00     0.016 A 
ATOM     29  C   UNL A   1      36.305  29.578  29.478  1.00  0.00     0.016 A 
ATOM     30  C   UNL A   1      38.313  29.820  27.577  1.00  0.00     0.010 A 
ATOM     31  C   UNL A   1      37.621  29.298  29.833  1.00  0.00     0.010 A 
ATOM     32  C   UNL A   1      38.634  29.372  28.873  1.00  0.00    -0.014 A 
BRANCH  32  33
ATOM     33  C   UNL A   1      40.023  28.959  29.196  1.00  0.00     0.031 A 
ATOM     34  C   UNL A   1      40.898  29.827  30.063  1.00  0.00     0.074 A 
ATOM     35  C   UNL A   1      40.480  27.777  28.738  1.00  0.00     0.049 A 
ATOM     36  N   UNL A   1      42.075  29.556  30.567  1.00  0.00    -0.248 NA
ATOM     37  C   UNL A   1      40.404  31.173  30.400  1.00  0.00     0.031 C 
ATOM     38  C   UNL A   1      39.744  26.885  27.839  1.00  0.00     0.029 A 
ATOM     39  N   UNL A   1      41.650  27.104  28.990  1.00  0.00    -0.354 N 
ATOM     40  C   UNL A   1      42.452  30.687  31.281  1.00  0.00     0.074 A 
ATOM     41  C   UNL A   1      41.418  31.676  31.089  1.00  0.00     0.031 C 
ATOM     42  C   UNL A   1      40.442  25.750  27.679  1.00  0.00     0.029 A 
ATOM     43  C   UNL A   1      41.689  25.846  28.434  1.00  0.00     0.049 A 
ATOM     44  H   UNL A   1      42.389  27.485  29.517  1.00  0.00     0.167 HD
ATOM     45  C   UNL A   1      43.544  30.872  32.058  1.00  0.00     0.031 A 
ATOM     46  C   UNL A   1      42.609  24.866  28.541  1.00  0.00     0.031 A 
ATOM     47  C   UNL A   1      44.559  29.873  32.258  1.00  0.00     0.049 A 
ATOM     48  C   UNL A   1      43.808  25.085  29.419  1.00  0.00     0.074 A 
ATOM     49  C   UNL A   1      45.680  29.942  33.064  1.00  0.00     0.029 A 
ATOM     50  N   UNL A   1      44.572  28.624  31.655  1.00  0.00    -0.354 N 
ATOM     51  N   UNL A   1      44.109  26.134  30.148  1.00  0.00    -0.248 NA
ATOM     52  C   UNL A   1      44.783  23.991  29.507  1.00  0.00     0.031 C 
ATOM     53  C   UNL A   1      46.401  28.757  32.907  1.00  0.00     0.029 A 
ATOM     54  C   UNL A   1      45.695  27.922  32.055  1.00  0.00     0.049 A 
ATOM     55  H   UNL A   1      43.886  28.288  31.034  1.00  0.00     0.167 HD
ATOM     56  C   UNL A   1      45.301  25.821  30.790  1.00  0.00     0.074 A 
ATOM     57  C   UNL A   1      45.657  24.478  30.380  1.00  0.00     0.031 C 
ATOM     58  C   UNL A   1      46.034  26.583  31.638  1.00  0.00     0.031 A 
BRANCH  45  59
ATOM     59  C   UNL A   1      43.687  32.183  32.787  1.00  0.00    -0.014 A 
ATOM     60  C   UNL A   1      43.121  32.348  34.064  1.00  0.00     0.010 A 
ATOM     61  C   UNL A   1      44.292  33.289  32.161  1.00  0.00     0.010 A 
ATOM     62  C   UNL A   1      43.133  33.597  34.690  1.00  0.00     0.020 A 
ATOM     63  C   UNL A   1      44.332  34.533  32.794  1.00  0.00     0.020 A 
ATOM     64  C   UNL A   1      43.731  34.685  34.046  1.00  0.00     0.054 A 
BRANCH  64  65
ATOM     65  S   UNL A   1      43.718  36.306  34.861  1.00  0.00     0.124 S 
ATOM     66  O   UNL A   1      44.976  36.889  34.409  1.00  0.00    -0.237 OA
ATOM     67  O   UNL A   1      42.507  36.925  34.325  1.00  0.00    -0.237 OA
ATOM     68  O   UNL A   1      43.657  35.973  36.283  1.00  0.00    -0.744 OA
ENDBRANCH  64  65
ENDBRANCH  45  59
BRANCH  46  69
ATOM     69  C   UNL A   1      42.365  23.568  27.852  1.00  0.00    -0.014 A 
ATOM     70  C   UNL A   1      41.593  22.566  28.469  1.00  0.00     0.010 A 
ATOM     71  C   UNL A   1      42.990  23.287  26.624  1.00  0.00     0.010 A 
ATOM     72  C   UNL A   1      41.497  21.291  27.902  1.00  0.00     0.020 A 
ATOM     73  C   UNL A   1      42.872  22.022  26.038  1.00  0.00     0.020 A 
ATOM     74  C   UNL A   1      42.153  21.023  26.697  1.00  0.00     0.054 A 
BRANCH  74  75
ATOM     75  S   UNL A   1      42.073  19.344  26.014  1.00  0.00     0.124 S 
ATOM     76  O   UNL A   1      40.645  19.200  25.741  1.00  0.00    -0.237 OA
ATOM     77  O   UNL A   1      42.932  19.435  24.836  1.00  0.00    -0.237 OA
ATOM     78  O   UNL A   1      42.589  18.509  27.095  1.00  0.00    -0.744 OA
ENDBRANCH  74  75
ENDBRANCH  46  69
BRANCH  58  79
ATOM     79  C   UNL A   1      47.309  26.007  32.194  1.00  0.00    -0.014 A 
ATOM     80  C   UNL A   1      48.486  26.047  31.423  1.00  0.00     0.010 A 
ATOM     81  C   UNL A   1      47.302  25.286  33.400  1.00  0.00     0.010 A 
ATOM     82  C   UNL A   1      49.619  25.337  31.823  1.00  0.00     0.020 A 
ATOM     83  C   UNL A   1      48.443  24.597  33.818  1.00  0.00     0.020 A 
ATOM     84  C   UNL A   1      49.585  24.603  33.012  1.00  0.00     0.054 A 
BRANCH  84  85
ATOM     85  S   UNL A   1      51.046  23.640  33.487  1.00  0.00     0.124 S 
ATOM     86  O   UNL A   1      50.566  22.910  34.657  1.00  0.00    -0.237 OA
ATOM     87  O   UNL A   1      51.297  22.828  32.298  1.00  0.00    -0.237 OA
ATOM     88  O   UNL A   1      52.056  24.662  33.758  1.00  0.00    -0.744 OA
ENDBRANCH  84  85
ENDBRANCH  58  79
ENDBRANCH  32  33
ENDBRANCH  25  27
ENDBRANCH  24  25
ENDBRANCH   1  24
TORSDOF 16
ENDMDL
MODEL 3
REMARK VINA RESULT:     -10.9      5.012     11.117
REMARK SMILES Cc1cc(NC(=O)[C@@H]2CCC[C@@H](C(=O)OCCOC(=O)c3ccc(-c4c5nc(c(-c6ccc(S(=O)(=O)[O-])cc6)c6ccc([nH]6)c(-c6ccc(S(=O)(=O)[O-])cc6)c6nc(c(-c7ccc(S(=O)(=O)[O-])cc7)c7ccc4[nH]7)C=C6)C=C5)cc3)C2)ncc1Br
REMARK SMILES IDX 17 1 16 2 15 3 13 4 14 5 12 6 8 7 9 8 81 9 10 10 11 11 6 12
REMARK SMILES IDX 5 13 7 15 4 16 1 17 2 18 3 19 84 20 83 21 85 22 82 23 18 24
REMARK SMILES IDX 19 25 20 26 21 27 22 28 80 29 23 30 79 31 24 32 25 33 26 34
REMARK SMILES IDX 73 35 27 36 78 37 72 38 74 39 28 40 77 41 71 42 70 43 29 45
REMARK SMILES IDX 59 46 40 47 58 48 41 49 44 50 57 51 75 52 42 53 43 54 56 56
REMARK SMILES IDX 76 57 45 58 30 59 31 60 39 61 32 62 38 63 33 64 34 65 35 66
REMARK SMILES IDX 36 67 37 68 60 69 61 70 69 71 62 72 68 73 63 74 64 75 65 76
REMARK SMILES IDX 66 77 67 78 46 79 47 80 55 81 48 82 54 83 49 84 50 85 51 86
REMARK SMILES IDX 52 87 53 88
REMARK H PARENT 5 14 74 44 44 55
REMARK Flexibility Score: inf
ROOT
ATOM      1  C   UNL A   1      32.582  29.814  26.694  1.00  0.00     0.275 C 
ENDROOT
BRANCH   1   2
ATOM      2  C   UNL A   1      32.347  29.177  25.330  1.00  0.00     0.274 C 
BRANCH   2   3
ATOM      3  O   UNL A   1      31.714  27.887  25.466  1.00  0.00    -0.462 OA
BRANCH   3   4
ATOM      4  C   UNL A   1      31.609  27.145  24.332  1.00  0.00     0.309 C 
ATOM      5  O   UNL A   1      30.861  27.403  23.397  1.00  0.00    -0.252 OA
BRANCH   4   6
ATOM      6  C   UNL A   1      32.524  25.923  24.331  1.00  0.00     0.100 C 
ATOM      7  C   UNL A   1      31.196  24.098  25.522  1.00  0.00     0.080 C 
ATOM      8  C   UNL A   1      31.367  23.203  24.289  1.00  0.00     0.013 C 
ATOM      9  C   UNL A   1      32.396  25.053  25.591  1.00  0.00     0.028 C 
ATOM     10  C   UNL A   1      31.346  24.046  23.021  1.00  0.00     0.002 C 
ATOM     11  C   UNL A   1      32.439  25.114  23.030  1.00  0.00     0.015 C 
BRANCH   7  12
ATOM     12  C   UNL A   1      31.049  23.235  26.774  1.00  0.00     0.228 C 
ATOM     13  N   UNL A   1      32.048  22.392  27.176  1.00  0.00    -0.310 N 
ATOM     14  H   UNL A   1      31.879  21.922  28.023  1.00  0.00     0.171 HD
ATOM     15  O   UNL A   1      30.037  23.303  27.479  1.00  0.00    -0.274 OA
BRANCH  13  16
ATOM     16  C   UNL A   1      33.273  22.094  26.570  1.00  0.00     0.132 A 
ATOM     17  C   UNL A   1      36.678  23.747  26.269  1.00  0.00     0.046 C 
ATOM     18  C   UNL A   1      35.566  22.749  26.120  1.00  0.00    -0.032 A 
ATOM     19  C   UNL A   1      34.310  23.016  26.698  1.00  0.00     0.051 A 
ATOM     20  C   UNL A   1      35.740  21.531  25.462  1.00  0.00     0.039 A 
ATOM     21  C   UNL A   1      34.654  20.678  25.372  1.00  0.00     0.129 A 
ATOM     22  Br  UNL A   1      37.381  20.988  24.693  1.00  0.00    -0.049 Br
ATOM     23  N   UNL A   1      33.436  20.950  25.888  1.00  0.00    -0.238 NA
ENDBRANCH  13  16
ENDBRANCH   7  12
ENDBRANCH   4   6
ENDBRANCH   3   4
ENDBRANCH   2   3
ENDBRANCH   1   2
BRANCH   1  24
ATOM     24  O   UNL A   1      33.945  29.589  27.075  1.00  0.00    -0.458 OA
BRANCH  24  25
ATOM     25  C   UNL A   1      34.488  30.500  27.910  1.00  0.00     0.338 C 
ATOM     26  O   UNL A   1      33.973  31.530  28.320  1.00  0.00    -0.246 OA
BRANCH  25  27
ATOM     27  C   UNL A   1      35.866  30.090  28.220  1.00  0.00     0.060 A 
ATOM     28  C   UNL A   1      36.149  29.587  29.488  1.00  0.00     0.016 A 
ATOM     29  C   UNL A   1      36.875  30.171  27.257  1.00  0.00     0.016 A 
ATOM     30  C   UNL A   1      37.456  29.215  29.798  1.00  0.00     0.010 A 
ATOM     31  C   UNL A   1      38.153  29.695  27.534  1.00  0.00     0.010 A 
ATOM     32  C   UNL A   1      38.470  29.252  28.821  1.00  0.00    -0.014 A 
BRANCH  32  33
ATOM     33  C   UNL A   1      39.856  28.856  29.172  1.00  0.00     0.031 A 
ATOM     34  C   UNL A   1      40.697  29.728  30.069  1.00  0.00     0.074 A 
ATOM     35  C   UNL A   1      40.342  27.685  28.714  1.00  0.00     0.049 A 
ATOM     36  N   UNL A   1      41.866  29.468  30.598  1.00  0.00    -0.248 NA
ATOM     37  C   UNL A   1      40.176  31.063  30.406  1.00  0.00     0.031 C 
ATOM     38  C   UNL A   1      39.640  26.791  27.789  1.00  0.00     0.029 A 
ATOM     39  N   UNL A   1      41.515  27.026  28.988  1.00  0.00    -0.354 N 
ATOM     40  C   UNL A   1      42.209  30.598  31.332  1.00  0.00     0.074 A 
ATOM     41  C   UNL A   1      41.166  31.573  31.125  1.00  0.00     0.031 C 
ATOM     42  C   UNL A   1      40.358  25.668  27.636  1.00  0.00     0.029 A 
ATOM     43  C   UNL A   1      41.586  25.775  28.421  1.00  0.00     0.049 A 
ATOM     44  H   UNL A   1      42.235  27.413  29.536  1.00  0.00     0.167 HD
ATOM     45  C   UNL A   1      43.280  30.791  32.137  1.00  0.00     0.031 A 
ATOM     46  C   UNL A   1      42.516  24.807  28.541  1.00  0.00     0.031 A 
ATOM     47  C   UNL A   1      44.304  29.805  32.351  1.00  0.00     0.049 A 
ATOM     48  C   UNL A   1      43.691  25.034  29.450  1.00  0.00     0.074 A 
ATOM     49  C   UNL A   1      45.404  29.882  33.185  1.00  0.00     0.029 A 
ATOM     50  N   UNL A   1      44.350  28.562  31.737  1.00  0.00    -0.354 N 
ATOM     51  N   UNL A   1      43.959  26.081  30.195  1.00  0.00    -0.248 NA
ATOM     52  C   UNL A   1      44.680  23.954  29.551  1.00  0.00     0.031 C 
ATOM     53  C   UNL A   1      46.146  28.709  33.034  1.00  0.00     0.029 A 
ATOM     54  C   UNL A   1      45.473  27.872  32.157  1.00  0.00     0.049 A 
ATOM     55  H   UNL A   1      43.684  28.223  31.097  1.00  0.00     0.167 HD
ATOM     56  C   UNL A   1      45.140  25.779  30.863  1.00  0.00     0.074 A 
ATOM     57  C   UNL A   1      45.525  24.445  30.449  1.00  0.00     0.031 C 
ATOM     58  C   UNL A   1      45.841  26.543  31.736  1.00  0.00     0.031 A 
BRANCH  45  59
ATOM     59  C   UNL A   1      43.386  32.097  32.881  1.00  0.00    -0.014 A 
ATOM     60  C   UNL A   1      42.738  32.260  34.118  1.00  0.00     0.010 A 
ATOM     61  C   UNL A   1      44.042  33.200  32.303  1.00  0.00     0.010 A 
ATOM     62  C   UNL A   1      42.719  33.506  34.751  1.00  0.00     0.020 A 
ATOM     63  C   UNL A   1      44.051  34.440  32.945  1.00  0.00     0.020 A 
ATOM     64  C   UNL A   1      43.369  34.591  34.156  1.00  0.00     0.054 A 
BRANCH  64  65
ATOM     65  S   UNL A   1      43.317  36.208  34.977  1.00  0.00     0.124 S 
ATOM     66  O   UNL A   1      42.709  35.882  36.262  1.00  0.00    -0.237 OA
ATOM     67  O   UNL A   1      44.728  36.590  35.024  1.00  0.00    -0.237 OA
ATOM     68  O   UNL A   1      42.494  37.019  34.082  1.00  0.00    -0.744 OA
ENDBRANCH  64  65
ENDBRANCH  45  59
BRANCH  46  69
ATOM     69  C   UNL A   1      42.309  23.512  27.834  1.00  0.00    -0.014 A 
ATOM     70  C   UNL A   1      41.468  22.525  28.384  1.00  0.00     0.010 A 
ATOM     71  C   UNL A   1      43.030  23.218  26.663  1.00  0.00     0.010 A 
ATOM     72  C   UNL A   1      41.398  21.252  27.810  1.00  0.00     0.020 A 
ATOM     73  C   UNL A   1      42.939  21.955  26.070  1.00  0.00     0.020 A 
ATOM     74  C   UNL A   1      42.149  20.970  26.666  1.00  0.00     0.054 A 
BRANCH  74  75
ATOM     75  S   UNL A   1      42.096  19.291  25.979  1.00  0.00     0.124 S 
ATOM     76  O   UNL A   1      42.645  18.501  27.078  1.00  0.00    -0.237 OA
ATOM     77  O   UNL A   1      40.672  19.098  25.715  1.00  0.00    -0.237 OA
ATOM     78  O   UNL A   1      42.940  19.380  24.792  1.00  0.00    -0.744 OA
ENDBRANCH  74  75
ENDBRANCH  46  69
BRANCH  58  79
ATOM     79  C   UNL A   1      47.111  25.980  32.317  1.00  0.00    -0.014 A 
ATOM     80  C   UNL A   1      48.309  26.060  31.582  1.00  0.00     0.010 A 
ATOM     81  C   UNL A   1      47.083  25.232  33.506  1.00  0.00     0.010 A 
ATOM     82  C   UNL A   1      49.444  25.363  32.000  1.00  0.00     0.020 A 
ATOM     83  C   UNL A   1      48.226  24.556  33.943  1.00  0.00     0.020 A 
ATOM     84  C   UNL A   1      49.390  24.603  33.171  1.00  0.00     0.054 A 
BRANCH  84  85
ATOM     85  S   UNL A   1      50.856  23.658  33.669  1.00  0.00     0.124 S 
ATOM     86  O   UNL A   1      51.024  22.738  32.548  1.00  0.00    -0.237 OA
ATOM     87  O   UNL A   1      51.880  24.693  33.794  1.00  0.00    -0.237 OA
ATOM     88  O   UNL A   1      50.451  23.039  34.930  1.00  0.00    -0.744 OA
ENDBRANCH  84  85
ENDBRANCH  58  79
ENDBRANCH  32  33
ENDBRANCH  25  27
ENDBRANCH  24  25
ENDBRANCH   1  24
TORSDOF 16
ENDMDL
