MODEL 1
REMARK VINA RESULT:     -10.3      0.000      0.000
REMARK SMILES O=C(OCCOC(=O)c1ccc(COc2cccc(Cl)c2Cl)o1)c1ccc(-c2c3nc(c(-c4ccc(S(=O)(=O)[O-])cc4)c4ccc([nH]4)c(-c4ccc(S(=O)(=O)[O-])cc4)c4nc(c(-c5ccc(S(=O)(=O)[O-])cc5)c5ccc2[nH]5)C=C4)C=C3)cc1
REMARK SMILES IDX 4 1 3 2 2 3 1 4 24 5 25 6 83 7 26 8 82 9 27 10 28 11 29 12
REMARK SMILES IDX 76 13 30 14 81 15 75 16 77 17 31 18 80 19 74 20 73 21 32 23
REMARK SMILES IDX 62 24 43 25 61 26 44 27 47 28 60 29 78 30 45 31 46 32 59 34
REMARK SMILES IDX 79 35 48 36 33 37 34 38 42 39 35 40 41 41 36 42 37 43 38 44
REMARK SMILES IDX 39 45 40 46 63 47 64 48 72 49 65 50 71 51 66 52 67 53 68 54
REMARK SMILES IDX 69 55 70 56 49 57 50 58 58 59 51 60 57 61 52 62 53 63 54 64
REMARK SMILES IDX 55 65 56 66 5 67 6 68 7 69 8 70 9 71 10 72 23 73 11 74 12 75
REMARK SMILES IDX 13 76 14 77 15 78 16 79 21 80 17 81 19 82 22 83 18 84 20 85
REMARK H PARENT 77 22 47 33
REMARK Flexibility Score: inf
ROOT
ATOM      1  C   UNL A   1      44.633  23.827  26.606  1.00  0.00     0.275 C 
ENDROOT
BRANCH   1   2
ATOM      2  O   UNL A   1      44.047  24.895  25.841  1.00  0.00    -0.458 OA
BRANCH   2   3
ATOM      3  C   UNL A   1      42.839  25.488  26.000  1.00  0.00     0.338 C 
ATOM      4  O   UNL A   1      42.074  25.556  25.040  1.00  0.00    -0.246 OA
BRANCH   3   5
ATOM      5  C   UNL A   1      42.465  26.230  27.244  1.00  0.00     0.060 A 
ATOM      6  C   UNL A   1      41.376  25.942  28.071  1.00  0.00     0.016 A 
ATOM      7  C   UNL A   1      43.253  27.353  27.560  1.00  0.00     0.016 A 
ATOM      8  C   UNL A   1      41.107  26.716  29.206  1.00  0.00     0.010 A 
ATOM      9  C   UNL A   1      42.986  28.130  28.693  1.00  0.00     0.010 A 
ATOM     10  C   UNL A   1      41.905  27.817  29.526  1.00  0.00    -0.014 A 
BRANCH  10  11
ATOM     11  C   UNL A   1      41.541  28.697  30.659  1.00  0.00     0.031 A 
ATOM     12  C   UNL A   1      42.261  28.533  31.965  1.00  0.00     0.074 A 
ATOM     13  C   UNL A   1      40.596  29.648  30.524  1.00  0.00     0.049 A 
ATOM     14  N   UNL A   1      42.130  29.226  33.064  1.00  0.00    -0.248 NA
ATOM     15  C   UNL A   1      43.283  27.474  32.033  1.00  0.00     0.031 C 
ATOM     16  C   UNL A   1      39.891  29.959  29.285  1.00  0.00     0.029 A 
ATOM     17  N   UNL A   1      40.048  30.513  31.436  1.00  0.00    -0.354 N 
ATOM     18  C   UNL A   1      43.086  28.724  33.937  1.00  0.00     0.074 A 
ATOM     19  C   UNL A   1      43.739  27.621  33.268  1.00  0.00     0.031 C 
ATOM     20  C   UNL A   1      38.937  30.873  29.527  1.00  0.00     0.029 A 
ATOM     21  C   UNL A   1      38.994  31.245  30.936  1.00  0.00     0.049 A 
ATOM     22  H   UNL A   1      40.376  30.602  32.360  1.00  0.00     0.167 HD
ATOM     23  C   UNL A   1      43.416  29.171  35.170  1.00  0.00     0.031 A 
ATOM     24  C   UNL A   1      38.172  32.120  31.544  1.00  0.00     0.031 A 
ATOM     25  C   UNL A   1      42.736  30.244  35.841  1.00  0.00     0.049 A 
ATOM     26  C   UNL A   1      38.457  32.496  32.972  1.00  0.00     0.074 A 
ATOM     27  C   UNL A   1      42.994  30.782  37.088  1.00  0.00     0.029 A 
ATOM     28  N   UNL A   1      41.646  30.928  35.325  1.00  0.00    -0.354 N 
ATOM     29  N   UNL A   1      39.418  32.064  33.754  1.00  0.00    -0.248 NA
ATOM     30  C   UNL A   1      37.588  33.509  33.583  1.00  0.00     0.031 C 
ATOM     31  C   UNL A   1      42.030  31.763  37.346  1.00  0.00     0.029 A 
ATOM     32  C   UNL A   1      41.200  31.865  36.238  1.00  0.00     0.049 A 
ATOM     33  H   UNL A   1      41.249  30.771  34.438  1.00  0.00     0.167 HD
ATOM     34  C   UNL A   1      39.304  32.795  34.930  1.00  0.00     0.074 A 
ATOM     35  C   UNL A   1      38.172  33.686  34.760  1.00  0.00     0.031 C 
ATOM     36  C   UNL A   1      40.078  32.747  36.041  1.00  0.00     0.031 A 
BRANCH  23  37
ATOM     37  C   UNL A   1      44.566  28.491  35.856  1.00  0.00    -0.014 A 
ATOM     38  C   UNL A   1      44.343  27.378  36.689  1.00  0.00     0.010 A 
ATOM     39  C   UNL A   1      45.877  28.959  35.670  1.00  0.00     0.010 A 
ATOM     40  C   UNL A   1      45.409  26.770  37.356  1.00  0.00     0.020 A 
ATOM     41  C   UNL A   1      46.948  28.341  36.320  1.00  0.00     0.020 A 
ATOM     42  C   UNL A   1      46.704  27.260  37.172  1.00  0.00     0.054 A 
BRANCH  42  43
ATOM     43  S   UNL A   1      48.072  26.448  38.045  1.00  0.00     0.124 S 
ATOM     44  O   UNL A   1      47.408  25.956  39.251  1.00  0.00    -0.237 OA
ATOM     45  O   UNL A   1      48.493  25.421  37.097  1.00  0.00    -0.237 OA
ATOM     46  O   UNL A   1      49.034  27.526  38.260  1.00  0.00    -0.744 OA
ENDBRANCH  42  43
ENDBRANCH  23  37
BRANCH  24  47
ATOM     47  C   UNL A   1      37.019  32.710  30.811  1.00  0.00    -0.014 A 
ATOM     48  C   UNL A   1      37.183  33.832  29.980  1.00  0.00     0.010 A 
ATOM     49  C   UNL A   1      35.734  32.154  30.961  1.00  0.00     0.010 A 
ATOM     50  C   UNL A   1      36.081  34.406  29.339  1.00  0.00     0.020 A 
ATOM     51  C   UNL A   1      34.633  32.714  30.306  1.00  0.00     0.020 A 
ATOM     52  C   UNL A   1      34.811  33.846  29.510  1.00  0.00     0.054 A 
BRANCH  52  53
ATOM     53  S   UNL A   1      33.398  34.598  28.654  1.00  0.00     0.124 S 
ATOM     54  O   UNL A   1      32.956  33.512  27.786  1.00  0.00    -0.237 OA
ATOM     55  O   UNL A   1      32.503  34.933  29.758  1.00  0.00    -0.237 OA
ATOM     56  O   UNL A   1      33.988  35.748  27.970  1.00  0.00    -0.744 OA
ENDBRANCH  52  53
ENDBRANCH  24  47
BRANCH  36  57
ATOM     57  C   UNL A   1      39.760  33.721  37.140  1.00  0.00    -0.014 A 
ATOM     58  C   UNL A   1      39.005  33.334  38.259  1.00  0.00     0.010 A 
ATOM     59  C   UNL A   1      40.281  35.027  37.073  1.00  0.00     0.010 A 
ATOM     60  C   UNL A   1      38.757  34.246  39.287  1.00  0.00     0.020 A 
ATOM     61  C   UNL A   1      40.055  35.933  38.111  1.00  0.00     0.020 A 
ATOM     62  C   UNL A   1      39.284  35.539  39.206  1.00  0.00     0.054 A 
BRANCH  62  63
ATOM     63  S   UNL A   1      39.000  36.688  40.580  1.00  0.00     0.124 S 
ATOM     64  O   UNL A   1      38.491  37.868  39.888  1.00  0.00    -0.237 OA
ATOM     65  O   UNL A   1      38.026  35.973  41.403  1.00  0.00    -0.237 OA
ATOM     66  O   UNL A   1      40.323  36.838  41.182  1.00  0.00    -0.744 OA
ENDBRANCH  62  63
ENDBRANCH  36  57
ENDBRANCH  10  11
ENDBRANCH   3   5
ENDBRANCH   2   3
ENDBRANCH   1   2
BRANCH   1  67
ATOM     67  C   UNL A   1      45.852  23.184  25.940  1.00  0.00     0.275 C 
BRANCH  67  68
ATOM     68  O   UNL A   1      45.664  21.794  25.650  1.00  0.00    -0.456 OA
BRANCH  68  69
ATOM     69  C   UNL A   1      44.702  21.533  24.713  1.00  0.00     0.374 C 
ATOM     70  O   UNL A   1      44.667  22.031  23.595  1.00  0.00    -0.242 OA
BRANCH  69  71
ATOM     71  C   UNL A   1      43.792  20.543  25.221  1.00  0.00     0.211 A 
ATOM     72  C   UNL A   1      43.884  19.177  25.386  1.00  0.00     0.058 A 
ATOM     73  O   UNL A   1      42.558  20.966  25.631  1.00  0.00    -0.450 OA
ATOM     74  C   UNL A   1      42.640  18.742  25.911  1.00  0.00     0.050 A 
ATOM     75  C   UNL A   1      41.860  19.870  26.043  1.00  0.00     0.142 A 
BRANCH  75  76
ATOM     76  C   UNL A   1      40.506  20.117  26.604  1.00  0.00     0.304 C 
BRANCH  76  77
ATOM     77  O   UNL A   1      40.091  21.458  26.275  1.00  0.00    -0.484 OA
BRANCH  77  78
ATOM     78  C   UNL A   1      38.812  21.503  25.774  1.00  0.00     0.140 A 
ATOM     79  C   UNL A   1      38.231  20.323  25.293  1.00  0.00     0.048 A 
ATOM     80  C   UNL A   1      38.063  22.683  25.834  1.00  0.00     0.101 A 
ATOM     81  C   UNL A   1      36.940  20.330  24.778  1.00  0.00     0.005 A 
ATOM     82  C   UNL A   1      36.748  22.676  25.348  1.00  0.00     0.063 A 
ATOM     83  Cl  UNL A   1      38.773  24.112  26.507  1.00  0.00    -0.079 Cl
ATOM     84  C   UNL A   1      36.198  21.506  24.805  1.00  0.00     0.022 A 
ATOM     85  Cl  UNL A   1      35.729  24.073  25.405  1.00  0.00    -0.083 Cl
ENDBRANCH  77  78
ENDBRANCH  76  77
ENDBRANCH  75  76
ENDBRANCH  69  71
ENDBRANCH  68  69
ENDBRANCH  67  68
ENDBRANCH   1  67
TORSDOF 17
ENDMDL
MODEL 2
REMARK VINA RESULT:     -10.0      3.460     10.014
REMARK SMILES O=C(OCCOC(=O)c1ccc(COc2cccc(Cl)c2Cl)o1)c1ccc(-c2c3nc(c(-c4ccc(S(=O)(=O)[O-])cc4)c4ccc([nH]4)c(-c4ccc(S(=O)(=O)[O-])cc4)c4nc(c(-c5ccc(S(=O)(=O)[O-])cc5)c5ccc2[nH]5)C=C4)C=C3)cc1
REMARK SMILES IDX 4 1 3 2 2 3 1 4 24 5 25 6 83 7 26 8 82 9 27 10 28 11 29 12
REMARK SMILES IDX 76 13 30 14 81 15 75 16 77 17 31 18 80 19 74 20 73 21 32 23
REMARK SMILES IDX 62 24 43 25 61 26 44 27 47 28 60 29 78 30 45 31 46 32 59 34
REMARK SMILES IDX 79 35 48 36 33 37 34 38 42 39 35 40 41 41 36 42 37 43 38 44
REMARK SMILES IDX 39 45 40 46 63 47 64 48 72 49 65 50 71 51 66 52 67 53 68 54
REMARK SMILES IDX 69 55 70 56 49 57 50 58 58 59 51 60 57 61 52 62 53 63 54 64
REMARK SMILES IDX 55 65 56 66 5 67 6 68 7 69 8 70 9 71 10 72 23 73 11 74 12 75
REMARK SMILES IDX 13 76 14 77 15 78 16 79 21 80 17 81 19 82 22 83 18 84 20 85
REMARK H PARENT 77 22 47 33
REMARK Flexibility Score: inf
ROOT
ATOM      1  C   UNL A   1      33.591  28.657  25.280  1.00  0.00     0.275 C 
ENDROOT
BRANCH   1   2
ATOM      2  O   UNL A   1      33.630  29.051  26.663  1.00  0.00    -0.458 OA
BRANCH   2   3
ATOM      3  C   UNL A   1      34.312  30.073  27.235  1.00  0.00     0.338 C 
ATOM      4  O   UNL A   1      33.862  31.214  27.152  1.00  0.00    -0.246 OA
BRANCH   3   5
ATOM      5  C   UNL A   1      35.686  29.904  27.803  1.00  0.00     0.060 A 
ATOM      6  C   UNL A   1      36.882  29.989  27.086  1.00  0.00     0.016 A 
ATOM      7  C   UNL A   1      35.759  29.568  29.167  1.00  0.00     0.016 A 
ATOM      8  C   UNL A   1      38.117  29.796  27.716  1.00  0.00     0.010 A 
ATOM      9  C   UNL A   1      36.991  29.372  29.801  1.00  0.00     0.010 A 
ATOM     10  C   UNL A   1      38.183  29.483  29.076  1.00  0.00    -0.014 A 
BRANCH  10  11
ATOM     11  C   UNL A   1      39.486  29.164  29.705  1.00  0.00     0.031 A 
ATOM     12  C   UNL A   1      39.996  30.048  30.804  1.00  0.00     0.074 A 
ATOM     13  C   UNL A   1      40.197  28.088  29.318  1.00  0.00     0.049 A 
ATOM     14  N   UNL A   1      41.083  29.923  31.516  1.00  0.00    -0.248 NA
ATOM     15  C   UNL A   1      39.159  31.203  31.172  1.00  0.00     0.031 C 
ATOM     16  C   UNL A   1      39.767  27.110  28.324  1.00  0.00     0.029 A 
ATOM     17  N   UNL A   1      41.439  27.644  29.693  1.00  0.00    -0.354 N 
ATOM     18  C   UNL A   1      41.037  30.949  32.450  1.00  0.00     0.074 A 
ATOM     19  C   UNL A   1      39.854  31.732  32.168  1.00  0.00     0.031 C 
ATOM     20  C   UNL A   1      40.760  26.236  28.092  1.00  0.00     0.029 A 
ATOM     21  C   UNL A   1      41.885  26.569  28.958  1.00  0.00     0.049 A 
ATOM     22  H   UNL A   1      41.963  28.054  30.419  1.00  0.00     0.167 HD
ATOM     23  C   UNL A   1      41.885  31.192  33.476  1.00  0.00     0.031 A 
ATOM     24  C   UNL A   1      43.066  25.922  28.983  1.00  0.00     0.031 A 
ATOM     25  C   UNL A   1      43.078  30.431  33.725  1.00  0.00     0.049 A 
ATOM     26  C   UNL A   1      44.069  26.305  30.036  1.00  0.00     0.074 A 
ATOM     27  C   UNL A   1      44.003  30.585  34.741  1.00  0.00     0.029 A 
ATOM     28  N   UNL A   1      43.520  29.382  32.934  1.00  0.00    -0.354 N 
ATOM     29  N   UNL A   1      43.969  27.231  30.960  1.00  0.00    -0.248 NA
ATOM     30  C   UNL A   1      45.315  25.531  30.085  1.00  0.00     0.031 C 
ATOM     31  C   UNL A   1      45.031  29.659  34.537  1.00  0.00     0.029 A 
ATOM     32  C   UNL A   1      44.721  28.897  33.419  1.00  0.00     0.049 A 
ATOM     33  H   UNL A   1      43.050  29.033  32.142  1.00  0.00     0.167 HD
ATOM     34  C   UNL A   1      45.115  27.111  31.738  1.00  0.00     0.074 A 
ATOM     35  C   UNL A   1      45.897  26.033  31.165  1.00  0.00     0.031 C 
ATOM     36  C   UNL A   1      45.475  27.816  32.838  1.00  0.00     0.031 A 
BRANCH  23  37
ATOM     37  C   UNL A   1      41.535  32.326  34.395  1.00  0.00    -0.014 A 
ATOM     38  C   UNL A   1      40.644  32.128  35.466  1.00  0.00     0.010 A 
ATOM     39  C   UNL A   1      42.097  33.598  34.193  1.00  0.00     0.010 A 
ATOM     40  C   UNL A   1      40.290  33.193  36.297  1.00  0.00     0.020 A 
ATOM     41  C   UNL A   1      41.759  34.661  35.035  1.00  0.00     0.020 A 
ATOM     42  C   UNL A   1      40.845  34.455  36.072  1.00  0.00     0.054 A 
BRANCH  42  43
ATOM     43  S   UNL A   1      40.373  35.821  37.169  1.00  0.00     0.124 S 
ATOM     44  O   UNL A   1      39.744  36.752  36.236  1.00  0.00    -0.237 OA
ATOM     45  O   UNL A   1      39.468  35.173  38.115  1.00  0.00    -0.237 OA
ATOM     46  O   UNL A   1      41.643  36.267  37.734  1.00  0.00    -0.744 OA
ENDBRANCH  42  43
ENDBRANCH  23  37
BRANCH  24  47
ATOM     47  C   UNL A   1      43.359  24.843  28.001  1.00  0.00    -0.014 A 
ATOM     48  C   UNL A   1      42.992  23.510  28.254  1.00  0.00     0.010 A 
ATOM     49  C   UNL A   1      44.032  25.150  26.803  1.00  0.00     0.010 A 
ATOM     50  C   UNL A   1      43.320  22.500  27.345  1.00  0.00     0.020 A 
ATOM     51  C   UNL A   1      44.345  24.145  25.882  1.00  0.00     0.020 A 
ATOM     52  C   UNL A   1      44.000  22.823  26.166  1.00  0.00     0.054 A 
BRANCH  52  53
ATOM     53  S   UNL A   1      44.400  21.497  24.992  1.00  0.00     0.124 S 
ATOM     54  O   UNL A   1      43.389  20.495  25.310  1.00  0.00    -0.237 OA
ATOM     55  O   UNL A   1      44.248  22.165  23.701  1.00  0.00    -0.237 OA
ATOM     56  O   UNL A   1      45.773  21.138  25.340  1.00  0.00    -0.744 OA
ENDBRANCH  52  53
ENDBRANCH  24  47
BRANCH  36  57
ATOM     57  C   UNL A   1      46.747  27.409  33.526  1.00  0.00    -0.014 A 
ATOM     58  C   UNL A   1      47.987  27.938  33.132  1.00  0.00     0.010 A 
ATOM     59  C   UNL A   1      46.685  26.530  34.623  1.00  0.00     0.010 A 
ATOM     60  C   UNL A   1      49.152  27.575  33.813  1.00  0.00     0.020 A 
ATOM     61  C   UNL A   1      47.844  26.186  35.320  1.00  0.00     0.020 A 
ATOM     62  C   UNL A   1      49.072  26.702  34.903  1.00  0.00     0.054 A 
BRANCH  62  63
ATOM     63  S   UNL A   1      50.588  26.293  35.810  1.00  0.00     0.124 S 
ATOM     64  O   UNL A   1      51.167  27.613  36.041  1.00  0.00    -0.237 OA
ATOM     65  O   UNL A   1      50.080  25.612  36.998  1.00  0.00    -0.237 OA
ATOM     66  O   UNL A   1      51.326  25.441  34.880  1.00  0.00    -0.744 OA
ENDBRANCH  62  63
ENDBRANCH  36  57
ENDBRANCH  10  11
ENDBRANCH   3   5
ENDBRANCH   2   3
ENDBRANCH   1   2
BRANCH   1  67
ATOM     67  C   UNL A   1      33.625  27.142  25.067  1.00  0.00     0.275 C 
BRANCH  67  68
ATOM     68  O   UNL A   1      32.334  26.586  24.792  1.00  0.00    -0.456 OA
BRANCH  68  69
ATOM     69  C   UNL A   1      32.023  25.478  25.532  1.00  0.00     0.374 C 
ATOM     70  O   UNL A   1      31.384  25.496  26.577  1.00  0.00    -0.242 OA
BRANCH  69  71
ATOM     71  C   UNL A   1      32.501  24.301  24.860  1.00  0.00     0.211 A 
ATOM     72  C   UNL A   1      32.141  23.679  23.682  1.00  0.00     0.058 A 
ATOM     73  O   UNL A   1      33.507  23.594  25.457  1.00  0.00    -0.450 OA
ATOM     74  C   UNL A   1      32.961  22.527  23.560  1.00  0.00     0.050 A 
ATOM     75  C   UNL A   1      33.780  22.515  24.668  1.00  0.00     0.142 A 
BRANCH  75  76
ATOM     76  C   UNL A   1      34.905  21.645  25.098  1.00  0.00     0.304 C 
BRANCH  76  77
ATOM     77  O   UNL A   1      36.061  21.922  24.283  1.00  0.00    -0.484 OA
BRANCH  77  78
ATOM     78  C   UNL A   1      37.155  22.286  25.031  1.00  0.00     0.140 A 
ATOM     79  C   UNL A   1      37.235  23.596  25.521  1.00  0.00     0.048 A 
ATOM     80  C   UNL A   1      38.125  21.342  25.383  1.00  0.00     0.101 A 
ATOM     81  C   UNL A   1      38.327  24.000  26.281  1.00  0.00     0.005 A 
ATOM     82  C   UNL A   1      39.205  21.746  26.181  1.00  0.00     0.063 A 
ATOM     83  Cl  UNL A   1      37.966  19.707  24.833  1.00  0.00    -0.079 Cl
ATOM     84  C   UNL A   1      39.313  23.076  26.610  1.00  0.00     0.022 A 
ATOM     85  Cl  UNL A   1      40.440  20.649  26.697  1.00  0.00    -0.083 Cl
ENDBRANCH  77  78
ENDBRANCH  76  77
ENDBRANCH  75  76
ENDBRANCH  69  71
ENDBRANCH  68  69
ENDBRANCH  67  68
ENDBRANCH   1  67
TORSDOF 17
ENDMDL
MODEL 3
REMARK VINA RESULT:     -10.0      2.853      4.381
REMARK SMILES O=C(OCCOC(=O)c1ccc(COc2cccc(Cl)c2Cl)o1)c1ccc(-c2c3nc(c(-c4ccc(S(=O)(=O)[O-])cc4)c4ccc([nH]4)c(-c4ccc(S(=O)(=O)[O-])cc4)c4nc(c(-c5ccc(S(=O)(=O)[O-])cc5)c5ccc2[nH]5)C=C4)C=C3)cc1
REMARK SMILES IDX 4 1 3 2 2 3 1 4 24 5 25 6 83 7 26 8 82 9 27 10 28 11 29 12
REMARK SMILES IDX 76 13 30 14 81 15 75 16 77 17 31 18 80 19 74 20 73 21 32 23
REMARK SMILES IDX 62 24 43 25 61 26 44 27 47 28 60 29 78 30 45 31 46 32 59 34
REMARK SMILES IDX 79 35 48 36 33 37 34 38 42 39 35 40 41 41 36 42 37 43 38 44
REMARK SMILES IDX 39 45 40 46 63 47 64 48 72 49 65 50 71 51 66 52 67 53 68 54
REMARK SMILES IDX 69 55 70 56 49 57 50 58 58 59 51 60 57 61 52 62 53 63 54 64
REMARK SMILES IDX 55 65 56 66 5 67 6 68 7 69 8 70 9 71 10 72 23 73 11 74 12 75
REMARK SMILES IDX 13 76 14 77 15 78 16 79 21 80 17 81 19 82 22 83 18 84 20 85
REMARK H PARENT 77 22 47 33
REMARK Flexibility Score: inf
ROOT
ATOM      1  C   UNL A   1      38.062  23.986  26.092  1.00  0.00     0.275 C 
ENDROOT
BRANCH   1   2
ATOM      2  O   UNL A   1      38.900  24.514  27.137  1.00  0.00    -0.458 OA
BRANCH   2   3
ATOM      3  C   UNL A   1      39.737  25.579  27.095  1.00  0.00     0.338 C 
ATOM      4  O   UNL A   1      40.568  25.652  26.193  1.00  0.00    -0.246 OA
BRANCH   3   5
ATOM      5  C   UNL A   1      39.821  26.579  28.205  1.00  0.00     0.060 A 
ATOM      6  C   UNL A   1      40.713  27.653  28.270  1.00  0.00     0.016 A 
ATOM      7  C   UNL A   1      38.962  26.369  29.299  1.00  0.00     0.016 A 
ATOM      8  C   UNL A   1      40.717  28.522  29.368  1.00  0.00     0.010 A 
ATOM      9  C   UNL A   1      38.965  27.233  30.400  1.00  0.00     0.010 A 
ATOM     10  C   UNL A   1      39.848  28.319  30.442  1.00  0.00    -0.014 A 
BRANCH  10  11
ATOM     11  C   UNL A   1      39.943  29.172  31.649  1.00  0.00     0.031 A 
ATOM     12  C   UNL A   1      40.996  28.865  32.672  1.00  0.00     0.074 A 
ATOM     13  C   UNL A   1      39.116  30.221  31.824  1.00  0.00     0.049 A 
ATOM     14  N   UNL A   1      41.280  29.510  33.772  1.00  0.00    -0.248 NA
ATOM     15  C   UNL A   1      41.863  27.704  32.408  1.00  0.00     0.031 C 
ATOM     16  C   UNL A   1      38.113  30.668  30.863  1.00  0.00     0.029 A 
ATOM     17  N   UNL A   1      38.967  31.089  32.875  1.00  0.00    -0.354 N 
ATOM     18  C   UNL A   1      42.389  28.867  34.305  1.00  0.00     0.074 A 
ATOM     19  C   UNL A   1      42.682  27.739  33.449  1.00  0.00     0.031 C 
ATOM     20  C   UNL A   1      37.386  31.662  31.399  1.00  0.00     0.029 A 
ATOM     21  C   UNL A   1      37.904  31.951  32.732  1.00  0.00     0.049 A 
ATOM     22  H   UNL A   1      39.565  31.095  33.658  1.00  0.00     0.167 HD
ATOM     23  C   UNL A   1      43.122  29.212  35.388  1.00  0.00     0.031 A 
ATOM     24  C   UNL A   1      37.406  32.873  33.577  1.00  0.00     0.031 A 
ATOM     25  C   UNL A   1      42.801  30.313  36.254  1.00  0.00     0.049 A 
ATOM     26  C   UNL A   1      38.146  33.143  34.858  1.00  0.00     0.074 A 
ATOM     27  C   UNL A   1      43.479  30.756  37.374  1.00  0.00     0.029 A 
ATOM     28  N   UNL A   1      41.692  31.132  36.105  1.00  0.00    -0.354 N 
ATOM     29  N   UNL A   1      39.241  32.573  35.304  1.00  0.00    -0.248 NA
ATOM     30  C   UNL A   1      37.621  34.206  35.722  1.00  0.00     0.031 C 
ATOM     31  C   UNL A   1      42.754  31.816  37.930  1.00  0.00     0.029 A 
ATOM     32  C   UNL A   1      41.649  32.061  37.128  1.00  0.00     0.049 A 
ATOM     33  H   UNL A   1      41.032  31.064  35.377  1.00  0.00     0.167 HD
ATOM     34  C   UNL A   1      39.568  33.249  36.473  1.00  0.00     0.074 A 
ATOM     35  C   UNL A   1      38.547  34.260  36.670  1.00  0.00     0.031 C 
ATOM     36  C   UNL A   1      40.628  33.064  37.296  1.00  0.00     0.031 A 
BRANCH  23  37
ATOM     37  C   UNL A   1      44.338  28.382  35.681  1.00  0.00    -0.014 A 
ATOM     38  C   UNL A   1      44.249  27.255  36.520  1.00  0.00     0.010 A 
ATOM     39  C   UNL A   1      45.579  28.722  35.116  1.00  0.00     0.010 A 
ATOM     40  C   UNL A   1      45.388  26.506  36.821  1.00  0.00     0.020 A 
ATOM     41  C   UNL A   1      46.717  27.963  35.400  1.00  0.00     0.020 A 
ATOM     42  C   UNL A   1      46.617  26.869  36.264  1.00  0.00     0.054 A 
BRANCH  42  43
ATOM     43  S   UNL A   1      48.081  25.876  36.667  1.00  0.00     0.124 S 
ATOM     44  O   UNL A   1      47.974  24.781  35.705  1.00  0.00    -0.237 OA
ATOM     45  O   UNL A   1      49.177  26.812  36.433  1.00  0.00    -0.237 OA
ATOM     46  O   UNL A   1      47.872  25.502  38.063  1.00  0.00    -0.744 OA
ENDBRANCH  42  43
ENDBRANCH  23  37
BRANCH  24  47
ATOM     47  C   UNL A   1      36.162  33.617  33.239  1.00  0.00    -0.014 A 
ATOM     48  C   UNL A   1      34.895  33.089  33.539  1.00  0.00     0.010 A 
ATOM     49  C   UNL A   1      36.246  34.864  32.589  1.00  0.00     0.010 A 
ATOM     50  C   UNL A   1      33.735  33.776  33.168  1.00  0.00     0.020 A 
ATOM     51  C   UNL A   1      35.089  35.564  32.234  1.00  0.00     0.020 A 
ATOM     52  C   UNL A   1      33.839  35.008  32.513  1.00  0.00     0.054 A 
BRANCH  52  53
ATOM     53  S   UNL A   1      32.320  35.891  32.058  1.00  0.00     0.124 S 
ATOM     54  O   UNL A   1      32.600  37.242  32.531  1.00  0.00    -0.237 OA
ATOM     55  O   UNL A   1      32.281  35.722  30.607  1.00  0.00    -0.237 OA
ATOM     56  O   UNL A   1      31.278  35.172  32.789  1.00  0.00    -0.744 OA
ENDBRANCH  52  53
ENDBRANCH  24  47
BRANCH  36  57
ATOM     57  C   UNL A   1      40.767  34.006  38.458  1.00  0.00    -0.014 A 
ATOM     58  C   UNL A   1      41.435  35.234  38.322  1.00  0.00     0.010 A 
ATOM     59  C   UNL A   1      40.163  33.678  39.686  1.00  0.00     0.010 A 
ATOM     60  C   UNL A   1      41.517  36.111  39.406  1.00  0.00     0.020 A 
ATOM     61  C   UNL A   1      40.223  34.564  40.763  1.00  0.00     0.020 A 
ATOM     62  C   UNL A   1      40.910  35.770  40.618  1.00  0.00     0.054 A 
BRANCH  62  63
ATOM     63  S   UNL A   1      40.977  36.951  41.993  1.00  0.00     0.124 S 
ATOM     64  O   UNL A   1      41.969  37.911  41.520  1.00  0.00    -0.237 OA
ATOM     65  O   UNL A   1      39.604  37.447  42.060  1.00  0.00    -0.237 OA
ATOM     66  O   UNL A   1      41.392  36.132  43.130  1.00  0.00    -0.744 OA
ENDBRANCH  62  63
ENDBRANCH  36  57
ENDBRANCH  10  11
ENDBRANCH   3   5
ENDBRANCH   2   3
ENDBRANCH   1   2
BRANCH   1  67
ATOM     67  C   UNL A   1      38.295  22.502  25.802  1.00  0.00     0.275 C 
BRANCH  67  68
ATOM     68  O   UNL A   1      37.557  22.030  24.669  1.00  0.00    -0.456 OA
BRANCH  68  69
ATOM     69  C   UNL A   1      37.058  20.763  24.802  1.00  0.00     0.374 C 
ATOM     70  O   UNL A   1      37.740  19.765  25.005  1.00  0.00    -0.242 OA
BRANCH  69  71
ATOM     71  C   UNL A   1      35.624  20.800  24.733  1.00  0.00     0.211 A 
ATOM     72  C   UNL A   1      34.650  19.831  24.869  1.00  0.00     0.058 A 
ATOM     73  O   UNL A   1      35.031  22.003  24.470  1.00  0.00    -0.450 OA
ATOM     74  C   UNL A   1      33.401  20.474  24.666  1.00  0.00     0.050 A 
ATOM     75  C   UNL A   1      33.684  21.800  24.424  1.00  0.00     0.142 A 
BRANCH  75  76
ATOM     76  C   UNL A   1      32.836  23.005  24.222  1.00  0.00     0.304 C 
BRANCH  76  77
ATOM     77  O   UNL A   1      33.548  23.956  23.405  1.00  0.00    -0.484 OA
BRANCH  77  78
ATOM     78  C   UNL A   1      33.555  25.216  23.954  1.00  0.00     0.140 A 
ATOM     79  C   UNL A   1      33.873  25.363  25.309  1.00  0.00     0.048 A 
ATOM     80  C   UNL A   1      33.348  26.344  23.153  1.00  0.00     0.101 A 
ATOM     81  C   UNL A   1      33.889  26.622  25.899  1.00  0.00     0.005 A 
ATOM     82  C   UNL A   1      33.403  27.614  23.744  1.00  0.00     0.063 A 
ATOM     83  Cl  UNL A   1      33.037  26.146  21.460  1.00  0.00    -0.079 Cl
ATOM     84  C   UNL A   1      33.654  27.748  25.117  1.00  0.00     0.022 A 
ATOM     85  Cl  UNL A   1      33.193  29.072  22.836  1.00  0.00    -0.083 Cl
ENDBRANCH  77  78
ENDBRANCH  76  77
ENDBRANCH  75  76
ENDBRANCH  69  71
ENDBRANCH  68  69
ENDBRANCH  67  68
ENDBRANCH   1  67
TORSDOF 17
ENDMDL
