MODEL 1
REMARK VINA RESULT:     -11.5      0.000      0.000
REMARK SMILES O=C(OCCOC(=O)C1(NC(=O)c2nc(C3CC3)n[nH]2)CCCCC1)c1ccc(-c2c3nc(c(-c4ccc(S(=O)(=O)[O-])cc4)c4ccc([nH]4)c(-c4ccc(S(=O)(=O)[O-])cc4)c4nc(c(-c5ccc(S(=O)(=O)[O-])cc5)c5ccc2[nH]5)C=C4)C=C3)cc1
REMARK SMILES IDX 4 1 3 2 2 3 1 4 26 5 27 6 85 7 28 8 84 9 29 10 30 11 31 12
REMARK SMILES IDX 78 13 32 14 83 15 77 16 79 17 33 18 82 19 76 20 75 21 34 23
REMARK SMILES IDX 64 24 45 25 63 26 46 27 49 28 62 29 80 30 47 31 48 32 61 34
REMARK SMILES IDX 81 35 50 36 35 37 36 38 44 39 37 40 43 41 38 42 39 43 40 44
REMARK SMILES IDX 41 45 42 46 65 47 66 48 74 49 67 50 73 51 68 52 69 53 70 54
REMARK SMILES IDX 71 55 72 56 51 57 52 58 60 59 53 60 59 61 54 62 55 63 56 64
REMARK SMILES IDX 57 65 58 66 5 67 6 68 7 69 8 70 9 71 21 72 25 73 22 74 24 75
REMARK SMILES IDX 23 76 10 77 11 78 12 80 13 81 14 82 20 83 15 84 19 85 16 87
REMARK SMILES IDX 17 88 18 89
REMARK H PARENT 79 22 49 33 10 79 20 86
REMARK Flexibility Score: inf
ROOT
ATOM      1  C   UNL A   1      32.806  30.807  27.139  1.00  0.00     0.275 C 
ENDROOT
BRANCH   1   2
ATOM      2  O   UNL A   1      34.221  30.631  26.973  1.00  0.00    -0.458 OA
BRANCH   2   3
ATOM      3  C   UNL A   1      35.008  31.057  27.973  1.00  0.00     0.338 C 
ATOM      4  O   UNL A   1      35.032  32.201  28.350  1.00  0.00    -0.246 OA
BRANCH   3   5
ATOM      5  C   UNL A   1      36.059  30.056  28.261  1.00  0.00     0.060 A 
ATOM      6  C   UNL A   1      37.048  29.854  27.300  1.00  0.00     0.016 A 
ATOM      7  C   UNL A   1      36.251  29.622  29.580  1.00  0.00     0.016 A 
ATOM      8  C   UNL A   1      38.293  29.420  27.696  1.00  0.00     0.010 A 
ATOM      9  C   UNL A   1      37.522  29.228  29.992  1.00  0.00     0.010 A 
ATOM     10  C   UNL A   1      38.558  29.205  29.054  1.00  0.00    -0.014 A 
BRANCH  10  11
ATOM     11  C   UNL A   1      39.969  28.994  29.404  1.00  0.00     0.031 A 
ATOM     12  C   UNL A   1      40.558  27.661  29.112  1.00  0.00     0.074 A 
ATOM     13  C   UNL A   1      40.708  30.070  29.748  1.00  0.00     0.049 A 
ATOM     14  N   UNL A   1      41.803  27.368  28.871  1.00  0.00    -0.248 NA
ATOM     15  C   UNL A   1      39.626  26.526  29.011  1.00  0.00     0.031 C 
ATOM     16  C   UNL A   1      40.173  31.410  30.023  1.00  0.00     0.029 A 
ATOM     17  N   UNL A   1      42.061  30.237  29.861  1.00  0.00    -0.354 N 
ATOM     18  C   UNL A   1      41.791  26.033  28.498  1.00  0.00     0.074 A 
ATOM     19  C   UNL A   1      40.439  25.548  28.642  1.00  0.00     0.031 C 
ATOM     20  C   UNL A   1      41.183  32.256  30.281  1.00  0.00     0.029 A 
ATOM     21  C   UNL A   1      42.437  31.535  30.131  1.00  0.00     0.049 A 
ATOM     22  H   UNL A   1      42.706  29.499  29.760  1.00  0.00     0.167 HD
ATOM     23  C   UNL A   1      42.824  25.309  28.017  1.00  0.00     0.031 A 
ATOM     24  C   UNL A   1      43.663  32.091  30.189  1.00  0.00     0.031 A 
ATOM     25  C   UNL A   1      44.158  25.832  27.935  1.00  0.00     0.049 A 
ATOM     26  C   UNL A   1      44.814  31.226  29.755  1.00  0.00     0.074 A 
ATOM     27  C   UNL A   1      45.311  25.209  27.504  1.00  0.00     0.029 A 
ATOM     28  N   UNL A   1      44.510  27.122  28.321  1.00  0.00    -0.354 N 
ATOM     29  N   UNL A   1      44.782  29.987  29.314  1.00  0.00    -0.248 NA
ATOM     30  C   UNL A   1      46.148  31.831  29.770  1.00  0.00     0.031 C 
ATOM     31  C   UNL A   1      46.368  26.112  27.667  1.00  0.00     0.029 A 
ATOM     32  C   UNL A   1      45.867  27.311  28.159  1.00  0.00     0.049 A 
ATOM     33  H   UNL A   1      43.882  27.801  28.658  1.00  0.00     0.167 HD
ATOM     34  C   UNL A   1      46.086  29.674  28.963  1.00  0.00     0.074 A 
ATOM     35  C   UNL A   1      46.880  30.860  29.239  1.00  0.00     0.031 C 
ATOM     36  C   UNL A   1      46.591  28.523  28.454  1.00  0.00     0.031 A 
BRANCH  23  37
ATOM     37  C   UNL A   1      42.514  23.912  27.566  1.00  0.00    -0.014 A 
ATOM     38  C   UNL A   1      42.547  22.841  28.482  1.00  0.00     0.010 A 
ATOM     39  C   UNL A   1      42.246  23.649  26.214  1.00  0.00     0.010 A 
ATOM     40  C   UNL A   1      42.363  21.527  28.043  1.00  0.00     0.020 A 
ATOM     41  C   UNL A   1      42.043  22.336  25.774  1.00  0.00     0.020 A 
ATOM     42  C   UNL A   1      42.122  21.283  26.688  1.00  0.00     0.054 A 
BRANCH  42  43
ATOM     43  S   UNL A   1      41.905  19.567  26.139  1.00  0.00     0.124 S 
ATOM     44  O   UNL A   1      42.339  18.817  27.315  1.00  0.00    -0.237 OA
ATOM     45  O   UNL A   1      40.475  19.502  25.847  1.00  0.00    -0.237 OA
ATOM     46  O   UNL A   1      42.782  19.463  24.975  1.00  0.00    -0.744 OA
ENDBRANCH  42  43
ENDBRANCH  23  37
BRANCH  24  47
ATOM     47  C   UNL A   1      43.843  33.505  30.629  1.00  0.00    -0.014 A 
ATOM     48  C   UNL A   1      43.905  33.868  31.987  1.00  0.00     0.010 A 
ATOM     49  C   UNL A   1      43.949  34.519  29.657  1.00  0.00     0.010 A 
ATOM     50  C   UNL A   1      44.032  35.213  32.361  1.00  0.00     0.020 A 
ATOM     51  C   UNL A   1      44.097  35.861  30.024  1.00  0.00     0.020 A 
ATOM     52  C   UNL A   1      44.120  36.203  31.376  1.00  0.00     0.054 A 
BRANCH  52  53
ATOM     53  S   UNL A   1      44.285  37.941  31.880  1.00  0.00     0.124 S 
ATOM     54  O   UNL A   1      43.643  38.641  30.773  1.00  0.00    -0.237 OA
ATOM     55  O   UNL A   1      43.567  37.970  33.151  1.00  0.00    -0.237 OA
ATOM     56  O   UNL A   1      45.731  38.129  31.986  1.00  0.00    -0.744 OA
ENDBRANCH  52  53
ENDBRANCH  24  47
BRANCH  36  57
ATOM     57  C   UNL A   1      48.058  28.519  28.152  1.00  0.00    -0.014 A 
ATOM     58  C   UNL A   1      48.988  28.113  29.124  1.00  0.00     0.010 A 
ATOM     59  C   UNL A   1      48.497  28.852  26.859  1.00  0.00     0.010 A 
ATOM     60  C   UNL A   1      50.344  28.059  28.809  1.00  0.00     0.020 A 
ATOM     61  C   UNL A   1      49.849  28.773  26.535  1.00  0.00     0.020 A 
ATOM     62  C   UNL A   1      50.765  28.387  27.516  1.00  0.00     0.054 A 
BRANCH  62  63
ATOM     63  S   UNL A   1      52.524  28.239  27.109  1.00  0.00     0.124 S 
ATOM     64  O   UNL A   1      52.592  28.919  25.818  1.00  0.00    -0.237 OA
ATOM     65  O   UNL A   1      53.172  28.932  28.221  1.00  0.00    -0.237 OA
ATOM     66  O   UNL A   1      52.748  26.795  27.070  1.00  0.00    -0.744 OA
ENDBRANCH  62  63
ENDBRANCH  36  57
ENDBRANCH  10  11
ENDBRANCH   3   5
ENDBRANCH   2   3
ENDBRANCH   1   2
BRANCH   1  67
ATOM     67  C   UNL A   1      31.760  29.731  26.731  1.00  0.00     0.274 C 
BRANCH  67  68
ATOM     68  O   UNL A   1      32.253  28.570  26.028  1.00  0.00    -0.460 OA
BRANCH  68  69
ATOM     69  C   UNL A   1      31.775  27.349  26.469  1.00  0.00     0.331 C 
ATOM     70  O   UNL A   1      30.996  27.211  27.411  1.00  0.00    -0.249 OA
BRANCH  69  71
ATOM     71  C   UNL A   1      32.330  26.124  25.657  1.00  0.00     0.138 C 
ATOM     72  C   UNL A   1      33.887  26.200  25.646  1.00  0.00     0.040 C 
ATOM     73  C   UNL A   1      31.913  24.858  26.466  1.00  0.00     0.040 C 
ATOM     74  C   UNL A   1      34.608  24.903  25.281  1.00  0.00     0.003 C 
ATOM     75  C   UNL A   1      32.709  23.580  26.179  1.00  0.00     0.003 C 
ATOM     76  C   UNL A   1      34.212  23.802  26.247  1.00  0.00     0.000 C 
BRANCH  71  77
ATOM     77  N   UNL A   1      31.840  26.052  24.221  1.00  0.00    -0.333 N 
ATOM     78  C   UNL A   1      30.558  26.252  23.723  1.00  0.00     0.289 C 
ATOM     79  H   UNL A   1      32.525  25.832  23.549  1.00  0.00     0.165 HD
ATOM     80  O   UNL A   1      29.862  25.241  23.582  1.00  0.00    -0.266 OA
BRANCH  78  81
ATOM     81  C   UNL A   1      30.103  27.532  23.182  1.00  0.00     0.214 A 
ATOM     82  N   UNL A   1      29.165  28.362  23.599  1.00  0.00    -0.207 NA
ATOM     83  N   UNL A   1      30.737  28.166  22.148  1.00  0.00    -0.255 N 
ATOM     84  C   UNL A   1      29.083  29.327  22.626  1.00  0.00     0.154 A 
ATOM     85  N   UNL A   1      30.106  29.293  21.763  1.00  0.00    -0.158 NA
ATOM     86  H   UNL A   1      31.565  27.834  21.731  1.00  0.00     0.192 HD
BRANCH  84  87
ATOM     87  C   UNL A   1      27.920  30.317  22.443  1.00  0.00     0.060 C 
ATOM     88  C   UNL A   1      27.600  31.259  23.595  1.00  0.00     0.012 C 
ATOM     89  C   UNL A   1      28.142  31.811  22.321  1.00  0.00     0.012 C 
ENDBRANCH  84  87
ENDBRANCH  78  81
ENDBRANCH  71  77
ENDBRANCH  69  71
ENDBRANCH  68  69
ENDBRANCH  67  68
ENDBRANCH   1  67
TORSDOF 17
ENDMDL
MODEL 2
REMARK VINA RESULT:     -11.1      3.976      8.946
REMARK SMILES O=C(OCCOC(=O)C1(NC(=O)c2nc(C3CC3)n[nH]2)CCCCC1)c1ccc(-c2c3nc(c(-c4ccc(S(=O)(=O)[O-])cc4)c4ccc([nH]4)c(-c4ccc(S(=O)(=O)[O-])cc4)c4nc(c(-c5ccc(S(=O)(=O)[O-])cc5)c5ccc2[nH]5)C=C4)C=C3)cc1
REMARK SMILES IDX 4 1 3 2 2 3 1 4 26 5 27 6 85 7 28 8 84 9 29 10 30 11 31 12
REMARK SMILES IDX 78 13 32 14 83 15 77 16 79 17 33 18 82 19 76 20 75 21 34 23
REMARK SMILES IDX 64 24 45 25 63 26 46 27 49 28 62 29 80 30 47 31 48 32 61 34
REMARK SMILES IDX 81 35 50 36 35 37 36 38 44 39 37 40 43 41 38 42 39 43 40 44
REMARK SMILES IDX 41 45 42 46 65 47 66 48 74 49 67 50 73 51 68 52 69 53 70 54
REMARK SMILES IDX 71 55 72 56 51 57 52 58 60 59 53 60 59 61 54 62 55 63 56 64
REMARK SMILES IDX 57 65 58 66 5 67 6 68 7 69 8 70 9 71 21 72 25 73 22 74 24 75
REMARK SMILES IDX 23 76 10 77 11 78 12 80 13 81 14 82 20 83 15 84 19 85 16 87
REMARK SMILES IDX 17 88 18 89
REMARK H PARENT 79 22 49 33 10 79 20 86
REMARK Flexibility Score: inf
ROOT
ATOM      1  C   UNL A   1      32.757  30.418  27.206  1.00  0.00     0.275 C 
ENDROOT
BRANCH   1   2
ATOM      2  O   UNL A   1      34.154  30.553  26.907  1.00  0.00    -0.458 OA
BRANCH   2   3
ATOM      3  C   UNL A   1      34.946  31.010  27.890  1.00  0.00     0.338 C 
ATOM      4  O   UNL A   1      34.913  32.148  28.285  1.00  0.00    -0.246 OA
BRANCH   3   5
ATOM      5  C   UNL A   1      36.062  30.069  28.130  1.00  0.00     0.060 A 
ATOM      6  C   UNL A   1      37.156  30.123  27.269  1.00  0.00     0.016 A 
ATOM      7  C   UNL A   1      36.167  29.432  29.374  1.00  0.00     0.016 A 
ATOM      8  C   UNL A   1      38.395  29.736  27.729  1.00  0.00     0.010 A 
ATOM      9  C   UNL A   1      37.425  29.084  29.859  1.00  0.00     0.010 A 
ATOM     10  C   UNL A   1      38.545  29.313  29.055  1.00  0.00    -0.014 A 
BRANCH  10  11
ATOM     11  C   UNL A   1      39.930  29.167  29.526  1.00  0.00     0.031 A 
ATOM     12  C   UNL A   1      40.358  30.008  30.673  1.00  0.00     0.074 A 
ATOM     13  C   UNL A   1      40.655  28.129  29.057  1.00  0.00     0.049 A 
ATOM     14  N   UNL A   1      41.286  29.759  31.551  1.00  0.00    -0.248 NA
ATOM     15  C   UNL A   1      39.608  31.254  30.906  1.00  0.00     0.031 C 
ATOM     16  C   UNL A   1      40.262  27.258  27.943  1.00  0.00     0.029 A 
ATOM     17  N   UNL A   1      41.834  27.585  29.489  1.00  0.00    -0.354 N 
ATOM     18  C   UNL A   1      41.169  30.768  32.493  1.00  0.00     0.074 A 
ATOM     19  C   UNL A   1      40.155  31.687  32.031  1.00  0.00     0.031 C 
ATOM     20  C   UNL A   1      41.184  26.296  27.774  1.00  0.00     0.029 A 
ATOM     21  C   UNL A   1      42.201  26.447  28.802  1.00  0.00     0.049 A 
ATOM     22  H   UNL A   1      42.370  27.970  30.220  1.00  0.00     0.167 HD
ATOM     23  C   UNL A   1      41.821  30.867  33.672  1.00  0.00     0.031 A 
ATOM     24  C   UNL A   1      43.214  25.588  29.024  1.00  0.00     0.031 A 
ATOM     25  C   UNL A   1      42.850  29.947  34.061  1.00  0.00     0.049 A 
ATOM     26  C   UNL A   1      44.000  25.787  30.290  1.00  0.00     0.074 A 
ATOM     27  C   UNL A   1      43.621  29.937  35.204  1.00  0.00     0.029 A 
ATOM     28  N   UNL A   1      43.261  28.868  33.282  1.00  0.00    -0.354 N 
ATOM     29  N   UNL A   1      43.822  26.695  31.226  1.00  0.00    -0.248 NA
ATOM     30  C   UNL A   1      45.077  24.833  30.566  1.00  0.00     0.031 C 
ATOM     31  C   UNL A   1      44.527  28.875  35.098  1.00  0.00     0.029 A 
ATOM     32  C   UNL A   1      44.291  28.197  33.908  1.00  0.00     0.049 A 
ATOM     33  H   UNL A   1      42.873  28.620  32.412  1.00  0.00     0.167 HD
ATOM     34  C   UNL A   1      44.741  26.400  32.221  1.00  0.00     0.074 A 
ATOM     35  C   UNL A   1      45.468  25.224  31.773  1.00  0.00     0.031 C 
ATOM     36  C   UNL A   1      44.968  27.029  33.401  1.00  0.00     0.031 A 
BRANCH  23  37
ATOM     37  C   UNL A   1      41.417  31.998  34.571  1.00  0.00    -0.014 A 
ATOM     38  C   UNL A   1      40.330  31.855  35.457  1.00  0.00     0.010 A 
ATOM     39  C   UNL A   1      42.081  33.233  34.495  1.00  0.00     0.010 A 
ATOM     40  C   UNL A   1      39.887  32.941  36.216  1.00  0.00     0.020 A 
ATOM     41  C   UNL A   1      41.651  34.318  35.267  1.00  0.00     0.020 A 
ATOM     42  C   UNL A   1      40.544  34.170  36.108  1.00  0.00     0.054 A 
BRANCH  42  43
ATOM     43  S   UNL A   1      39.939  35.570  37.090  1.00  0.00     0.124 S 
ATOM     44  O   UNL A   1      41.094  35.869  37.932  1.00  0.00    -0.237 OA
ATOM     45  O   UNL A   1      39.631  36.569  36.069  1.00  0.00    -0.237 OA
ATOM     46  O   UNL A   1      38.780  35.024  37.792  1.00  0.00    -0.744 OA
ENDBRANCH  42  43
ENDBRANCH  23  37
BRANCH  24  47
ATOM     47  C   UNL A   1      43.503  24.481  28.067  1.00  0.00    -0.014 A 
ATOM     48  C   UNL A   1      44.476  24.594  27.057  1.00  0.00     0.010 A 
ATOM     49  C   UNL A   1      42.774  23.279  28.166  1.00  0.00     0.010 A 
ATOM     50  C   UNL A   1      44.687  23.546  26.149  1.00  0.00     0.020 A 
ATOM     51  C   UNL A   1      42.996  22.222  27.276  1.00  0.00     0.020 A 
ATOM     52  C   UNL A   1      43.940  22.369  26.260  1.00  0.00     0.054 A 
BRANCH  52  53
ATOM     53  S   UNL A   1      44.229  21.022  25.075  1.00  0.00     0.124 S 
ATOM     54  O   UNL A   1      45.537  20.527  25.490  1.00  0.00    -0.237 OA
ATOM     55  O   UNL A   1      43.102  20.129  25.333  1.00  0.00    -0.237 OA
ATOM     56  O   UNL A   1      44.196  21.695  23.778  1.00  0.00    -0.744 OA
ENDBRANCH  52  53
ENDBRANCH  24  47
BRANCH  36  57
ATOM     57  C   UNL A   1      46.027  26.434  34.278  1.00  0.00    -0.014 A 
ATOM     58  C   UNL A   1      47.355  26.883  34.200  1.00  0.00     0.010 A 
ATOM     59  C   UNL A   1      45.667  25.471  35.237  1.00  0.00     0.010 A 
ATOM     60  C   UNL A   1      48.318  26.360  35.063  1.00  0.00     0.020 A 
ATOM     61  C   UNL A   1      46.622  24.967  36.117  1.00  0.00     0.020 A 
ATOM     62  C   UNL A   1      47.944  25.408  36.017  1.00  0.00     0.054 A 
BRANCH  62  63
ATOM     63  S   UNL A   1      49.196  24.797  37.174  1.00  0.00     0.124 S 
ATOM     64  O   UNL A   1      49.073  23.351  37.014  1.00  0.00    -0.237 OA
ATOM     65  O   UNL A   1      50.429  25.385  36.655  1.00  0.00    -0.237 OA
ATOM     66  O   UNL A   1      48.757  25.324  38.465  1.00  0.00    -0.744 OA
ENDBRANCH  62  63
ENDBRANCH  36  57
ENDBRANCH  10  11
ENDBRANCH   3   5
ENDBRANCH   2   3
ENDBRANCH   1   2
BRANCH   1  67
ATOM     67  C   UNL A   1      32.038  29.043  27.313  1.00  0.00     0.274 C 
BRANCH  67  68
ATOM     68  O   UNL A   1      32.670  27.920  26.661  1.00  0.00    -0.460 OA
BRANCH  68  69
ATOM     69  C   UNL A   1      31.876  26.801  26.484  1.00  0.00     0.331 C 
ATOM     70  O   UNL A   1      30.747  26.671  26.956  1.00  0.00    -0.249 OA
BRANCH  69  71
ATOM     71  C   UNL A   1      32.556  25.678  25.620  1.00  0.00     0.138 C 
ATOM     72  C   UNL A   1      34.102  25.829  25.735  1.00  0.00     0.040 C 
ATOM     73  C   UNL A   1      32.150  24.329  26.289  1.00  0.00     0.040 C 
ATOM     74  C   UNL A   1      34.918  24.605  25.323  1.00  0.00     0.003 C 
ATOM     75  C   UNL A   1      33.034  23.120  25.961  1.00  0.00     0.003 C 
ATOM     76  C   UNL A   1      34.513  23.408  26.162  1.00  0.00     0.000 C 
BRANCH  71  77
ATOM     77  N   UNL A   1      32.175  25.704  24.149  1.00  0.00    -0.333 N 
ATOM     78  C   UNL A   1      30.914  25.791  23.573  1.00  0.00     0.289 C 
ATOM     79  H   UNL A   1      32.927  25.652  23.515  1.00  0.00     0.165 HD
ATOM     80  O   UNL A   1      30.374  24.721  23.274  1.00  0.00    -0.266 OA
BRANCH  78  81
ATOM     81  C   UNL A   1      30.323  27.054  23.131  1.00  0.00     0.214 A 
ATOM     82  N   UNL A   1      29.269  27.716  23.570  1.00  0.00    -0.207 NA
ATOM     83  N   UNL A   1      30.918  27.863  22.201  1.00  0.00    -0.255 N 
ATOM     84  C   UNL A   1      29.109  28.757  22.691  1.00  0.00     0.154 A 
ATOM     85  N   UNL A   1      30.167  28.938  21.890  1.00  0.00    -0.158 NA
ATOM     86  H   UNL A   1      31.800  27.681  21.804  1.00  0.00     0.192 HD
BRANCH  84  87
ATOM     87  C   UNL A   1      27.839  29.611  22.536  1.00  0.00     0.060 C 
ATOM     88  C   UNL A   1      27.692  30.837  23.427  1.00  0.00     0.012 C 
ATOM     89  C   UNL A   1      27.870  31.012  21.957  1.00  0.00     0.012 C 
ENDBRANCH  84  87
ENDBRANCH  78  81
ENDBRANCH  71  77
ENDBRANCH  69  71
ENDBRANCH  68  69
ENDBRANCH  67  68
ENDBRANCH   1  67
TORSDOF 17
ENDMDL
MODEL 3
REMARK VINA RESULT:     -11.1      4.626     10.356
REMARK SMILES O=C(OCCOC(=O)C1(NC(=O)c2nc(C3CC3)n[nH]2)CCCCC1)c1ccc(-c2c3nc(c(-c4ccc(S(=O)(=O)[O-])cc4)c4ccc([nH]4)c(-c4ccc(S(=O)(=O)[O-])cc4)c4nc(c(-c5ccc(S(=O)(=O)[O-])cc5)c5ccc2[nH]5)C=C4)C=C3)cc1
REMARK SMILES IDX 4 1 3 2 2 3 1 4 26 5 27 6 85 7 28 8 84 9 29 10 30 11 31 12
REMARK SMILES IDX 78 13 32 14 83 15 77 16 79 17 33 18 82 19 76 20 75 21 34 23
REMARK SMILES IDX 64 24 45 25 63 26 46 27 49 28 62 29 80 30 47 31 48 32 61 34
REMARK SMILES IDX 81 35 50 36 35 37 36 38 44 39 37 40 43 41 38 42 39 43 40 44
REMARK SMILES IDX 41 45 42 46 65 47 66 48 74 49 67 50 73 51 68 52 69 53 70 54
REMARK SMILES IDX 71 55 72 56 51 57 52 58 60 59 53 60 59 61 54 62 55 63 56 64
REMARK SMILES IDX 57 65 58 66 5 67 6 68 7 69 8 70 9 71 21 72 25 73 22 74 24 75
REMARK SMILES IDX 23 76 10 77 11 78 12 80 13 81 14 82 20 83 15 84 19 85 16 87
REMARK SMILES IDX 17 88 18 89
REMARK H PARENT 79 22 49 33 10 79 20 86
REMARK Flexibility Score: inf
ROOT
ATOM      1  C   UNL A   1      38.219  21.579  25.368  1.00  0.00     0.275 C 
ENDROOT
BRANCH   1   2
ATOM      2  O   UNL A   1      38.597  22.382  26.495  1.00  0.00    -0.458 OA
BRANCH   2   3
ATOM      3  C   UNL A   1      39.790  22.996  26.432  1.00  0.00     0.338 C 
ATOM      4  O   UNL A   1      40.835  22.399  26.391  1.00  0.00    -0.246 OA
BRANCH   3   5
ATOM      5  C   UNL A   1      39.652  24.424  26.793  1.00  0.00     0.060 A 
ATOM      6  C   UNL A   1      39.129  24.731  28.048  1.00  0.00     0.016 A 
ATOM      7  C   UNL A   1      40.360  25.388  26.062  1.00  0.00     0.016 A 
ATOM      8  C   UNL A   1      39.490  25.913  28.657  1.00  0.00     0.010 A 
ATOM      9  C   UNL A   1      40.765  26.562  26.693  1.00  0.00     0.010 A 
ATOM     10  C   UNL A   1      40.387  26.779  28.021  1.00  0.00    -0.014 A 
BRANCH  10  11
ATOM     11  C   UNL A   1      40.908  27.878  28.847  1.00  0.00     0.031 A 
ATOM     12  C   UNL A   1      40.051  29.082  29.008  1.00  0.00     0.074 A 
ATOM     13  C   UNL A   1      42.009  27.648  29.593  1.00  0.00     0.049 A 
ATOM     14  N   UNL A   1      40.031  29.927  29.997  1.00  0.00    -0.248 NA
ATOM     15  C   UNL A   1      39.047  29.334  27.961  1.00  0.00     0.031 C 
ATOM     16  C   UNL A   1      42.871  26.463  29.485  1.00  0.00     0.029 A 
ATOM     17  N   UNL A   1      42.560  28.350  30.630  1.00  0.00    -0.354 N 
ATOM     18  C   UNL A   1      38.951  30.756  29.739  1.00  0.00     0.074 A 
ATOM     19  C   UNL A   1      38.405  30.380  28.457  1.00  0.00     0.031 C 
ATOM     20  C   UNL A   1      43.843  26.525  30.409  1.00  0.00     0.029 A 
ATOM     21  C   UNL A   1      43.639  27.721  31.211  1.00  0.00     0.049 A 
ATOM     22  H   UNL A   1      42.217  29.223  30.931  1.00  0.00     0.167 HD
ATOM     23  C   UNL A   1      38.434  31.704  30.550  1.00  0.00     0.031 A 
ATOM     24  C   UNL A   1      44.345  28.046  32.312  1.00  0.00     0.031 A 
ATOM     25  C   UNL A   1      39.044  32.064  31.798  1.00  0.00     0.049 A 
ATOM     26  C   UNL A   1      43.812  29.183  33.141  1.00  0.00     0.074 A 
ATOM     27  C   UNL A   1      38.659  33.025  32.708  1.00  0.00     0.029 A 
ATOM     28  N   UNL A   1      40.200  31.469  32.296  1.00  0.00    -0.354 N 
ATOM     29  N   UNL A   1      42.732  29.904  32.936  1.00  0.00    -0.248 NA
ATOM     30  C   UNL A   1      44.545  29.519  34.364  1.00  0.00     0.031 C 
ATOM     31  C   UNL A   1      39.606  33.039  33.739  1.00  0.00     0.029 A 
ATOM     32  C   UNL A   1      40.557  32.057  33.492  1.00  0.00     0.049 A 
ATOM     33  H   UNL A   1      40.690  30.736  31.860  1.00  0.00     0.167 HD
ATOM     34  C   UNL A   1      42.633  30.757  34.024  1.00  0.00     0.074 A 
ATOM     35  C   UNL A   1      43.762  30.454  34.887  1.00  0.00     0.031 C 
ATOM     36  C   UNL A   1      41.698  31.701  34.299  1.00  0.00     0.031 A 
BRANCH  23  37
ATOM     37  C   UNL A   1      37.177  32.376  30.083  1.00  0.00    -0.014 A 
ATOM     38  C   UNL A   1      37.235  33.438  29.158  1.00  0.00     0.010 A 
ATOM     39  C   UNL A   1      35.933  31.993  30.609  1.00  0.00     0.010 A 
ATOM     40  C   UNL A   1      36.076  34.134  28.804  1.00  0.00     0.020 A 
ATOM     41  C   UNL A   1      34.768  32.676  30.243  1.00  0.00     0.020 A 
ATOM     42  C   UNL A   1      34.850  33.754  29.358  1.00  0.00     0.054 A 
BRANCH  42  43
ATOM     43  S   UNL A   1      33.362  34.685  28.898  1.00  0.00     0.124 S 
ATOM     44  O   UNL A   1      32.650  34.762  30.170  1.00  0.00    -0.237 OA
ATOM     45  O   UNL A   1      33.912  35.947  28.408  1.00  0.00    -0.237 OA
ATOM     46  O   UNL A   1      32.732  33.847  27.881  1.00  0.00    -0.744 OA
ENDBRANCH  42  43
ENDBRANCH  23  37
BRANCH  24  47
ATOM     47  C   UNL A   1      45.569  27.283  32.690  1.00  0.00    -0.014 A 
ATOM     48  C   UNL A   1      46.849  27.634  32.224  1.00  0.00     0.010 A 
ATOM     49  C   UNL A   1      45.447  26.164  33.539  1.00  0.00     0.010 A 
ATOM     50  C   UNL A   1      47.970  26.864  32.567  1.00  0.00     0.020 A 
ATOM     51  C   UNL A   1      46.565  25.406  33.903  1.00  0.00     0.020 A 
ATOM     52  C   UNL A   1      47.819  25.750  33.399  1.00  0.00     0.054 A 
BRANCH  52  53
ATOM     53  S   UNL A   1      49.284  24.766  33.835  1.00  0.00     0.124 S 
ATOM     54  O   UNL A   1      48.684  23.575  34.426  1.00  0.00    -0.237 OA
ATOM     55  O   UNL A   1      49.931  24.574  32.540  1.00  0.00    -0.237 OA
ATOM     56  O   UNL A   1      50.011  25.629  34.764  1.00  0.00    -0.744 OA
ENDBRANCH  52  53
ENDBRANCH  24  47
BRANCH  36  57
ATOM     57  C   UNL A   1      41.863  32.442  35.591  1.00  0.00    -0.014 A 
ATOM     58  C   UNL A   1      42.597  33.638  35.641  1.00  0.00     0.010 A 
ATOM     59  C   UNL A   1      41.213  31.970  36.744  1.00  0.00     0.010 A 
ATOM     60  C   UNL A   1      42.693  34.346  36.837  1.00  0.00     0.020 A 
ATOM     61  C   UNL A   1      41.286  32.690  37.935  1.00  0.00     0.020 A 
ATOM     62  C   UNL A   1      42.035  33.868  37.976  1.00  0.00     0.054 A 
BRANCH  62  63
ATOM     63  S   UNL A   1      42.114  34.843  39.500  1.00  0.00     0.124 S 
ATOM     64  O   UNL A   1      43.391  34.414  40.065  1.00  0.00    -0.237 OA
ATOM     65  O   UNL A   1      42.074  36.218  39.007  1.00  0.00    -0.237 OA
ATOM     66  O   UNL A   1      40.927  34.419  40.241  1.00  0.00    -0.744 OA
ENDBRANCH  62  63
ENDBRANCH  36  57
ENDBRANCH  10  11
ENDBRANCH   3   5
ENDBRANCH   2   3
ENDBRANCH   1   2
BRANCH   1  67
ATOM     67  C   UNL A   1      37.005  21.911  24.454  1.00  0.00     0.274 C 
BRANCH  67  68
ATOM     68  O   UNL A   1      36.257  23.106  24.766  1.00  0.00    -0.460 OA
BRANCH  68  69
ATOM     69  C   UNL A   1      35.100  22.919  25.502  1.00  0.00     0.331 C 
ATOM     70  O   UNL A   1      35.020  22.192  26.492  1.00  0.00    -0.249 OA
BRANCH  69  71
ATOM     71  C   UNL A   1      33.866  23.719  24.951  1.00  0.00     0.138 C 
ATOM     72  C   UNL A   1      33.449  24.782  26.011  1.00  0.00     0.040 C 
ATOM     73  C   UNL A   1      34.384  24.474  23.688  1.00  0.00     0.040 C 
ATOM     74  C   UNL A   1      32.563  25.915  25.497  1.00  0.00     0.003 C 
ATOM     75  C   UNL A   1      33.555  25.680  23.233  1.00  0.00     0.003 C 
ATOM     76  C   UNL A   1      33.264  26.649  24.369  1.00  0.00     0.000 C 
BRANCH  71  77
ATOM     77  N   UNL A   1      32.657  22.859  24.626  1.00  0.00    -0.333 N 
ATOM     78  C   UNL A   1      32.584  21.709  23.850  1.00  0.00     0.289 C 
ATOM     79  H   UNL A   1      31.805  23.158  25.019  1.00  0.00     0.165 HD
ATOM     80  O   UNL A   1      32.280  21.868  22.663  1.00  0.00    -0.266 OA
BRANCH  78  81
ATOM     81  C   UNL A   1      32.641  20.361  24.413  1.00  0.00     0.214 A 
ATOM     82  N   UNL A   1      32.891  19.196  23.844  1.00  0.00    -0.207 NA
ATOM     83  N   UNL A   1      32.567  20.117  25.758  1.00  0.00    -0.255 N 
ATOM     84  C   UNL A   1      32.671  18.264  24.827  1.00  0.00     0.154 A 
ATOM     85  N   UNL A   1      32.566  18.801  26.049  1.00  0.00    -0.158 NA
ATOM     86  H   UNL A   1      32.520  20.826  26.438  1.00  0.00     0.192 HD
BRANCH  84  87
ATOM     87  C   UNL A   1      32.474  16.755  24.602  1.00  0.00     0.060 C 
ATOM     88  C   UNL A   1      33.693  15.852  24.725  1.00  0.00     0.012 C 
ATOM     89  C   UNL A   1      32.594  15.746  25.726  1.00  0.00     0.012 C 
ENDBRANCH  84  87
ENDBRANCH  78  81
ENDBRANCH  71  77
ENDBRANCH  69  71
ENDBRANCH  68  69
ENDBRANCH  67  68
ENDBRANCH   1  67
TORSDOF 17
ENDMDL
