MODEL 1
REMARK VINA RESULT:     -10.9      0.000      0.000
REMARK SMILES O=C(OCCOC(=O)c1cn2ccnc2s1)c1ccc(-c2c3nc(c(-c4ccc(S(=O)(=O)[O-])cc4)c4ccc([nH]4)c(-c4ccc(S(=O)(=O)[O-])cc4)c4nc(c(-c5ccc(S(=O)(=O)[O-])cc5)c5ccc2[nH]5)C=C4)C=C3)cc1
REMARK SMILES IDX 3 1 2 2 1 3 17 4 18 5 76 6 19 7 75 8 20 9 21 10 22 11 69 12
REMARK SMILES IDX 23 13 74 14 68 15 70 16 24 17 73 18 67 19 66 20 25 22 55 23
REMARK SMILES IDX 36 24 54 25 37 26 40 27 53 28 71 29 38 30 39 31 52 33 72 34
REMARK SMILES IDX 41 35 26 36 27 37 35 38 28 39 34 40 29 41 30 42 31 43 32 44
REMARK SMILES IDX 33 45 56 46 57 47 65 48 58 49 64 50 59 51 60 52 61 53 62 54
REMARK SMILES IDX 63 55 42 56 43 57 51 58 44 59 50 60 45 61 46 62 47 63 48 64
REMARK SMILES IDX 49 65 4 66 5 67 6 68 7 69 8 70 9 71 10 72 16 73 11 74 15 75
REMARK SMILES IDX 12 76 14 77 13 78
REMARK H PARENT 70 21 40 32
REMARK Flexibility Score: inf
ROOT
ATOM      1  O   UNL A   1      35.983  30.882  29.077  1.00  0.00    -0.458 OA
ENDROOT
BRANCH   1   2
ATOM      2  C   UNL A   1      36.722  29.902  29.653  1.00  0.00     0.338 C 
ATOM      3  O   UNL A   1      36.296  29.334  30.655  1.00  0.00    -0.246 OA
BRANCH   2   4
ATOM      4  C   UNL A   1      38.139  29.654  29.244  1.00  0.00     0.060 A 
ATOM      5  C   UNL A   1      38.595  29.487  27.932  1.00  0.00     0.016 A 
ATOM      6  C   UNL A   1      39.070  29.527  30.289  1.00  0.00     0.016 A 
ATOM      7  C   UNL A   1      39.946  29.248  27.660  1.00  0.00     0.010 A 
ATOM      8  C   UNL A   1      40.422  29.293  30.025  1.00  0.00     0.010 A 
ATOM      9  C   UNL A   1      40.864  29.138  28.704  1.00  0.00    -0.014 A 
BRANCH   9  10
ATOM     10  C   UNL A   1      42.243  28.670  28.446  1.00  0.00     0.031 A 
ATOM     11  C   UNL A   1      43.318  29.702  28.276  1.00  0.00     0.074 A 
ATOM     12  C   UNL A   1      42.533  27.360  28.348  1.00  0.00     0.049 A 
ATOM     13  N   UNL A   1      44.571  29.541  27.949  1.00  0.00    -0.248 NA
ATOM     14  C   UNL A   1      42.930  31.099  28.538  1.00  0.00     0.031 C 
ATOM     15  C   UNL A   1      41.601  26.265  28.598  1.00  0.00     0.029 A 
ATOM     16  N   UNL A   1      43.685  26.734  27.947  1.00  0.00    -0.354 N 
ATOM     17  C   UNL A   1      45.130  30.812  27.997  1.00  0.00     0.074 A 
ATOM     18  C   UNL A   1      44.068  31.738  28.316  1.00  0.00     0.031 C 
ATOM     19  C   UNL A   1      42.176  25.108  28.224  1.00  0.00     0.029 A 
ATOM     20  C   UNL A   1      43.512  25.391  27.708  1.00  0.00     0.049 A 
ATOM     21  H   UNL A   1      44.548  27.198  27.842  1.00  0.00     0.167 HD
ATOM     22  C   UNL A   1      46.424  31.168  27.822  1.00  0.00     0.031 A 
ATOM     23  C   UNL A   1      44.319  24.505  27.093  1.00  0.00     0.031 A 
ATOM     24  C   UNL A   1      47.455  30.242  27.449  1.00  0.00     0.049 A 
ATOM     25  C   UNL A   1      45.702  24.940  26.705  1.00  0.00     0.074 A 
ATOM     26  C   UNL A   1      48.802  30.478  27.257  1.00  0.00     0.029 A 
ATOM     27  N   UNL A   1      47.236  28.897  27.181  1.00  0.00    -0.354 N 
ATOM     28  N   UNL A   1      46.244  26.131  26.816  1.00  0.00    -0.248 NA
ATOM     29  C   UNL A   1      46.602  23.914  26.164  1.00  0.00     0.031 C 
ATOM     30  C   UNL A   1      49.390  29.283  26.823  1.00  0.00     0.029 A 
ATOM     31  C   UNL A   1      48.418  28.293  26.798  1.00  0.00     0.049 A 
ATOM     32  H   UNL A   1      46.366  28.441  27.253  1.00  0.00     0.167 HD
ATOM     33  C   UNL A   1      47.570  25.982  26.431  1.00  0.00     0.074 A 
ATOM     34  C   UNL A   1      47.737  24.593  26.043  1.00  0.00     0.031 C 
ATOM     35  C   UNL A   1      48.563  26.903  26.436  1.00  0.00     0.031 A 
BRANCH  22  36
ATOM     36  C   UNL A   1      46.750  32.623  28.008  1.00  0.00    -0.014 A 
ATOM     37  C   UNL A   1      47.063  33.133  29.283  1.00  0.00     0.010 A 
ATOM     38  C   UNL A   1      46.675  33.504  26.916  1.00  0.00     0.010 A 
ATOM     39  C   UNL A   1      47.215  34.508  29.477  1.00  0.00     0.020 A 
ATOM     40  C   UNL A   1      46.853  34.878  27.102  1.00  0.00     0.020 A 
ATOM     41  C   UNL A   1      47.089  35.373  28.387  1.00  0.00     0.054 A 
BRANCH  41  42
ATOM     42  S   UNL A   1      47.228  37.159  28.674  1.00  0.00     0.124 S 
ATOM     43  O   UNL A   1      45.848  37.600  28.482  1.00  0.00    -0.237 OA
ATOM     44  O   UNL A   1      47.722  37.228  30.048  1.00  0.00    -0.237 OA
ATOM     45  O   UNL A   1      48.172  37.602  27.653  1.00  0.00    -0.744 OA
ENDBRANCH  41  42
ENDBRANCH  22  36
BRANCH  23  46
ATOM     46  C   UNL A   1      43.811  23.141  26.793  1.00  0.00    -0.014 A 
ATOM     47  C   UNL A   1      44.211  22.450  25.637  1.00  0.00     0.010 A 
ATOM     48  C   UNL A   1      42.957  22.500  27.712  1.00  0.00     0.010 A 
ATOM     49  C   UNL A   1      43.771  21.141  25.410  1.00  0.00     0.020 A 
ATOM     50  C   UNL A   1      42.528  21.187  27.495  1.00  0.00     0.020 A 
ATOM     51  C   UNL A   1      42.940  20.515  26.344  1.00  0.00     0.054 A 
BRANCH  51  52
ATOM     52  S   UNL A   1      42.457  18.788  26.063  1.00  0.00     0.124 S 
ATOM     53  O   UNL A   1      41.045  18.917  25.720  1.00  0.00    -0.237 OA
ATOM     54  O   UNL A   1      43.342  18.394  24.970  1.00  0.00    -0.237 OA
ATOM     55  O   UNL A   1      42.736  18.142  27.343  1.00  0.00    -0.744 OA
ENDBRANCH  51  52
ENDBRANCH  23  46
BRANCH  35  56
ATOM     56  C   UNL A   1      49.951  26.437  26.097  1.00  0.00    -0.014 A 
ATOM     57  C   UNL A   1      50.480  26.583  24.806  1.00  0.00     0.010 A 
ATOM     58  C   UNL A   1      50.776  25.964  27.136  1.00  0.00     0.010 A 
ATOM     59  C   UNL A   1      51.820  26.271  24.561  1.00  0.00     0.020 A 
ATOM     60  C   UNL A   1      52.118  25.673  26.899  1.00  0.00     0.020 A 
ATOM     61  C   UNL A   1      52.633  25.829  25.611  1.00  0.00     0.054 A 
BRANCH  61  62
ATOM     62  S   UNL A   1      54.396  25.543  25.293  1.00  0.00     0.124 S 
ATOM     63  O   UNL A   1      54.460  24.086  25.233  1.00  0.00    -0.237 OA
ATOM     64  O   UNL A   1      54.610  26.235  24.025  1.00  0.00    -0.237 OA
ATOM     65  O   UNL A   1      55.057  26.149  26.446  1.00  0.00    -0.744 OA
ENDBRANCH  61  62
ENDBRANCH  35  56
ENDBRANCH   9  10
ENDBRANCH   2   4
ENDBRANCH   1   2
BRANCH   1  66
ATOM     66  C   UNL A   1      35.094  30.741  27.957  1.00  0.00     0.275 C 
BRANCH  66  67
ATOM     67  C   UNL A   1      34.166  31.942  27.760  1.00  0.00     0.275 C 
BRANCH  67  68
ATOM     68  O   UNL A   1      34.182  32.853  28.874  1.00  0.00    -0.458 OA
BRANCH  68  69
ATOM     69  C   UNL A   1      33.335  33.915  28.757  1.00  0.00     0.350 C 
ATOM     70  O   UNL A   1      32.463  34.046  27.920  1.00  0.00    -0.245 OA
BRANCH  69  71
ATOM     71  C   UNL A   1      33.564  34.855  29.873  1.00  0.00     0.132 A 
ATOM     72  C   UNL A   1      34.105  34.595  31.077  1.00  0.00     0.120 A 
ATOM     73  S   UNL A   1      33.013  36.530  29.693  1.00  0.00    -0.089 S 
ATOM     74  N   UNL A   1      34.031  35.698  31.896  1.00  0.00    -0.297 N 
ATOM     75  C   UNL A   1      33.428  36.795  31.354  1.00  0.00     0.194 A 
ATOM     76  C   UNL A   1      34.362  36.021  33.174  1.00  0.00     0.114 A 
ATOM     77  N   UNL A   1      33.223  37.757  32.211  1.00  0.00    -0.227 NA
ATOM     78  C   UNL A   1      33.801  37.273  33.369  1.00  0.00     0.133 A 
ENDBRANCH  69  71
ENDBRANCH  68  69
ENDBRANCH  67  68
ENDBRANCH  66  67
ENDBRANCH   1  66
TORSDOF 14
ENDMDL
MODEL 2
REMARK VINA RESULT:     -10.6      4.377     12.441
REMARK SMILES O=C(OCCOC(=O)c1cn2ccnc2s1)c1ccc(-c2c3nc(c(-c4ccc(S(=O)(=O)[O-])cc4)c4ccc([nH]4)c(-c4ccc(S(=O)(=O)[O-])cc4)c4nc(c(-c5ccc(S(=O)(=O)[O-])cc5)c5ccc2[nH]5)C=C4)C=C3)cc1
REMARK SMILES IDX 3 1 2 2 1 3 17 4 18 5 76 6 19 7 75 8 20 9 21 10 22 11 69 12
REMARK SMILES IDX 23 13 74 14 68 15 70 16 24 17 73 18 67 19 66 20 25 22 55 23
REMARK SMILES IDX 36 24 54 25 37 26 40 27 53 28 71 29 38 30 39 31 52 33 72 34
REMARK SMILES IDX 41 35 26 36 27 37 35 38 28 39 34 40 29 41 30 42 31 43 32 44
REMARK SMILES IDX 33 45 56 46 57 47 65 48 58 49 64 50 59 51 60 52 61 53 62 54
REMARK SMILES IDX 63 55 42 56 43 57 51 58 44 59 50 60 45 61 46 62 47 63 48 64
REMARK SMILES IDX 49 65 4 66 5 67 6 68 7 69 8 70 9 71 10 72 16 73 11 74 15 75
REMARK SMILES IDX 12 76 14 77 13 78
REMARK H PARENT 70 21 40 32
REMARK Flexibility Score: inf
ROOT
ATOM      1  O   UNL A   1      39.839  21.726  26.002  1.00  0.00    -0.458 OA
ENDROOT
BRANCH   1   2
ATOM      2  C   UNL A   1      38.922  22.701  26.214  1.00  0.00     0.338 C 
ATOM      3  O   UNL A   1      37.776  22.555  25.797  1.00  0.00    -0.246 OA
BRANCH   2   4
ATOM      4  C   UNL A   1      39.322  24.047  26.732  1.00  0.00     0.060 A 
ATOM      5  C   UNL A   1      40.129  24.973  26.063  1.00  0.00     0.016 A 
ATOM      6  C   UNL A   1      38.883  24.366  28.027  1.00  0.00     0.016 A 
ATOM      7  C   UNL A   1      40.453  26.204  26.644  1.00  0.00     0.010 A 
ATOM      8  C   UNL A   1      39.198  25.596  28.612  1.00  0.00     0.010 A 
ATOM      9  C   UNL A   1      40.000  26.517  27.925  1.00  0.00    -0.014 A 
BRANCH   9  10
ATOM     10  C   UNL A   1      40.511  27.710  28.633  1.00  0.00     0.031 A 
ATOM     11  C   UNL A   1      41.815  27.591  29.363  1.00  0.00     0.074 A 
ATOM     12  C   UNL A   1      39.826  28.867  28.644  1.00  0.00     0.049 A 
ATOM     13  N   UNL A   1      42.413  28.462  30.130  1.00  0.00    -0.248 NA
ATOM     14  C   UNL A   1      42.556  26.331  29.179  1.00  0.00     0.031 C 
ATOM     15  C   UNL A   1      38.606  29.137  27.888  1.00  0.00     0.029 A 
ATOM     16  N   UNL A   1      40.030  30.013  29.369  1.00  0.00    -0.354 N 
ATOM     17  C   UNL A   1      43.615  27.869  30.495  1.00  0.00     0.074 A 
ATOM     18  C   UNL A   1      43.630  26.542  29.923  1.00  0.00     0.031 C 
ATOM     19  C   UNL A   1      38.099  30.317  28.283  1.00  0.00     0.029 A 
ATOM     20  C   UNL A   1      38.962  30.877  29.319  1.00  0.00     0.049 A 
ATOM     21  H   UNL A   1      40.855  30.198  29.873  1.00  0.00     0.167 HD
ATOM     22  C   UNL A   1      44.629  28.399  31.216  1.00  0.00     0.031 A 
ATOM     23  C   UNL A   1      38.687  31.965  30.065  1.00  0.00     0.031 A 
ATOM     24  C   UNL A   1      44.571  29.698  31.825  1.00  0.00     0.049 A 
ATOM     25  C   UNL A   1      39.728  32.460  31.027  1.00  0.00     0.074 A 
ATOM     26  C   UNL A   1      45.538  30.350  32.565  1.00  0.00     0.029 A 
ATOM     27  N   UNL A   1      43.461  30.530  31.784  1.00  0.00    -0.354 N 
ATOM     28  N   UNL A   1      40.892  31.925  31.315  1.00  0.00    -0.248 NA
ATOM     29  C   UNL A   1      39.454  33.724  31.721  1.00  0.00     0.031 C 
ATOM     30  C   UNL A   1      44.992  31.559  33.014  1.00  0.00     0.029 A 
ATOM     31  C   UNL A   1      43.706  31.681  32.508  1.00  0.00     0.049 A 
ATOM     32  H   UNL A   1      42.622  30.329  31.307  1.00  0.00     0.167 HD
ATOM     33  C   UNL A   1      41.521  32.825  32.166  1.00  0.00     0.074 A 
ATOM     34  C   UNL A   1      40.591  33.918  32.378  1.00  0.00     0.031 C 
ATOM     35  C   UNL A   1      42.770  32.765  32.688  1.00  0.00     0.031 A 
BRANCH  22  36
ATOM     36  C   UNL A   1      45.849  27.539  31.391  1.00  0.00    -0.014 A 
ATOM     37  C   UNL A   1      45.975  26.688  32.507  1.00  0.00     0.010 A 
ATOM     38  C   UNL A   1      46.910  27.631  30.475  1.00  0.00     0.010 A 
ATOM     39  C   UNL A   1      47.172  26.007  32.744  1.00  0.00     0.020 A 
ATOM     40  C   UNL A   1      48.099  26.931  30.696  1.00  0.00     0.020 A 
ATOM     41  C   UNL A   1      48.234  26.150  31.847  1.00  0.00     0.054 A 
BRANCH  41  42
ATOM     42  S   UNL A   1      49.798  25.307  32.210  1.00  0.00     0.124 S 
ATOM     43  O   UNL A   1      50.623  26.409  32.701  1.00  0.00    -0.237 OA
ATOM     44  O   UNL A   1      49.409  24.320  33.214  1.00  0.00    -0.237 OA
ATOM     45  O   UNL A   1      50.201  24.754  30.921  1.00  0.00    -0.744 OA
ENDBRANCH  41  42
ENDBRANCH  22  36
BRANCH  23  46
ATOM     46  C   UNL A   1      37.360  32.623  29.936  1.00  0.00    -0.014 A 
ATOM     47  C   UNL A   1      36.318  32.348  30.837  1.00  0.00     0.010 A 
ATOM     48  C   UNL A   1      37.157  33.586  28.928  1.00  0.00     0.010 A 
ATOM     49  C   UNL A   1      35.100  33.028  30.735  1.00  0.00     0.020 A 
ATOM     50  C   UNL A   1      35.946  34.277  28.833  1.00  0.00     0.020 A 
ATOM     51  C   UNL A   1      34.924  33.995  29.740  1.00  0.00     0.054 A 
BRANCH  51  52
ATOM     52  S   UNL A   1      33.364  34.921  29.688  1.00  0.00     0.124 S 
ATOM     53  O   UNL A   1      33.794  36.217  29.175  1.00  0.00    -0.237 OA
ATOM     54  O   UNL A   1      32.556  34.115  28.776  1.00  0.00    -0.237 OA
ATOM     55  O   UNL A   1      32.915  34.913  31.078  1.00  0.00    -0.744 OA
ENDBRANCH  51  52
ENDBRANCH  23  46
BRANCH  35  56
ATOM     56  C   UNL A   1      43.256  33.950  33.474  1.00  0.00    -0.014 A 
ATOM     57  C   UNL A   1      43.797  35.079  32.841  1.00  0.00     0.010 A 
ATOM     58  C   UNL A   1      43.041  33.971  34.865  1.00  0.00     0.010 A 
ATOM     59  C   UNL A   1      44.107  36.219  33.589  1.00  0.00     0.020 A 
ATOM     60  C   UNL A   1      43.328  35.114  35.610  1.00  0.00     0.020 A 
ATOM     61  C   UNL A   1      43.860  36.232  34.966  1.00  0.00     0.054 A 
BRANCH  61  62
ATOM     62  S   UNL A   1      44.161  37.762  35.894  1.00  0.00     0.124 S 
ATOM     63  O   UNL A   1      43.676  38.779  34.967  1.00  0.00    -0.237 OA
ATOM     64  O   UNL A   1      43.356  37.571  37.098  1.00  0.00    -0.237 OA
ATOM     65  O   UNL A   1      45.606  37.754  36.111  1.00  0.00    -0.744 OA
ENDBRANCH  61  62
ENDBRANCH  35  56
ENDBRANCH   9  10
ENDBRANCH   2   4
ENDBRANCH   1   2
BRANCH   1  66
ATOM     66  C   UNL A   1      40.768  21.198  26.963  1.00  0.00     0.275 C 
BRANCH  66  67
ATOM     67  C   UNL A   1      42.219  21.606  26.695  1.00  0.00     0.275 C 
BRANCH  67  68
ATOM     68  O   UNL A   1      42.411  22.177  25.389  1.00  0.00    -0.458 OA
BRANCH  68  69
ATOM     69  C   UNL A   1      43.695  22.145  24.932  1.00  0.00     0.350 C 
ATOM     70  O   UNL A   1      44.247  21.192  24.415  1.00  0.00    -0.245 OA
BRANCH  69  71
ATOM     71  C   UNL A   1      44.302  23.484  25.066  1.00  0.00     0.132 A 
ATOM     72  C   UNL A   1      43.680  24.655  25.297  1.00  0.00     0.120 A 
ATOM     73  S   UNL A   1      46.051  23.647  24.832  1.00  0.00    -0.089 S 
ATOM     74  N   UNL A   1      44.569  25.704  25.225  1.00  0.00    -0.297 N 
ATOM     75  C   UNL A   1      45.856  25.366  24.927  1.00  0.00     0.194 A 
ATOM     76  C   UNL A   1      44.530  27.058  25.328  1.00  0.00     0.114 A 
ATOM     77  N   UNL A   1      46.628  26.392  24.700  1.00  0.00    -0.227 NA
ATOM     78  C   UNL A   1      45.795  27.469  24.940  1.00  0.00     0.133 A 
ENDBRANCH  69  71
ENDBRANCH  68  69
ENDBRANCH  67  68
ENDBRANCH  66  67
ENDBRANCH   1  66
TORSDOF 14
ENDMDL
MODEL 3
REMARK VINA RESULT:     -10.6      6.433     14.232
REMARK SMILES O=C(OCCOC(=O)c1cn2ccnc2s1)c1ccc(-c2c3nc(c(-c4ccc(S(=O)(=O)[O-])cc4)c4ccc([nH]4)c(-c4ccc(S(=O)(=O)[O-])cc4)c4nc(c(-c5ccc(S(=O)(=O)[O-])cc5)c5ccc2[nH]5)C=C4)C=C3)cc1
REMARK SMILES IDX 3 1 2 2 1 3 17 4 18 5 76 6 19 7 75 8 20 9 21 10 22 11 69 12
REMARK SMILES IDX 23 13 74 14 68 15 70 16 24 17 73 18 67 19 66 20 25 22 55 23
REMARK SMILES IDX 36 24 54 25 37 26 40 27 53 28 71 29 38 30 39 31 52 33 72 34
REMARK SMILES IDX 41 35 26 36 27 37 35 38 28 39 34 40 29 41 30 42 31 43 32 44
REMARK SMILES IDX 33 45 56 46 57 47 65 48 58 49 64 50 59 51 60 52 61 53 62 54
REMARK SMILES IDX 63 55 42 56 43 57 51 58 44 59 50 60 45 61 46 62 47 63 48 64
REMARK SMILES IDX 49 65 4 66 5 67 6 68 7 69 8 70 9 71 10 72 16 73 11 74 15 75
REMARK SMILES IDX 12 76 14 77 13 78
REMARK H PARENT 70 21 40 32
REMARK Flexibility Score: inf
ROOT
ATOM      1  O   UNL A   1      41.846  25.917  24.980  1.00  0.00    -0.458 OA
ENDROOT
BRANCH   1   2
ATOM      2  C   UNL A   1      42.021  27.198  25.386  1.00  0.00     0.338 C 
ATOM      3  O   UNL A   1      42.599  27.993  24.650  1.00  0.00    -0.246 OA
BRANCH   2   4
ATOM      4  C   UNL A   1      41.740  27.613  26.796  1.00  0.00     0.060 A 
ATOM      5  C   UNL A   1      40.797  27.028  27.648  1.00  0.00     0.016 A 
ATOM      6  C   UNL A   1      42.460  28.723  27.269  1.00  0.00     0.016 A 
ATOM      7  C   UNL A   1      40.606  27.501  28.950  1.00  0.00     0.010 A 
ATOM      8  C   UNL A   1      42.278  29.198  28.570  1.00  0.00     0.010 A 
ATOM      9  C   UNL A   1      41.335  28.595  29.414  1.00  0.00    -0.014 A 
BRANCH   9  10
ATOM     10  C   UNL A   1      40.990  29.239  30.700  1.00  0.00     0.031 A 
ATOM     11  C   UNL A   1      39.912  30.281  30.700  1.00  0.00     0.074 A 
ATOM     12  C   UNL A   1      41.632  28.919  31.838  1.00  0.00     0.049 A 
ATOM     13  N   UNL A   1      39.506  31.046  31.676  1.00  0.00    -0.248 NA
ATOM     14  C   UNL A   1      39.177  30.462  29.436  1.00  0.00     0.031 C 
ATOM     15  C   UNL A   1      42.618  27.853  31.986  1.00  0.00     0.029 A 
ATOM     16  N   UNL A   1      41.590  29.509  33.076  1.00  0.00    -0.354 N 
ATOM     17  C   UNL A   1      38.446  31.777  31.155  1.00  0.00     0.074 A 
ATOM     18  C   UNL A   1      38.318  31.415  29.761  1.00  0.00     0.031 C 
ATOM     19  C   UNL A   1      43.181  27.944  33.203  1.00  0.00     0.029 A 
ATOM     20  C   UNL A   1      42.592  29.076  33.912  1.00  0.00     0.049 A 
ATOM     21  H   UNL A   1      40.911  30.173  33.340  1.00  0.00     0.167 HD
ATOM     22  C   UNL A   1      37.632  32.650  31.792  1.00  0.00     0.031 A 
ATOM     23  C   UNL A   1      43.020  29.573  35.089  1.00  0.00     0.031 A 
ATOM     24  C   UNL A   1      37.811  33.041  33.162  1.00  0.00     0.049 A 
ATOM     25  C   UNL A   1      42.241  30.687  35.725  1.00  0.00     0.074 A 
ATOM     26  C   UNL A   1      37.045  33.903  33.923  1.00  0.00     0.029 A 
ATOM     27  N   UNL A   1      38.857  32.610  33.966  1.00  0.00    -0.354 N 
ATOM     28  N   UNL A   1      41.198  31.328  35.250  1.00  0.00    -0.248 NA
ATOM     29  C   UNL A   1      42.651  31.111  37.069  1.00  0.00     0.031 C 
ATOM     30  C   UNL A   1      37.660  34.031  35.174  1.00  0.00     0.029 A 
ATOM     31  C   UNL A   1      38.776  33.208  35.209  1.00  0.00     0.049 A 
ATOM     32  H   UNL A   1      39.555  31.971  33.691  1.00  0.00     0.167 HD
ATOM     33  C   UNL A   1      40.780  32.177  36.266  1.00  0.00     0.074 A 
ATOM     34  C   UNL A   1      41.709  31.999  37.366  1.00  0.00     0.031 C 
ATOM     35  C   UNL A   1      39.703  32.999  36.296  1.00  0.00     0.031 A 
BRANCH  22  36
ATOM     36  C   UNL A   1      36.514  33.240  30.980  1.00  0.00    -0.014 A 
ATOM     37  C   UNL A   1      36.787  34.093  29.893  1.00  0.00     0.010 A 
ATOM     38  C   UNL A   1      35.179  33.000  31.346  1.00  0.00     0.010 A 
ATOM     39  C   UNL A   1      35.747  34.758  29.239  1.00  0.00     0.020 A 
ATOM     40  C   UNL A   1      34.134  33.644  30.676  1.00  0.00     0.020 A 
ATOM     41  C   UNL A   1      34.429  34.544  29.649  1.00  0.00     0.054 A 
BRANCH  41  42
ATOM     42  S   UNL A   1      33.102  35.467  28.827  1.00  0.00     0.124 S 
ATOM     43  O   UNL A   1      33.858  36.418  28.015  1.00  0.00    -0.237 OA
ATOM     44  O   UNL A   1      32.398  34.427  28.080  1.00  0.00    -0.237 OA
ATOM     45  O   UNL A   1      32.349  36.052  29.932  1.00  0.00    -0.744 OA
ENDBRANCH  41  42
ENDBRANCH  22  36
BRANCH  23  46
ATOM     46  C   UNL A   1      44.258  29.028  35.704  1.00  0.00    -0.014 A 
ATOM     47  C   UNL A   1      44.215  27.929  36.578  1.00  0.00     0.010 A 
ATOM     48  C   UNL A   1      45.507  29.581  35.361  1.00  0.00     0.010 A 
ATOM     49  C   UNL A   1      45.400  27.392  37.094  1.00  0.00     0.020 A 
ATOM     50  C   UNL A   1      46.693  29.037  35.862  1.00  0.00     0.020 A 
ATOM     51  C   UNL A   1      46.632  27.942  36.725  1.00  0.00     0.054 A 
BRANCH  51  52
ATOM     52  S   UNL A   1      48.153  27.168  37.341  1.00  0.00     0.124 S 
ATOM     53  O   UNL A   1      48.149  27.561  38.747  1.00  0.00    -0.237 OA
ATOM     54  O   UNL A   1      47.909  25.753  37.078  1.00  0.00    -0.237 OA
ATOM     55  O   UNL A   1      49.202  27.774  36.523  1.00  0.00    -0.744 OA
ENDBRANCH  51  52
ENDBRANCH  23  46
BRANCH  35  56
ATOM     56  C   UNL A   1      39.402  33.711  37.583  1.00  0.00    -0.014 A 
ATOM     57  C   UNL A   1      38.615  33.120  38.584  1.00  0.00     0.010 A 
ATOM     58  C   UNL A   1      40.034  34.944  37.836  1.00  0.00     0.010 A 
ATOM     59  C   UNL A   1      38.473  33.747  39.824  1.00  0.00     0.020 A 
ATOM     60  C   UNL A   1      39.912  35.561  39.080  1.00  0.00     0.020 A 
ATOM     61  C   UNL A   1      39.131  34.959  40.068  1.00  0.00     0.054 A 
BRANCH  61  62
ATOM     62  S   UNL A   1      39.026  35.694  41.722  1.00  0.00     0.124 S 
ATOM     63  O   UNL A   1      37.691  35.287  42.151  1.00  0.00    -0.237 OA
ATOM     64  O   UNL A   1      40.135  35.058  42.428  1.00  0.00    -0.237 OA
ATOM     65  O   UNL A   1      39.191  37.125  41.474  1.00  0.00    -0.744 OA
ENDBRANCH  61  62
ENDBRANCH  35  56
ENDBRANCH   9  10
ENDBRANCH   2   4
ENDBRANCH   1   2
BRANCH   1  66
ATOM     66  C   UNL A   1      42.641  24.781  25.357  1.00  0.00     0.275 C 
BRANCH  66  67
ATOM     67  C   UNL A   1      44.128  25.106  25.520  1.00  0.00     0.275 C 
BRANCH  67  68
ATOM     68  O   UNL A   1      44.920  23.956  25.865  1.00  0.00    -0.458 OA
BRANCH  68  69
ATOM     69  C   UNL A   1      45.154  23.092  24.835  1.00  0.00     0.350 C 
ATOM     70  O   UNL A   1      45.884  23.294  23.884  1.00  0.00    -0.245 OA
BRANCH  69  71
ATOM     71  C   UNL A   1      44.461  21.815  25.095  1.00  0.00     0.132 A 
ATOM     72  C   UNL A   1      43.482  21.570  25.986  1.00  0.00     0.120 A 
ATOM     73  S   UNL A   1      44.987  20.372  24.209  1.00  0.00    -0.089 S 
ATOM     74  N   UNL A   1      43.182  20.227  26.027  1.00  0.00    -0.297 N 
ATOM     75  C   UNL A   1      43.920  19.433  25.201  1.00  0.00     0.194 A 
ATOM     76  C   UNL A   1      42.347  19.409  26.720  1.00  0.00     0.114 A 
ATOM     77  N   UNL A   1      43.728  18.157  25.391  1.00  0.00    -0.227 NA
ATOM     78  C   UNL A   1      42.742  18.130  26.359  1.00  0.00     0.133 A 
ENDBRANCH  69  71
ENDBRANCH  68  69
ENDBRANCH  67  68
ENDBRANCH  66  67
ENDBRANCH   1  66
TORSDOF 14
ENDMDL
