MODEL 1
REMARK VINA RESULT:     -11.7      0.000      0.000
REMARK SMILES CC1(C)CCC[C@@H]1NC(=O)NC1(CC(=O)OCCOC(=O)c2ccc(-c3c4nc(c(-c5ccc(S(=O)(=O)[O-])cc5)c5ccc([nH]5)c(-c5ccc(S(=O)(=O)[O-])cc5)c5nc(c(-c6ccc(S(=O)(=O)[O-])cc6)c6ccc3[nH]6)C=C5)C=C4)cc2)CCCCC1
REMARK SMILES IDX 17 1 16 2 14 3 15 4 13 5 12 6 82 7 86 8 83 9 85 10 84 11
REMARK SMILES IDX 11 12 8 13 9 14 10 16 7 18 1 19 2 20 3 21 4 22 5 23 6 24
REMARK SMILES IDX 18 25 19 26 20 27 21 28 22 29 23 30 81 31 24 32 80 33 25 34
REMARK SMILES IDX 26 35 27 36 74 37 28 38 79 39 73 40 75 41 29 42 78 43 72 44
REMARK SMILES IDX 71 45 30 47 60 48 41 49 59 50 42 51 45 52 58 53 76 54 43 55
REMARK SMILES IDX 44 56 57 58 77 59 46 60 31 61 32 62 40 63 33 64 39 65 34 66
REMARK SMILES IDX 35 67 36 68 37 69 38 70 61 71 62 72 70 73 63 74 69 75 64 76
REMARK SMILES IDX 65 77 66 78 67 79 68 80 47 81 48 82 56 83 49 84 55 85 50 86
REMARK SMILES IDX 51 87 52 88 53 89 54 90
REMARK H PARENT 8 15 11 17 75 46 45 57
REMARK Flexibility Score: inf
ROOT
ATOM      1  C   UNL A   1      32.857  29.599  27.358  1.00  0.00     0.274 C 
ENDROOT
BRANCH   1   2
ATOM      2  O   UNL A   1      32.092  29.014  26.283  1.00  0.00    -0.462 OA
BRANCH   2   3
ATOM      3  C   UNL A   1      31.406  27.900  26.615  1.00  0.00     0.308 C 
ATOM      4  O   UNL A   1      31.041  27.638  27.759  1.00  0.00    -0.252 OA
BRANCH   3   5
ATOM      5  C   UNL A   1      31.154  26.915  25.501  1.00  0.00     0.151 C 
BRANCH   5   6
ATOM      6  C   UNL A   1      31.618  25.420  25.464  1.00  0.00     0.052 C 
ATOM      7  C   UNL A   1      33.069  25.515  26.028  1.00  0.00     0.029 C 
ATOM      8  C   UNL A   1      31.548  24.885  24.018  1.00  0.00     0.029 C 
ATOM      9  C   UNL A   1      34.129  25.982  25.034  1.00  0.00     0.002 C 
ATOM     10  C   UNL A   1      32.613  25.457  23.090  1.00  0.00     0.002 C 
ATOM     11  C   UNL A   1      34.011  25.314  23.672  1.00  0.00     0.000 C 
BRANCH   6  12
ATOM     12  N   UNL A   1      30.805  24.546  26.354  1.00  0.00    -0.332 N 
ATOM     13  N   UNL A   1      31.841  22.415  26.772  1.00  0.00    -0.335 N 
ATOM     14  C   UNL A   1      30.868  23.324  26.905  1.00  0.00     0.315 C 
ATOM     15  H   UNL A   1      31.659  21.618  27.319  1.00  0.00     0.165 HD
ATOM     16  O   UNL A   1      29.925  22.976  27.624  1.00  0.00    -0.249 OA
ATOM     17  H   UNL A   1      29.972  25.000  26.617  1.00  0.00     0.165 HD
BRANCH  13  18
ATOM     18  C   UNL A   1      33.086  22.278  26.047  1.00  0.00     0.089 C 
ATOM     19  C   UNL A   1      32.272  21.474  23.754  1.00  0.00     0.013 C 
ATOM     20  C   UNL A   1      33.134  21.153  24.978  1.00  0.00    -0.015 C 
ATOM     21  C   UNL A   1      32.742  19.757  25.499  1.00  0.00     0.013 C 
ATOM     22  C   UNL A   1      34.640  21.170  24.631  1.00  0.00     0.008 C 
ATOM     23  C   UNL A   1      35.368  21.536  25.933  1.00  0.00     0.003 C 
ATOM     24  C   UNL A   1      34.282  21.922  26.936  1.00  0.00     0.025 C 
ENDBRANCH  13  18
ENDBRANCH   6  12
ENDBRANCH   5   6
ENDBRANCH   3   5
ENDBRANCH   2   3
ENDBRANCH   1   2
BRANCH   1  25
ATOM     25  C   UNL A   1      34.348  29.754  27.022  1.00  0.00     0.275 C 
BRANCH  25  26
ATOM     26  O   UNL A   1      35.223  29.106  27.966  1.00  0.00    -0.458 OA
BRANCH  26  27
ATOM     27  C   UNL A   1      35.905  29.960  28.760  1.00  0.00     0.338 C 
ATOM     28  O   UNL A   1      35.415  30.744  29.569  1.00  0.00    -0.246 OA
BRANCH  27  29
ATOM     29  C   UNL A   1      37.350  29.730  28.695  1.00  0.00     0.060 A 
ATOM     30  C   UNL A   1      37.943  29.747  27.431  1.00  0.00     0.016 A 
ATOM     31  C   UNL A   1      38.093  29.375  29.820  1.00  0.00     0.016 A 
ATOM     32  C   UNL A   1      39.277  29.401  27.273  1.00  0.00     0.010 A 
ATOM     33  C   UNL A   1      39.444  29.038  29.663  1.00  0.00     0.010 A 
ATOM     34  C   UNL A   1      40.039  29.042  28.388  1.00  0.00    -0.014 A 
BRANCH  34  35
ATOM     35  C   UNL A   1      41.451  28.641  28.195  1.00  0.00     0.031 A 
ATOM     36  C   UNL A   1      42.546  29.660  28.316  1.00  0.00     0.074 A 
ATOM     37  C   UNL A   1      41.747  27.351  27.951  1.00  0.00     0.049 A 
ATOM     38  N   UNL A   1      43.824  29.527  28.075  1.00  0.00    -0.248 NA
ATOM     39  C   UNL A   1      42.150  31.003  28.765  1.00  0.00     0.031 C 
ATOM     40  C   UNL A   1      40.773  26.260  27.882  1.00  0.00     0.029 A 
ATOM     41  N   UNL A   1      42.953  26.740  27.722  1.00  0.00    -0.354 N 
ATOM     42  C   UNL A   1      44.383  30.778  28.301  1.00  0.00     0.074 A 
ATOM     43  C   UNL A   1      43.303  31.656  28.703  1.00  0.00     0.031 C 
ATOM     44  C   UNL A   1      41.422  25.111  27.635  1.00  0.00     0.029 A 
ATOM     45  C   UNL A   1      42.844  25.395  27.467  1.00  0.00     0.049 A 
ATOM     46  H   UNL A   1      43.813  27.219  27.737  1.00  0.00     0.167 HD
ATOM     47  C   UNL A   1      45.676  31.160  28.175  1.00  0.00     0.031 A 
ATOM     48  C   UNL A   1      43.775  24.495  27.099  1.00  0.00     0.031 A 
ATOM     49  C   UNL A   1      46.743  30.277  27.783  1.00  0.00     0.049 A 
ATOM     50  C   UNL A   1      45.195  24.948  26.919  1.00  0.00     0.074 A 
ATOM     51  C   UNL A   1      48.086  30.566  27.615  1.00  0.00     0.029 A 
ATOM     52  N   UNL A   1      46.586  28.928  27.499  1.00  0.00    -0.354 N 
ATOM     53  N   UNL A   1      45.702  26.146  27.089  1.00  0.00    -0.248 NA
ATOM     54  C   UNL A   1      46.164  23.934  26.490  1.00  0.00     0.031 C 
ATOM     55  C   UNL A   1      48.735  29.398  27.194  1.00  0.00     0.029 A 
ATOM     56  C   UNL A   1      47.804  28.373  27.142  1.00  0.00     0.049 A 
ATOM     57  H   UNL A   1      45.734  28.437  27.546  1.00  0.00     0.167 HD
ATOM     58  C   UNL A   1      47.053  26.031  26.788  1.00  0.00     0.074 A 
ATOM     59  C   UNL A   1      47.287  24.641  26.445  1.00  0.00     0.031 C 
ATOM     60  C   UNL A   1      48.012  26.990  26.791  1.00  0.00     0.031 A 
BRANCH  47  61
ATOM     61  C   UNL A   1      45.984  32.616  28.405  1.00  0.00    -0.014 A 
ATOM     62  C   UNL A   1      45.921  33.554  27.359  1.00  0.00     0.010 A 
ATOM     63  C   UNL A   1      46.360  33.045  29.690  1.00  0.00     0.010 A 
ATOM     64  C   UNL A   1      46.283  34.886  27.584  1.00  0.00     0.020 A 
ATOM     65  C   UNL A   1      46.701  34.379  29.923  1.00  0.00     0.020 A 
ATOM     66  C   UNL A   1      46.684  35.287  28.862  1.00  0.00     0.054 A 
BRANCH  66  67
ATOM     67  S   UNL A   1      47.170  37.014  29.131  1.00  0.00     0.124 S 
ATOM     68  O   UNL A   1      47.883  36.932  30.403  1.00  0.00    -0.237 OA
ATOM     69  O   UNL A   1      48.000  37.305  27.964  1.00  0.00    -0.237 OA
ATOM     70  O   UNL A   1      45.896  37.729  29.176  1.00  0.00    -0.744 OA
ENDBRANCH  66  67
ENDBRANCH  47  61
BRANCH  48  71
ATOM     71  C   UNL A   1      43.364  23.093  26.834  1.00  0.00    -0.014 A 
ATOM     72  C   UNL A   1      43.712  22.459  25.630  1.00  0.00     0.010 A 
ATOM     73  C   UNL A   1      42.684  22.359  27.825  1.00  0.00     0.010 A 
ATOM     74  C   UNL A   1      43.400  21.111  25.427  1.00  0.00     0.020 A 
ATOM     75  C   UNL A   1      42.392  21.007  27.635  1.00  0.00     0.020 A 
ATOM     76  C   UNL A   1      42.750  20.391  26.435  1.00  0.00     0.054 A 
BRANCH  76  77
ATOM     77  S   UNL A   1      42.451  18.616  26.198  1.00  0.00     0.124 S 
ATOM     78  O   UNL A   1      43.449  18.273  25.191  1.00  0.00    -0.237 OA
ATOM     79  O   UNL A   1      42.685  18.072  27.534  1.00  0.00    -0.237 OA
ATOM     80  O   UNL A   1      41.061  18.563  25.749  1.00  0.00    -0.744 OA
ENDBRANCH  76  77
ENDBRANCH  48  71
BRANCH  60  81
ATOM     81  C   UNL A   1      49.404  26.562  26.421  1.00  0.00    -0.014 A 
ATOM     82  C   UNL A   1      50.247  25.952  27.366  1.00  0.00     0.010 A 
ATOM     83  C   UNL A   1      49.860  26.736  25.101  1.00  0.00     0.010 A 
ATOM     84  C   UNL A   1      51.535  25.545  27.004  1.00  0.00     0.020 A 
ATOM     85  C   UNL A   1      51.138  26.314  24.732  1.00  0.00     0.020 A 
ATOM     86  C   UNL A   1      51.974  25.734  25.689  1.00  0.00     0.054 A 
BRANCH  86  87
ATOM     87  S   UNL A   1      53.633  25.165  25.229  1.00  0.00     0.124 S 
ATOM     88  O   UNL A   1      53.505  23.716  25.364  1.00  0.00    -0.237 OA
ATOM     89  O   UNL A   1      53.778  25.656  23.860  1.00  0.00    -0.237 OA
ATOM     90  O   UNL A   1      54.503  25.810  26.210  1.00  0.00    -0.744 OA
ENDBRANCH  86  87
ENDBRANCH  60  81
ENDBRANCH  34  35
ENDBRANCH  27  29
ENDBRANCH  26  27
ENDBRANCH  25  26
ENDBRANCH   1  25
TORSDOF 17
ENDMDL
MODEL 2
REMARK VINA RESULT:     -11.5      2.573      3.220
REMARK SMILES CC1(C)CCC[C@@H]1NC(=O)NC1(CC(=O)OCCOC(=O)c2ccc(-c3c4nc(c(-c5ccc(S(=O)(=O)[O-])cc5)c5ccc([nH]5)c(-c5ccc(S(=O)(=O)[O-])cc5)c5nc(c(-c6ccc(S(=O)(=O)[O-])cc6)c6ccc3[nH]6)C=C5)C=C4)cc2)CCCCC1
REMARK SMILES IDX 17 1 16 2 14 3 15 4 13 5 12 6 82 7 86 8 83 9 85 10 84 11
REMARK SMILES IDX 11 12 8 13 9 14 10 16 7 18 1 19 2 20 3 21 4 22 5 23 6 24
REMARK SMILES IDX 18 25 19 26 20 27 21 28 22 29 23 30 81 31 24 32 80 33 25 34
REMARK SMILES IDX 26 35 27 36 74 37 28 38 79 39 73 40 75 41 29 42 78 43 72 44
REMARK SMILES IDX 71 45 30 47 60 48 41 49 59 50 42 51 45 52 58 53 76 54 43 55
REMARK SMILES IDX 44 56 57 58 77 59 46 60 31 61 32 62 40 63 33 64 39 65 34 66
REMARK SMILES IDX 35 67 36 68 37 69 38 70 61 71 62 72 70 73 63 74 69 75 64 76
REMARK SMILES IDX 65 77 66 78 67 79 68 80 47 81 48 82 56 83 49 84 55 85 50 86
REMARK SMILES IDX 51 87 52 88 53 89 54 90
REMARK H PARENT 8 15 11 17 75 46 45 57
REMARK Flexibility Score: inf
ROOT
ATOM      1  C   UNL A   1      32.850  28.673  25.071  1.00  0.00     0.274 C 
ENDROOT
BRANCH   1   2
ATOM      2  O   UNL A   1      31.522  28.515  25.616  1.00  0.00    -0.462 OA
BRANCH   2   3
ATOM      3  C   UNL A   1      31.145  27.238  25.830  1.00  0.00     0.308 C 
ATOM      4  O   UNL A   1      30.773  26.809  26.921  1.00  0.00    -0.252 OA
BRANCH   3   5
ATOM      5  C   UNL A   1      31.264  26.299  24.655  1.00  0.00     0.151 C 
BRANCH   5   6
ATOM      6  C   UNL A   1      31.658  24.786  24.716  1.00  0.00     0.052 C 
ATOM      7  C   UNL A   1      33.050  24.839  25.418  1.00  0.00     0.029 C 
ATOM      8  C   UNL A   1      31.706  24.199  23.289  1.00  0.00     0.029 C 
ATOM      9  C   UNL A   1      34.224  25.221  24.520  1.00  0.00     0.002 C 
ATOM     10  C   UNL A   1      32.883  24.688  22.453  1.00  0.00     0.002 C 
ATOM     11  C   UNL A   1      34.209  24.507  23.176  1.00  0.00     0.000 C 
BRANCH   6  12
ATOM     12  N   UNL A   1      30.722  23.983  25.548  1.00  0.00    -0.332 N 
ATOM     13  N   UNL A   1      31.643  21.860  26.209  1.00  0.00    -0.335 N 
ATOM     14  C   UNL A   1      30.686  22.794  26.172  1.00  0.00     0.315 C 
ATOM     15  H   UNL A   1      31.375  21.101  26.775  1.00  0.00     0.165 HD
ATOM     16  O   UNL A   1      29.654  22.509  26.790  1.00  0.00    -0.249 OA
ATOM     17  H   UNL A   1      29.876  24.467  25.682  1.00  0.00     0.165 HD
BRANCH  13  18
ATOM     18  C   UNL A   1      32.962  21.656  25.649  1.00  0.00     0.089 C 
ATOM     19  C   UNL A   1      32.427  20.359  23.505  1.00  0.00     0.013 C 
ATOM     20  C   UNL A   1      33.167  20.344  24.845  1.00  0.00    -0.015 C 
ATOM     21  C   UNL A   1      32.779  19.060  25.603  1.00  0.00     0.013 C 
ATOM     22  C   UNL A   1      34.699  20.381  24.646  1.00  0.00     0.008 C 
ATOM     23  C   UNL A   1      35.272  21.046  25.908  1.00  0.00     0.003 C 
ATOM     24  C   UNL A   1      34.071  21.559  26.703  1.00  0.00     0.025 C 
ENDBRANCH  13  18
ENDBRANCH   6  12
ENDBRANCH   5   6
ENDBRANCH   3   5
ENDBRANCH   2   3
ENDBRANCH   1   2
BRANCH   1  25
ATOM     25  C   UNL A   1      33.958  28.479  26.117  1.00  0.00     0.275 C 
BRANCH  25  26
ATOM     26  O   UNL A   1      33.650  29.060  27.399  1.00  0.00    -0.458 OA
BRANCH  26  27
ATOM     27  C   UNL A   1      34.279  30.229  27.640  1.00  0.00     0.338 C 
ATOM     28  O   UNL A   1      33.765  31.345  27.627  1.00  0.00    -0.246 OA
BRANCH  27  29
ATOM     29  C   UNL A   1      35.650  30.025  28.115  1.00  0.00     0.060 A 
ATOM     30  C   UNL A   1      36.679  30.198  27.187  1.00  0.00     0.016 A 
ATOM     31  C   UNL A   1      35.925  29.547  29.395  1.00  0.00     0.016 A 
ATOM     32  C   UNL A   1      37.989  29.889  27.522  1.00  0.00     0.010 A 
ATOM     33  C   UNL A   1      37.249  29.246  29.737  1.00  0.00     0.010 A 
ATOM     34  C   UNL A   1      38.285  29.407  28.800  1.00  0.00    -0.014 A 
BRANCH  34  35
ATOM     35  C   UNL A   1      39.684  29.049  29.126  1.00  0.00     0.031 A 
ATOM     36  C   UNL A   1      40.575  30.039  29.817  1.00  0.00     0.074 A 
ATOM     37  C   UNL A   1      40.137  27.815  28.835  1.00  0.00     0.049 A 
ATOM     38  N   UNL A   1      41.851  29.951  30.085  1.00  0.00    -0.248 NA
ATOM     39  C   UNL A   1      39.946  31.292  30.262  1.00  0.00     0.031 C 
ATOM     40  C   UNL A   1      39.343  26.745  28.229  1.00  0.00     0.029 A 
ATOM     41  N   UNL A   1      41.375  27.253  29.017  1.00  0.00    -0.354 N 
ATOM     42  C   UNL A   1      42.192  31.152  30.693  1.00  0.00     0.074 A 
ATOM     43  C   UNL A   1      40.985  31.951  30.756  1.00  0.00     0.031 C 
ATOM     44  C   UNL A   1      40.111  25.652  28.095  1.00  0.00     0.029 A 
ATOM     45  C   UNL A   1      41.463  25.965  28.548  1.00  0.00     0.049 A 
ATOM     46  H   UNL A   1      42.126  27.726  29.440  1.00  0.00     0.167 HD
ATOM     47  C   UNL A   1      43.403  31.555  31.147  1.00  0.00     0.031 A 
ATOM     48  C   UNL A   1      42.523  25.139  28.452  1.00  0.00     0.031 A 
ATOM     49  C   UNL A   1      44.596  30.749  31.085  1.00  0.00     0.049 A 
ATOM     50  C   UNL A   1      43.866  25.620  28.917  1.00  0.00     0.074 A 
ATOM     51  C   UNL A   1      45.875  31.066  31.507  1.00  0.00     0.029 A 
ATOM     52  N   UNL A   1      44.652  29.461  30.571  1.00  0.00    -0.354 N 
ATOM     53  N   UNL A   1      44.185  26.778  29.446  1.00  0.00    -0.248 NA
ATOM     54  C   UNL A   1      44.991  24.691  28.765  1.00  0.00     0.031 C 
ATOM     55  C   UNL A   1      46.713  29.982  31.213  1.00  0.00     0.029 A 
ATOM     56  C   UNL A   1      45.947  28.975  30.649  1.00  0.00     0.049 A 
ATOM     57  H   UNL A   1      43.884  28.966  30.205  1.00  0.00     0.167 HD
ATOM     58  C   UNL A   1      45.551  26.717  29.691  1.00  0.00     0.074 A 
ATOM     59  C   UNL A   1      45.992  25.401  29.272  1.00  0.00     0.031 C 
ATOM     60  C   UNL A   1      46.367  27.667  30.212  1.00  0.00     0.031 A 
BRANCH  47  61
ATOM     61  C   UNL A   1      43.500  32.956  31.687  1.00  0.00    -0.014 A 
ATOM     62  C   UNL A   1      43.808  34.046  30.854  1.00  0.00     0.010 A 
ATOM     63  C   UNL A   1      43.294  33.179  33.060  1.00  0.00     0.010 A 
ATOM     64  C   UNL A   1      43.963  35.326  31.396  1.00  0.00     0.020 A 
ATOM     65  C   UNL A   1      43.426  34.460  33.601  1.00  0.00     0.020 A 
ATOM     66  C   UNL A   1      43.785  35.522  32.768  1.00  0.00     0.054 A 
BRANCH  66  67
ATOM     67  S   UNL A   1      44.010  37.186  33.457  1.00  0.00     0.124 S 
ATOM     68  O   UNL A   1      44.177  37.991  32.250  1.00  0.00    -0.237 OA
ATOM     69  O   UNL A   1      42.765  37.406  34.190  1.00  0.00    -0.237 OA
ATOM     70  O   UNL A   1      45.203  37.056  34.291  1.00  0.00    -0.744 OA
ENDBRANCH  66  67
ENDBRANCH  47  61
BRANCH  48  71
ATOM     71  C   UNL A   1      42.342  23.795  27.846  1.00  0.00    -0.014 A 
ATOM     72  C   UNL A   1      42.584  23.587  26.479  1.00  0.00     0.010 A 
ATOM     73  C   UNL A   1      41.998  22.697  28.658  1.00  0.00     0.010 A 
ATOM     74  C   UNL A   1      42.500  22.302  25.935  1.00  0.00     0.020 A 
ATOM     75  C   UNL A   1      41.936  21.409  28.123  1.00  0.00     0.020 A 
ATOM     76  C   UNL A   1      42.186  21.219  26.763  1.00  0.00     0.054 A 
BRANCH  76  77
ATOM     77  S   UNL A   1      42.188  19.544  26.063  1.00  0.00     0.124 S 
ATOM     78  O   UNL A   1      40.785  19.360  25.710  1.00  0.00    -0.237 OA
ATOM     79  O   UNL A   1      43.113  19.670  24.939  1.00  0.00    -0.237 OA
ATOM     80  O   UNL A   1      42.673  18.716  27.166  1.00  0.00    -0.744 OA
ENDBRANCH  76  77
ENDBRANCH  48  71
BRANCH  60  81
ATOM     81  C   UNL A   1      47.818  27.309  30.367  1.00  0.00    -0.014 A 
ATOM     82  C   UNL A   1      48.727  27.509  29.313  1.00  0.00     0.010 A 
ATOM     83  C   UNL A   1      48.285  26.804  31.593  1.00  0.00     0.010 A 
ATOM     84  C   UNL A   1      50.078  27.185  29.475  1.00  0.00     0.020 A 
ATOM     85  C   UNL A   1      49.637  26.498  31.765  1.00  0.00     0.020 A 
ATOM     86  C   UNL A   1      50.522  26.677  30.700  1.00  0.00     0.054 A 
BRANCH  86  87
ATOM     87  S   UNL A   1      52.285  26.300  30.904  1.00  0.00     0.124 S 
ATOM     88  O   UNL A   1      52.242  24.969  31.505  1.00  0.00    -0.237 OA
ATOM     89  O   UNL A   1      52.790  26.353  29.534  1.00  0.00    -0.237 OA
ATOM     90  O   UNL A   1      52.766  27.366  31.780  1.00  0.00    -0.744 OA
ENDBRANCH  86  87
ENDBRANCH  60  81
ENDBRANCH  34  35
ENDBRANCH  27  29
ENDBRANCH  26  27
ENDBRANCH  25  26
ENDBRANCH   1  25
TORSDOF 17
ENDMDL
MODEL 3
REMARK VINA RESULT:     -11.2      2.719      3.643
REMARK SMILES CC1(C)CCC[C@@H]1NC(=O)NC1(CC(=O)OCCOC(=O)c2ccc(-c3c4nc(c(-c5ccc(S(=O)(=O)[O-])cc5)c5ccc([nH]5)c(-c5ccc(S(=O)(=O)[O-])cc5)c5nc(c(-c6ccc(S(=O)(=O)[O-])cc6)c6ccc3[nH]6)C=C5)C=C4)cc2)CCCCC1
REMARK SMILES IDX 17 1 16 2 14 3 15 4 13 5 12 6 82 7 86 8 83 9 85 10 84 11
REMARK SMILES IDX 11 12 8 13 9 14 10 16 7 18 1 19 2 20 3 21 4 22 5 23 6 24
REMARK SMILES IDX 18 25 19 26 20 27 21 28 22 29 23 30 81 31 24 32 80 33 25 34
REMARK SMILES IDX 26 35 27 36 74 37 28 38 79 39 73 40 75 41 29 42 78 43 72 44
REMARK SMILES IDX 71 45 30 47 60 48 41 49 59 50 42 51 45 52 58 53 76 54 43 55
REMARK SMILES IDX 44 56 57 58 77 59 46 60 31 61 32 62 40 63 33 64 39 65 34 66
REMARK SMILES IDX 35 67 36 68 37 69 38 70 61 71 62 72 70 73 63 74 69 75 64 76
REMARK SMILES IDX 65 77 66 78 67 79 68 80 47 81 48 82 56 83 49 84 55 85 50 86
REMARK SMILES IDX 51 87 52 88 53 89 54 90
REMARK H PARENT 8 15 11 17 75 46 45 57
REMARK Flexibility Score: inf
ROOT
ATOM      1  C   UNL A   1      31.732  30.461  25.764  1.00  0.00     0.274 C 
ENDROOT
BRANCH   1   2
ATOM      2  O   UNL A   1      31.919  29.426  24.775  1.00  0.00    -0.462 OA
BRANCH   2   3
ATOM      3  C   UNL A   1      30.791  29.024  24.153  1.00  0.00     0.308 C 
ATOM      4  O   UNL A   1      29.978  29.795  23.647  1.00  0.00    -0.252 OA
BRANCH   3   5
ATOM      5  C   UNL A   1      30.518  27.541  24.160  1.00  0.00     0.151 C 
BRANCH   5   6
ATOM      6  C   UNL A   1      31.585  26.403  24.033  1.00  0.00     0.052 C 
ATOM      7  C   UNL A   1      30.717  25.120  24.221  1.00  0.00     0.029 C 
ATOM      8  C   UNL A   1      32.672  26.580  25.114  1.00  0.00     0.029 C 
ATOM      9  C   UNL A   1      30.361  24.775  25.665  1.00  0.00     0.002 C 
ATOM     10  C   UNL A   1      32.200  26.266  26.529  1.00  0.00     0.002 C 
ATOM     11  C   UNL A   1      31.540  24.899  26.619  1.00  0.00     0.000 C 
BRANCH   6  12
ATOM     12  N   UNL A   1      32.225  26.365  22.690  1.00  0.00    -0.332 N 
ATOM     13  N   UNL A   1      33.451  24.334  22.294  1.00  0.00    -0.335 N 
ATOM     14  C   UNL A   1      32.986  25.540  21.953  1.00  0.00     0.315 C 
ATOM     15  H   UNL A   1      33.947  23.922  21.551  1.00  0.00     0.165 HD
ATOM     16  O   UNL A   1      33.308  25.923  20.823  1.00  0.00    -0.249 OA
ATOM     17  H   UNL A   1      32.034  27.193  22.193  1.00  0.00     0.165 HD
BRANCH  13  18
ATOM     18  C   UNL A   1      33.427  23.464  23.451  1.00  0.00     0.089 C 
ATOM     19  C   UNL A   1      35.254  24.496  24.921  1.00  0.00     0.013 C 
ATOM     20  C   UNL A   1      34.785  23.247  24.170  1.00  0.00    -0.015 C 
ATOM     21  C   UNL A   1      35.928  22.770  23.254  1.00  0.00     0.013 C 
ATOM     22  C   UNL A   1      34.400  22.112  25.146  1.00  0.00     0.008 C 
ATOM     23  C   UNL A   1      33.351  21.263  24.411  1.00  0.00     0.003 C 
ATOM     24  C   UNL A   1      33.003  22.026  23.133  1.00  0.00     0.025 C 
ENDBRANCH  13  18
ENDBRANCH   6  12
ENDBRANCH   5   6
ENDBRANCH   3   5
ENDBRANCH   2   3
ENDBRANCH   1   2
BRANCH   1  25
ATOM     25  C   UNL A   1      32.056  29.998  27.192  1.00  0.00     0.275 C 
BRANCH  25  26
ATOM     26  O   UNL A   1      33.423  29.575  27.366  1.00  0.00    -0.458 OA
BRANCH  26  27
ATOM     27  C   UNL A   1      34.227  30.517  27.903  1.00  0.00     0.338 C 
ATOM     28  O   UNL A   1      33.870  31.604  28.351  1.00  0.00    -0.246 OA
BRANCH  27  29
ATOM     29  C   UNL A   1      35.598  30.031  28.074  1.00  0.00     0.060 A 
ATOM     30  C   UNL A   1      35.988  29.659  29.362  1.00  0.00     0.016 A 
ATOM     31  C   UNL A   1      36.528  30.060  27.036  1.00  0.00     0.016 A 
ATOM     32  C   UNL A   1      37.306  29.322  29.632  1.00  0.00     0.010 A 
ATOM     33  C   UNL A   1      37.857  29.708  27.304  1.00  0.00     0.010 A 
ATOM     34  C   UNL A   1      38.253  29.346  28.604  1.00  0.00    -0.014 A 
BRANCH  34  35
ATOM     35  C   UNL A   1      39.662  29.018  28.918  1.00  0.00     0.031 A 
ATOM     36  C   UNL A   1      40.549  30.042  29.562  1.00  0.00     0.074 A 
ATOM     37  C   UNL A   1      40.129  27.783  28.658  1.00  0.00     0.049 A 
ATOM     38  N   UNL A   1      41.831  29.981  29.811  1.00  0.00    -0.248 NA
ATOM     39  C   UNL A   1      39.909  31.299  29.978  1.00  0.00     0.031 C 
ATOM     40  C   UNL A   1      39.341  26.682  28.098  1.00  0.00     0.029 A 
ATOM     41  N   UNL A   1      41.377  27.244  28.835  1.00  0.00    -0.354 N 
ATOM     42  C   UNL A   1      42.164  31.206  30.375  1.00  0.00     0.074 A 
ATOM     43  C   UNL A   1      40.946  31.989  30.434  1.00  0.00     0.031 C 
ATOM     44  C   UNL A   1      40.123  25.597  27.986  1.00  0.00     0.029 A 
ATOM     45  C   UNL A   1      41.478  25.944  28.405  1.00  0.00     0.049 A 
ATOM     46  H   UNL A   1      42.129  27.742  29.231  1.00  0.00     0.167 HD
ATOM     47  C   UNL A   1      43.376  31.640  30.795  1.00  0.00     0.031 A 
ATOM     48  C   UNL A   1      42.548  25.131  28.317  1.00  0.00     0.031 A 
ATOM     49  C   UNL A   1      44.579  30.851  30.739  1.00  0.00     0.049 A 
ATOM     50  C   UNL A   1      43.891  25.646  28.744  1.00  0.00     0.074 A 
ATOM     51  C   UNL A   1      45.860  31.199  31.128  1.00  0.00     0.029 A 
ATOM     52  N   UNL A   1      44.646  29.549  30.263  1.00  0.00    -0.354 N 
ATOM     53  N   UNL A   1      44.202  26.824  29.231  1.00  0.00    -0.248 NA
ATOM     54  C   UNL A   1      45.028  24.729  28.602  1.00  0.00     0.031 C 
ATOM     55  C   UNL A   1      46.710  30.119  30.854  1.00  0.00     0.029 A 
ATOM     56  C   UNL A   1      45.949  29.084  30.335  1.00  0.00     0.049 A 
ATOM     57  H   UNL A   1      43.881  29.031  29.926  1.00  0.00     0.167 HD
ATOM     58  C   UNL A   1      45.572  26.791  29.455  1.00  0.00     0.074 A 
ATOM     59  C   UNL A   1      46.026  25.469  29.069  1.00  0.00     0.031 C 
ATOM     60  C   UNL A   1      46.382  27.769  29.932  1.00  0.00     0.031 A 
BRANCH  47  61
ATOM     61  C   UNL A   1      43.461  33.059  31.290  1.00  0.00    -0.014 A 
ATOM     62  C   UNL A   1      43.682  34.133  30.410  1.00  0.00     0.010 A 
ATOM     63  C   UNL A   1      43.331  33.316  32.667  1.00  0.00     0.010 A 
ATOM     64  C   UNL A   1      43.829  35.433  30.906  1.00  0.00     0.020 A 
ATOM     65  C   UNL A   1      43.455  34.616  33.163  1.00  0.00     0.020 A 
ATOM     66  C   UNL A   1      43.728  35.664  32.281  1.00  0.00     0.054 A 
BRANCH  66  67
ATOM     67  S   UNL A   1      43.941  37.353  32.908  1.00  0.00     0.124 S 
ATOM     68  O   UNL A   1      42.845  37.457  33.868  1.00  0.00    -0.237 OA
ATOM     69  O   UNL A   1      45.282  37.318  33.488  1.00  0.00    -0.237 OA
ATOM     70  O   UNL A   1      43.807  38.184  31.714  1.00  0.00    -0.744 OA
ENDBRANCH  66  67
ENDBRANCH  47  61
BRANCH  48  71
ATOM     71  C   UNL A   1      42.377  23.766  27.756  1.00  0.00    -0.014 A 
ATOM     72  C   UNL A   1      42.411  23.552  26.369  1.00  0.00     0.010 A 
ATOM     73  C   UNL A   1      42.256  22.660  28.620  1.00  0.00     0.010 A 
ATOM     74  C   UNL A   1      42.342  22.254  25.854  1.00  0.00     0.020 A 
ATOM     75  C   UNL A   1      42.210  21.362  28.110  1.00  0.00     0.020 A 
ATOM     76  C   UNL A   1      42.251  21.166  26.729  1.00  0.00     0.054 A 
BRANCH  76  77
ATOM     77  S   UNL A   1      42.272  19.483  26.047  1.00  0.00     0.124 S 
ATOM     78  O   UNL A   1      42.688  18.694  27.201  1.00  0.00    -0.237 OA
ATOM     79  O   UNL A   1      40.887  19.296  25.618  1.00  0.00    -0.237 OA
ATOM     80  O   UNL A   1      43.244  19.570  24.959  1.00  0.00    -0.744 OA
ENDBRANCH  76  77
ENDBRANCH  48  71
BRANCH  60  81
ATOM     81  C   UNL A   1      47.841  27.437  30.072  1.00  0.00    -0.014 A 
ATOM     82  C   UNL A   1      48.774  27.863  29.111  1.00  0.00     0.010 A 
ATOM     83  C   UNL A   1      48.289  26.726  31.200  1.00  0.00     0.010 A 
ATOM     84  C   UNL A   1      50.131  27.559  29.261  1.00  0.00     0.020 A 
ATOM     85  C   UNL A   1      49.646  26.439  31.364  1.00  0.00     0.020 A 
ATOM     86  C   UNL A   1      50.557  26.845  30.386  1.00  0.00     0.054 A 
BRANCH  86  87
ATOM     87  S   UNL A   1      52.325  26.495  30.584  1.00  0.00     0.124 S 
ATOM     88  O   UNL A   1      52.845  27.793  31.007  1.00  0.00    -0.237 OA
ATOM     89  O   UNL A   1      52.338  25.451  31.606  1.00  0.00    -0.237 OA
ATOM     90  O   UNL A   1      52.742  26.059  29.253  1.00  0.00    -0.744 OA
ENDBRANCH  86  87
ENDBRANCH  60  81
ENDBRANCH  34  35
ENDBRANCH  27  29
ENDBRANCH  26  27
ENDBRANCH  25  26
ENDBRANCH   1  25
TORSDOF 17
ENDMDL
