MODEL 1
REMARK VINA RESULT:     -10.6      0.000      0.000
REMARK SMILES O=C(OCCOC(=O)[C@@H]1C[NH2+]C[C@H]1c1ccncc1)c1ccc(-c2c3nc(c(-c4ccc(S(=O)(=O)[O-])cc4)c4ccc([nH]4)c(-c4ccc(S(=O)(=O)[O-])cc4)c4nc(c(-c5ccc(S(=O)(=O)[O-])cc5)c5ccc2[nH]5)C=C4)C=C3)cc1
REMARK SMILES IDX 4 1 3 2 2 3 1 4 20 5 21 6 79 7 22 8 78 9 23 10 24 11 25 12
REMARK SMILES IDX 72 13 26 14 77 15 71 16 73 17 27 18 76 19 70 20 69 21 28 23
REMARK SMILES IDX 58 24 39 25 57 26 40 27 43 28 56 29 74 30 41 31 42 32 55 34
REMARK SMILES IDX 75 35 44 36 29 37 30 38 38 39 31 40 37 41 32 42 33 43 34 44
REMARK SMILES IDX 35 45 36 46 59 47 60 48 68 49 61 50 67 51 62 52 63 53 64 54
REMARK SMILES IDX 65 55 66 56 45 57 46 58 54 59 47 60 53 61 48 62 49 63 50 64
REMARK SMILES IDX 51 65 52 66 5 67 6 68 7 69 8 70 9 71 10 72 13 73 11 74 12 75
REMARK SMILES IDX 14 78 15 79 19 80 16 81 18 82 17 83
REMARK H PARENT 73 22 43 33 11 76 11 77
REMARK Flexibility Score: inf
ROOT
ATOM      1  C   UNL A   1      33.152  28.364  27.084  1.00  0.00     0.275 C 
ENDROOT
BRANCH   1   2
ATOM      2  O   UNL A   1      33.307  29.522  27.925  1.00  0.00    -0.458 OA
BRANCH   2   3
ATOM      3  C   UNL A   1      34.288  30.436  27.770  1.00  0.00     0.338 C 
ATOM      4  O   UNL A   1      34.025  31.565  27.358  1.00  0.00    -0.246 OA
BRANCH   3   5
ATOM      5  C   UNL A   1      35.677  30.084  28.199  1.00  0.00     0.060 A 
ATOM      6  C   UNL A   1      36.026  29.602  29.466  1.00  0.00     0.016 A 
ATOM      7  C   UNL A   1      36.682  30.182  27.229  1.00  0.00     0.016 A 
ATOM      8  C   UNL A   1      37.304  29.098  29.723  1.00  0.00     0.010 A 
ATOM      9  C   UNL A   1      37.956  29.661  27.474  1.00  0.00     0.010 A 
ATOM     10  C   UNL A   1      38.274  29.100  28.721  1.00  0.00    -0.014 A 
BRANCH  10  11
ATOM     11  C   UNL A   1      39.674  28.709  29.016  1.00  0.00     0.031 A 
ATOM     12  C   UNL A   1      40.565  29.758  29.616  1.00  0.00     0.074 A 
ATOM     13  C   UNL A   1      40.155  27.480  28.739  1.00  0.00     0.049 A 
ATOM     14  N   UNL A   1      41.845  29.720  29.862  1.00  0.00    -0.248 NA
ATOM     15  C   UNL A   1      39.924  31.046  29.943  1.00  0.00     0.031 C 
ATOM     16  C   UNL A   1      39.393  26.374  28.162  1.00  0.00     0.029 A 
ATOM     17  N   UNL A   1      41.419  26.961  28.886  1.00  0.00    -0.354 N 
ATOM     18  C   UNL A   1      42.158  30.981  30.353  1.00  0.00     0.074 A 
ATOM     19  C   UNL A   1      40.968  31.791  30.254  1.00  0.00     0.031 C 
ATOM     20  C   UNL A   1      40.209  25.322  27.968  1.00  0.00     0.029 A 
ATOM     21  C   UNL A   1      41.553  25.675  28.413  1.00  0.00     0.049 A 
ATOM     22  H   UNL A   1      42.162  27.464  29.293  1.00  0.00     0.167 HD
ATOM     23  C   UNL A   1      43.311  31.411  30.911  1.00  0.00     0.031 A 
ATOM     24  C   UNL A   1      42.638  24.877  28.346  1.00  0.00     0.031 A 
ATOM     25  C   UNL A   1      44.471  30.584  31.053  1.00  0.00     0.049 A 
ATOM     26  C   UNL A   1      43.934  25.381  28.932  1.00  0.00     0.074 A 
ATOM     27  C   UNL A   1      45.678  30.884  31.653  1.00  0.00     0.029 A 
ATOM     28  N   UNL A   1      44.555  29.276  30.595  1.00  0.00    -0.354 N 
ATOM     29  N   UNL A   1      44.195  26.554  29.460  1.00  0.00    -0.248 NA
ATOM     30  C   UNL A   1      45.064  24.443  28.957  1.00  0.00     0.031 C 
ATOM     31  C   UNL A   1      46.504  29.760  31.535  1.00  0.00     0.029 A 
ATOM     32  C   UNL A   1      45.795  28.751  30.900  1.00  0.00     0.049 A 
ATOM     33  H   UNL A   1      43.838  28.796  30.123  1.00  0.00     0.167 HD
ATOM     34  C   UNL A   1      45.498  26.474  29.938  1.00  0.00     0.074 A 
ATOM     35  C   UNL A   1      45.978  25.143  29.618  1.00  0.00     0.031 C 
ATOM     36  C   UNL A   1      46.226  27.408  30.599  1.00  0.00     0.031 A 
BRANCH  23  37
ATOM     37  C   UNL A   1      43.317  32.827  31.417  1.00  0.00    -0.014 A 
ATOM     38  C   UNL A   1      43.755  33.881  30.589  1.00  0.00     0.010 A 
ATOM     39  C   UNL A   1      42.983  33.097  32.753  1.00  0.00     0.010 A 
ATOM     40  C   UNL A   1      43.955  35.157  31.116  1.00  0.00     0.020 A 
ATOM     41  C   UNL A   1      43.143  34.385  33.274  1.00  0.00     0.020 A 
ATOM     42  C   UNL A   1      43.663  35.397  32.461  1.00  0.00     0.054 A 
BRANCH  42  43
ATOM     43  S   UNL A   1      43.985  37.047  33.136  1.00  0.00     0.124 S 
ATOM     44  O   UNL A   1      43.995  37.869  31.928  1.00  0.00    -0.237 OA
ATOM     45  O   UNL A   1      42.847  37.258  34.028  1.00  0.00    -0.237 OA
ATOM     46  O   UNL A   1      45.276  36.902  33.803  1.00  0.00    -0.744 OA
ENDBRANCH  42  43
ENDBRANCH  23  37
BRANCH  24  47
ATOM     47  C   UNL A   1      42.541  23.511  27.757  1.00  0.00    -0.014 A 
ATOM     48  C   UNL A   1      42.883  23.284  26.411  1.00  0.00     0.010 A 
ATOM     49  C   UNL A   1      42.108  22.423  28.538  1.00  0.00     0.010 A 
ATOM     50  C   UNL A   1      42.778  22.003  25.853  1.00  0.00     0.020 A 
ATOM     51  C   UNL A   1      42.017  21.137  27.989  1.00  0.00     0.020 A 
ATOM     52  C   UNL A   1      42.346  20.936  26.647  1.00  0.00     0.054 A 
BRANCH  52  53
ATOM     53  S   UNL A   1      42.263  19.278  25.911  1.00  0.00     0.124 S 
ATOM     54  O   UNL A   1      43.066  19.440  24.702  1.00  0.00    -0.237 OA
ATOM     55  O   UNL A   1      42.852  18.443  26.955  1.00  0.00    -0.237 OA
ATOM     56  O   UNL A   1      40.834  19.071  25.691  1.00  0.00    -0.744 OA
ENDBRANCH  52  53
ENDBRANCH  24  47
BRANCH  36  57
ATOM     57  C   UNL A   1      47.584  27.010  31.101  1.00  0.00    -0.014 A 
ATOM     58  C   UNL A   1      47.746  26.348  32.329  1.00  0.00     0.010 A 
ATOM     59  C   UNL A   1      48.700  27.198  30.262  1.00  0.00     0.010 A 
ATOM     60  C   UNL A   1      49.006  25.881  32.711  1.00  0.00     0.020 A 
ATOM     61  C   UNL A   1      49.954  26.710  30.630  1.00  0.00     0.020 A 
ATOM     62  C   UNL A   1      50.100  26.058  31.856  1.00  0.00     0.054 A 
BRANCH  62  63
ATOM     63  S   UNL A   1      51.702  25.355  32.330  1.00  0.00     0.124 S 
ATOM     64  O   UNL A   1      52.063  26.172  33.484  1.00  0.00    -0.237 OA
ATOM     65  O   UNL A   1      51.366  23.963  32.624  1.00  0.00    -0.237 OA
ATOM     66  O   UNL A   1      52.531  25.550  31.143  1.00  0.00    -0.744 OA
ENDBRANCH  62  63
ENDBRANCH  36  57
ENDBRANCH  10  11
ENDBRANCH   3   5
ENDBRANCH   2   3
ENDBRANCH   1   2
BRANCH   1  67
ATOM     67  C   UNL A   1      33.301  28.540  25.569  1.00  0.00     0.274 C 
BRANCH  67  68
ATOM     68  O   UNL A   1      32.389  29.477  24.962  1.00  0.00    -0.462 OA
BRANCH  68  69
ATOM     69  C   UNL A   1      31.815  29.048  23.799  1.00  0.00     0.315 C 
ATOM     70  O   UNL A   1      32.411  28.973  22.728  1.00  0.00    -0.252 OA
BRANCH  69  71
ATOM     71  C   UNL A   1      30.330  28.757  23.896  1.00  0.00     0.167 C 
ATOM     72  C   UNL A   1      30.117  27.254  24.033  1.00  0.00     0.276 C 
ATOM     73  C   UNL A   1      29.444  29.090  22.701  1.00  0.00     0.094 C 
ATOM     74  N   UNL A   1      28.708  27.019  23.733  1.00  0.00    -0.345 N 
ATOM     75  C   UNL A   1      28.243  28.150  22.922  1.00  0.00     0.269 C 
ATOM     76  H   UNL A   1      28.170  26.965  24.598  1.00  0.00     0.346 HD
ATOM     77  H   UNL A   1      28.585  26.139  23.231  1.00  0.00     0.346 HD
BRANCH  73  78
ATOM     78  C   UNL A   1      29.065  30.530  22.389  1.00  0.00    -0.035 A 
ATOM     79  C   UNL A   1      28.495  30.897  21.167  1.00  0.00     0.024 A 
ATOM     80  C   UNL A   1      29.121  31.526  23.381  1.00  0.00     0.024 A 
ATOM     81  C   UNL A   1      28.043  32.202  20.987  1.00  0.00     0.111 A 
ATOM     82  C   UNL A   1      28.656  32.807  23.105  1.00  0.00     0.111 A 
ATOM     83  N   UNL A   1      28.124  33.170  21.923  1.00  0.00    -0.265 NA
ENDBRANCH  73  78
ENDBRANCH  69  71
ENDBRANCH  68  69
ENDBRANCH  67  68
ENDBRANCH   1  67
TORSDOF 15
ENDMDL
MODEL 2
REMARK VINA RESULT:     -10.3      3.394      5.324
REMARK SMILES O=C(OCCOC(=O)[C@@H]1C[NH2+]C[C@H]1c1ccncc1)c1ccc(-c2c3nc(c(-c4ccc(S(=O)(=O)[O-])cc4)c4ccc([nH]4)c(-c4ccc(S(=O)(=O)[O-])cc4)c4nc(c(-c5ccc(S(=O)(=O)[O-])cc5)c5ccc2[nH]5)C=C4)C=C3)cc1
REMARK SMILES IDX 4 1 3 2 2 3 1 4 20 5 21 6 79 7 22 8 78 9 23 10 24 11 25 12
REMARK SMILES IDX 72 13 26 14 77 15 71 16 73 17 27 18 76 19 70 20 69 21 28 23
REMARK SMILES IDX 58 24 39 25 57 26 40 27 43 28 56 29 74 30 41 31 42 32 55 34
REMARK SMILES IDX 75 35 44 36 29 37 30 38 38 39 31 40 37 41 32 42 33 43 34 44
REMARK SMILES IDX 35 45 36 46 59 47 60 48 68 49 61 50 67 51 62 52 63 53 64 54
REMARK SMILES IDX 65 55 66 56 45 57 46 58 54 59 47 60 53 61 48 62 49 63 50 64
REMARK SMILES IDX 51 65 52 66 5 67 6 68 7 69 8 70 9 71 10 72 13 73 11 74 12 75
REMARK SMILES IDX 14 78 15 79 19 80 16 81 18 82 17 83
REMARK H PARENT 73 22 43 33 11 76 11 77
REMARK Flexibility Score: inf
ROOT
ATOM      1  C   UNL A   1      33.692  32.854  28.166  1.00  0.00     0.275 C 
ENDROOT
BRANCH   1   2
ATOM      2  O   UNL A   1      33.951  31.751  27.278  1.00  0.00    -0.458 OA
BRANCH   2   3
ATOM      3  C   UNL A   1      34.202  30.493  27.698  1.00  0.00     0.338 C 
ATOM      4  O   UNL A   1      33.325  29.632  27.635  1.00  0.00    -0.246 OA
BRANCH   3   5
ATOM      5  C   UNL A   1      35.585  30.143  28.147  1.00  0.00     0.060 A 
ATOM      6  C   UNL A   1      35.922  29.697  29.430  1.00  0.00     0.016 A 
ATOM      7  C   UNL A   1      36.596  30.203  27.180  1.00  0.00     0.016 A 
ATOM      8  C   UNL A   1      37.195  29.190  29.710  1.00  0.00     0.010 A 
ATOM      9  C   UNL A   1      37.864  29.680  27.449  1.00  0.00     0.010 A 
ATOM     10  C   UNL A   1      38.171  29.154  28.715  1.00  0.00    -0.014 A 
BRANCH  10  11
ATOM     11  C   UNL A   1      39.566  28.762  29.030  1.00  0.00     0.031 A 
ATOM     12  C   UNL A   1      40.446  29.807  29.652  1.00  0.00     0.074 A 
ATOM     13  C   UNL A   1      40.051  27.534  28.753  1.00  0.00     0.049 A 
ATOM     14  N   UNL A   1      41.722  29.767  29.919  1.00  0.00    -0.248 NA
ATOM     15  C   UNL A   1      39.799  31.092  29.977  1.00  0.00     0.031 C 
ATOM     16  C   UNL A   1      39.299  26.433  28.155  1.00  0.00     0.029 A 
ATOM     17  N   UNL A   1      41.313  27.015  28.917  1.00  0.00    -0.354 N 
ATOM     18  C   UNL A   1      42.026  31.024  30.424  1.00  0.00     0.074 A 
ATOM     19  C   UNL A   1      40.838  31.835  30.311  1.00  0.00     0.031 C 
ATOM     20  C   UNL A   1      40.119  25.383  27.968  1.00  0.00     0.029 A 
ATOM     21  C   UNL A   1      41.455  25.733  28.437  1.00  0.00     0.049 A 
ATOM     22  H   UNL A   1      42.049  27.515  29.339  1.00  0.00     0.167 HD
ATOM     23  C   UNL A   1      43.170  31.451  31.004  1.00  0.00     0.031 A 
ATOM     24  C   UNL A   1      42.542  24.935  28.383  1.00  0.00     0.031 A 
ATOM     25  C   UNL A   1      44.328  30.623  31.159  1.00  0.00     0.049 A 
ATOM     26  C   UNL A   1      43.827  25.435  28.994  1.00  0.00     0.074 A 
ATOM     27  C   UNL A   1      45.524  30.919  31.782  1.00  0.00     0.029 A 
ATOM     28  N   UNL A   1      44.420  29.319  30.694  1.00  0.00    -0.354 N 
ATOM     29  N   UNL A   1      44.080  26.604  29.534  1.00  0.00    -0.248 NA
ATOM     30  C   UNL A   1      44.957  24.497  29.031  1.00  0.00     0.031 C 
ATOM     31  C   UNL A   1      46.353  29.796  31.670  1.00  0.00     0.029 A 
ATOM     32  C   UNL A   1      45.654  28.791  31.016  1.00  0.00     0.049 A 
ATOM     33  H   UNL A   1      43.710  28.841  30.206  1.00  0.00     0.167 HD
ATOM     34  C   UNL A   1      45.375  26.521  30.033  1.00  0.00     0.074 A 
ATOM     35  C   UNL A   1      45.860  25.193  29.712  1.00  0.00     0.031 C 
ATOM     36  C   UNL A   1      46.090  27.450  30.713  1.00  0.00     0.031 A 
BRANCH  23  37
ATOM     37  C   UNL A   1      43.167  32.864  31.520  1.00  0.00    -0.014 A 
ATOM     38  C   UNL A   1      43.582  33.928  30.693  1.00  0.00     0.010 A 
ATOM     39  C   UNL A   1      42.849  33.121  32.862  1.00  0.00     0.010 A 
ATOM     40  C   UNL A   1      43.774  35.202  31.226  1.00  0.00     0.020 A 
ATOM     41  C   UNL A   1      43.003  34.406  33.390  1.00  0.00     0.020 A 
ATOM     42  C   UNL A   1      43.499  35.430  32.576  1.00  0.00     0.054 A 
BRANCH  42  43
ATOM     43  S   UNL A   1      43.812  37.079  33.259  1.00  0.00     0.124 S 
ATOM     44  O   UNL A   1      42.668  37.256  34.151  1.00  0.00    -0.237 OA
ATOM     45  O   UNL A   1      45.103  36.914  33.922  1.00  0.00    -0.237 OA
ATOM     46  O   UNL A   1      43.826  37.943  32.082  1.00  0.00    -0.744 OA
ENDBRANCH  42  43
ENDBRANCH  23  37
BRANCH  24  47
ATOM     47  C   UNL A   1      42.454  23.573  27.783  1.00  0.00    -0.014 A 
ATOM     48  C   UNL A   1      42.258  22.441  28.596  1.00  0.00     0.010 A 
ATOM     49  C   UNL A   1      42.562  23.396  26.391  1.00  0.00     0.010 A 
ATOM     50  C   UNL A   1      42.191  21.160  28.032  1.00  0.00     0.020 A 
ATOM     51  C   UNL A   1      42.477  22.118  25.821  1.00  0.00     0.020 A 
ATOM     52  C   UNL A   1      42.299  21.007  26.647  1.00  0.00     0.054 A 
BRANCH  52  53
ATOM     53  S   UNL A   1      42.161  19.340  25.940  1.00  0.00     0.124 S 
ATOM     54  O   UNL A   1      42.642  18.502  27.035  1.00  0.00    -0.237 OA
ATOM     55  O   UNL A   1      40.733  19.241  25.649  1.00  0.00    -0.237 OA
ATOM     56  O   UNL A   1      43.027  19.392  24.765  1.00  0.00    -0.744 OA
ENDBRANCH  52  53
ENDBRANCH  24  47
BRANCH  36  57
ATOM     57  C   UNL A   1      47.441  27.049  31.234  1.00  0.00    -0.014 A 
ATOM     58  C   UNL A   1      47.582  26.380  32.460  1.00  0.00     0.010 A 
ATOM     59  C   UNL A   1      48.570  27.243  30.415  1.00  0.00     0.010 A 
ATOM     60  C   UNL A   1      48.836  25.910  32.861  1.00  0.00     0.020 A 
ATOM     61  C   UNL A   1      49.818  26.753  30.801  1.00  0.00     0.020 A 
ATOM     62  C   UNL A   1      49.943  26.092  32.024  1.00  0.00     0.054 A 
BRANCH  62  63
ATOM     63  S   UNL A   1      51.537  25.386  32.521  1.00  0.00     0.124 S 
ATOM     64  O   UNL A   1      52.332  25.545  31.307  1.00  0.00    -0.237 OA
ATOM     65  O   UNL A   1      51.927  26.234  33.645  1.00  0.00    -0.237 OA
ATOM     66  O   UNL A   1      51.209  24.007  32.876  1.00  0.00    -0.744 OA
ENDBRANCH  62  63
ENDBRANCH  36  57
ENDBRANCH  10  11
ENDBRANCH   3   5
ENDBRANCH   2   3
ENDBRANCH   1   2
BRANCH   1  67
ATOM     67  C   UNL A   1      34.561  34.110  28.038  1.00  0.00     0.274 C 
BRANCH  67  68
ATOM     68  O   UNL A   1      34.694  34.898  29.238  1.00  0.00    -0.462 OA
BRANCH  68  69
ATOM     69  C   UNL A   1      33.514  35.323  29.779  1.00  0.00     0.315 C 
ATOM     70  O   UNL A   1      32.589  35.793  29.121  1.00  0.00    -0.252 OA
BRANCH  69  71
ATOM     71  C   UNL A   1      33.456  35.268  31.293  1.00  0.00     0.167 C 
ATOM     72  C   UNL A   1      32.724  36.498  31.816  1.00  0.00     0.276 C 
ATOM     73  C   UNL A   1      34.764  35.327  32.074  1.00  0.00     0.094 C 
ATOM     74  N   UNL A   1      33.039  36.578  33.239  1.00  0.00    -0.345 N 
ATOM     75  C   UNL A   1      34.292  35.844  33.447  1.00  0.00     0.269 C 
ATOM     76  H   UNL A   1      32.291  36.155  33.788  1.00  0.00     0.346 HD
ATOM     77  H   UNL A   1      33.135  37.550  33.536  1.00  0.00     0.346 HD
BRANCH  73  78
ATOM     78  C   UNL A   1      35.687  34.120  32.140  1.00  0.00    -0.035 A 
ATOM     79  C   UNL A   1      37.074  34.255  32.251  1.00  0.00     0.024 A 
ATOM     80  C   UNL A   1      35.171  32.817  32.259  1.00  0.00     0.024 A 
ATOM     81  C   UNL A   1      37.858  33.121  32.445  1.00  0.00     0.111 A 
ATOM     82  C   UNL A   1      36.034  31.742  32.438  1.00  0.00     0.111 A 
ATOM     83  N   UNL A   1      37.371  31.865  32.526  1.00  0.00    -0.265 NA
ENDBRANCH  73  78
ENDBRANCH  69  71
ENDBRANCH  68  69
ENDBRANCH  67  68
ENDBRANCH   1  67
TORSDOF 15
ENDMDL
MODEL 3
REMARK VINA RESULT:     -10.2      2.753      3.368
REMARK SMILES O=C(OCCOC(=O)[C@@H]1C[NH2+]C[C@H]1c1ccncc1)c1ccc(-c2c3nc(c(-c4ccc(S(=O)(=O)[O-])cc4)c4ccc([nH]4)c(-c4ccc(S(=O)(=O)[O-])cc4)c4nc(c(-c5ccc(S(=O)(=O)[O-])cc5)c5ccc2[nH]5)C=C4)C=C3)cc1
REMARK SMILES IDX 4 1 3 2 2 3 1 4 20 5 21 6 79 7 22 8 78 9 23 10 24 11 25 12
REMARK SMILES IDX 72 13 26 14 77 15 71 16 73 17 27 18 76 19 70 20 69 21 28 23
REMARK SMILES IDX 58 24 39 25 57 26 40 27 43 28 56 29 74 30 41 31 42 32 55 34
REMARK SMILES IDX 75 35 44 36 29 37 30 38 38 39 31 40 37 41 32 42 33 43 34 44
REMARK SMILES IDX 35 45 36 46 59 47 60 48 68 49 61 50 67 51 62 52 63 53 64 54
REMARK SMILES IDX 65 55 66 56 45 57 46 58 54 59 47 60 53 61 48 62 49 63 50 64
REMARK SMILES IDX 51 65 52 66 5 67 6 68 7 69 8 70 9 71 10 72 13 73 11 74 12 75
REMARK SMILES IDX 14 78 15 79 19 80 16 81 18 82 17 83
REMARK H PARENT 73 22 43 33 11 76 11 77
REMARK Flexibility Score: inf
ROOT
ATOM      1  C   UNL A   1      32.494  30.752  26.767  1.00  0.00     0.275 C 
ENDROOT
BRANCH   1   2
ATOM      2  O   UNL A   1      33.692  30.431  27.499  1.00  0.00    -0.458 OA
BRANCH   2   3
ATOM      3  C   UNL A   1      34.695  31.307  27.719  1.00  0.00     0.338 C 
ATOM      4  O   UNL A   1      34.511  32.513  27.561  1.00  0.00    -0.246 OA
BRANCH   3   5
ATOM      5  C   UNL A   1      35.997  30.795  28.249  1.00  0.00     0.060 A 
ATOM      6  C   UNL A   1      37.244  31.387  28.016  1.00  0.00     0.016 A 
ATOM      7  C   UNL A   1      35.940  29.683  29.097  1.00  0.00     0.016 A 
ATOM      8  C   UNL A   1      38.383  30.975  28.715  1.00  0.00     0.010 A 
ATOM      9  C   UNL A   1      37.071  29.280  29.813  1.00  0.00     0.010 A 
ATOM     10  C   UNL A   1      38.302  29.933  29.639  1.00  0.00    -0.014 A 
BRANCH  10  11
ATOM     11  C   UNL A   1      39.523  29.385  30.278  1.00  0.00     0.031 A 
ATOM     12  C   UNL A   1      40.004  30.066  31.526  1.00  0.00     0.074 A 
ATOM     13  C   UNL A   1      40.201  28.340  29.762  1.00  0.00     0.049 A 
ATOM     14  N   UNL A   1      41.095  29.867  32.212  1.00  0.00    -0.248 NA
ATOM     15  C   UNL A   1      39.153  31.153  32.044  1.00  0.00     0.031 C 
ATOM     16  C   UNL A   1      39.834  27.592  28.561  1.00  0.00     0.029 A 
ATOM     17  N   UNL A   1      41.366  27.740  30.176  1.00  0.00    -0.354 N 
ATOM     18  C   UNL A   1      41.063  30.814  33.227  1.00  0.00     0.074 A 
ATOM     19  C   UNL A   1      39.918  31.660  32.993  1.00  0.00     0.031 C 
ATOM     20  C   UNL A   1      40.772  26.660  28.313  1.00  0.00     0.029 A 
ATOM     21  C   UNL A   1      41.805  26.738  29.340  1.00  0.00     0.049 A 
ATOM     22  H   UNL A   1      41.843  28.003  30.997  1.00  0.00     0.167 HD
ATOM     23  C   UNL A   1      41.870  30.930  34.306  1.00  0.00     0.031 A 
ATOM     24  C   UNL A   1      42.915  25.974  29.399  1.00  0.00     0.031 A 
ATOM     25  C   UNL A   1      42.974  30.054  34.557  1.00  0.00     0.049 A 
ATOM     26  C   UNL A   1      43.834  26.138  30.583  1.00  0.00     0.074 A 
ATOM     27  C   UNL A   1      43.828  30.029  35.642  1.00  0.00     0.029 A 
ATOM     28  N   UNL A   1      43.364  29.029  33.706  1.00  0.00    -0.354 N 
ATOM     29  N   UNL A   1      43.751  26.994  31.575  1.00  0.00    -0.248 NA
ATOM     30  C   UNL A   1      44.967  25.208  30.684  1.00  0.00     0.031 C 
ATOM     31  C   UNL A   1      44.754  29.001  35.434  1.00  0.00     0.029 A 
ATOM     32  C   UNL A   1      44.447  28.361  34.241  1.00  0.00     0.049 A 
ATOM     33  H   UNL A   1      42.932  28.811  32.849  1.00  0.00     0.167 HD
ATOM     34  C   UNL A   1      44.780  26.664  32.449  1.00  0.00     0.074 A 
ATOM     35  C   UNL A   1      45.485  25.543  31.859  1.00  0.00     0.031 C 
ATOM     36  C   UNL A   1      45.102  27.224  33.642  1.00  0.00     0.031 A 
BRANCH  23  37
ATOM     37  C   UNL A   1      41.534  32.031  35.273  1.00  0.00    -0.014 A 
ATOM     38  C   UNL A   1      40.557  31.834  36.270  1.00  0.00     0.010 A 
ATOM     39  C   UNL A   1      42.117  33.299  35.124  1.00  0.00     0.010 A 
ATOM     40  C   UNL A   1      40.099  32.909  37.032  1.00  0.00     0.020 A 
ATOM     41  C   UNL A   1      41.688  34.370  35.914  1.00  0.00     0.020 A 
ATOM     42  C   UNL A   1      40.656  34.174  36.837  1.00  0.00     0.054 A 
BRANCH  42  43
ATOM     43  S   UNL A   1      40.004  35.566  37.798  1.00  0.00     0.124 S 
ATOM     44  O   UNL A   1      41.107  35.837  38.718  1.00  0.00    -0.237 OA
ATOM     45  O   UNL A   1      39.776  36.585  36.776  1.00  0.00    -0.237 OA
ATOM     46  O   UNL A   1      38.796  35.024  38.414  1.00  0.00    -0.744 OA
ENDBRANCH  42  43
ENDBRANCH  23  37
BRANCH  24  47
ATOM     47  C   UNL A   1      43.193  24.957  28.345  1.00  0.00    -0.014 A 
ATOM     48  C   UNL A   1      43.955  25.289  27.210  1.00  0.00     0.010 A 
ATOM     49  C   UNL A   1      42.701  23.644  28.469  1.00  0.00     0.010 A 
ATOM     50  C   UNL A   1      44.204  24.337  26.213  1.00  0.00     0.020 A 
ATOM     51  C   UNL A   1      42.962  22.683  27.483  1.00  0.00     0.020 A 
ATOM     52  C   UNL A   1      43.707  23.039  26.356  1.00  0.00     0.054 A 
BRANCH  52  53
ATOM     53  S   UNL A   1      44.084  21.812  25.071  1.00  0.00     0.124 S 
ATOM     54  O   UNL A   1      45.450  21.423  25.411  1.00  0.00    -0.237 OA
ATOM     55  O   UNL A   1      43.061  20.794  25.300  1.00  0.00    -0.237 OA
ATOM     56  O   UNL A   1      43.938  22.562  23.827  1.00  0.00    -0.744 OA
ENDBRANCH  52  53
ENDBRANCH  24  47
BRANCH  36  57
ATOM     57  C   UNL A   1      46.207  26.589  34.437  1.00  0.00    -0.014 A 
ATOM     58  C   UNL A   1      47.529  27.055  34.352  1.00  0.00     0.010 A 
ATOM     59  C   UNL A   1      45.883  25.590  35.374  1.00  0.00     0.010 A 
ATOM     60  C   UNL A   1      48.512  26.528  35.194  1.00  0.00     0.020 A 
ATOM     61  C   UNL A   1      46.857  25.080  36.233  1.00  0.00     0.020 A 
ATOM     62  C   UNL A   1      48.168  25.550  36.135  1.00  0.00     0.054 A 
BRANCH  62  63
ATOM     63  S   UNL A   1      49.439  24.956  37.282  1.00  0.00     0.124 S 
ATOM     64  O   UNL A   1      49.838  26.186  37.958  1.00  0.00    -0.237 OA
ATOM     65  O   UNL A   1      48.706  23.996  38.103  1.00  0.00    -0.237 OA
ATOM     66  O   UNL A   1      50.450  24.369  36.404  1.00  0.00    -0.744 OA
ENDBRANCH  62  63
ENDBRANCH  36  57
ENDBRANCH  10  11
ENDBRANCH   3   5
ENDBRANCH   2   3
ENDBRANCH   1   2
BRANCH   1  67
ATOM     67  C   UNL A   1      31.818  29.642  25.956  1.00  0.00     0.274 C 
BRANCH  67  68
ATOM     68  O   UNL A   1      32.596  29.110  24.865  1.00  0.00    -0.462 OA
BRANCH  68  69
ATOM     69  C   UNL A   1      31.905  28.927  23.701  1.00  0.00     0.315 C 
ATOM     70  O   UNL A   1      32.402  29.051  22.585  1.00  0.00    -0.252 OA
BRANCH  69  71
ATOM     71  C   UNL A   1      30.426  28.652  23.879  1.00  0.00     0.167 C 
ATOM     72  C   UNL A   1      30.204  27.152  24.028  1.00  0.00     0.276 C 
ATOM     73  C   UNL A   1      29.479  28.995  22.735  1.00  0.00     0.094 C 
ATOM     74  N   UNL A   1      28.778  26.932  23.806  1.00  0.00    -0.345 N 
ATOM     75  C   UNL A   1      28.281  28.068  23.022  1.00  0.00     0.269 C 
ATOM     76  H   UNL A   1      28.288  26.883  24.699  1.00  0.00     0.346 HD
ATOM     77  H   UNL A   1      28.619  26.053  23.312  1.00  0.00     0.346 HD
BRANCH  73  78
ATOM     78  C   UNL A   1      29.098  30.440  22.445  1.00  0.00    -0.035 A 
ATOM     79  C   UNL A   1      28.589  30.836  21.205  1.00  0.00     0.024 A 
ATOM     80  C   UNL A   1      29.089  31.407  23.466  1.00  0.00     0.024 A 
ATOM     81  C   UNL A   1      28.130  32.140  21.039  1.00  0.00     0.111 A 
ATOM     82  C   UNL A   1      28.624  32.690  23.202  1.00  0.00     0.111 A 
ATOM     83  N   UNL A   1      28.150  33.081  22.005  1.00  0.00    -0.265 NA
ENDBRANCH  73  78
ENDBRANCH  69  71
ENDBRANCH  68  69
ENDBRANCH  67  68
ENDBRANCH   1  67
TORSDOF 15
ENDMDL
