MODEL 1
REMARK VINA RESULT:     -12.9      0.000      0.000
REMARK SMILES Cc1cc(C(=O)OCCOC(=O)c2ccc(-c3c4nc(c(-c5ccc(S(=O)(=O)[O-])cc5)c5ccc([nH]5)c(-c5ccc(S(=O)(=O)[O-])cc5)c5nc(c(-c6ccc(S(=O)(=O)[O-])cc6)c6ccc3[nH]6)C=C5)C=C4)cc2)ccc1NS(=O)(=O)c1c(F)cccc1F
REMARK SMILES IDX 8 1 7 2 5 3 6 4 4 5 1 6 2 7 3 8 75 9 74 10 73 11 76 12 77 14
REMARK SMILES IDX 78 15 79 16 80 17 81 18 86 19 82 20 83 21 85 22 87 23 84 24
REMARK SMILES IDX 9 25 10 26 11 27 12 28 13 29 14 30 72 31 15 32 71 33 16 34
REMARK SMILES IDX 17 35 18 36 65 37 19 38 70 39 64 40 66 41 20 42 69 43 63 44
REMARK SMILES IDX 62 45 21 47 51 48 32 49 50 50 33 51 36 52 49 53 67 54 34 55
REMARK SMILES IDX 35 56 48 58 68 59 37 60 22 61 23 62 31 63 24 64 30 65 25 66
REMARK SMILES IDX 26 67 27 68 28 69 29 70 52 71 53 72 61 73 54 74 60 75 55 76
REMARK SMILES IDX 56 77 57 78 58 79 59 80 38 81 39 82 47 83 40 84 46 85 41 86
REMARK SMILES IDX 42 87 43 88 44 89 45 90
REMARK H PARENT 76 13 66 46 36 57
REMARK Flexibility Score: inf
ROOT
ATOM      1  C   UNL A   1      33.330  29.615  26.613  1.00  0.00     0.275 C 
ENDROOT
BRANCH   1   2
ATOM      2  O   UNL A   1      33.207  29.180  25.247  1.00  0.00    -0.458 OA
BRANCH   2   3
ATOM      3  C   UNL A   1      31.915  29.081  24.842  1.00  0.00     0.338 C 
ATOM      4  O   UNL A   1      31.081  29.968  24.990  1.00  0.00    -0.246 OA
BRANCH   3   5
ATOM      5  C   UNL A   1      31.544  27.768  24.237  1.00  0.00     0.060 A 
ATOM      6  C   UNL A   1      32.894  24.607  22.650  1.00  0.00     0.046 C 
ATOM      7  C   UNL A   1      32.031  25.517  23.485  1.00  0.00    -0.026 A 
ATOM      8  C   UNL A   1      32.464  26.819  23.781  1.00  0.00     0.021 A 
ATOM      9  C   UNL A   1      30.731  25.158  23.863  1.00  0.00     0.052 A 
ATOM     10  C   UNL A   1      29.758  26.141  23.960  1.00  0.00     0.028 A 
ATOM     11  C   UNL A   1      30.174  27.455  24.170  1.00  0.00     0.018 A 
BRANCH   9  12
ATOM     12  N   UNL A   1      30.516  23.828  24.344  1.00  0.00    -0.279 N 
ATOM     13  H   UNL A   1      30.054  23.183  23.762  1.00  0.00     0.180 HD
BRANCH  12  14
ATOM     14  S   UNL A   1      31.028  23.315  25.885  1.00  0.00     0.267 S 
ATOM     15  O   UNL A   1      30.979  24.511  26.708  1.00  0.00    -0.201 OA
ATOM     16  O   UNL A   1      30.206  22.170  26.213  1.00  0.00    -0.201 OA
BRANCH  14  17
ATOM     17  C   UNL A   1      32.695  22.747  25.872  1.00  0.00     0.158 A 
ATOM     18  C   UNL A   1      33.711  23.675  26.082  1.00  0.00     0.146 A 
ATOM     19  C   UNL A   1      33.043  21.451  25.527  1.00  0.00     0.146 A 
ATOM     20  F   UNL A   1      33.452  24.895  26.571  1.00  0.00    -0.205 F 
ATOM     21  C   UNL A   1      35.043  23.360  25.812  1.00  0.00     0.041 A 
ATOM     22  C   UNL A   1      34.371  21.132  25.216  1.00  0.00     0.041 A 
ATOM     23  F   UNL A   1      32.121  20.487  25.421  1.00  0.00    -0.205 F 
ATOM     24  C   UNL A   1      35.371  22.098  25.327  1.00  0.00     0.006 A 
ENDBRANCH  14  17
ENDBRANCH  12  14
ENDBRANCH   9  12
ENDBRANCH   3   5
ENDBRANCH   2   3
ENDBRANCH   1   2
BRANCH   1  25
ATOM     25  C   UNL A   1      34.720  29.383  27.253  1.00  0.00     0.275 C 
BRANCH  25  26
ATOM     26  O   UNL A   1      35.653  30.472  27.409  1.00  0.00    -0.458 OA
BRANCH  26  27
ATOM     27  C   UNL A   1      36.366  30.511  28.570  1.00  0.00     0.338 C 
ATOM     28  O   UNL A   1      35.959  31.035  29.588  1.00  0.00    -0.246 OA
BRANCH  27  29
ATOM     29  C   UNL A   1      37.471  29.515  28.450  1.00  0.00     0.060 A 
ATOM     30  C   UNL A   1      38.366  29.618  27.378  1.00  0.00     0.016 A 
ATOM     31  C   UNL A   1      37.813  28.788  29.594  1.00  0.00     0.016 A 
ATOM     32  C   UNL A   1      39.659  29.122  27.506  1.00  0.00     0.010 A 
ATOM     33  C   UNL A   1      39.123  28.445  29.788  1.00  0.00     0.010 A 
ATOM     34  C   UNL A   1      40.035  28.580  28.734  1.00  0.00    -0.014 A 
BRANCH  34  35
ATOM     35  C   UNL A   1      41.229  27.783  28.936  1.00  0.00     0.031 A 
ATOM     36  C   UNL A   1      41.315  26.369  28.531  1.00  0.00     0.074 A 
ATOM     37  C   UNL A   1      42.234  28.542  29.425  1.00  0.00     0.049 A 
ATOM     38  N   UNL A   1      42.141  25.523  29.033  1.00  0.00    -0.248 NA
ATOM     39  C   UNL A   1      40.437  25.758  27.534  1.00  0.00     0.031 C 
ATOM     40  C   UNL A   1      43.651  28.288  29.582  1.00  0.00     0.029 A 
ATOM     41  N   UNL A   1      42.103  29.791  30.018  1.00  0.00    -0.354 N 
ATOM     42  C   UNL A   1      42.135  24.401  28.223  1.00  0.00     0.074 A 
ATOM     43  C   UNL A   1      40.953  24.527  27.412  1.00  0.00     0.031 C 
ATOM     44  C   UNL A   1      44.128  29.149  30.510  1.00  0.00     0.029 A 
ATOM     45  C   UNL A   1      42.989  29.885  31.065  1.00  0.00     0.049 A 
ATOM     46  H   UNL A   1      41.476  30.496  29.736  1.00  0.00     0.167 HD
ATOM     47  C   UNL A   1      43.245  23.606  28.199  1.00  0.00     0.031 A 
ATOM     48  C   UNL A   1      42.514  29.765  32.345  1.00  0.00     0.031 A 
ATOM     49  C   UNL A   1      44.221  24.120  29.157  1.00  0.00     0.049 A 
ATOM     50  C   UNL A   1      43.023  28.471  32.943  1.00  0.00     0.074 A 
ATOM     51  C   UNL A   1      45.283  24.993  28.992  1.00  0.00     0.029 A 
ATOM     52  N   UNL A   1      43.916  24.104  30.512  1.00  0.00    -0.354 N 
ATOM     53  N   UNL A   1      43.169  27.353  32.279  1.00  0.00    -0.248 NA
ATOM     54  C   UNL A   1      43.554  28.407  34.299  1.00  0.00     0.031 C 
ATOM     55  C   UNL A   1      45.514  25.617  30.248  1.00  0.00     0.029 A 
ATOM     56  C   UNL A   1      44.608  25.107  31.165  1.00  0.00     0.049 A 
ATOM     57  H   UNL A   1      43.297  23.472  30.942  1.00  0.00     0.167 HD
ATOM     58  C   UNL A   1      43.919  26.489  33.035  1.00  0.00     0.074 A 
ATOM     59  C   UNL A   1      44.097  27.180  34.305  1.00  0.00     0.031 C 
ATOM     60  C   UNL A   1      44.430  25.302  32.593  1.00  0.00     0.031 A 
BRANCH  47  61
ATOM     61  C   UNL A   1      43.611  22.597  27.128  1.00  0.00    -0.014 A 
ATOM     62  C   UNL A   1      42.771  21.474  26.947  1.00  0.00     0.010 A 
ATOM     63  C   UNL A   1      44.756  22.644  26.310  1.00  0.00     0.010 A 
ATOM     64  C   UNL A   1      43.079  20.430  26.064  1.00  0.00     0.020 A 
ATOM     65  C   UNL A   1      45.084  21.599  25.421  1.00  0.00     0.020 A 
ATOM     66  C   UNL A   1      44.248  20.491  25.314  1.00  0.00     0.054 A 
BRANCH  66  67
ATOM     67  S   UNL A   1      44.641  19.112  24.203  1.00  0.00     0.124 S 
ATOM     68  O   UNL A   1      43.686  18.090  24.623  1.00  0.00    -0.237 OA
ATOM     69  O   UNL A   1      44.403  19.690  22.883  1.00  0.00    -0.237 OA
ATOM     70  O   UNL A   1      46.039  18.809  24.504  1.00  0.00    -0.744 OA
ENDBRANCH  66  67
ENDBRANCH  47  61
BRANCH  48  71
ATOM     71  C   UNL A   1      41.170  30.400  32.615  1.00  0.00    -0.014 A 
ATOM     72  C   UNL A   1      40.189  29.606  33.259  1.00  0.00     0.010 A 
ATOM     73  C   UNL A   1      40.911  31.776  32.497  1.00  0.00     0.010 A 
ATOM     74  C   UNL A   1      39.065  30.173  33.877  1.00  0.00     0.020 A 
ATOM     75  C   UNL A   1      39.765  32.352  33.096  1.00  0.00     0.020 A 
ATOM     76  C   UNL A   1      38.871  31.550  33.814  1.00  0.00     0.054 A 
BRANCH  76  77
ATOM     77  S   UNL A   1      37.565  32.280  34.860  1.00  0.00     0.124 S 
ATOM     78  O   UNL A   1      37.609  31.433  36.049  1.00  0.00    -0.237 OA
ATOM     79  O   UNL A   1      38.051  33.646  35.044  1.00  0.00    -0.237 OA
ATOM     80  O   UNL A   1      36.364  32.147  34.039  1.00  0.00    -0.744 OA
ENDBRANCH  76  77
ENDBRANCH  48  71
BRANCH  60  81
ATOM     81  C   UNL A   1      44.927  24.216  33.508  1.00  0.00    -0.014 A 
ATOM     82  C   UNL A   1      46.287  24.020  33.783  1.00  0.00     0.010 A 
ATOM     83  C   UNL A   1      43.996  23.460  34.260  1.00  0.00     0.010 A 
ATOM     84  C   UNL A   1      46.707  23.043  34.684  1.00  0.00     0.020 A 
ATOM     85  C   UNL A   1      44.404  22.530  35.214  1.00  0.00     0.020 A 
ATOM     86  C   UNL A   1      45.762  22.299  35.388  1.00  0.00     0.054 A 
BRANCH  86  87
ATOM     87  S   UNL A   1      46.324  21.055  36.567  1.00  0.00     0.124 S 
ATOM     88  O   UNL A   1      45.787  19.830  35.980  1.00  0.00    -0.237 OA
ATOM     89  O   UNL A   1      47.778  21.189  36.514  1.00  0.00    -0.237 OA
ATOM     90  O   UNL A   1      45.711  21.471  37.825  1.00  0.00    -0.744 OA
ENDBRANCH  86  87
ENDBRANCH  60  81
ENDBRANCH  34  35
ENDBRANCH  27  29
ENDBRANCH  26  27
ENDBRANCH  25  26
ENDBRANCH   1  25
TORSDOF 17
ENDMDL
MODEL 2
REMARK VINA RESULT:     -12.8      1.552      2.045
REMARK SMILES Cc1cc(C(=O)OCCOC(=O)c2ccc(-c3c4nc(c(-c5ccc(S(=O)(=O)[O-])cc5)c5ccc([nH]5)c(-c5ccc(S(=O)(=O)[O-])cc5)c5nc(c(-c6ccc(S(=O)(=O)[O-])cc6)c6ccc3[nH]6)C=C5)C=C4)cc2)ccc1NS(=O)(=O)c1c(F)cccc1F
REMARK SMILES IDX 8 1 7 2 5 3 6 4 4 5 1 6 2 7 3 8 75 9 74 10 73 11 76 12 77 14
REMARK SMILES IDX 78 15 79 16 80 17 81 18 86 19 82 20 83 21 85 22 87 23 84 24
REMARK SMILES IDX 9 25 10 26 11 27 12 28 13 29 14 30 72 31 15 32 71 33 16 34
REMARK SMILES IDX 17 35 18 36 65 37 19 38 70 39 64 40 66 41 20 42 69 43 63 44
REMARK SMILES IDX 62 45 21 47 51 48 32 49 50 50 33 51 36 52 49 53 67 54 34 55
REMARK SMILES IDX 35 56 48 58 68 59 37 60 22 61 23 62 31 63 24 64 30 65 25 66
REMARK SMILES IDX 26 67 27 68 28 69 29 70 52 71 53 72 61 73 54 74 60 75 55 76
REMARK SMILES IDX 56 77 57 78 58 79 59 80 38 81 39 82 47 83 40 84 46 85 41 86
REMARK SMILES IDX 42 87 43 88 44 89 45 90
REMARK H PARENT 76 13 66 46 36 57
REMARK Flexibility Score: inf
ROOT
ATOM      1  C   UNL A   1      33.406  29.501  26.854  1.00  0.00     0.275 C 
ENDROOT
BRANCH   1   2
ATOM      2  O   UNL A   1      33.060  28.113  27.013  1.00  0.00    -0.458 OA
BRANCH   2   3
ATOM      3  C   UNL A   1      31.722  27.895  26.947  1.00  0.00     0.338 C 
ATOM      4  O   UNL A   1      30.990  27.829  27.928  1.00  0.00    -0.246 OA
BRANCH   3   5
ATOM      5  C   UNL A   1      31.186  27.680  25.571  1.00  0.00     0.060 A 
ATOM      6  C   UNL A   1      30.549  29.311  22.214  1.00  0.00     0.046 C 
ATOM      7  C   UNL A   1      30.921  28.268  23.235  1.00  0.00    -0.026 A 
ATOM      8  C   UNL A   1      31.192  28.646  24.560  1.00  0.00     0.021 A 
ATOM      9  C   UNL A   1      30.867  26.899  22.944  1.00  0.00     0.052 A 
ATOM     10  C   UNL A   1      30.505  26.007  23.942  1.00  0.00     0.028 A 
ATOM     11  C   UNL A   1      30.688  26.400  25.267  1.00  0.00     0.018 A 
BRANCH   9  12
ATOM     12  N   UNL A   1      31.399  26.459  21.690  1.00  0.00    -0.279 N 
ATOM     13  H   UNL A   1      30.799  26.417  20.911  1.00  0.00     0.180 HD
BRANCH  12  14
ATOM     14  S   UNL A   1      33.028  26.006  21.492  1.00  0.00     0.267 S 
ATOM     15  O   UNL A   1      33.060  25.283  20.232  1.00  0.00    -0.201 OA
ATOM     16  O   UNL A   1      33.798  27.221  21.653  1.00  0.00    -0.201 OA
BRANCH  14  17
ATOM     17  C   UNL A   1      33.564  24.900  22.753  1.00  0.00     0.158 A 
ATOM     18  C   UNL A   1      34.101  25.438  23.919  1.00  0.00     0.146 A 
ATOM     19  C   UNL A   1      33.601  23.526  22.579  1.00  0.00     0.146 A 
ATOM     20  F   UNL A   1      33.955  26.734  24.221  1.00  0.00    -0.205 F 
ATOM     21  C   UNL A   1      34.794  24.639  24.829  1.00  0.00     0.041 A 
ATOM     22  C   UNL A   1      34.327  22.718  23.464  1.00  0.00     0.041 A 
ATOM     23  F   UNL A   1      33.003  22.940  21.534  1.00  0.00    -0.205 F 
ATOM     24  C   UNL A   1      34.953  23.280  24.575  1.00  0.00     0.006 A 
ENDBRANCH  14  17
ENDBRANCH  12  14
ENDBRANCH   9  12
ENDBRANCH   3   5
ENDBRANCH   2   3
ENDBRANCH   1   2
BRANCH   1  25
ATOM     25  C   UNL A   1      34.233  30.108  28.012  1.00  0.00     0.275 C 
BRANCH  25  26
ATOM     26  O   UNL A   1      35.601  29.707  28.233  1.00  0.00    -0.458 OA
BRANCH  26  27
ATOM     27  C   UNL A   1      36.538  30.696  28.257  1.00  0.00     0.338 C 
ATOM     28  O   UNL A   1      36.268  31.877  28.165  1.00  0.00    -0.246 OA
BRANCH  27  29
ATOM     29  C   UNL A   1      37.803  30.101  28.780  1.00  0.00     0.060 A 
ATOM     30  C   UNL A   1      37.731  29.112  29.768  1.00  0.00     0.016 A 
ATOM     31  C   UNL A   1      38.956  30.247  28.002  1.00  0.00     0.016 A 
ATOM     32  C   UNL A   1      38.751  28.171  29.882  1.00  0.00     0.010 A 
ATOM     33  C   UNL A   1      39.878  29.236  27.998  1.00  0.00     0.010 A 
ATOM     34  C   UNL A   1      39.794  28.220  28.958  1.00  0.00    -0.014 A 
BRANCH  34  35
ATOM     35  C   UNL A   1      41.045  27.505  29.112  1.00  0.00     0.031 A 
ATOM     36  C   UNL A   1      41.225  26.116  28.655  1.00  0.00     0.074 A 
ATOM     37  C   UNL A   1      42.002  28.317  29.612  1.00  0.00     0.049 A 
ATOM     38  N   UNL A   1      42.118  25.315  29.114  1.00  0.00    -0.248 NA
ATOM     39  C   UNL A   1      40.375  25.478  27.652  1.00  0.00     0.031 C 
ATOM     40  C   UNL A   1      43.436  28.162  29.737  1.00  0.00     0.029 A 
ATOM     41  N   UNL A   1      41.792  29.533  30.251  1.00  0.00    -0.354 N 
ATOM     42  C   UNL A   1      42.178  24.224  28.265  1.00  0.00     0.074 A 
ATOM     43  C   UNL A   1      40.976  24.292  27.477  1.00  0.00     0.031 C 
ATOM     44  C   UNL A   1      43.867  29.022  30.688  1.00  0.00     0.029 A 
ATOM     45  C   UNL A   1      42.689  29.654  31.286  1.00  0.00     0.049 A 
ATOM     46  H   UNL A   1      41.111  30.200  30.004  1.00  0.00     0.167 HD
ATOM     47  C   UNL A   1      43.341  23.513  28.195  1.00  0.00     0.031 A 
ATOM     48  C   UNL A   1      42.247  29.456  32.569  1.00  0.00     0.031 A 
ATOM     49  C   UNL A   1      44.295  24.063  29.155  1.00  0.00     0.049 A 
ATOM     50  C   UNL A   1      42.858  28.182  33.112  1.00  0.00     0.074 A 
ATOM     51  C   UNL A   1      45.289  25.016  29.004  1.00  0.00     0.029 A 
ATOM     52  N   UNL A   1      44.017  23.978  30.512  1.00  0.00    -0.354 N 
ATOM     53  N   UNL A   1      43.072  27.101  32.407  1.00  0.00    -0.248 NA
ATOM     54  C   UNL A   1      43.418  28.110  34.456  1.00  0.00     0.031 C 
ATOM     55  C   UNL A   1      45.498  25.611  30.278  1.00  0.00     0.029 A 
ATOM     56  C   UNL A   1      44.648  25.005  31.190  1.00  0.00     0.049 A 
ATOM     57  H   UNL A   1      43.454  23.288  30.930  1.00  0.00     0.167 HD
ATOM     58  C   UNL A   1      43.896  26.268  33.119  1.00  0.00     0.074 A 
ATOM     59  C   UNL A   1      44.048  26.926  34.410  1.00  0.00     0.031 C 
ATOM     60  C   UNL A   1      44.483  25.138  32.627  1.00  0.00     0.031 A 
BRANCH  47  61
ATOM     61  C   UNL A   1      43.759  22.570  27.083  1.00  0.00    -0.014 A 
ATOM     62  C   UNL A   1      42.920  21.473  26.781  1.00  0.00     0.010 A 
ATOM     63  C   UNL A   1      44.950  22.655  26.336  1.00  0.00     0.010 A 
ATOM     64  C   UNL A   1      43.269  20.484  25.850  1.00  0.00     0.020 A 
ATOM     65  C   UNL A   1      45.319  21.665  25.401  1.00  0.00     0.020 A 
ATOM     66  C   UNL A   1      44.480  20.577  25.174  1.00  0.00     0.054 A 
BRANCH  66  67
ATOM     67  S   UNL A   1      44.924  19.268  23.999  1.00  0.00     0.124 S 
ATOM     68  O   UNL A   1      44.150  18.131  24.492  1.00  0.00    -0.237 OA
ATOM     69  O   UNL A   1      44.481  19.824  22.723  1.00  0.00    -0.237 OA
ATOM     70  O   UNL A   1      46.371  19.140  24.151  1.00  0.00    -0.744 OA
ENDBRANCH  66  67
ENDBRANCH  47  61
BRANCH  48  71
ATOM     71  C   UNL A   1      40.867  29.982  32.883  1.00  0.00    -0.014 A 
ATOM     72  C   UNL A   1      40.342  29.717  34.173  1.00  0.00     0.010 A 
ATOM     73  C   UNL A   1      40.177  30.912  32.085  1.00  0.00     0.010 A 
ATOM     74  C   UNL A   1      39.263  30.441  34.697  1.00  0.00     0.020 A 
ATOM     75  C   UNL A   1      39.070  31.628  32.599  1.00  0.00     0.020 A 
ATOM     76  C   UNL A   1      38.645  31.414  33.915  1.00  0.00     0.054 A 
BRANCH  76  77
ATOM     77  S   UNL A   1      37.440  32.523  34.721  1.00  0.00     0.124 S 
ATOM     78  O   UNL A   1      36.235  32.303  33.928  1.00  0.00    -0.237 OA
ATOM     79  O   UNL A   1      37.402  31.992  36.082  1.00  0.00    -0.237 OA
ATOM     80  O   UNL A   1      38.052  33.842  34.580  1.00  0.00    -0.744 OA
ENDBRANCH  76  77
ENDBRANCH  48  71
BRANCH  60  81
ATOM     81  C   UNL A   1      45.073  24.059  33.495  1.00  0.00    -0.014 A 
ATOM     82  C   UNL A   1      46.412  24.069  33.909  1.00  0.00     0.010 A 
ATOM     83  C   UNL A   1      44.223  23.080  34.062  1.00  0.00     0.010 A 
ATOM     84  C   UNL A   1      46.908  23.086  34.764  1.00  0.00     0.020 A 
ATOM     85  C   UNL A   1      44.694  22.136  34.972  1.00  0.00     0.020 A 
ATOM     86  C   UNL A   1      46.048  22.121  35.283  1.00  0.00     0.054 A 
BRANCH  86  87
ATOM     87  S   UNL A   1      46.703  20.870  36.405  1.00  0.00     0.124 S 
ATOM     88  O   UNL A   1      45.615  19.897  36.429  1.00  0.00    -0.237 OA
ATOM     89  O   UNL A   1      47.921  20.431  35.728  1.00  0.00    -0.237 OA
ATOM     90  O   UNL A   1      46.919  21.603  37.649  1.00  0.00    -0.744 OA
ENDBRANCH  86  87
ENDBRANCH  60  81
ENDBRANCH  34  35
ENDBRANCH  27  29
ENDBRANCH  26  27
ENDBRANCH  25  26
ENDBRANCH   1  25
TORSDOF 17
ENDMDL
MODEL 3
REMARK VINA RESULT:     -12.7      4.664     11.109
REMARK SMILES Cc1cc(C(=O)OCCOC(=O)c2ccc(-c3c4nc(c(-c5ccc(S(=O)(=O)[O-])cc5)c5ccc([nH]5)c(-c5ccc(S(=O)(=O)[O-])cc5)c5nc(c(-c6ccc(S(=O)(=O)[O-])cc6)c6ccc3[nH]6)C=C5)C=C4)cc2)ccc1NS(=O)(=O)c1c(F)cccc1F
REMARK SMILES IDX 8 1 7 2 5 3 6 4 4 5 1 6 2 7 3 8 75 9 74 10 73 11 76 12 77 14
REMARK SMILES IDX 78 15 79 16 80 17 81 18 86 19 82 20 83 21 85 22 87 23 84 24
REMARK SMILES IDX 9 25 10 26 11 27 12 28 13 29 14 30 72 31 15 32 71 33 16 34
REMARK SMILES IDX 17 35 18 36 65 37 19 38 70 39 64 40 66 41 20 42 69 43 63 44
REMARK SMILES IDX 62 45 21 47 51 48 32 49 50 50 33 51 36 52 49 53 67 54 34 55
REMARK SMILES IDX 35 56 48 58 68 59 37 60 22 61 23 62 31 63 24 64 30 65 25 66
REMARK SMILES IDX 26 67 27 68 28 69 29 70 52 71 53 72 61 73 54 74 60 75 55 76
REMARK SMILES IDX 56 77 57 78 58 79 59 80 38 81 39 82 47 83 40 84 46 85 41 86
REMARK SMILES IDX 42 87 43 88 44 89 45 90
REMARK H PARENT 76 13 66 46 36 57
REMARK Flexibility Score: inf
ROOT
ATOM      1  C   UNL A   1      37.290  23.045  25.296  1.00  0.00     0.275 C 
ENDROOT
BRANCH   1   2
ATOM      2  O   UNL A   1      35.891  23.240  25.019  1.00  0.00    -0.458 OA
BRANCH   2   3
ATOM      3  C   UNL A   1      35.104  22.304  25.606  1.00  0.00     0.338 C 
ATOM      4  O   UNL A   1      35.527  21.414  26.336  1.00  0.00    -0.246 OA
BRANCH   3   5
ATOM      5  C   UNL A   1      33.655  22.390  25.258  1.00  0.00     0.060 A 
ATOM      6  C   UNL A   1      30.177  22.968  26.634  1.00  0.00     0.046 C 
ATOM      7  C   UNL A   1      31.357  23.016  25.700  1.00  0.00    -0.026 A 
ATOM      8  C   UNL A   1      32.639  22.690  26.170  1.00  0.00     0.021 A 
ATOM      9  C   UNL A   1      31.200  23.237  24.326  1.00  0.00     0.052 A 
ATOM     10  C   UNL A   1      32.059  22.610  23.436  1.00  0.00     0.028 A 
ATOM     11  C   UNL A   1      33.306  22.203  23.908  1.00  0.00     0.018 A 
BRANCH   9  12
ATOM     12  N   UNL A   1      30.303  24.272  23.912  1.00  0.00    -0.279 N 
ATOM     13  H   UNL A   1      29.346  24.058  23.818  1.00  0.00     0.180 HD
BRANCH  12  14
ATOM     14  S   UNL A   1      30.821  25.858  23.575  1.00  0.00     0.267 S 
ATOM     15  O   UNL A   1      31.674  25.728  22.405  1.00  0.00    -0.201 OA
ATOM     16  O   UNL A   1      29.619  26.662  23.513  1.00  0.00    -0.201 OA
BRANCH  14  17
ATOM     17  C   UNL A   1      31.803  26.523  24.876  1.00  0.00     0.158 A 
ATOM     18  C   UNL A   1      31.197  26.759  26.107  1.00  0.00     0.146 A 
ATOM     19  C   UNL A   1      33.110  26.945  24.690  1.00  0.00     0.146 A 
ATOM     20  F   UNL A   1      30.000  26.238  26.407  1.00  0.00    -0.205 F 
ATOM     21  C   UNL A   1      31.826  27.532  27.084  1.00  0.00     0.041 A 
ATOM     22  C   UNL A   1      33.738  27.754  25.646  1.00  0.00     0.041 A 
ATOM     23  F   UNL A   1      33.784  26.649  23.572  1.00  0.00    -0.205 F 
ATOM     24  C   UNL A   1      33.081  28.076  26.833  1.00  0.00     0.006 A 
ENDBRANCH  14  17
ENDBRANCH  12  14
ENDBRANCH   9  12
ENDBRANCH   3   5
ENDBRANCH   2   3
ENDBRANCH   1   2
BRANCH   1  25
ATOM     25  C   UNL A   1      37.923  24.091  26.245  1.00  0.00     0.275 C 
BRANCH  25  26
ATOM     26  O   UNL A   1      38.899  23.697  27.233  1.00  0.00    -0.458 OA
BRANCH  26  27
ATOM     27  C   UNL A   1      40.051  24.424  27.284  1.00  0.00     0.338 C 
ATOM     28  O   UNL A   1      41.067  24.111  26.696  1.00  0.00    -0.246 OA
BRANCH  27  29
ATOM     29  C   UNL A   1      39.707  25.768  27.835  1.00  0.00     0.060 A 
ATOM     30  C   UNL A   1      39.166  25.857  29.122  1.00  0.00     0.016 A 
ATOM     31  C   UNL A   1      40.297  26.883  27.232  1.00  0.00     0.016 A 
ATOM     32  C   UNL A   1      39.345  27.017  29.870  1.00  0.00     0.010 A 
ATOM     33  C   UNL A   1      40.618  27.959  28.014  1.00  0.00     0.010 A 
ATOM     34  C   UNL A   1      40.114  28.041  29.318  1.00  0.00    -0.014 A 
BRANCH  34  35
ATOM     35  C   UNL A   1      40.156  29.392  29.840  1.00  0.00     0.031 A 
ATOM     36  C   UNL A   1      39.046  30.344  29.666  1.00  0.00     0.074 A 
ATOM     37  C   UNL A   1      41.275  29.587  30.572  1.00  0.00     0.049 A 
ATOM     38  N   UNL A   1      39.174  31.621  29.724  1.00  0.00    -0.248 NA
ATOM     39  C   UNL A   1      37.673  29.941  29.367  1.00  0.00     0.031 C 
ATOM     40  C   UNL A   1      41.674  30.652  31.467  1.00  0.00     0.029 A 
ATOM     41  N   UNL A   1      42.416  28.794  30.550  1.00  0.00    -0.354 N 
ATOM     42  C   UNL A   1      37.904  32.166  29.807  1.00  0.00     0.074 A 
ATOM     43  C   UNL A   1      37.012  31.106  29.418  1.00  0.00     0.031 C 
ATOM     44  C   UNL A   1      43.021  30.616  31.586  1.00  0.00     0.029 A 
ATOM     45  C   UNL A   1      43.524  29.601  30.656  1.00  0.00     0.049 A 
ATOM     46  H   UNL A   1      42.430  27.812  30.471  1.00  0.00     0.167 HD
ATOM     47  C   UNL A   1      37.755  33.389  30.395  1.00  0.00     0.031 A 
ATOM     48  C   UNL A   1      44.267  29.854  29.532  1.00  0.00     0.031 A 
ATOM     49  C   UNL A   1      39.071  33.908  30.758  1.00  0.00     0.049 A 
ATOM     50  C   UNL A   1      44.106  31.309  29.149  1.00  0.00     0.074 A 
ATOM     51  C   UNL A   1      39.785  33.827  31.942  1.00  0.00     0.029 A 
ATOM     52  N   UNL A   1      39.982  34.209  29.755  1.00  0.00    -0.354 N 
ATOM     53  N   UNL A   1      42.994  31.990  29.265  1.00  0.00    -0.248 NA
ATOM     54  C   UNL A   1      45.244  32.132  28.759  1.00  0.00     0.031 C 
ATOM     55  C   UNL A   1      41.163  33.934  31.611  1.00  0.00     0.029 A 
ATOM     56  C   UNL A   1      41.273  34.098  30.239  1.00  0.00     0.049 A 
ATOM     57  H   UNL A   1      39.744  34.463  28.835  1.00  0.00     0.167 HD
ATOM     58  C   UNL A   1      43.279  33.323  29.116  1.00  0.00     0.074 A 
ATOM     59  C   UNL A   1      44.690  33.355  28.760  1.00  0.00     0.031 C 
ATOM     60  C   UNL A   1      42.403  34.342  29.359  1.00  0.00     0.031 A 
BRANCH  47  61
ATOM     61  C   UNL A   1      36.469  33.977  30.944  1.00  0.00    -0.014 A 
ATOM     62  C   UNL A   1      35.354  34.078  30.081  1.00  0.00     0.010 A 
ATOM     63  C   UNL A   1      36.287  34.487  32.245  1.00  0.00     0.010 A 
ATOM     64  C   UNL A   1      34.158  34.706  30.457  1.00  0.00     0.020 A 
ATOM     65  C   UNL A   1      35.092  35.127  32.636  1.00  0.00     0.020 A 
ATOM     66  C   UNL A   1      34.039  35.244  31.733  1.00  0.00     0.054 A 
BRANCH  66  67
ATOM     67  S   UNL A   1      32.494  36.081  32.184  1.00  0.00     0.124 S 
ATOM     68  O   UNL A   1      32.125  36.748  30.937  1.00  0.00    -0.237 OA
ATOM     69  O   UNL A   1      31.635  34.969  32.581  1.00  0.00    -0.237 OA
ATOM     70  O   UNL A   1      32.888  36.978  33.269  1.00  0.00    -0.744 OA
ENDBRANCH  66  67
ENDBRANCH  47  61
BRANCH  48  71
ATOM     71  C   UNL A   1      44.435  28.697  28.576  1.00  0.00    -0.014 A 
ATOM     72  C   UNL A   1      44.064  28.906  27.224  1.00  0.00     0.010 A 
ATOM     73  C   UNL A   1      45.153  27.525  28.874  1.00  0.00     0.010 A 
ATOM     74  C   UNL A   1      44.502  28.059  26.196  1.00  0.00     0.020 A 
ATOM     75  C   UNL A   1      45.576  26.653  27.844  1.00  0.00     0.020 A 
ATOM     76  C   UNL A   1      45.280  26.947  26.509  1.00  0.00     0.054 A 
BRANCH  76  77
ATOM     77  S   UNL A   1      46.063  26.036  25.134  1.00  0.00     0.124 S 
ATOM     78  O   UNL A   1      46.411  27.108  24.208  1.00  0.00    -0.237 OA
ATOM     79  O   UNL A   1      47.192  25.391  25.803  1.00  0.00    -0.237 OA
ATOM     80  O   UNL A   1      45.005  25.134  24.684  1.00  0.00    -0.744 OA
ENDBRANCH  76  77
ENDBRANCH  48  71
BRANCH  60  81
ATOM     81  C   UNL A   1      42.598  35.747  28.856  1.00  0.00    -0.014 A 
ATOM     82  C   UNL A   1      41.967  36.233  27.703  1.00  0.00     0.010 A 
ATOM     83  C   UNL A   1      43.309  36.678  29.651  1.00  0.00     0.010 A 
ATOM     84  C   UNL A   1      42.123  37.559  27.302  1.00  0.00     0.020 A 
ATOM     85  C   UNL A   1      43.412  38.021  29.295  1.00  0.00     0.020 A 
ATOM     86  C   UNL A   1      42.851  38.442  28.096  1.00  0.00     0.054 A 
BRANCH  86  87
ATOM     87  S   UNL A   1      43.023  40.159  27.572  1.00  0.00     0.124 S 
ATOM     88  O   UNL A   1      41.689  40.686  27.847  1.00  0.00    -0.237 OA
ATOM     89  O   UNL A   1      44.086  40.660  28.441  1.00  0.00    -0.237 OA
ATOM     90  O   UNL A   1      43.379  40.054  26.161  1.00  0.00    -0.744 OA
ENDBRANCH  86  87
ENDBRANCH  60  81
ENDBRANCH  34  35
ENDBRANCH  27  29
ENDBRANCH  26  27
ENDBRANCH  25  26
ENDBRANCH   1  25
TORSDOF 17
ENDMDL
