MODEL 1
REMARK VINA RESULT:      -9.7      0.000      0.000
REMARK SMILES C[C@@H]([C@H](C)O)[C@H](C(=O)OCCOC(=O)c1ccc(-c2c3nc(c(-c4ccc(S(=O)(=O)[O-])cc4)c4ccc([nH]4)c(-c4ccc(S(=O)(=O)[O-])cc4)c4nc(c(-c5ccc(S(=O)(=O)[O-])cc5)c5ccc2[nH]5)C=C4)C=C3)cc1)c1ccccc1Br
REMARK SMILES IDX 10 1 9 2 7 3 8 4 6 5 2 6 1 7 3 8 4 9 5 10 75 12 76 13 80 14
REMARK SMILES IDX 77 15 79 16 81 17 78 18 11 19 12 20 13 21 14 22 15 23 16 24
REMARK SMILES IDX 74 25 17 26 73 27 18 28 19 29 20 30 67 31 21 32 72 33 66 34
REMARK SMILES IDX 68 35 22 36 71 37 65 38 64 39 23 41 53 42 34 43 52 44 35 45
REMARK SMILES IDX 38 46 51 47 69 48 36 49 37 50 50 52 70 53 39 54 24 55 25 56
REMARK SMILES IDX 33 57 26 58 32 59 27 60 28 61 29 62 30 63 31 64 54 65 55 66
REMARK SMILES IDX 63 67 56 68 62 69 57 70 58 71 59 72 60 73 61 74 40 75 41 76
REMARK SMILES IDX 49 77 42 78 48 79 43 80 44 81 45 82 46 83 47 84
REMARK H PARENT 5 11 68 40 38 51
REMARK Flexibility Score: inf
ROOT
ATOM      1  C   UNL A   1      32.473  28.406  26.255  1.00  0.00     0.274 C 
ENDROOT
BRANCH   1   2
ATOM      2  O   UNL A   1      33.257  27.215  26.033  1.00  0.00    -0.462 OA
BRANCH   2   3
ATOM      3  C   UNL A   1      33.596  26.964  24.734  1.00  0.00     0.313 C 
ATOM      4  O   UNL A   1      34.290  27.731  24.082  1.00  0.00    -0.252 OA
BRANCH   3   5
ATOM      5  C   UNL A   1      32.986  25.648  24.198  1.00  0.00     0.136 C 
BRANCH   5   6
ATOM      6  C   UNL A   1      33.497  25.334  22.746  1.00  0.00     0.033 C 
ATOM      7  C   UNL A   1      33.194  23.857  22.404  1.00  0.00     0.011 C 
BRANCH   6   8
ATOM      8  C   UNL A   1      32.865  26.174  21.583  1.00  0.00     0.115 C 
ATOM      9  C   UNL A   1      32.550  25.420  20.283  1.00  0.00     0.038 C 
BRANCH   8  10
ATOM     10  O   UNL A   1      33.657  27.335  21.337  1.00  0.00    -0.393 OA
ATOM     11  H   UNL A   1      33.870  27.389  20.393  1.00  0.00     0.210 HD
ENDBRANCH   8  10
ENDBRANCH   6   8
ENDBRANCH   5   6
BRANCH   5  12
ATOM     12  C   UNL A   1      33.034  24.543  25.295  1.00  0.00    -0.019 A 
ATOM     13  C   UNL A   1      31.759  24.147  25.787  1.00  0.00     0.006 A 
ATOM     14  C   UNL A   1      34.143  23.920  25.904  1.00  0.00     0.022 A 
ATOM     15  C   UNL A   1      31.595  23.272  26.865  1.00  0.00     0.000 A 
ATOM     16  C   UNL A   1      33.969  23.040  26.994  1.00  0.00     0.016 A 
ATOM     17  Br  UNL A   1      35.958  24.032  25.362  1.00  0.00    -0.051 Br
ATOM     18  C   UNL A   1      32.706  22.730  27.483  1.00  0.00     0.001 A 
ENDBRANCH   5  12
ENDBRANCH   3   5
ENDBRANCH   2   3
ENDBRANCH   1   2
BRANCH   1  19
ATOM     19  C   UNL A   1      33.374  29.634  26.413  1.00  0.00     0.275 C 
BRANCH  19  20
ATOM     20  O   UNL A   1      33.350  30.076  27.780  1.00  0.00    -0.458 OA
BRANCH  20  21
ATOM     21  C   UNL A   1      34.301  30.973  28.133  1.00  0.00     0.338 C 
ATOM     22  O   UNL A   1      34.134  32.169  28.302  1.00  0.00    -0.246 OA
BRANCH  21  23
ATOM     23  C   UNL A   1      35.609  30.288  28.304  1.00  0.00     0.060 A 
ATOM     24  C   UNL A   1      35.945  29.663  29.503  1.00  0.00     0.016 A 
ATOM     25  C   UNL A   1      36.563  30.349  27.287  1.00  0.00     0.016 A 
ATOM     26  C   UNL A   1      37.240  29.192  29.722  1.00  0.00     0.010 A 
ATOM     27  C   UNL A   1      37.845  29.810  27.486  1.00  0.00     0.010 A 
ATOM     28  C   UNL A   1      38.224  29.278  28.730  1.00  0.00    -0.014 A 
BRANCH  28  29
ATOM     29  C   UNL A   1      39.643  28.917  29.044  1.00  0.00     0.031 A 
ATOM     30  C   UNL A   1      40.510  29.862  29.849  1.00  0.00     0.074 A 
ATOM     31  C   UNL A   1      40.160  27.722  28.684  1.00  0.00     0.049 A 
ATOM     32  N   UNL A   1      41.799  29.808  30.083  1.00  0.00    -0.248 NA
ATOM     33  C   UNL A   1      39.848  31.029  30.453  1.00  0.00     0.031 C 
ATOM     34  C   UNL A   1      39.448  26.665  27.962  1.00  0.00     0.029 A 
ATOM     35  N   UNL A   1      41.405  27.180  28.907  1.00  0.00    -0.354 N 
ATOM     36  C   UNL A   1      42.111  30.970  30.782  1.00  0.00     0.074 A 
ATOM     37  C   UNL A   1      40.877  31.707  30.942  1.00  0.00     0.031 C 
ATOM     38  C   UNL A   1      40.234  25.582  27.872  1.00  0.00     0.029 A 
ATOM     39  C   UNL A   1      41.543  25.896  28.434  1.00  0.00     0.049 A 
ATOM     40  H   UNL A   1      42.129  27.667  29.363  1.00  0.00     0.167 HD
ATOM     41  C   UNL A   1      43.314  31.392  31.244  1.00  0.00     0.031 A 
ATOM     42  C   UNL A   1      42.607  25.067  28.416  1.00  0.00     0.031 A 
ATOM     43  C   UNL A   1      44.532  30.627  31.164  1.00  0.00     0.049 A 
ATOM     44  C   UNL A   1      43.927  25.545  28.951  1.00  0.00     0.074 A 
ATOM     45  C   UNL A   1      45.800  30.976  31.600  1.00  0.00     0.029 A 
ATOM     46  N   UNL A   1      44.628  29.346  30.647  1.00  0.00    -0.354 N 
ATOM     47  N   UNL A   1      44.224  26.696  29.502  1.00  0.00    -0.248 NA
ATOM     48  C   UNL A   1      45.060  24.616  28.840  1.00  0.00     0.031 C 
ATOM     49  C   UNL A   1      46.668  29.914  31.324  1.00  0.00     0.029 A 
ATOM     50  C   UNL A   1      45.932  28.887  30.755  1.00  0.00     0.049 A 
ATOM     51  H   UNL A   1      43.881  28.835  30.260  1.00  0.00     0.167 HD
ATOM     52  C   UNL A   1      45.581  26.632  29.800  1.00  0.00     0.074 A 
ATOM     53  C   UNL A   1      46.037  25.316  29.400  1.00  0.00     0.031 C 
ATOM     54  C   UNL A   1      46.379  27.582  30.345  1.00  0.00     0.031 A 
BRANCH  41  55
ATOM     55  C   UNL A   1      43.386  32.774  31.839  1.00  0.00    -0.014 A 
ATOM     56  C   UNL A   1      43.486  33.925  31.037  1.00  0.00     0.010 A 
ATOM     57  C   UNL A   1      43.316  32.920  33.238  1.00  0.00     0.010 A 
ATOM     58  C   UNL A   1      43.554  35.192  31.625  1.00  0.00     0.020 A 
ATOM     59  C   UNL A   1      43.358  34.187  33.828  1.00  0.00     0.020 A 
ATOM     60  C   UNL A   1      43.498  35.314  33.018  1.00  0.00     0.054 A 
BRANCH  60  61
ATOM     61  S   UNL A   1      43.572  36.969  33.758  1.00  0.00     0.124 S 
ATOM     62  O   UNL A   1      43.939  37.795  32.610  1.00  0.00    -0.237 OA
ATOM     63  O   UNL A   1      42.213  37.161  34.260  1.00  0.00    -0.237 OA
ATOM     64  O   UNL A   1      44.600  36.842  34.788  1.00  0.00    -0.744 OA
ENDBRANCH  60  61
ENDBRANCH  41  55
BRANCH  42  65
ATOM     65  C   UNL A   1      42.476  23.709  27.821  1.00  0.00    -0.014 A 
ATOM     66  C   UNL A   1      42.882  23.463  26.498  1.00  0.00     0.010 A 
ATOM     67  C   UNL A   1      41.959  22.647  28.586  1.00  0.00     0.010 A 
ATOM     68  C   UNL A   1      42.774  22.182  25.951  1.00  0.00     0.020 A 
ATOM     69  C   UNL A   1      41.879  21.358  28.053  1.00  0.00     0.020 A 
ATOM     70  C   UNL A   1      42.278  21.136  26.734  1.00  0.00     0.054 A 
BRANCH  70  71
ATOM     71  S   UNL A   1      42.220  19.460  26.040  1.00  0.00     0.124 S 
ATOM     72  O   UNL A   1      43.117  19.574  24.895  1.00  0.00    -0.237 OA
ATOM     73  O   UNL A   1      42.706  18.637  27.146  1.00  0.00    -0.237 OA
ATOM     74  O   UNL A   1      40.807  19.278  25.715  1.00  0.00    -0.744 OA
ENDBRANCH  70  71
ENDBRANCH  42  65
BRANCH  54  75
ATOM     75  C   UNL A   1      47.823  27.221  30.558  1.00  0.00    -0.014 A 
ATOM     76  C   UNL A   1      48.241  26.571  31.733  1.00  0.00     0.010 A 
ATOM     77  C   UNL A   1      48.773  27.531  29.570  1.00  0.00     0.010 A 
ATOM     78  C   UNL A   1      49.593  26.279  31.935  1.00  0.00     0.020 A 
ATOM     79  C   UNL A   1      50.123  27.222  29.758  1.00  0.00     0.020 A 
ATOM     80  C   UNL A   1      50.526  26.616  30.951  1.00  0.00     0.054 A 
BRANCH  80  81
ATOM     81  S   UNL A   1      52.277  26.229  31.230  1.00  0.00     0.124 S 
ATOM     82  O   UNL A   1      52.724  27.387  31.997  1.00  0.00    -0.237 OA
ATOM     83  O   UNL A   1      52.218  24.970  31.969  1.00  0.00    -0.237 OA
ATOM     84  O   UNL A   1      52.827  26.125  29.879  1.00  0.00    -0.744 OA
ENDBRANCH  80  81
ENDBRANCH  54  75
ENDBRANCH  28  29
ENDBRANCH  21  23
ENDBRANCH  20  21
ENDBRANCH  19  20
ENDBRANCH   1  19
TORSDOF 18
ENDMDL
MODEL 2
REMARK VINA RESULT:      -9.6      2.838      3.544
REMARK SMILES C[C@@H]([C@H](C)O)[C@H](C(=O)OCCOC(=O)c1ccc(-c2c3nc(c(-c4ccc(S(=O)(=O)[O-])cc4)c4ccc([nH]4)c(-c4ccc(S(=O)(=O)[O-])cc4)c4nc(c(-c5ccc(S(=O)(=O)[O-])cc5)c5ccc2[nH]5)C=C4)C=C3)cc1)c1ccccc1Br
REMARK SMILES IDX 10 1 9 2 7 3 8 4 6 5 2 6 1 7 3 8 4 9 5 10 75 12 76 13 80 14
REMARK SMILES IDX 77 15 79 16 81 17 78 18 11 19 12 20 13 21 14 22 15 23 16 24
REMARK SMILES IDX 74 25 17 26 73 27 18 28 19 29 20 30 67 31 21 32 72 33 66 34
REMARK SMILES IDX 68 35 22 36 71 37 65 38 64 39 23 41 53 42 34 43 52 44 35 45
REMARK SMILES IDX 38 46 51 47 69 48 36 49 37 50 50 52 70 53 39 54 24 55 25 56
REMARK SMILES IDX 33 57 26 58 32 59 27 60 28 61 29 62 30 63 31 64 54 65 55 66
REMARK SMILES IDX 63 67 56 68 62 69 57 70 58 71 59 72 60 73 61 74 40 75 41 76
REMARK SMILES IDX 49 77 42 78 48 79 43 80 44 81 45 82 46 83 47 84
REMARK H PARENT 5 11 68 40 38 51
REMARK Flexibility Score: inf
ROOT
ATOM      1  C   UNL A   1      31.688  30.201  25.658  1.00  0.00     0.274 C 
ENDROOT
BRANCH   1   2
ATOM      2  O   UNL A   1      31.622  28.765  25.782  1.00  0.00    -0.462 OA
BRANCH   2   3
ATOM      3  C   UNL A   1      32.236  28.056  24.788  1.00  0.00     0.313 C 
ATOM      4  O   UNL A   1      33.179  28.507  24.154  1.00  0.00    -0.252 OA
BRANCH   3   5
ATOM      5  C   UNL A   1      31.589  26.672  24.551  1.00  0.00     0.136 C 
BRANCH   5   6
ATOM      6  C   UNL A   1      30.427  26.760  23.497  1.00  0.00     0.033 C 
ATOM      7  C   UNL A   1      29.107  26.289  24.149  1.00  0.00     0.011 C 
BRANCH   6   8
ATOM      8  C   UNL A   1      30.123  28.180  22.905  1.00  0.00     0.115 C 
ATOM      9  C   UNL A   1      28.664  28.655  22.976  1.00  0.00     0.038 C 
BRANCH   8  10
ATOM     10  O   UNL A   1      30.642  28.274  21.579  1.00  0.00    -0.393 OA
ATOM     11  H   UNL A   1      30.493  27.437  21.112  1.00  0.00     0.210 HD
ENDBRANCH   8  10
ENDBRANCH   6   8
ENDBRANCH   5   6
BRANCH   5  12
ATOM     12  C   UNL A   1      32.688  25.579  24.406  1.00  0.00    -0.019 A 
ATOM     13  C   UNL A   1      33.116  25.008  25.637  1.00  0.00     0.006 A 
ATOM     14  C   UNL A   1      33.354  25.111  23.254  1.00  0.00     0.022 A 
ATOM     15  C   UNL A   1      34.186  24.113  25.733  1.00  0.00     0.000 A 
ATOM     16  C   UNL A   1      34.435  24.210  23.359  1.00  0.00     0.016 A 
ATOM     17  Br  UNL A   1      32.905  25.475  21.446  1.00  0.00    -0.051 Br
ATOM     18  C   UNL A   1      34.860  23.726  24.590  1.00  0.00     0.001 A 
ENDBRANCH   5  12
ENDBRANCH   3   5
ENDBRANCH   2   3
ENDBRANCH   1   2
BRANCH   1  19
ATOM     19  C   UNL A   1      32.201  30.841  26.950  1.00  0.00     0.275 C 
BRANCH  19  20
ATOM     20  O   UNL A   1      33.632  30.718  27.012  1.00  0.00    -0.458 OA
BRANCH  20  21
ATOM     21  C   UNL A   1      34.273  31.606  27.808  1.00  0.00     0.338 C 
ATOM     22  O   UNL A   1      33.840  32.683  28.179  1.00  0.00    -0.246 OA
BRANCH  21  23
ATOM     23  C   UNL A   1      35.608  31.075  28.191  1.00  0.00     0.060 A 
ATOM     24  C   UNL A   1      35.785  29.731  28.512  1.00  0.00     0.016 A 
ATOM     25  C   UNL A   1      36.689  31.947  28.326  1.00  0.00     0.016 A 
ATOM     26  C   UNL A   1      36.989  29.280  29.052  1.00  0.00     0.010 A 
ATOM     27  C   UNL A   1      37.923  31.475  28.805  1.00  0.00     0.010 A 
ATOM     28  C   UNL A   1      38.075  30.145  29.234  1.00  0.00    -0.014 A 
BRANCH  28  29
ATOM     29  C   UNL A   1      39.297  29.678  29.964  1.00  0.00     0.031 A 
ATOM     30  C   UNL A   1      39.643  30.259  31.319  1.00  0.00     0.074 A 
ATOM     31  C   UNL A   1      40.072  28.688  29.473  1.00  0.00     0.049 A 
ATOM     32  N   UNL A   1      40.734  30.107  32.030  1.00  0.00    -0.248 NA
ATOM     33  C   UNL A   1      38.644  31.136  31.948  1.00  0.00     0.031 C 
ATOM     34  C   UNL A   1      39.849  27.971  28.215  1.00  0.00     0.029 A 
ATOM     35  N   UNL A   1      41.194  28.086  29.995  1.00  0.00    -0.354 N 
ATOM     36  C   UNL A   1      40.587  30.936  33.139  1.00  0.00     0.074 A 
ATOM     37  C   UNL A   1      39.298  31.580  33.013  1.00  0.00     0.031 C 
ATOM     38  C   UNL A   1      40.750  26.983  28.102  1.00  0.00     0.029 A 
ATOM     39  C   UNL A   1      41.682  27.058  29.222  1.00  0.00     0.049 A 
ATOM     40  H   UNL A   1      41.611  28.367  30.841  1.00  0.00     0.167 HD
ATOM     41  C   UNL A   1      41.446  31.148  34.167  1.00  0.00     0.031 A 
ATOM     42  C   UNL A   1      42.773  26.278  29.368  1.00  0.00     0.031 A 
ATOM     43  C   UNL A   1      42.692  30.449  34.345  1.00  0.00     0.049 A 
ATOM     44  C   UNL A   1      43.702  26.514  30.524  1.00  0.00     0.074 A 
ATOM     45  C   UNL A   1      43.630  30.601  35.353  1.00  0.00     0.029 A 
ATOM     46  N   UNL A   1      43.158  29.439  33.519  1.00  0.00    -0.354 N 
ATOM     47  N   UNL A   1      43.600  27.386  31.498  1.00  0.00    -0.248 NA
ATOM     48  C   UNL A   1      44.906  25.675  30.587  1.00  0.00     0.031 C 
ATOM     49  C   UNL A   1      44.675  29.700  35.122  1.00  0.00     0.029 A 
ATOM     50  C   UNL A   1      44.367  28.957  33.994  1.00  0.00     0.049 A 
ATOM     51  H   UNL A   1      42.698  29.111  32.713  1.00  0.00     0.167 HD
ATOM     52  C   UNL A   1      44.729  27.202  32.288  1.00  0.00     0.074 A 
ATOM     53  C   UNL A   1      45.482  26.114  31.698  1.00  0.00     0.031 C 
ATOM     54  C   UNL A   1      45.114  27.882  33.396  1.00  0.00     0.031 A 
BRANCH  41  55
ATOM     55  C   UNL A   1      41.089  32.221  35.162  1.00  0.00    -0.014 A 
ATOM     56  C   UNL A   1      40.316  31.949  36.304  1.00  0.00     0.010 A 
ATOM     57  C   UNL A   1      41.576  33.528  34.962  1.00  0.00     0.010 A 
ATOM     58  C   UNL A   1      40.001  32.972  37.204  1.00  0.00     0.020 A 
ATOM     59  C   UNL A   1      41.286  34.546  35.873  1.00  0.00     0.020 A 
ATOM     60  C   UNL A   1      40.483  34.267  36.978  1.00  0.00     0.054 A 
BRANCH  60  61
ATOM     61  S   UNL A   1      40.076  35.575  38.169  1.00  0.00     0.124 S 
ATOM     62  O   UNL A   1      41.313  35.676  38.938  1.00  0.00    -0.237 OA
ATOM     63  O   UNL A   1      39.777  36.716  37.307  1.00  0.00    -0.237 OA
ATOM     64  O   UNL A   1      38.931  35.035  38.899  1.00  0.00    -0.744 OA
ENDBRANCH  60  61
ENDBRANCH  41  55
BRANCH  42  65
ATOM     65  C   UNL A   1      43.072  25.228  28.356  1.00  0.00    -0.014 A 
ATOM     66  C   UNL A   1      42.489  23.953  28.453  1.00  0.00     0.010 A 
ATOM     67  C   UNL A   1      43.930  25.507  27.277  1.00  0.00     0.010 A 
ATOM     68  C   UNL A   1      42.758  22.977  27.490  1.00  0.00     0.020 A 
ATOM     69  C   UNL A   1      44.178  24.545  26.296  1.00  0.00     0.020 A 
ATOM     70  C   UNL A   1      43.598  23.281  26.414  1.00  0.00     0.054 A 
BRANCH  70  71
ATOM     71  S   UNL A   1      43.874  22.032  25.127  1.00  0.00     0.124 S 
ATOM     72  O   UNL A   1      45.315  21.820  25.213  1.00  0.00    -0.237 OA
ATOM     73  O   UNL A   1      43.043  20.918  25.576  1.00  0.00    -0.237 OA
ATOM     74  O   UNL A   1      43.408  22.693  23.910  1.00  0.00    -0.744 OA
ENDBRANCH  70  71
ENDBRANCH  42  65
BRANCH  54  75
ATOM     75  C   UNL A   1      46.397  27.451  34.051  1.00  0.00    -0.014 A 
ATOM     76  C   UNL A   1      47.626  28.031  33.689  1.00  0.00     0.010 A 
ATOM     77  C   UNL A   1      46.373  26.458  35.045  1.00  0.00     0.010 A 
ATOM     78  C   UNL A   1      48.815  27.591  34.277  1.00  0.00     0.020 A 
ATOM     79  C   UNL A   1      47.557  26.030  35.652  1.00  0.00     0.020 A 
ATOM     80  C   UNL A   1      48.773  26.586  35.247  1.00  0.00     0.054 A 
BRANCH  80  81
ATOM     81  S   UNL A   1      50.327  26.028  36.001  1.00  0.00     0.124 S 
ATOM     82  O   UNL A   1      49.877  25.560  37.309  1.00  0.00    -0.237 OA
ATOM     83  O   UNL A   1      50.778  24.985  35.082  1.00  0.00    -0.237 OA
ATOM     84  O   UNL A   1      51.154  27.232  36.019  1.00  0.00    -0.744 OA
ENDBRANCH  80  81
ENDBRANCH  54  75
ENDBRANCH  28  29
ENDBRANCH  21  23
ENDBRANCH  20  21
ENDBRANCH  19  20
ENDBRANCH   1  19
TORSDOF 18
ENDMDL
MODEL 3
REMARK VINA RESULT:      -9.6      3.003      8.773
REMARK SMILES C[C@@H]([C@H](C)O)[C@H](C(=O)OCCOC(=O)c1ccc(-c2c3nc(c(-c4ccc(S(=O)(=O)[O-])cc4)c4ccc([nH]4)c(-c4ccc(S(=O)(=O)[O-])cc4)c4nc(c(-c5ccc(S(=O)(=O)[O-])cc5)c5ccc2[nH]5)C=C4)C=C3)cc1)c1ccccc1Br
REMARK SMILES IDX 10 1 9 2 7 3 8 4 6 5 2 6 1 7 3 8 4 9 5 10 75 12 76 13 80 14
REMARK SMILES IDX 77 15 79 16 81 17 78 18 11 19 12 20 13 21 14 22 15 23 16 24
REMARK SMILES IDX 74 25 17 26 73 27 18 28 19 29 20 30 67 31 21 32 72 33 66 34
REMARK SMILES IDX 68 35 22 36 71 37 65 38 64 39 23 41 53 42 34 43 52 44 35 45
REMARK SMILES IDX 38 46 51 47 69 48 36 49 37 50 50 52 70 53 39 54 24 55 25 56
REMARK SMILES IDX 33 57 26 58 32 59 27 60 28 61 29 62 30 63 31 64 54 65 55 66
REMARK SMILES IDX 63 67 56 68 62 69 57 70 58 71 59 72 60 73 61 74 40 75 41 76
REMARK SMILES IDX 49 77 42 78 48 79 43 80 44 81 45 82 46 83 47 84
REMARK H PARENT 5 11 68 40 38 51
REMARK Flexibility Score: inf
ROOT
ATOM      1  C   UNL A   1      32.274  28.381  27.367  1.00  0.00     0.274 C 
ENDROOT
BRANCH   1   2
ATOM      2  O   UNL A   1      32.545  27.778  26.085  1.00  0.00    -0.462 OA
BRANCH   2   3
ATOM      3  C   UNL A   1      32.021  26.530  25.895  1.00  0.00     0.313 C 
ATOM      4  O   UNL A   1      31.424  25.933  26.779  1.00  0.00    -0.252 OA
BRANCH   3   5
ATOM      5  C   UNL A   1      32.298  25.972  24.480  1.00  0.00     0.136 C 
BRANCH   5   6
ATOM      6  C   UNL A   1      32.491  27.132  23.439  1.00  0.00     0.033 C 
ATOM      7  C   UNL A   1      33.641  26.766  22.471  1.00  0.00     0.011 C 
BRANCH   6   8
ATOM      8  C   UNL A   1      31.263  27.468  22.525  1.00  0.00     0.115 C 
ATOM      9  C   UNL A   1      29.882  27.449  23.196  1.00  0.00     0.038 C 
BRANCH   8  10
ATOM     10  O   UNL A   1      31.290  26.650  21.356  1.00  0.00    -0.393 OA
ATOM     11  H   UNL A   1      31.843  25.870  21.519  1.00  0.00     0.210 HD
ENDBRANCH   8  10
ENDBRANCH   6   8
ENDBRANCH   5   6
BRANCH   5  12
ATOM     12  C   UNL A   1      33.331  24.809  24.549  1.00  0.00    -0.019 A 
ATOM     13  C   UNL A   1      34.497  25.102  25.311  1.00  0.00     0.006 A 
ATOM     14  C   UNL A   1      33.309  23.540  23.933  1.00  0.00     0.022 A 
ATOM     15  C   UNL A   1      35.598  24.244  25.381  1.00  0.00     0.000 A 
ATOM     16  C   UNL A   1      34.427  22.682  24.005  1.00  0.00     0.016 A 
ATOM     17  Br  UNL A   1      31.846  22.730  23.037  1.00  0.00    -0.051 Br
ATOM     18  C   UNL A   1      35.571  23.037  24.710  1.00  0.00     0.001 A 
ENDBRANCH   5  12
ENDBRANCH   3   5
ENDBRANCH   2   3
ENDBRANCH   1   2
BRANCH   1  19
ATOM     19  C   UNL A   1      32.298  29.908  27.272  1.00  0.00     0.275 C 
BRANCH  19  20
ATOM     20  O   UNL A   1      33.608  30.345  26.873  1.00  0.00    -0.458 OA
BRANCH  20  21
ATOM     21  C   UNL A   1      34.194  31.273  27.666  1.00  0.00     0.338 C 
ATOM     22  O   UNL A   1      33.729  32.359  27.967  1.00  0.00    -0.246 OA
BRANCH  21  23
ATOM     23  C   UNL A   1      35.512  30.777  28.143  1.00  0.00     0.060 A 
ATOM     24  C   UNL A   1      35.618  29.588  28.862  1.00  0.00     0.016 A 
ATOM     25  C   UNL A   1      36.655  31.554  27.956  1.00  0.00     0.016 A 
ATOM     26  C   UNL A   1      36.821  29.228  29.468  1.00  0.00     0.010 A 
ATOM     27  C   UNL A   1      37.883  31.152  28.509  1.00  0.00     0.010 A 
ATOM     28  C   UNL A   1      37.972  30.012  29.328  1.00  0.00    -0.014 A 
BRANCH  28  29
ATOM     29  C   UNL A   1      39.203  29.693  30.118  1.00  0.00     0.031 A 
ATOM     30  C   UNL A   1      40.199  28.676  29.600  1.00  0.00     0.074 A 
ATOM     31  C   UNL A   1      39.491  30.347  31.263  1.00  0.00     0.049 A 
ATOM     32  N   UNL A   1      41.233  28.146  30.206  1.00  0.00    -0.248 NA
ATOM     33  C   UNL A   1      39.997  28.178  28.230  1.00  0.00     0.031 C 
ATOM     34  C   UNL A   1      38.679  31.401  31.875  1.00  0.00     0.029 A 
ATOM     35  N   UNL A   1      40.574  30.242  32.107  1.00  0.00    -0.354 N 
ATOM     36  C   UNL A   1      41.745  27.194  29.329  1.00  0.00     0.074 A 
ATOM     37  C   UNL A   1      40.916  27.226  28.144  1.00  0.00     0.031 C 
ATOM     38  C   UNL A   1      39.324  31.896  32.942  1.00  0.00     0.029 A 
ATOM     39  C   UNL A   1      40.545  31.129  33.158  1.00  0.00     0.049 A 
ATOM     40  H   UNL A   1      41.300  29.592  31.971  1.00  0.00     0.167 HD
ATOM     41  C   UNL A   1      42.805  26.364  29.494  1.00  0.00     0.031 A 
ATOM     42  C   UNL A   1      41.381  31.293  34.204  1.00  0.00     0.031 A 
ATOM     43  C   UNL A   1      43.687  26.384  30.632  1.00  0.00     0.049 A 
ATOM     44  C   UNL A   1      42.562  30.377  34.358  1.00  0.00     0.074 A 
ATOM     45  C   UNL A   1      44.783  25.577  30.888  1.00  0.00     0.029 A 
ATOM     46  N   UNL A   1      43.598  27.278  31.686  1.00  0.00    -0.354 N 
ATOM     47  N   UNL A   1      42.959  29.406  33.573  1.00  0.00    -0.248 NA
ATOM     48  C   UNL A   1      43.393  30.567  35.554  1.00  0.00     0.031 C 
ATOM     49  C   UNL A   1      45.343  25.968  32.109  1.00  0.00     0.029 A 
ATOM     50  C   UNL A   1      44.620  27.046  32.593  1.00  0.00     0.049 A 
ATOM     51  H   UNL A   1      42.910  27.977  31.778  1.00  0.00     0.167 HD
ATOM     52  C   UNL A   1      44.086  28.866  34.183  1.00  0.00     0.074 A 
ATOM     53  C   UNL A   1      44.327  29.641  35.383  1.00  0.00     0.031 C 
ATOM     54  C   UNL A   1      44.846  27.814  33.789  1.00  0.00     0.031 A 
BRANCH  41  55
ATOM     55  C   UNL A   1      43.045  25.322  28.432  1.00  0.00    -0.014 A 
ATOM     56  C   UNL A   1      43.987  25.509  27.406  1.00  0.00     0.010 A 
ATOM     57  C   UNL A   1      42.330  24.110  28.491  1.00  0.00     0.010 A 
ATOM     58  C   UNL A   1      44.180  24.521  26.436  1.00  0.00     0.020 A 
ATOM     59  C   UNL A   1      42.539  23.110  27.538  1.00  0.00     0.020 A 
ATOM     60  C   UNL A   1      43.449  23.330  26.504  1.00  0.00     0.054 A 
BRANCH  60  61
ATOM     61  S   UNL A   1      43.727  22.055  25.243  1.00  0.00     0.124 S 
ATOM     62  O   UNL A   1      45.103  21.650  25.524  1.00  0.00    -0.237 OA
ATOM     63  O   UNL A   1      42.704  21.060  25.555  1.00  0.00    -0.237 OA
ATOM     64  O   UNL A   1      43.533  22.767  23.981  1.00  0.00    -0.744 OA
ENDBRANCH  60  61
ENDBRANCH  41  55
BRANCH  42  65
ATOM     65  C   UNL A   1      41.098  32.344  35.219  1.00  0.00    -0.014 A 
ATOM     66  C   UNL A   1      41.612  33.643  35.068  1.00  0.00     0.010 A 
ATOM     67  C   UNL A   1      40.293  32.053  36.336  1.00  0.00     0.010 A 
ATOM     68  C   UNL A   1      41.328  34.631  36.015  1.00  0.00     0.020 A 
ATOM     69  C   UNL A   1      39.981  33.045  37.268  1.00  0.00     0.020 A 
ATOM     70  C   UNL A   1      40.509  34.327  37.106  1.00  0.00     0.054 A 
BRANCH  70  71
ATOM     71  S   UNL A   1      40.079  35.639  38.284  1.00  0.00     0.124 S 
ATOM     72  O   UNL A   1      41.301  35.751  39.073  1.00  0.00    -0.237 OA
ATOM     73  O   UNL A   1      39.785  36.772  37.409  1.00  0.00    -0.237 OA
ATOM     74  O   UNL A   1      38.923  35.093  38.991  1.00  0.00    -0.744 OA
ENDBRANCH  70  71
ENDBRANCH  42  65
BRANCH  54  75
ATOM     75  C   UNL A   1      46.020  27.458  34.657  1.00  0.00    -0.014 A 
ATOM     76  C   UNL A   1      47.282  28.042  34.445  1.00  0.00     0.010 A 
ATOM     77  C   UNL A   1      45.860  26.531  35.702  1.00  0.00     0.010 A 
ATOM     78  C   UNL A   1      48.374  27.669  35.233  1.00  0.00     0.020 A 
ATOM     79  C   UNL A   1      46.944  26.172  36.507  1.00  0.00     0.020 A 
ATOM     80  C   UNL A   1      48.200  26.728  36.252  1.00  0.00     0.054 A 
BRANCH  80  81
ATOM     81  S   UNL A   1      49.629  26.258  37.267  1.00  0.00     0.124 S 
ATOM     82  O   UNL A   1      50.059  25.018  36.627  1.00  0.00    -0.237 OA
ATOM     83  O   UNL A   1      50.532  27.395  37.104  1.00  0.00    -0.237 OA
ATOM     84  O   UNL A   1      49.066  26.106  38.607  1.00  0.00    -0.744 OA
ENDBRANCH  80  81
ENDBRANCH  54  75
ENDBRANCH  28  29
ENDBRANCH  21  23
ENDBRANCH  20  21
ENDBRANCH  19  20
ENDBRANCH   1  19
TORSDOF 18
ENDMDL
