MODEL 1
REMARK VINA RESULT:     -10.1      0.000      0.000
REMARK SMILES O=C(Cc1ccc(F)cc1F)Nc1sccc1C(=O)OCCOC(=O)c1ccc(-c2c3nc(c(-c4ccc(S(=O)(=O)[O-])cc4)c4ccc([nH]4)c(-c4ccc(S(=O)(=O)[O-])cc4)c4nc(c(-c5ccc(S(=O)(=O)[O-])cc5)c5ccc2[nH]5)C=C4)C=C3)cc1
REMARK SMILES IDX 21 1 20 2 18 3 19 4 17 5 13 6 14 7 15 8 16 9 12 10 1 11 2 12
REMARK SMILES IDX 3 14 4 15 5 16 10 17 6 18 9 19 11 20 7 21 8 22 22 23 23 24
REMARK SMILES IDX 24 25 25 26 26 27 27 28 85 29 28 30 84 31 29 32 30 33 31 34
REMARK SMILES IDX 78 35 32 36 83 37 77 38 79 39 33 40 82 41 76 42 75 43 34 45
REMARK SMILES IDX 64 46 45 47 63 48 46 49 49 50 62 51 80 52 47 53 48 54 61 56
REMARK SMILES IDX 81 57 50 58 35 59 36 60 44 61 37 62 43 63 38 64 39 65 40 66
REMARK SMILES IDX 41 67 42 68 65 69 66 70 74 71 67 72 73 73 68 74 69 75 70 76
REMARK SMILES IDX 71 77 72 78 51 79 52 80 60 81 53 82 59 83 54 84 55 85 56 86
REMARK SMILES IDX 57 87 58 88
REMARK H PARENT 12 13 79 44 49 55
REMARK Flexibility Score: inf
ROOT
ATOM      1  C   UNL A   1      41.341  20.297  26.841  1.00  0.00     0.275 C 
ENDROOT
BRANCH   1   2
ATOM      2  O   UNL A   1      41.976  19.921  25.608  1.00  0.00    -0.458 OA
BRANCH   2   3
ATOM      3  C   UNL A   1      42.843  18.861  25.659  1.00  0.00     0.341 C 
ATOM      4  O   UNL A   1      42.500  17.692  25.722  1.00  0.00    -0.246 OA
BRANCH   3   5
ATOM      5  C   UNL A   1      44.234  19.263  25.454  1.00  0.00     0.094 A 
ATOM      6  C   UNL A   1      44.689  20.443  24.904  1.00  0.00     0.110 A 
ATOM      7  S   UNL A   1      46.348  20.401  24.507  1.00  0.00    -0.126 S 
ATOM      8  C   UNL A   1      46.558  18.913  25.316  1.00  0.00     0.068 A 
ATOM      9  C   UNL A   1      45.361  18.427  25.794  1.00  0.00     0.029 A 
BRANCH   6  10
ATOM     10  N   UNL A   1      44.128  21.668  24.620  1.00  0.00    -0.317 N 
ATOM     11  O   UNL A   1      44.157  22.538  26.785  1.00  0.00    -0.274 OA
ATOM     12  C   UNL A   1      43.918  22.636  25.585  1.00  0.00     0.229 C 
ATOM     13  H   UNL A   1      43.865  21.861  23.691  1.00  0.00     0.170 HD
BRANCH  12  14
ATOM     14  C   UNL A   1      43.380  23.930  25.009  1.00  0.00     0.139 C 
BRANCH  14  15
ATOM     15  C   UNL A   1      44.236  25.165  25.195  1.00  0.00    -0.003 A 
ATOM     16  C   UNL A   1      43.587  26.369  25.524  1.00  0.00     0.010 A 
ATOM     17  C   UNL A   1      45.632  25.188  25.066  1.00  0.00     0.129 A 
ATOM     18  C   UNL A   1      44.316  27.546  25.703  1.00  0.00     0.040 A 
ATOM     19  C   UNL A   1      46.364  26.358  25.237  1.00  0.00     0.078 A 
ATOM     20  F   UNL A   1      46.313  24.077  24.762  1.00  0.00    -0.207 F 
ATOM     21  C   UNL A   1      45.697  27.530  25.553  1.00  0.00     0.126 A 
ATOM     22  F   UNL A   1      46.391  28.663  25.717  1.00  0.00    -0.207 F 
ENDBRANCH  14  15
ENDBRANCH  12  14
ENDBRANCH   6  10
ENDBRANCH   3   5
ENDBRANCH   2   3
ENDBRANCH   1   2
BRANCH   1  23
ATOM     23  C   UNL A   1      39.980  20.940  26.570  1.00  0.00     0.275 C 
BRANCH  23  24
ATOM     24  O   UNL A   1      40.148  22.249  25.997  1.00  0.00    -0.458 OA
BRANCH  24  25
ATOM     25  C   UNL A   1      39.040  23.027  26.015  1.00  0.00     0.338 C 
ATOM     26  O   UNL A   1      37.925  22.738  25.614  1.00  0.00    -0.246 OA
BRANCH  25  27
ATOM     27  C   UNL A   1      39.330  24.247  26.784  1.00  0.00     0.060 A 
ATOM     28  C   UNL A   1      40.064  25.242  26.137  1.00  0.00     0.016 A 
ATOM     29  C   UNL A   1      38.934  24.407  28.112  1.00  0.00     0.016 A 
ATOM     30  C   UNL A   1      40.400  26.412  26.808  1.00  0.00     0.010 A 
ATOM     31  C   UNL A   1      39.285  25.581  28.795  1.00  0.00     0.010 A 
ATOM     32  C   UNL A   1      40.028  26.585  28.148  1.00  0.00    -0.014 A 
BRANCH  32  33
ATOM     33  C   UNL A   1      40.507  27.789  28.869  1.00  0.00     0.031 A 
ATOM     34  C   UNL A   1      41.942  27.870  29.311  1.00  0.00     0.074 A 
ATOM     35  C   UNL A   1      39.686  28.842  29.044  1.00  0.00     0.049 A 
ATOM     36  N   UNL A   1      42.569  28.852  29.908  1.00  0.00    -0.248 NA
ATOM     37  C   UNL A   1      42.782  26.694  29.039  1.00  0.00     0.031 C 
ATOM     38  C   UNL A   1      38.288  28.903  28.615  1.00  0.00     0.029 A 
ATOM     39  N   UNL A   1      39.921  30.073  29.603  1.00  0.00    -0.354 N 
ATOM     40  C   UNL A   1      43.871  28.406  30.101  1.00  0.00     0.074 A 
ATOM     41  C   UNL A   1      43.940  27.060  29.571  1.00  0.00     0.031 C 
ATOM     42  C   UNL A   1      37.799  30.123  28.899  1.00  0.00     0.029 A 
ATOM     43  C   UNL A   1      38.836  30.914  29.556  1.00  0.00     0.049 A 
ATOM     44  H   UNL A   1      40.785  30.329  30.000  1.00  0.00     0.167 HD
ATOM     45  C   UNL A   1      44.916  29.057  30.666  1.00  0.00     0.031 A 
ATOM     46  C   UNL A   1      38.693  32.182  29.992  1.00  0.00     0.031 A 
ATOM     47  C   UNL A   1      44.850  30.394  31.195  1.00  0.00     0.049 A 
ATOM     48  C   UNL A   1      39.861  32.875  30.638  1.00  0.00     0.074 A 
ATOM     49  C   UNL A   1      45.850  31.133  31.803  1.00  0.00     0.029 A 
ATOM     50  N   UNL A   1      43.719  31.198  31.170  1.00  0.00    -0.354 N 
ATOM     51  N   UNL A   1      41.078  32.428  30.837  1.00  0.00    -0.248 NA
ATOM     52  C   UNL A   1      39.635  34.247  31.115  1.00  0.00     0.031 C 
ATOM     53  C   UNL A   1      45.314  32.372  32.177  1.00  0.00     0.029 A 
ATOM     54  C   UNL A   1      43.993  32.421  31.761  1.00  0.00     0.049 A 
ATOM     55  H   UNL A   1      42.850  30.938  30.791  1.00  0.00     0.167 HD
ATOM     56  C   UNL A   1      41.766  33.467  31.454  1.00  0.00     0.074 A 
ATOM     57  C   UNL A   1      40.836  34.572  31.572  1.00  0.00     0.031 C 
ATOM     58  C   UNL A   1      43.051  33.503  31.886  1.00  0.00     0.031 A 
BRANCH  45  59
ATOM     59  C   UNL A   1      46.211  28.300  30.778  1.00  0.00    -0.014 A 
ATOM     60  C   UNL A   1      47.199  28.394  29.781  1.00  0.00     0.010 A 
ATOM     61  C   UNL A   1      46.440  27.480  31.897  1.00  0.00     0.010 A 
ATOM     62  C   UNL A   1      48.373  27.640  29.878  1.00  0.00     0.020 A 
ATOM     63  C   UNL A   1      47.622  26.743  32.008  1.00  0.00     0.020 A 
ATOM     64  C   UNL A   1      48.572  26.811  30.986  1.00  0.00     0.054 A 
BRANCH  64  65
ATOM     65  S   UNL A   1      50.097  25.835  31.089  1.00  0.00     0.124 S 
ATOM     66  O   UNL A   1      50.071  25.105  29.823  1.00  0.00    -0.237 OA
ATOM     67  O   UNL A   1      51.132  26.859  31.200  1.00  0.00    -0.237 OA
ATOM     68  O   UNL A   1      49.905  25.016  32.284  1.00  0.00    -0.744 OA
ENDBRANCH  64  65
ENDBRANCH  45  59
BRANCH  46  69
ATOM     69  C   UNL A   1      37.388  32.877  29.830  1.00  0.00    -0.014 A 
ATOM     70  C   UNL A   1      37.082  33.558  28.640  1.00  0.00     0.010 A 
ATOM     71  C   UNL A   1      36.437  32.846  30.865  1.00  0.00     0.010 A 
ATOM     72  C   UNL A   1      35.850  34.203  28.490  1.00  0.00     0.020 A 
ATOM     73  C   UNL A   1      35.195  33.469  30.711  1.00  0.00     0.020 A 
ATOM     74  C   UNL A   1      34.914  34.152  29.525  1.00  0.00     0.054 A 
BRANCH  74  75
ATOM     75  S   UNL A   1      33.293  34.934  29.289  1.00  0.00     0.124 S 
ATOM     76  O   UNL A   1      33.664  36.263  28.817  1.00  0.00    -0.237 OA
ATOM     77  O   UNL A   1      32.660  34.064  28.299  1.00  0.00    -0.237 OA
ATOM     78  O   UNL A   1      32.694  34.884  30.621  1.00  0.00    -0.744 OA
ENDBRANCH  74  75
ENDBRANCH  46  69
BRANCH  58  79
ATOM     79  C   UNL A   1      43.522  34.788  32.512  1.00  0.00    -0.014 A 
ATOM     80  C   UNL A   1      43.392  35.013  33.894  1.00  0.00     0.010 A 
ATOM     81  C   UNL A   1      44.108  35.781  31.706  1.00  0.00     0.010 A 
ATOM     82  C   UNL A   1      43.793  36.230  34.452  1.00  0.00     0.020 A 
ATOM     83  C   UNL A   1      44.531  36.990  32.265  1.00  0.00     0.020 A 
ATOM     84  C   UNL A   1      44.350  37.215  33.631  1.00  0.00     0.054 A 
BRANCH  84  85
ATOM     85  S   UNL A   1      44.867  38.788  34.373  1.00  0.00     0.124 S 
ATOM     86  O   UNL A   1      43.713  39.641  34.106  1.00  0.00    -0.237 OA
ATOM     87  O   UNL A   1      45.078  38.435  35.775  1.00  0.00    -0.237 OA
ATOM     88  O   UNL A   1      46.082  39.133  33.636  1.00  0.00    -0.744 OA
ENDBRANCH  84  85
ENDBRANCH  58  79
ENDBRANCH  32  33
ENDBRANCH  25  27
ENDBRANCH  24  25
ENDBRANCH  23  24
ENDBRANCH   1  23
TORSDOF 17
ENDMDL
MODEL 2
REMARK VINA RESULT:      -9.7      5.942     11.950
REMARK SMILES O=C(Cc1ccc(F)cc1F)Nc1sccc1C(=O)OCCOC(=O)c1ccc(-c2c3nc(c(-c4ccc(S(=O)(=O)[O-])cc4)c4ccc([nH]4)c(-c4ccc(S(=O)(=O)[O-])cc4)c4nc(c(-c5ccc(S(=O)(=O)[O-])cc5)c5ccc2[nH]5)C=C4)C=C3)cc1
REMARK SMILES IDX 21 1 20 2 18 3 19 4 17 5 13 6 14 7 15 8 16 9 12 10 1 11 2 12
REMARK SMILES IDX 3 14 4 15 5 16 10 17 6 18 9 19 11 20 7 21 8 22 22 23 23 24
REMARK SMILES IDX 24 25 25 26 26 27 27 28 85 29 28 30 84 31 29 32 30 33 31 34
REMARK SMILES IDX 78 35 32 36 83 37 77 38 79 39 33 40 82 41 76 42 75 43 34 45
REMARK SMILES IDX 64 46 45 47 63 48 46 49 49 50 62 51 80 52 47 53 48 54 61 56
REMARK SMILES IDX 81 57 50 58 35 59 36 60 44 61 37 62 43 63 38 64 39 65 40 66
REMARK SMILES IDX 41 67 42 68 65 69 66 70 74 71 67 72 73 73 68 74 69 75 70 76
REMARK SMILES IDX 71 77 72 78 51 79 52 80 60 81 53 82 59 83 54 84 55 85 56 86
REMARK SMILES IDX 57 87 58 88
REMARK H PARENT 12 13 79 44 49 55
REMARK Flexibility Score: inf
ROOT
ATOM      1  C   UNL A   1      32.052  29.601  25.721  1.00  0.00     0.275 C 
ENDROOT
BRANCH   1   2
ATOM      2  O   UNL A   1      32.662  28.363  26.124  1.00  0.00    -0.458 OA
BRANCH   2   3
ATOM      3  C   UNL A   1      31.816  27.355  26.506  1.00  0.00     0.341 C 
ATOM      4  O   UNL A   1      31.125  27.378  27.511  1.00  0.00    -0.246 OA
BRANCH   3   5
ATOM      5  C   UNL A   1      31.692  26.311  25.489  1.00  0.00     0.094 A 
ATOM      6  C   UNL A   1      30.702  26.188  24.537  1.00  0.00     0.110 A 
ATOM      7  S   UNL A   1      30.699  24.665  23.767  1.00  0.00    -0.126 S 
ATOM      8  C   UNL A   1      32.188  24.241  24.484  1.00  0.00     0.068 A 
ATOM      9  C   UNL A   1      32.619  25.212  25.360  1.00  0.00     0.029 A 
BRANCH   6  10
ATOM     10  N   UNL A   1      29.721  27.014  24.035  1.00  0.00    -0.317 N 
ATOM     11  O   UNL A   1      30.982  28.004  22.339  1.00  0.00    -0.274 OA
ATOM     12  C   UNL A   1      29.931  27.853  22.956  1.00  0.00     0.229 C 
ATOM     13  H   UNL A   1      28.835  27.007  24.463  1.00  0.00     0.170 HD
BRANCH  12  14
ATOM     14  C   UNL A   1      28.676  28.587  22.532  1.00  0.00     0.139 C 
BRANCH  14  15
ATOM     15  C   UNL A   1      28.697  30.097  22.649  1.00  0.00    -0.003 A 
ATOM     16  C   UNL A   1      29.230  30.656  23.824  1.00  0.00     0.010 A 
ATOM     17  C   UNL A   1      28.225  30.974  21.661  1.00  0.00     0.129 A 
ATOM     18  C   UNL A   1      29.272  32.041  23.998  1.00  0.00     0.040 A 
ATOM     19  C   UNL A   1      28.260  32.354  21.831  1.00  0.00     0.078 A 
ATOM     20  F   UNL A   1      27.712  30.509  20.516  1.00  0.00    -0.207 F 
ATOM     21  C   UNL A   1      28.783  32.876  23.002  1.00  0.00     0.126 A 
ATOM     22  F   UNL A   1      28.818  34.202  23.177  1.00  0.00    -0.207 F 
ENDBRANCH  14  15
ENDBRANCH  12  14
ENDBRANCH   6  10
ENDBRANCH   3   5
ENDBRANCH   2   3
ENDBRANCH   1   2
BRANCH   1  23
ATOM     23  C   UNL A   1      32.369  30.708  26.726  1.00  0.00     0.275 C 
BRANCH  23  24
ATOM     24  O   UNL A   1      33.660  30.491  27.322  1.00  0.00    -0.458 OA
BRANCH  24  25
ATOM     25  C   UNL A   1      34.267  31.606  27.794  1.00  0.00     0.338 C 
ATOM     26  O   UNL A   1      33.777  32.714  27.931  1.00  0.00    -0.246 OA
BRANCH  25  27
ATOM     27  C   UNL A   1      35.593  31.240  28.314  1.00  0.00     0.060 A 
ATOM     28  C   UNL A   1      35.734  29.955  28.838  1.00  0.00     0.016 A 
ATOM     29  C   UNL A   1      36.664  32.134  28.330  1.00  0.00     0.016 A 
ATOM     30  C   UNL A   1      36.950  29.546  29.373  1.00  0.00     0.010 A 
ATOM     31  C   UNL A   1      37.887  31.728  28.883  1.00  0.00     0.010 A 
ATOM     32  C   UNL A   1      38.033  30.435  29.416  1.00  0.00    -0.014 A 
BRANCH  32  33
ATOM     33  C   UNL A   1      39.276  30.008  30.102  1.00  0.00     0.031 A 
ATOM     34  C   UNL A   1      39.645  30.623  31.424  1.00  0.00     0.074 A 
ATOM     35  C   UNL A   1      40.020  29.009  29.592  1.00  0.00     0.049 A 
ATOM     36  N   UNL A   1      40.659  30.354  32.207  1.00  0.00    -0.248 NA
ATOM     37  C   UNL A   1      38.751  31.675  31.933  1.00  0.00     0.031 C 
ATOM     38  C   UNL A   1      39.739  28.299  28.343  1.00  0.00     0.029 A 
ATOM     39  N   UNL A   1      41.150  28.400  30.077  1.00  0.00    -0.354 N 
ATOM     40  C   UNL A   1      40.537  31.215  33.292  1.00  0.00     0.074 A 
ATOM     41  C   UNL A   1      39.360  32.025  33.057  1.00  0.00     0.031 C 
ATOM     42  C   UNL A   1      40.654  27.328  28.178  1.00  0.00     0.029 A 
ATOM     43  C   UNL A   1      41.602  27.369  29.288  1.00  0.00     0.049 A 
ATOM     44  H   UNL A   1      41.595  28.674  30.912  1.00  0.00     0.167 HD
ATOM     45  C   UNL A   1      41.331  31.321  34.384  1.00  0.00     0.031 A 
ATOM     46  C   UNL A   1      42.660  26.549  29.443  1.00  0.00     0.031 A 
ATOM     47  C   UNL A   1      42.502  30.518  34.617  1.00  0.00     0.049 A 
ATOM     48  C   UNL A   1      43.542  26.704  30.652  1.00  0.00     0.074 A 
ATOM     49  C   UNL A   1      43.382  30.563  35.686  1.00  0.00     0.029 A 
ATOM     50  N   UNL A   1      42.954  29.516  33.772  1.00  0.00    -0.354 N 
ATOM     51  N   UNL A   1      43.427  27.542  31.655  1.00  0.00    -0.248 NA
ATOM     52  C   UNL A   1      44.693  25.796  30.752  1.00  0.00     0.031 C 
ATOM     53  C   UNL A   1      44.385  29.611  35.469  1.00  0.00     0.029 A 
ATOM     54  C   UNL A   1      44.105  28.942  34.288  1.00  0.00     0.049 A 
ATOM     55  H   UNL A   1      42.522  29.252  32.929  1.00  0.00     0.167 HD
ATOM     56  C   UNL A   1      44.486  27.257  32.509  1.00  0.00     0.074 A 
ATOM     57  C   UNL A   1      45.215  26.152  31.917  1.00  0.00     0.031 C 
ATOM     58  C   UNL A   1      44.828  27.856  33.677  1.00  0.00     0.031 A 
BRANCH  45  59
ATOM     59  C   UNL A   1      40.972  32.384  35.387  1.00  0.00    -0.014 A 
ATOM     60  C   UNL A   1      41.538  33.669  35.321  1.00  0.00     0.010 A 
ATOM     61  C   UNL A   1      40.057  32.087  36.413  1.00  0.00     0.010 A 
ATOM     62  C   UNL A   1      41.233  34.625  36.295  1.00  0.00     0.020 A 
ATOM     63  C   UNL A   1      39.731  33.048  37.374  1.00  0.00     0.020 A 
ATOM     64  C   UNL A   1      40.339  34.305  37.322  1.00  0.00     0.054 A 
BRANCH  64  65
ATOM     65  S   UNL A   1      39.963  35.555  38.579  1.00  0.00     0.124 S 
ATOM     66  O   UNL A   1      39.621  36.714  37.757  1.00  0.00    -0.237 OA
ATOM     67  O   UNL A   1      38.850  34.956  39.311  1.00  0.00    -0.237 OA
ATOM     68  O   UNL A   1      41.208  35.674  39.334  1.00  0.00    -0.744 OA
ENDBRANCH  64  65
ENDBRANCH  45  59
BRANCH  46  69
ATOM     69  C   UNL A   1      42.944  25.506  28.422  1.00  0.00    -0.014 A 
ATOM     70  C   UNL A   1      43.771  25.789  27.321  1.00  0.00     0.010 A 
ATOM     71  C   UNL A   1      42.399  24.217  28.556  1.00  0.00     0.010 A 
ATOM     72  C   UNL A   1      44.042  24.802  26.368  1.00  0.00     0.020 A 
ATOM     73  C   UNL A   1      42.686  23.221  27.619  1.00  0.00     0.020 A 
ATOM     74  C   UNL A   1      43.499  23.524  26.525  1.00  0.00     0.054 A 
BRANCH  74  75
ATOM     75  S   UNL A   1      43.916  22.234  25.317  1.00  0.00     0.124 S 
ATOM     76  O   UNL A   1      43.279  21.058  25.898  1.00  0.00    -0.237 OA
ATOM     77  O   UNL A   1      43.308  22.740  24.087  1.00  0.00    -0.237 OA
ATOM     78  O   UNL A   1      45.377  22.224  25.321  1.00  0.00    -0.744 OA
ENDBRANCH  74  75
ENDBRANCH  46  69
BRANCH  58  79
ATOM     79  C   UNL A   1      46.035  27.313  34.393  1.00  0.00    -0.014 A 
ATOM     80  C   UNL A   1      45.916  26.274  35.332  1.00  0.00     0.010 A 
ATOM     81  C   UNL A   1      47.307  27.848  34.117  1.00  0.00     0.010 A 
ATOM     82  C   UNL A   1      47.041  25.813  36.021  1.00  0.00     0.020 A 
ATOM     83  C   UNL A   1      48.437  27.374  34.787  1.00  0.00     0.020 A 
ATOM     84  C   UNL A   1      48.293  26.374  35.753  1.00  0.00     0.054 A 
BRANCH  84  85
ATOM     85  S   UNL A   1      49.743  25.763  36.655  1.00  0.00     0.124 S 
ATOM     86  O   UNL A   1      49.200  24.594  37.342  1.00  0.00    -0.237 OA
ATOM     87  O   UNL A   1      50.697  25.477  35.586  1.00  0.00    -0.237 OA
ATOM     88  O   UNL A   1      50.107  26.883  37.520  1.00  0.00    -0.744 OA
ENDBRANCH  84  85
ENDBRANCH  58  79
ENDBRANCH  32  33
ENDBRANCH  25  27
ENDBRANCH  24  25
ENDBRANCH  23  24
ENDBRANCH   1  23
TORSDOF 17
ENDMDL
MODEL 3
REMARK VINA RESULT:      -9.7      4.124     12.756
REMARK SMILES O=C(Cc1ccc(F)cc1F)Nc1sccc1C(=O)OCCOC(=O)c1ccc(-c2c3nc(c(-c4ccc(S(=O)(=O)[O-])cc4)c4ccc([nH]4)c(-c4ccc(S(=O)(=O)[O-])cc4)c4nc(c(-c5ccc(S(=O)(=O)[O-])cc5)c5ccc2[nH]5)C=C4)C=C3)cc1
REMARK SMILES IDX 21 1 20 2 18 3 19 4 17 5 13 6 14 7 15 8 16 9 12 10 1 11 2 12
REMARK SMILES IDX 3 14 4 15 5 16 10 17 6 18 9 19 11 20 7 21 8 22 22 23 23 24
REMARK SMILES IDX 24 25 25 26 26 27 27 28 85 29 28 30 84 31 29 32 30 33 31 34
REMARK SMILES IDX 78 35 32 36 83 37 77 38 79 39 33 40 82 41 76 42 75 43 34 45
REMARK SMILES IDX 64 46 45 47 63 48 46 49 49 50 62 51 80 52 47 53 48 54 61 56
REMARK SMILES IDX 81 57 50 58 35 59 36 60 44 61 37 62 43 63 38 64 39 65 40 66
REMARK SMILES IDX 41 67 42 68 65 69 66 70 74 71 67 72 73 73 68 74 69 75 70 76
REMARK SMILES IDX 71 77 72 78 51 79 52 80 60 81 53 82 59 83 54 84 55 85 56 86
REMARK SMILES IDX 57 87 58 88
REMARK H PARENT 12 13 79 44 49 55
REMARK Flexibility Score: inf
ROOT
ATOM      1  C   UNL A   1      36.235  33.099  34.356  1.00  0.00     0.275 C 
ENDROOT
BRANCH   1   2
ATOM      2  O   UNL A   1      35.932  33.919  33.216  1.00  0.00    -0.458 OA
BRANCH   2   3
ATOM      3  C   UNL A   1      34.675  33.794  32.683  1.00  0.00     0.341 C 
ATOM      4  O   UNL A   1      34.037  32.754  32.657  1.00  0.00    -0.246 OA
BRANCH   3   5
ATOM      5  C   UNL A   1      34.097  35.082  32.301  1.00  0.00     0.094 A 
ATOM      6  C   UNL A   1      33.505  35.406  31.098  1.00  0.00     0.110 A 
ATOM      7  S   UNL A   1      33.272  37.085  30.898  1.00  0.00    -0.126 S 
ATOM      8  C   UNL A   1      33.695  37.391  32.522  1.00  0.00     0.068 A 
ATOM      9  C   UNL A   1      34.092  36.239  33.165  1.00  0.00     0.029 A 
BRANCH   6  10
ATOM     10  N   UNL A   1      33.028  34.694  30.021  1.00  0.00    -0.317 N 
ATOM     11  O   UNL A   1      34.521  35.507  28.421  1.00  0.00    -0.274 OA
ATOM     12  C   UNL A   1      33.586  34.786  28.759  1.00  0.00     0.229 C 
ATOM     13  H   UNL A   1      32.258  34.096  30.155  1.00  0.00     0.170 HD
BRANCH  12  14
ATOM     14  C   UNL A   1      32.951  33.834  27.766  1.00  0.00     0.139 C 
BRANCH  14  15
ATOM     15  C   UNL A   1      33.558  32.451  27.664  1.00  0.00    -0.003 A 
ATOM     16  C   UNL A   1      34.913  32.303  28.011  1.00  0.00     0.010 A 
ATOM     17  C   UNL A   1      32.859  31.308  27.251  1.00  0.00     0.129 A 
ATOM     18  C   UNL A   1      35.537  31.056  27.933  1.00  0.00     0.040 A 
ATOM     19  C   UNL A   1      33.476  30.064  27.165  1.00  0.00     0.078 A 
ATOM     20  F   UNL A   1      31.566  31.376  26.913  1.00  0.00    -0.207 F 
ATOM     21  C   UNL A   1      34.813  29.950  27.506  1.00  0.00     0.126 A 
ATOM     22  F   UNL A   1      35.417  28.758  27.424  1.00  0.00    -0.207 F 
ENDBRANCH  14  15
ENDBRANCH  12  14
ENDBRANCH   6  10
ENDBRANCH   3   5
ENDBRANCH   2   3
ENDBRANCH   1   2
BRANCH   1  23
ATOM     23  C   UNL A   1      37.278  32.041  33.994  1.00  0.00     0.275 C 
BRANCH  23  24
ATOM     24  O   UNL A   1      37.451  31.973  32.568  1.00  0.00    -0.458 OA
BRANCH  24  25
ATOM     25  C   UNL A   1      37.162  30.773  32.013  1.00  0.00     0.338 C 
ATOM     26  O   UNL A   1      36.088  30.196  32.012  1.00  0.00    -0.246 OA
BRANCH  25  27
ATOM     27  C   UNL A   1      38.317  30.327  31.217  1.00  0.00     0.060 A 
ATOM     28  C   UNL A   1      39.361  29.712  31.908  1.00  0.00     0.016 A 
ATOM     29  C   UNL A   1      38.403  30.537  29.840  1.00  0.00     0.016 A 
ATOM     30  C   UNL A   1      40.497  29.288  31.229  1.00  0.00     0.010 A 
ATOM     31  C   UNL A   1      39.556  30.124  29.156  1.00  0.00     0.010 A 
ATOM     32  C   UNL A   1      40.612  29.506  29.849  1.00  0.00    -0.014 A 
BRANCH  32  33
ATOM     33  C   UNL A   1      41.886  29.154  29.178  1.00  0.00     0.031 A 
ATOM     34  C   UNL A   1      43.001  30.161  29.121  1.00  0.00     0.074 A 
ATOM     35  C   UNL A   1      42.078  27.908  28.705  1.00  0.00     0.049 A 
ATOM     36  N   UNL A   1      44.206  30.033  28.627  1.00  0.00    -0.248 NA
ATOM     37  C   UNL A   1      42.724  31.484  29.703  1.00  0.00     0.031 C 
ATOM     38  C   UNL A   1      41.091  26.828  28.746  1.00  0.00     0.029 A 
ATOM     39  N   UNL A   1      43.181  27.334  28.123  1.00  0.00    -0.354 N 
ATOM     40  C   UNL A   1      44.826  31.263  28.820  1.00  0.00     0.074 A 
ATOM     41  C   UNL A   1      43.858  32.127  29.463  1.00  0.00     0.031 C 
ATOM     42  C   UNL A   1      41.645  25.712  28.241  1.00  0.00     0.029 A 
ATOM     43  C   UNL A   1      43.010  26.006  27.813  1.00  0.00     0.049 A 
ATOM     44  H   UNL A   1      44.014  27.826  27.945  1.00  0.00     0.167 HD
ATOM     45  C   UNL A   1      46.086  31.639  28.494  1.00  0.00     0.031 A 
ATOM     46  C   UNL A   1      43.859  25.125  27.247  1.00  0.00     0.031 A 
ATOM     47  C   UNL A   1      47.049  30.782  27.854  1.00  0.00     0.049 A 
ATOM     48  C   UNL A   1      45.244  25.574  26.871  1.00  0.00     0.074 A 
ATOM     49  C   UNL A   1      48.345  31.077  27.467  1.00  0.00     0.029 A 
ATOM     50  N   UNL A   1      46.823  29.457  27.513  1.00  0.00    -0.354 N 
ATOM     51  N   UNL A   1      45.805  26.749  27.037  1.00  0.00    -0.248 NA
ATOM     52  C   UNL A   1      46.114  24.573  26.237  1.00  0.00     0.031 C 
ATOM     53  C   UNL A   1      48.892  29.939  26.861  1.00  0.00     0.029 A 
ATOM     54  C   UNL A   1      47.951  28.922  26.911  1.00  0.00     0.049 A 
ATOM     55  H   UNL A   1      45.985  28.968  27.673  1.00  0.00     0.167 HD
ATOM     56  C   UNL A   1      47.095  26.626  26.535  1.00  0.00     0.074 A 
ATOM     57  C   UNL A   1      47.240  25.256  26.083  1.00  0.00     0.031 C 
ATOM     58  C   UNL A   1      48.072  27.563  26.452  1.00  0.00     0.031 A 
BRANCH  45  59
ATOM     59  C   UNL A   1      46.471  33.063  28.791  1.00  0.00    -0.014 A 
ATOM     60  C   UNL A   1      47.040  33.423  30.025  1.00  0.00     0.010 A 
ATOM     61  C   UNL A   1      46.254  34.056  27.818  1.00  0.00     0.010 A 
ATOM     62  C   UNL A   1      47.340  34.760  30.300  1.00  0.00     0.020 A 
ATOM     63  C   UNL A   1      46.575  35.390  28.081  1.00  0.00     0.020 A 
ATOM     64  C   UNL A   1      47.095  35.737  29.330  1.00  0.00     0.054 A 
BRANCH  64  65
ATOM     65  S   UNL A   1      47.483  37.467  29.710  1.00  0.00     0.124 S 
ATOM     66  O   UNL A   1      48.930  37.414  29.905  1.00  0.00    -0.237 OA
ATOM     67  O   UNL A   1      47.039  38.172  28.510  1.00  0.00    -0.237 OA
ATOM     68  O   UNL A   1      46.702  37.742  30.914  1.00  0.00    -0.744 OA
ENDBRANCH  64  65
ENDBRANCH  45  59
BRANCH  46  69
ATOM     69  C   UNL A   1      43.418  23.726  27.001  1.00  0.00    -0.014 A 
ATOM     70  C   UNL A   1      43.119  22.871  28.076  1.00  0.00     0.010 A 
ATOM     71  C   UNL A   1      43.279  23.249  25.686  1.00  0.00     0.010 A 
ATOM     72  C   UNL A   1      42.696  21.559  27.839  1.00  0.00     0.020 A 
ATOM     73  C   UNL A   1      42.834  21.946  25.445  1.00  0.00     0.020 A 
ATOM     74  C   UNL A   1      42.554  21.106  26.525  1.00  0.00     0.054 A 
BRANCH  74  75
ATOM     75  S   UNL A   1      41.938  19.424  26.233  1.00  0.00     0.124 S 
ATOM     76  O   UNL A   1      42.627  19.058  25.000  1.00  0.00    -0.237 OA
ATOM     77  O   UNL A   1      42.370  18.712  27.434  1.00  0.00    -0.237 OA
ATOM     78  O   UNL A   1      40.493  19.607  26.115  1.00  0.00    -0.744 OA
ENDBRANCH  74  75
ENDBRANCH  46  69
BRANCH  58  79
ATOM     79  C   UNL A   1      49.386  27.125  25.863  1.00  0.00    -0.014 A 
ATOM     80  C   UNL A   1      50.318  26.400  26.625  1.00  0.00     0.010 A 
ATOM     81  C   UNL A   1      49.689  27.441  24.526  1.00  0.00     0.010 A 
ATOM     82  C   UNL A   1      51.553  26.041  26.078  1.00  0.00     0.020 A 
ATOM     83  C   UNL A   1      50.913  27.063  23.967  1.00  0.00     0.020 A 
ATOM     84  C   UNL A   1      51.847  26.385  24.755  1.00  0.00     0.054 A 
BRANCH  84  85
ATOM     85  S   UNL A   1      53.453  25.910  24.058  1.00  0.00     0.124 S 
ATOM     86  O   UNL A   1      54.328  26.959  24.575  1.00  0.00    -0.237 OA
ATOM     87  O   UNL A   1      53.670  24.578  24.618  1.00  0.00    -0.237 OA
ATOM     88  O   UNL A   1      53.225  25.941  22.615  1.00  0.00    -0.744 OA
ENDBRANCH  84  85
ENDBRANCH  58  79
ENDBRANCH  32  33
ENDBRANCH  25  27
ENDBRANCH  24  25
ENDBRANCH  23  24
ENDBRANCH   1  23
TORSDOF 17
ENDMDL
