MODEL 1
REMARK VINA RESULT:     -11.8      0.000      0.000
REMARK SMILES COc1cccc([C@H]2CC(c3ccc(S(C)(=O)=O)cc3)=NN2c2ccc(C(=O)OCCOC(=O)c3ccc(-c4c5nc(c(-c6ccc(S(=O)(=O)[O-])cc6)c6ccc([nH]6)c(-c6ccc(S(=O)(=O)[O-])cc6)c6nc(c(-c7ccc(S(=O)(=O)[O-])cc7)c7ccc4[nH]7)C=C6)C=C5)cc3)cc2)c1
REMARK SMILES IDX 30 1 29 2 27 3 28 4 26 5 23 6 24 7 96 8 25 9 95 10 22 11
REMARK SMILES IDX 8 12 9 13 10 14 21 15 7 16 3 17 4 18 97 19 5 20 6 21 2 22
REMARK SMILES IDX 1 23 11 24 12 25 20 26 13 27 19 28 14 29 15 30 16 31 17 32
REMARK SMILES IDX 18 33 31 34 32 35 33 36 34 37 35 38 36 39 94 40 37 41 93 42
REMARK SMILES IDX 38 43 39 44 40 45 87 46 41 47 92 48 86 49 88 50 42 51 91 52
REMARK SMILES IDX 85 53 84 54 43 56 73 57 54 58 72 59 55 60 58 61 71 62 89 63
REMARK SMILES IDX 56 64 57 65 70 67 90 68 59 69 44 70 45 71 53 72 46 73 52 74
REMARK SMILES IDX 47 75 48 76 49 77 50 78 51 79 74 80 75 81 83 82 76 83 82 84
REMARK SMILES IDX 77 85 78 86 79 87 80 88 81 89 60 90 61 91 69 92 62 93 68 94
REMARK SMILES IDX 63 95 64 96 65 97 66 98 67 99
REMARK H PARENT 88 55 58 66
REMARK Flexibility Score: inf
ROOT
ATOM      1  C   UNL A   1      40.417  23.033  26.995  1.00  0.00     0.275 C 
ENDROOT
BRANCH   1   2
ATOM      2  O   UNL A   1      39.163  23.406  26.385  1.00  0.00    -0.458 OA
BRANCH   2   3
ATOM      3  C   UNL A   1      38.488  22.389  25.794  1.00  0.00     0.338 C 
ATOM      4  O   UNL A   1      38.756  21.200  25.865  1.00  0.00    -0.246 OA
BRANCH   3   5
ATOM      5  C   UNL A   1      37.303  22.892  25.070  1.00  0.00     0.060 A 
ATOM      6  C   UNL A   1      34.893  23.677  23.842  1.00  0.00     0.060 A 
ATOM      7  C   UNL A   1      35.182  24.054  25.155  1.00  0.00     0.029 A 
ATOM      8  C   UNL A   1      35.852  22.932  23.139  1.00  0.00     0.029 A 
ATOM      9  C   UNL A   1      36.351  23.629  25.775  1.00  0.00     0.018 A 
ATOM     10  C   UNL A   1      37.066  22.559  23.736  1.00  0.00     0.018 A 
BRANCH   6  11
ATOM     11  N   UNL A   1      33.663  24.008  23.293  1.00  0.00    -0.257 N 
ATOM     12  C   UNL A   1      32.777  23.051  22.629  1.00  0.00     0.144 C 
ATOM     13  C   UNL A   1      31.483  23.857  22.451  1.00  0.00     0.091 C 
ATOM     14  C   UNL A   1      31.877  25.148  23.112  1.00  0.00     0.071 C 
ATOM     15  N   UNL A   1      33.080  25.200  23.586  1.00  0.00    -0.176 NA
BRANCH  12  16
ATOM     16  C   UNL A   1      32.581  21.764  23.419  1.00  0.00    -0.019 A 
ATOM     17  C   UNL A   1      32.377  19.336  23.565  1.00  0.00     0.119 A 
ATOM     18  C   UNL A   1      32.187  19.441  24.944  1.00  0.00     0.046 A 
ATOM     19  C   UNL A   1      32.551  20.495  22.804  1.00  0.00     0.052 A 
ATOM     20  C   UNL A   1      32.194  20.686  25.567  1.00  0.00     0.004 A 
ATOM     21  C   UNL A   1      32.394  21.839  24.811  1.00  0.00     0.006 A 
BRANCH  17  22
ATOM     22  O   UNL A   1      32.346  18.055  23.089  1.00  0.00    -0.497 OA
ATOM     23  C   UNL A   1      33.450  17.221  23.417  1.00  0.00     0.278 C 
ENDBRANCH  17  22
ENDBRANCH  12  16
BRANCH  14  24
ATOM     24  C   UNL A   1      30.966  26.299  23.119  1.00  0.00    -0.002 A 
ATOM     25  C   UNL A   1      31.387  27.473  22.484  1.00  0.00     0.011 A 
ATOM     26  C   UNL A   1      29.695  26.210  23.691  1.00  0.00     0.011 A 
ATOM     27  C   UNL A   1      30.514  28.554  22.375  1.00  0.00     0.021 A 
ATOM     28  C   UNL A   1      28.827  27.303  23.608  1.00  0.00     0.021 A 
ATOM     29  C   UNL A   1      29.237  28.463  22.940  1.00  0.00     0.067 A 
BRANCH  29  30
ATOM     30  S   UNL A   1      28.104  29.815  22.724  1.00  0.00     0.175 S 
ATOM     31  C   UNL A   1      28.881  31.184  23.541  1.00  0.00     0.163 C 
ATOM     32  O   UNL A   1      28.060  30.092  21.299  1.00  0.00    -0.224 OA
ATOM     33  O   UNL A   1      26.890  29.491  23.449  1.00  0.00    -0.224 OA
ENDBRANCH  29  30
ENDBRANCH  14  24
ENDBRANCH   6  11
ENDBRANCH   3   5
ENDBRANCH   2   3
ENDBRANCH   1   2
BRANCH   1  34
ATOM     34  C   UNL A   1      41.576  23.139  26.004  1.00  0.00     0.275 C 
BRANCH  34  35
ATOM     35  O   UNL A   1      41.876  24.520  25.732  1.00  0.00    -0.458 OA
BRANCH  35  36
ATOM     36  C   UNL A   1      42.920  25.039  26.420  1.00  0.00     0.338 C 
ATOM     37  O   UNL A   1      44.096  24.739  26.312  1.00  0.00    -0.246 OA
BRANCH  36  38
ATOM     38  C   UNL A   1      42.447  26.074  27.356  1.00  0.00     0.060 A 
ATOM     39  C   UNL A   1      43.030  27.335  27.334  1.00  0.00     0.016 A 
ATOM     40  C   UNL A   1      41.543  25.746  28.364  1.00  0.00     0.016 A 
ATOM     41  C   UNL A   1      42.836  28.216  28.396  1.00  0.00     0.010 A 
ATOM     42  C   UNL A   1      41.236  26.692  29.352  1.00  0.00     0.010 A 
ATOM     43  C   UNL A   1      41.918  27.921  29.414  1.00  0.00    -0.014 A 
BRANCH  43  44
ATOM     44  C   UNL A   1      41.688  28.875  30.544  1.00  0.00     0.031 A 
ATOM     45  C   UNL A   1      42.603  28.873  31.748  1.00  0.00     0.074 A 
ATOM     46  C   UNL A   1      40.662  29.754  30.505  1.00  0.00     0.049 A 
ATOM     47  N   UNL A   1      42.451  29.470  32.904  1.00  0.00    -0.248 NA
ATOM     48  C   UNL A   1      43.840  28.080  31.646  1.00  0.00     0.031 C 
ATOM     49  C   UNL A   1      39.717  29.915  29.396  1.00  0.00     0.029 A 
ATOM     50  N   UNL A   1      40.244  30.685  31.426  1.00  0.00    -0.354 N 
ATOM     51  C   UNL A   1      43.531  29.071  33.686  1.00  0.00     0.074 A 
ATOM     52  C   UNL A   1      44.331  28.180  32.873  1.00  0.00     0.031 C 
ATOM     53  C   UNL A   1      38.871  30.916  29.676  1.00  0.00     0.029 A 
ATOM     54  C   UNL A   1      39.134  31.396  31.026  1.00  0.00     0.049 A 
ATOM     55  H   UNL A   1      40.695  30.831  32.288  1.00  0.00     0.167 HD
ATOM     56  C   UNL A   1      43.827  29.411  34.965  1.00  0.00     0.031 A 
ATOM     57  C   UNL A   1      38.373  32.294  31.681  1.00  0.00     0.031 A 
ATOM     58  C   UNL A   1      43.060  30.340  35.754  1.00  0.00     0.049 A 
ATOM     59  C   UNL A   1      38.698  32.630  33.107  1.00  0.00     0.074 A 
ATOM     60  C   UNL A   1      43.290  30.762  37.053  1.00  0.00     0.029 A 
ATOM     61  N   UNL A   1      41.925  31.004  35.316  1.00  0.00    -0.354 N 
ATOM     62  N   UNL A   1      39.686  32.194  33.849  1.00  0.00    -0.248 NA
ATOM     63  C   UNL A   1      37.792  33.563  33.790  1.00  0.00     0.031 C 
ATOM     64  C   UNL A   1      42.271  31.650  37.414  1.00  0.00     0.029 A 
ATOM     65  C   UNL A   1      41.435  31.821  36.323  1.00  0.00     0.049 A 
ATOM     66  H   UNL A   1      41.525  30.909  34.421  1.00  0.00     0.167 HD
ATOM     67  C   UNL A   1      39.525  32.804  35.088  1.00  0.00     0.074 A 
ATOM     68  C   UNL A   1      38.359  33.657  34.986  1.00  0.00     0.031 C 
ATOM     69  C   UNL A   1      40.271  32.661  36.210  1.00  0.00     0.031 A 
BRANCH  56  70
ATOM     70  C   UNL A   1      45.014  28.743  35.613  1.00  0.00    -0.014 A 
ATOM     71  C   UNL A   1      46.295  29.323  35.584  1.00  0.00     0.010 A 
ATOM     72  C   UNL A   1      44.830  27.529  36.301  1.00  0.00     0.010 A 
ATOM     73  C   UNL A   1      47.375  28.680  36.198  1.00  0.00     0.020 A 
ATOM     74  C   UNL A   1      45.902  26.897  36.939  1.00  0.00     0.020 A 
ATOM     75  C   UNL A   1      47.173  27.469  36.866  1.00  0.00     0.054 A 
BRANCH  75  76
ATOM     76  S   UNL A   1      48.589  26.666  37.668  1.00  0.00     0.124 S 
ATOM     77  O   UNL A   1      49.515  26.501  36.550  1.00  0.00    -0.237 OA
ATOM     78  O   UNL A   1      48.990  27.648  38.673  1.00  0.00    -0.237 OA
ATOM     79  O   UNL A   1      48.030  25.426  38.202  1.00  0.00    -0.744 OA
ENDBRANCH  75  76
ENDBRANCH  56  70
BRANCH  57  80
ATOM     80  C   UNL A   1      37.185  32.887  31.005  1.00  0.00    -0.014 A 
ATOM     81  C   UNL A   1      37.335  33.939  30.085  1.00  0.00     0.010 A 
ATOM     82  C   UNL A   1      35.897  32.378  31.259  1.00  0.00     0.010 A 
ATOM     83  C   UNL A   1      36.217  34.472  29.434  1.00  0.00     0.020 A 
ATOM     84  C   UNL A   1      34.783  32.888  30.588  1.00  0.00     0.020 A 
ATOM     85  C   UNL A   1      34.950  33.940  29.686  1.00  0.00     0.054 A 
BRANCH  85  86
ATOM     86  S   UNL A   1      33.522  34.600  28.781  1.00  0.00     0.124 S 
ATOM     87  O   UNL A   1      32.602  34.929  29.865  1.00  0.00    -0.237 OA
ATOM     88  O   UNL A   1      34.095  35.739  28.069  1.00  0.00    -0.237 OA
ATOM     89  O   UNL A   1      33.114  33.484  27.930  1.00  0.00    -0.744 OA
ENDBRANCH  85  86
ENDBRANCH  57  80
BRANCH  69  90
ATOM     90  C   UNL A   1      39.865  33.469  37.411  1.00  0.00    -0.014 A 
ATOM     91  C   UNL A   1      38.959  32.957  38.357  1.00  0.00     0.010 A 
ATOM     92  C   UNL A   1      40.426  34.743  37.614  1.00  0.00     0.010 A 
ATOM     93  C   UNL A   1      38.599  33.718  39.472  1.00  0.00     0.020 A 
ATOM     94  C   UNL A   1      40.086  35.497  38.741  1.00  0.00     0.020 A 
ATOM     95  C   UNL A   1      39.163  34.985  39.655  1.00  0.00     0.054 A 
BRANCH  95  96
ATOM     96  S   UNL A   1      38.711  35.939  41.130  1.00  0.00     0.124 S 
ATOM     97  O   UNL A   1      39.870  35.732  41.993  1.00  0.00    -0.237 OA
ATOM     98  O   UNL A   1      38.555  37.292  40.602  1.00  0.00    -0.237 OA
ATOM     99  O   UNL A   1      37.475  35.308  41.585  1.00  0.00    -0.744 OA
ENDBRANCH  95  96
ENDBRANCH  69  90
ENDBRANCH  43  44
ENDBRANCH  36  38
ENDBRANCH  35  36
ENDBRANCH  34  35
ENDBRANCH   1  34
TORSDOF 19
ENDMDL
MODEL 2
REMARK VINA RESULT:     -11.6      2.632      9.349
REMARK SMILES COc1cccc([C@H]2CC(c3ccc(S(C)(=O)=O)cc3)=NN2c2ccc(C(=O)OCCOC(=O)c3ccc(-c4c5nc(c(-c6ccc(S(=O)(=O)[O-])cc6)c6ccc([nH]6)c(-c6ccc(S(=O)(=O)[O-])cc6)c6nc(c(-c7ccc(S(=O)(=O)[O-])cc7)c7ccc4[nH]7)C=C6)C=C5)cc3)cc2)c1
REMARK SMILES IDX 30 1 29 2 27 3 28 4 26 5 23 6 24 7 96 8 25 9 95 10 22 11
REMARK SMILES IDX 8 12 9 13 10 14 21 15 7 16 3 17 4 18 97 19 5 20 6 21 2 22
REMARK SMILES IDX 1 23 11 24 12 25 20 26 13 27 19 28 14 29 15 30 16 31 17 32
REMARK SMILES IDX 18 33 31 34 32 35 33 36 34 37 35 38 36 39 94 40 37 41 93 42
REMARK SMILES IDX 38 43 39 44 40 45 87 46 41 47 92 48 86 49 88 50 42 51 91 52
REMARK SMILES IDX 85 53 84 54 43 56 73 57 54 58 72 59 55 60 58 61 71 62 89 63
REMARK SMILES IDX 56 64 57 65 70 67 90 68 59 69 44 70 45 71 53 72 46 73 52 74
REMARK SMILES IDX 47 75 48 76 49 77 50 78 51 79 74 80 75 81 83 82 76 83 82 84
REMARK SMILES IDX 77 85 78 86 79 87 80 88 81 89 60 90 61 91 69 92 62 93 68 94
REMARK SMILES IDX 63 95 64 96 65 97 66 98 67 99
REMARK H PARENT 88 55 58 66
REMARK Flexibility Score: inf
ROOT
ATOM      1  C   UNL A   1      33.228  32.345  28.117  1.00  0.00     0.275 C 
ENDROOT
BRANCH   1   2
ATOM      2  O   UNL A   1      33.357  31.369  27.061  1.00  0.00    -0.458 OA
BRANCH   2   3
ATOM      3  C   UNL A   1      34.332  30.447  27.250  1.00  0.00     0.338 C 
ATOM      4  O   UNL A   1      35.485  30.665  27.590  1.00  0.00    -0.246 OA
BRANCH   3   5
ATOM      5  C   UNL A   1      33.812  29.079  27.050  1.00  0.00     0.060 A 
ATOM      6  C   UNL A   1      32.771  26.541  26.407  1.00  0.00     0.060 A 
ATOM      7  C   UNL A   1      34.017  26.946  25.925  1.00  0.00     0.029 A 
ATOM      8  C   UNL A   1      32.071  27.416  27.252  1.00  0.00     0.029 A 
ATOM      9  C   UNL A   1      34.511  28.215  26.205  1.00  0.00     0.018 A 
ATOM     10  C   UNL A   1      32.596  28.672  27.597  1.00  0.00     0.018 A 
BRANCH   6  11
ATOM     11  N   UNL A   1      32.248  25.321  26.006  1.00  0.00    -0.257 N 
ATOM     12  C   UNL A   1      30.965  25.164  25.321  1.00  0.00     0.144 C 
ATOM     13  C   UNL A   1      30.992  23.692  24.887  1.00  0.00     0.091 C 
ATOM     14  C   UNL A   1      32.353  23.291  25.384  1.00  0.00     0.071 C 
ATOM     15  N   UNL A   1      33.034  24.213  25.983  1.00  0.00    -0.176 NA
BRANCH  12  16
ATOM     16  C   UNL A   1      30.781  26.132  24.159  1.00  0.00    -0.019 A 
ATOM     17  C   UNL A   1      29.686  28.036  23.094  1.00  0.00     0.119 A 
ATOM     18  C   UNL A   1      30.486  27.857  21.965  1.00  0.00     0.046 A 
ATOM     19  C   UNL A   1      29.818  27.162  24.177  1.00  0.00     0.052 A 
ATOM     20  C   UNL A   1      31.429  26.833  21.920  1.00  0.00     0.004 A 
ATOM     21  C   UNL A   1      31.578  25.979  23.011  1.00  0.00     0.006 A 
BRANCH  17  22
ATOM     22  O   UNL A   1      28.805  29.077  23.000  1.00  0.00    -0.497 OA
ATOM     23  C   UNL A   1      27.421  28.750  23.008  1.00  0.00     0.278 C 
ENDBRANCH  17  22
ENDBRANCH  12  16
BRANCH  14  24
ATOM     24  C   UNL A   1      32.816  21.902  25.272  1.00  0.00    -0.002 A 
ATOM     25  C   UNL A   1      31.855  20.903  25.082  1.00  0.00     0.011 A 
ATOM     26  C   UNL A   1      34.178  21.592  25.294  1.00  0.00     0.011 A 
ATOM     27  C   UNL A   1      32.257  19.586  24.866  1.00  0.00     0.021 A 
ATOM     28  C   UNL A   1      34.583  20.267  25.104  1.00  0.00     0.021 A 
ATOM     29  C   UNL A   1      33.621  19.275  24.879  1.00  0.00     0.067 A 
BRANCH  29  30
ATOM     30  S   UNL A   1      34.126  17.609  24.519  1.00  0.00     0.175 S 
ATOM     31  C   UNL A   1      33.492  17.292  22.894  1.00  0.00     0.163 C 
ATOM     32  O   UNL A   1      35.576  17.624  24.455  1.00  0.00    -0.224 OA
ATOM     33  O   UNL A   1      33.438  16.731  25.448  1.00  0.00    -0.224 OA
ENDBRANCH  29  30
ENDBRANCH  14  24
ENDBRANCH   6  11
ENDBRANCH   3   5
ENDBRANCH   2   3
ENDBRANCH   1   2
BRANCH   1  34
ATOM     34  C   UNL A   1      32.493  33.597  27.638  1.00  0.00     0.275 C 
BRANCH  34  35
ATOM     35  O   UNL A   1      33.318  34.761  27.821  1.00  0.00    -0.458 OA
BRANCH  35  36
ATOM     36  C   UNL A   1      33.268  35.326  29.049  1.00  0.00     0.338 C 
ATOM     37  O   UNL A   1      32.441  36.121  29.462  1.00  0.00    -0.246 OA
BRANCH  36  38
ATOM     38  C   UNL A   1      34.380  34.833  29.881  1.00  0.00     0.060 A 
ATOM     39  C   UNL A   1      35.647  34.707  29.326  1.00  0.00     0.016 A 
ATOM     40  C   UNL A   1      34.132  34.339  31.160  1.00  0.00     0.016 A 
ATOM     41  C   UNL A   1      36.625  33.957  29.974  1.00  0.00     0.010 A 
ATOM     42  C   UNL A   1      35.164  33.713  31.872  1.00  0.00     0.010 A 
ATOM     43  C   UNL A   1      36.411  33.464  31.270  1.00  0.00    -0.014 A 
BRANCH  43  44
ATOM     44  C   UNL A   1      37.468  32.679  31.980  1.00  0.00     0.031 A 
ATOM     45  C   UNL A   1      37.933  33.092  33.359  1.00  0.00     0.074 A 
ATOM     46  C   UNL A   1      38.021  31.590  31.404  1.00  0.00     0.049 A 
ATOM     47  N   UNL A   1      38.968  32.671  34.044  1.00  0.00    -0.248 NA
ATOM     48  C   UNL A   1      37.145  34.126  34.049  1.00  0.00     0.031 C 
ATOM     49  C   UNL A   1      37.650  31.033  30.100  1.00  0.00     0.029 A 
ATOM     50  N   UNL A   1      39.014  30.747  31.846  1.00  0.00    -0.354 N 
ATOM     51  C   UNL A   1      38.993  33.435  35.207  1.00  0.00     0.074 A 
ATOM     52  C   UNL A   1      37.871  34.345  35.136  1.00  0.00     0.031 C 
ATOM     53  C   UNL A   1      38.362  29.920  29.874  1.00  0.00     0.029 A 
ATOM     54  C   UNL A   1      39.319  29.740  30.958  1.00  0.00     0.049 A 
ATOM     55  H   UNL A   1      39.464  30.853  32.715  1.00  0.00     0.167 HD
ATOM     56  C   UNL A   1      39.872  33.385  36.238  1.00  0.00     0.031 A 
ATOM     57  C   UNL A   1      40.289  28.806  30.975  1.00  0.00     0.031 A 
ATOM     58  C   UNL A   1      40.957  32.443  36.333  1.00  0.00     0.049 A 
ATOM     59  C   UNL A   1      41.273  28.792  32.108  1.00  0.00     0.074 A 
ATOM     60  C   UNL A   1      41.891  32.303  37.347  1.00  0.00     0.029 A 
ATOM     61  N   UNL A   1      41.245  31.467  35.391  1.00  0.00    -0.354 N 
ATOM     62  N   UNL A   1      41.318  29.563  33.167  1.00  0.00    -0.248 NA
ATOM     63  C   UNL A   1      42.349  27.795  32.037  1.00  0.00     0.031 C 
ATOM     64  C   UNL A   1      42.767  31.270  36.997  1.00  0.00     0.029 A 
ATOM     65  C   UNL A   1      42.350  30.733  35.791  1.00  0.00     0.049 A 
ATOM     66  H   UNL A   1      40.739  31.319  34.559  1.00  0.00     0.167 HD
ATOM     67  C   UNL A   1      42.426  29.141  33.893  1.00  0.00     0.074 A 
ATOM     68  C   UNL A   1      43.007  28.032  33.165  1.00  0.00     0.031 C 
ATOM     69  C   UNL A   1      42.920  29.635  35.054  1.00  0.00     0.031 A 
BRANCH  56  70
ATOM     70  C   UNL A   1      39.727  34.410  37.336  1.00  0.00    -0.014 A 
ATOM     71  C   UNL A   1      39.088  34.106  38.551  1.00  0.00     0.010 A 
ATOM     72  C   UNL A   1      40.282  35.692  37.158  1.00  0.00     0.010 A 
ATOM     73  C   UNL A   1      38.973  35.077  39.550  1.00  0.00     0.020 A 
ATOM     74  C   UNL A   1      40.192  36.657  38.166  1.00  0.00     0.020 A 
ATOM     75  C   UNL A   1      39.520  36.348  39.350  1.00  0.00     0.054 A 
BRANCH  75  76
ATOM     76  S   UNL A   1      39.370  37.583  40.671  1.00  0.00     0.124 S 
ATOM     77  O   UNL A   1      38.944  36.763  41.803  1.00  0.00    -0.237 OA
ATOM     78  O   UNL A   1      40.725  38.122  40.763  1.00  0.00    -0.237 OA
ATOM     79  O   UNL A   1      38.366  38.515  40.164  1.00  0.00    -0.744 OA
ENDBRANCH  75  76
ENDBRANCH  56  70
BRANCH  57  80
ATOM     80  C   UNL A   1      40.412  27.849  29.840  1.00  0.00    -0.014 A 
ATOM     81  C   UNL A   1      39.573  26.725  29.757  1.00  0.00     0.010 A 
ATOM     82  C   UNL A   1      41.355  28.076  28.820  1.00  0.00     0.010 A 
ATOM     83  C   UNL A   1      39.676  25.845  28.674  1.00  0.00     0.020 A 
ATOM     84  C   UNL A   1      41.440  27.217  27.722  1.00  0.00     0.020 A 
ATOM     85  C   UNL A   1      40.605  26.099  27.661  1.00  0.00     0.054 A 
BRANCH  85  86
ATOM     86  S   UNL A   1      40.677  24.984  26.232  1.00  0.00     0.124 S 
ATOM     87  O   UNL A   1      39.278  24.599  26.079  1.00  0.00    -0.237 OA
ATOM     88  O   UNL A   1      41.214  25.847  25.182  1.00  0.00    -0.237 OA
ATOM     89  O   UNL A   1      41.576  23.920  26.674  1.00  0.00    -0.744 OA
ENDBRANCH  85  86
ENDBRANCH  57  80
BRANCH  69  90
ATOM     90  C   UNL A   1      44.137  28.959  35.624  1.00  0.00    -0.014 A 
ATOM     91  C   UNL A   1      45.432  29.405  35.302  1.00  0.00     0.010 A 
ATOM     92  C   UNL A   1      43.980  27.888  36.522  1.00  0.00     0.010 A 
ATOM     93  C   UNL A   1      46.550  28.771  35.848  1.00  0.00     0.020 A 
ATOM     94  C   UNL A   1      45.097  27.267  37.088  1.00  0.00     0.020 A 
ATOM     95  C   UNL A   1      46.376  27.704  36.735  1.00  0.00     0.054 A 
BRANCH  95  96
ATOM     96  S   UNL A   1      47.843  26.921  37.461  1.00  0.00     0.124 S 
ATOM     97  O   UNL A   1      47.777  27.380  38.846  1.00  0.00    -0.237 OA
ATOM     98  O   UNL A   1      47.582  25.498  37.258  1.00  0.00    -0.237 OA
ATOM     99  O   UNL A   1      48.949  27.464  36.677  1.00  0.00    -0.744 OA
ENDBRANCH  95  96
ENDBRANCH  69  90
ENDBRANCH  43  44
ENDBRANCH  36  38
ENDBRANCH  35  36
ENDBRANCH  34  35
ENDBRANCH   1  34
TORSDOF 19
ENDMDL
MODEL 3
REMARK VINA RESULT:     -11.6      1.083      7.839
REMARK SMILES COc1cccc([C@H]2CC(c3ccc(S(C)(=O)=O)cc3)=NN2c2ccc(C(=O)OCCOC(=O)c3ccc(-c4c5nc(c(-c6ccc(S(=O)(=O)[O-])cc6)c6ccc([nH]6)c(-c6ccc(S(=O)(=O)[O-])cc6)c6nc(c(-c7ccc(S(=O)(=O)[O-])cc7)c7ccc4[nH]7)C=C6)C=C5)cc3)cc2)c1
REMARK SMILES IDX 30 1 29 2 27 3 28 4 26 5 23 6 24 7 96 8 25 9 95 10 22 11
REMARK SMILES IDX 8 12 9 13 10 14 21 15 7 16 3 17 4 18 97 19 5 20 6 21 2 22
REMARK SMILES IDX 1 23 11 24 12 25 20 26 13 27 19 28 14 29 15 30 16 31 17 32
REMARK SMILES IDX 18 33 31 34 32 35 33 36 34 37 35 38 36 39 94 40 37 41 93 42
REMARK SMILES IDX 38 43 39 44 40 45 87 46 41 47 92 48 86 49 88 50 42 51 91 52
REMARK SMILES IDX 85 53 84 54 43 56 73 57 54 58 72 59 55 60 58 61 71 62 89 63
REMARK SMILES IDX 56 64 57 65 70 67 90 68 59 69 44 70 45 71 53 72 46 73 52 74
REMARK SMILES IDX 47 75 48 76 49 77 50 78 51 79 74 80 75 81 83 82 76 83 82 84
REMARK SMILES IDX 77 85 78 86 79 87 80 88 81 89 60 90 61 91 69 92 62 93 68 94
REMARK SMILES IDX 63 95 64 96 65 97 66 98 67 99
REMARK H PARENT 88 55 58 66
REMARK Flexibility Score: inf
ROOT
ATOM      1  C   UNL A   1      42.151  22.222  25.925  1.00  0.00     0.275 C 
ENDROOT
BRANCH   1   2
ATOM      2  O   UNL A   1      40.812  22.757  25.983  1.00  0.00    -0.458 OA
BRANCH   2   3
ATOM      3  C   UNL A   1      39.870  21.894  26.435  1.00  0.00     0.338 C 
ATOM      4  O   UNL A   1      40.048  20.952  27.192  1.00  0.00    -0.246 OA
BRANCH   3   5
ATOM      5  C   UNL A   1      38.529  22.267  25.939  1.00  0.00     0.060 A 
ATOM      6  C   UNL A   1      36.089  23.014  24.746  1.00  0.00     0.060 A 
ATOM      7  C   UNL A   1      36.672  21.777  24.468  1.00  0.00     0.029 A 
ATOM      8  C   UNL A   1      36.730  23.857  25.668  1.00  0.00     0.029 A 
ATOM      9  C   UNL A   1      37.898  21.427  25.021  1.00  0.00     0.018 A 
ATOM     10  C   UNL A   1      37.934  23.480  26.285  1.00  0.00     0.018 A 
BRANCH   6  11
ATOM     11  N   UNL A   1      34.931  23.388  24.081  1.00  0.00    -0.257 N 
ATOM     12  C   UNL A   1      33.994  22.443  23.473  1.00  0.00     0.144 C 
ATOM     13  C   UNL A   1      32.798  23.337  23.116  1.00  0.00     0.091 C 
ATOM     14  C   UNL A   1      33.281  24.657  23.649  1.00  0.00     0.071 C 
ATOM     15  N   UNL A   1      34.454  24.655  24.194  1.00  0.00    -0.176 NA
BRANCH  12  16
ATOM     16  C   UNL A   1      33.627  21.285  24.392  1.00  0.00    -0.019 A 
ATOM     17  C   UNL A   1      33.186  18.919  24.805  1.00  0.00     0.119 A 
ATOM     18  C   UNL A   1      32.918  19.209  26.144  1.00  0.00     0.046 A 
ATOM     19  C   UNL A   1      33.517  19.957  23.929  1.00  0.00     0.052 A 
ATOM     20  C   UNL A   1      33.002  20.517  26.616  1.00  0.00     0.004 A 
ATOM     21  C   UNL A   1      33.358  21.546  25.747  1.00  0.00     0.006 A 
BRANCH  17  22
ATOM     22  O   UNL A   1      33.065  17.597  24.480  1.00  0.00    -0.497 OA
ATOM     23  C   UNL A   1      32.908  16.683  25.559  1.00  0.00     0.278 C 
ENDBRANCH  17  22
ENDBRANCH  12  16
BRANCH  14  24
ATOM     24  C   UNL A   1      32.490  25.880  23.462  1.00  0.00    -0.002 A 
ATOM     25  C   UNL A   1      31.965  26.134  22.191  1.00  0.00     0.011 A 
ATOM     26  C   UNL A   1      32.218  26.734  24.534  1.00  0.00     0.011 A 
ATOM     27  C   UNL A   1      31.122  27.226  21.994  1.00  0.00     0.021 A 
ATOM     28  C   UNL A   1      31.395  27.846  24.332  1.00  0.00     0.021 A 
ATOM     29  C   UNL A   1      30.842  28.078  23.067  1.00  0.00     0.067 A 
BRANCH  29  30
ATOM     30  S   UNL A   1      29.701  29.419  22.825  1.00  0.00     0.175 S 
ATOM     31  C   UNL A   1      28.099  28.670  22.949  1.00  0.00     0.163 C 
ATOM     32  O   UNL A   1      29.879  30.319  23.950  1.00  0.00    -0.224 OA
ATOM     33  O   UNL A   1      29.868  29.898  21.465  1.00  0.00    -0.224 OA
ENDBRANCH  29  30
ENDBRANCH  14  24
ENDBRANCH   6  11
ENDBRANCH   3   5
ENDBRANCH   2   3
ENDBRANCH   1   2
BRANCH   1  34
ATOM     34  C   UNL A   1      43.159  23.280  25.476  1.00  0.00     0.275 C 
BRANCH  34  35
ATOM     35  O   UNL A   1      43.151  24.395  26.386  1.00  0.00    -0.458 OA
BRANCH  35  36
ATOM     36  C   UNL A   1      42.632  25.545  25.896  1.00  0.00     0.338 C 
ATOM     37  O   UNL A   1      42.560  25.884  24.728  1.00  0.00    -0.246 OA
BRANCH  36  38
ATOM     38  C   UNL A   1      42.124  26.382  26.998  1.00  0.00     0.060 A 
ATOM     39  C   UNL A   1      42.624  27.667  27.169  1.00  0.00     0.016 A 
ATOM     40  C   UNL A   1      41.275  25.836  27.957  1.00  0.00     0.016 A 
ATOM     41  C   UNL A   1      42.408  28.350  28.364  1.00  0.00     0.010 A 
ATOM     42  C   UNL A   1      40.939  26.587  29.092  1.00  0.00     0.010 A 
ATOM     43  C   UNL A   1      41.542  27.834  29.339  1.00  0.00    -0.014 A 
BRANCH  43  44
ATOM     44  C   UNL A   1      41.287  28.575  30.613  1.00  0.00     0.031 A 
ATOM     45  C   UNL A   1      40.141  29.557  30.713  1.00  0.00     0.074 A 
ATOM     46  C   UNL A   1      42.074  28.379  31.694  1.00  0.00     0.049 A 
ATOM     47  N   UNL A   1      39.883  30.437  31.648  1.00  0.00    -0.248 NA
ATOM     48  C   UNL A   1      39.168  29.563  29.607  1.00  0.00     0.031 C 
ATOM     49  C   UNL A   1      43.191  27.434  31.777  1.00  0.00     0.029 A 
ATOM     50  N   UNL A   1      42.050  28.963  32.939  1.00  0.00    -0.354 N 
ATOM     51  C   UNL A   1      38.766  31.144  31.212  1.00  0.00     0.074 A 
ATOM     52  C   UNL A   1      38.395  30.591  29.927  1.00  0.00     0.031 C 
ATOM     53  C   UNL A   1      43.707  27.463  33.013  1.00  0.00     0.029 A 
ATOM     54  C   UNL A   1      43.037  28.504  33.782  1.00  0.00     0.049 A 
ATOM     55  H   UNL A   1      41.390  29.643  33.203  1.00  0.00     0.167 HD
ATOM     56  C   UNL A   1      38.113  32.164  31.822  1.00  0.00     0.031 A 
ATOM     57  C   UNL A   1      43.407  28.903  35.014  1.00  0.00     0.031 A 
ATOM     58  C   UNL A   1      38.452  32.678  33.124  1.00  0.00     0.049 A 
ATOM     59  C   UNL A   1      42.693  30.056  35.657  1.00  0.00     0.074 A 
ATOM     60  C   UNL A   1      37.838  33.697  33.834  1.00  0.00     0.029 A 
ATOM     61  N   UNL A   1      39.482  32.203  33.921  1.00  0.00    -0.354 N 
ATOM     62  N   UNL A   1      41.680  30.753  35.201  1.00  0.00    -0.248 NA
ATOM     63  C   UNL A   1      43.186  30.490  36.971  1.00  0.00     0.031 C 
ATOM     64  C   UNL A   1      38.523  33.865  35.042  1.00  0.00     0.029 A 
ATOM     65  C   UNL A   1      39.531  32.918  35.108  1.00  0.00     0.049 A 
ATOM     66  H   UNL A   1      40.089  31.468  33.680  1.00  0.00     0.167 HD
ATOM     67  C   UNL A   1      41.410  31.706  36.176  1.00  0.00     0.074 A 
ATOM     68  C   UNL A   1      42.350  31.480  37.255  1.00  0.00     0.031 C 
ATOM     69  C   UNL A   1      40.474  32.686  36.171  1.00  0.00     0.031 A 
BRANCH  56  70
ATOM     70  C   UNL A   1      36.986  32.826  31.070  1.00  0.00    -0.014 A 
ATOM     71  C   UNL A   1      37.223  33.656  29.961  1.00  0.00     0.010 A 
ATOM     72  C   UNL A   1      35.656  32.573  31.461  1.00  0.00     0.010 A 
ATOM     73  C   UNL A   1      36.156  34.252  29.283  1.00  0.00     0.020 A 
ATOM     74  C   UNL A   1      34.585  33.146  30.769  1.00  0.00     0.020 A 
ATOM     75  C   UNL A   1      34.844  33.998  29.694  1.00  0.00     0.054 A 
BRANCH  75  76
ATOM     76  S   UNL A   1      33.477  34.771  28.785  1.00  0.00     0.124 S 
ATOM     77  O   UNL A   1      34.106  35.985  28.270  1.00  0.00    -0.237 OA
ATOM     78  O   UNL A   1      33.147  33.763  27.781  1.00  0.00    -0.237 OA
ATOM     79  O   UNL A   1      32.455  34.985  29.807  1.00  0.00    -0.744 OA
ENDBRANCH  75  76
ENDBRANCH  56  70
BRANCH  57  80
ATOM     80  C   UNL A   1      44.559  28.242  35.689  1.00  0.00    -0.014 A 
ATOM     81  C   UNL A   1      44.358  27.123  36.516  1.00  0.00     0.010 A 
ATOM     82  C   UNL A   1      45.868  28.713  35.482  1.00  0.00     0.010 A 
ATOM     83  C   UNL A   1      45.447  26.491  37.126  1.00  0.00     0.020 A 
ATOM     84  C   UNL A   1      46.961  28.066  36.064  1.00  0.00     0.020 A 
ATOM     85  C   UNL A   1      46.742  26.963  36.891  1.00  0.00     0.054 A 
BRANCH  85  86
ATOM     86  S   UNL A   1      48.147  26.088  37.635  1.00  0.00     0.124 S 
ATOM     87  O   UNL A   1      48.317  24.960  36.725  1.00  0.00    -0.237 OA
ATOM     88  O   UNL A   1      49.204  27.095  37.599  1.00  0.00    -0.237 OA
ATOM     89  O   UNL A   1      47.666  25.747  38.973  1.00  0.00    -0.744 OA
ENDBRANCH  85  86
ENDBRANCH  57  80
BRANCH  69  90
ATOM     90  C   UNL A   1      40.401  33.570  37.385  1.00  0.00    -0.014 A 
ATOM     91  C   UNL A   1      41.086  34.798  37.430  1.00  0.00     0.010 A 
ATOM     92  C   UNL A   1      39.606  33.185  38.479  1.00  0.00     0.010 A 
ATOM     93  C   UNL A   1      40.999  35.612  38.562  1.00  0.00     0.020 A 
ATOM     94  C   UNL A   1      39.499  34.008  39.604  1.00  0.00     0.020 A 
ATOM     95  C   UNL A   1      40.209  35.210  39.643  1.00  0.00     0.054 A 
BRANCH  95  96
ATOM     96  S   UNL A   1      40.081  36.301  41.087  1.00  0.00     0.124 S 
ATOM     97  O   UNL A   1      38.635  36.457  41.222  1.00  0.00    -0.237 OA
ATOM     98  O   UNL A   1      40.729  35.520  42.138  1.00  0.00    -0.237 OA
ATOM     99  O   UNL A   1      40.802  37.503  40.677  1.00  0.00    -0.744 OA
ENDBRANCH  95  96
ENDBRANCH  69  90
ENDBRANCH  43  44
ENDBRANCH  36  38
ENDBRANCH  35  36
ENDBRANCH  34  35
ENDBRANCH   1  34
TORSDOF 19
ENDMDL
