MODEL 1
REMARK VINA RESULT:     -11.3      0.000      0.000
REMARK SMILES O=C(CC[N@@H+]1C[C@@H](c2ccccc2)[C@@H]2[C@H]1[C@H]1CC[N@H+]2CC1)OCCOC(=O)c1ccc(-c2c3nc(c(-c4ccc(S(=O)(=O)[O-])cc4)c4ccc([nH]4)c(-c4ccc(S(=O)(=O)[O-])cc4)c4nc(c(-c5ccc(S(=O)(=O)[O-])cc5)c5ccc2[nH]5)C=C4)C=C3)cc1
REMARK SMILES IDX 23 1 22 2 2 3 1 4 3 5 4 6 5 7 6 8 15 9 7 11 14 12 16 13
REMARK SMILES IDX 19 14 17 15 21 16 18 17 20 18 8 20 9 21 13 22 10 23 12 24
REMARK SMILES IDX 11 25 24 26 25 27 26 28 27 29 28 30 29 31 87 32 30 33 86 34
REMARK SMILES IDX 31 35 32 36 33 37 80 38 34 39 85 40 79 41 81 42 35 43 84 44
REMARK SMILES IDX 78 45 77 46 36 48 66 49 47 50 65 51 48 52 51 53 64 54 82 55
REMARK SMILES IDX 49 56 50 57 63 59 83 60 52 61 37 62 38 63 46 64 39 65 45 66
REMARK SMILES IDX 40 67 41 68 42 69 43 70 44 71 67 72 68 73 76 74 69 75 75 76
REMARK SMILES IDX 70 77 71 78 72 79 73 80 74 81 53 82 54 83 62 84 55 85 61 86
REMARK SMILES IDX 56 87 57 88 58 89 59 90 60 91
REMARK H PARENT 5 10 19 19 81 47 51 58
REMARK Flexibility Score: inf
ROOT
ATOM      1  C   UNL A   1      31.899  29.681  26.575  1.00  0.00     0.274 C 
ENDROOT
BRANCH   1   2
ATOM      2  O   UNL A   1      32.459  28.365  26.755  1.00  0.00    -0.462 OA
BRANCH   2   3
ATOM      3  C   UNL A   1      32.007  27.257  26.119  1.00  0.00     0.311 C 
ATOM      4  O   UNL A   1      30.809  27.132  25.878  1.00  0.00    -0.252 OA
BRANCH   3   5
ATOM      5  C   UNL A   1      33.010  26.239  25.647  1.00  0.00     0.184 C 
BRANCH   5   6
ATOM      6  C   UNL A   1      32.426  25.195  24.687  1.00  0.00     0.274 C 
BRANCH   6   7
ATOM      7  N   UNL A   1      32.954  23.838  24.711  1.00  0.00    -0.326 N 
ATOM      8  C   UNL A   1      32.020  22.736  25.009  1.00  0.00     0.277 C 
ATOM      9  C   UNL A   1      34.299  23.664  25.297  1.00  0.00     0.247 C 
ATOM     10  H   UNL A   1      33.101  23.724  23.709  1.00  0.00     0.348 HD
ATOM     11  C   UNL A   1      32.712  21.520  25.713  1.00  0.00     0.139 C 
ATOM     12  C   UNL A   1      34.098  22.033  26.155  1.00  0.00     0.256 C 
ATOM     13  C   UNL A   1      35.797  23.525  24.162  1.00  0.00     0.065 C 
ATOM     14  N   UNL A   1      35.461  21.170  26.231  1.00  0.00    -0.327 N 
ATOM     15  C   UNL A   1      35.158  22.300  24.257  1.00  0.00     0.071 C 
ATOM     16  C   UNL A   1      36.995  22.219  23.989  1.00  0.00     0.071 C 
ATOM     17  C   UNL A   1      36.017  22.420  25.982  1.00  0.00     0.263 C 
ATOM     18  C   UNL A   1      36.496  20.734  25.033  1.00  0.00     0.263 C 
ATOM     19  H   UNL A   1      35.338  20.387  26.871  1.00  0.00     0.348 HD
BRANCH  11  20
ATOM     20  C   UNL A   1      32.697  20.161  25.044  1.00  0.00    -0.033 A 
ATOM     21  C   UNL A   1      32.824  18.958  25.745  1.00  0.00     0.004 A 
ATOM     22  C   UNL A   1      32.487  20.102  23.653  1.00  0.00     0.004 A 
ATOM     23  C   UNL A   1      32.694  17.732  25.088  1.00  0.00     0.000 A 
ATOM     24  C   UNL A   1      32.377  18.878  22.993  1.00  0.00     0.000 A 
ATOM     25  C   UNL A   1      32.467  17.692  23.714  1.00  0.00     0.000 A 
ENDBRANCH  11  20
ENDBRANCH   6   7
ENDBRANCH   5   6
ENDBRANCH   3   5
ENDBRANCH   2   3
ENDBRANCH   1   2
BRANCH   1  26
ATOM     26  C   UNL A   1      32.859  30.734  27.144  1.00  0.00     0.275 C 
BRANCH  26  27
ATOM     27  O   UNL A   1      33.899  30.121  27.914  1.00  0.00    -0.458 OA
BRANCH  27  28
ATOM     28  C   UNL A   1      34.764  31.037  28.450  1.00  0.00     0.338 C 
ATOM     29  O   UNL A   1      34.467  32.111  28.868  1.00  0.00    -0.246 OA
BRANCH  28  30
ATOM     30  C   UNL A   1      36.086  30.357  28.610  1.00  0.00     0.060 A 
ATOM     31  C   UNL A   1      36.424  29.864  29.877  1.00  0.00     0.016 A 
ATOM     32  C   UNL A   1      36.911  30.099  27.507  1.00  0.00     0.016 A 
ATOM     33  C   UNL A   1      37.618  29.165  30.054  1.00  0.00     0.010 A 
ATOM     34  C   UNL A   1      38.086  29.380  27.676  1.00  0.00     0.010 A 
ATOM     35  C   UNL A   1      38.470  28.965  28.961  1.00  0.00    -0.014 A 
BRANCH  35  36
ATOM     36  C   UNL A   1      39.892  28.619  29.162  1.00  0.00     0.031 A 
ATOM     37  C   UNL A   1      40.798  29.744  29.587  1.00  0.00     0.074 A 
ATOM     38  C   UNL A   1      40.371  27.394  28.887  1.00  0.00     0.049 A 
ATOM     39  N   UNL A   1      42.099  29.774  29.669  1.00  0.00    -0.248 NA
ATOM     40  C   UNL A   1      40.143  31.022  29.934  1.00  0.00     0.031 C 
ATOM     41  C   UNL A   1      39.576  26.240  28.471  1.00  0.00     0.029 A 
ATOM     42  N   UNL A   1      41.662  26.933  28.887  1.00  0.00    -0.354 N 
ATOM     43  C   UNL A   1      42.416  31.074  30.049  1.00  0.00     0.074 A 
ATOM     44  C   UNL A   1      41.181  31.811  30.157  1.00  0.00     0.031 C 
ATOM     45  C   UNL A   1      40.404  25.207  28.225  1.00  0.00     0.029 A 
ATOM     46  C   UNL A   1      41.784  25.639  28.437  1.00  0.00     0.049 A 
ATOM     47  H   UNL A   1      42.429  27.475  29.181  1.00  0.00     0.167 HD
ATOM     48  C   UNL A   1      43.635  31.603  30.288  1.00  0.00     0.031 A 
ATOM     49  C   UNL A   1      42.892  24.910  28.193  1.00  0.00     0.031 A 
ATOM     50  C   UNL A   1      44.854  30.856  30.188  1.00  0.00     0.049 A 
ATOM     51  C   UNL A   1      44.243  25.536  28.443  1.00  0.00     0.074 A 
ATOM     52  C   UNL A   1      46.141  31.270  30.472  1.00  0.00     0.029 A 
ATOM     53  N   UNL A   1      44.934  29.541  29.759  1.00  0.00    -0.354 N 
ATOM     54  N   UNL A   1      44.526  26.741  28.879  1.00  0.00    -0.248 NA
ATOM     55  C   UNL A   1      45.423  24.704  28.166  1.00  0.00     0.031 C 
ATOM     56  C   UNL A   1      47.008  30.220  30.162  1.00  0.00     0.029 A 
ATOM     57  C   UNL A   1      46.254  29.137  29.734  1.00  0.00     0.049 A 
ATOM     58  H   UNL A   1      44.164  28.979  29.510  1.00  0.00     0.167 HD
ATOM     59  C   UNL A   1      45.914  26.804  28.947  1.00  0.00     0.074 A 
ATOM     60  C   UNL A   1      46.412  25.511  28.526  1.00  0.00     0.031 C 
ATOM     61  C   UNL A   1      46.711  27.837  29.315  1.00  0.00     0.031 A 
BRANCH  48  62
ATOM     62  C   UNL A   1      43.709  33.057  30.661  1.00  0.00    -0.014 A 
ATOM     63  C   UNL A   1      43.715  33.464  32.008  1.00  0.00     0.010 A 
ATOM     64  C   UNL A   1      43.834  34.026  29.650  1.00  0.00     0.010 A 
ATOM     65  C   UNL A   1      43.833  34.816  32.336  1.00  0.00     0.020 A 
ATOM     66  C   UNL A   1      43.977  35.377  29.975  1.00  0.00     0.020 A 
ATOM     67  C   UNL A   1      43.970  35.764  31.316  1.00  0.00     0.054 A 
BRANCH  67  68
ATOM     68  S   UNL A   1      44.195  37.504  31.774  1.00  0.00     0.124 S 
ATOM     69  O   UNL A   1      43.355  37.615  32.963  1.00  0.00    -0.237 OA
ATOM     70  O   UNL A   1      45.634  37.587  32.010  1.00  0.00    -0.237 OA
ATOM     71  O   UNL A   1      43.716  38.235  30.603  1.00  0.00    -0.744 OA
ENDBRANCH  67  68
ENDBRANCH  48  62
BRANCH  49  72
ATOM     72  C   UNL A   1      42.784  23.530  27.642  1.00  0.00    -0.014 A 
ATOM     73  C   UNL A   1      42.876  23.299  26.257  1.00  0.00     0.010 A 
ATOM     74  C   UNL A   1      42.548  22.440  28.500  1.00  0.00     0.010 A 
ATOM     75  C   UNL A   1      42.704  22.010  25.740  1.00  0.00     0.020 A 
ATOM     76  C   UNL A   1      42.403  21.147  27.988  1.00  0.00     0.020 A 
ATOM     77  C   UNL A   1      42.464  20.943  26.610  1.00  0.00     0.054 A 
BRANCH  77  78
ATOM     78  S   UNL A   1      42.263  19.275  25.922  1.00  0.00     0.124 S 
ATOM     79  O   UNL A   1      42.714  18.435  27.026  1.00  0.00    -0.237 OA
ATOM     80  O   UNL A   1      40.833  19.224  25.628  1.00  0.00    -0.237 OA
ATOM     81  O   UNL A   1      43.131  19.286  24.746  1.00  0.00    -0.744 OA
ENDBRANCH  77  78
ENDBRANCH  49  72
BRANCH  61  82
ATOM     82  C   UNL A   1      48.197  27.610  29.300  1.00  0.00    -0.014 A 
ATOM     83  C   UNL A   1      48.967  27.967  28.181  1.00  0.00     0.010 A 
ATOM     84  C   UNL A   1      48.837  27.124  30.455  1.00  0.00     0.010 A 
ATOM     85  C   UNL A   1      50.356  27.823  28.210  1.00  0.00     0.020 A 
ATOM     86  C   UNL A   1      50.227  27.005  30.496  1.00  0.00     0.020 A 
ATOM     87  C   UNL A   1      50.978  27.347  29.369  1.00  0.00     0.054 A 
BRANCH  87  88
ATOM     88  S   UNL A   1      52.787  27.234  29.404  1.00  0.00     0.124 S 
ATOM     89  O   UNL A   1      53.040  26.145  28.467  1.00  0.00    -0.237 OA
ATOM     90  O   UNL A   1      53.199  28.561  28.954  1.00  0.00    -0.237 OA
ATOM     91  O   UNL A   1      53.088  26.937  30.802  1.00  0.00    -0.744 OA
ENDBRANCH  87  88
ENDBRANCH  61  82
ENDBRANCH  35  36
ENDBRANCH  28  30
ENDBRANCH  27  28
ENDBRANCH  26  27
ENDBRANCH   1  26
TORSDOF 17
ENDMDL
MODEL 2
REMARK VINA RESULT:     -11.3      5.367     10.997
REMARK SMILES O=C(CC[N@@H+]1C[C@@H](c2ccccc2)[C@@H]2[C@H]1[C@H]1CC[N@H+]2CC1)OCCOC(=O)c1ccc(-c2c3nc(c(-c4ccc(S(=O)(=O)[O-])cc4)c4ccc([nH]4)c(-c4ccc(S(=O)(=O)[O-])cc4)c4nc(c(-c5ccc(S(=O)(=O)[O-])cc5)c5ccc2[nH]5)C=C4)C=C3)cc1
REMARK SMILES IDX 23 1 22 2 2 3 1 4 3 5 4 6 5 7 6 8 15 9 7 11 14 12 16 13
REMARK SMILES IDX 19 14 17 15 21 16 18 17 20 18 8 20 9 21 13 22 10 23 12 24
REMARK SMILES IDX 11 25 24 26 25 27 26 28 27 29 28 30 29 31 87 32 30 33 86 34
REMARK SMILES IDX 31 35 32 36 33 37 80 38 34 39 85 40 79 41 81 42 35 43 84 44
REMARK SMILES IDX 78 45 77 46 36 48 66 49 47 50 65 51 48 52 51 53 64 54 82 55
REMARK SMILES IDX 49 56 50 57 63 59 83 60 52 61 37 62 38 63 46 64 39 65 45 66
REMARK SMILES IDX 40 67 41 68 42 69 43 70 44 71 67 72 68 73 76 74 69 75 75 76
REMARK SMILES IDX 70 77 71 78 72 79 73 80 74 81 53 82 54 83 62 84 55 85 61 86
REMARK SMILES IDX 56 87 57 88 58 89 59 90 60 91
REMARK H PARENT 5 10 19 19 81 47 51 58
REMARK Flexibility Score: inf
ROOT
ATOM      1  C   UNL A   1      37.420  23.078  24.990  1.00  0.00     0.274 C 
ENDROOT
BRANCH   1   2
ATOM      2  O   UNL A   1      36.311  23.994  25.084  1.00  0.00    -0.462 OA
BRANCH   2   3
ATOM      3  C   UNL A   1      35.208  23.928  24.300  1.00  0.00     0.311 C 
ATOM      4  O   UNL A   1      35.312  23.617  23.116  1.00  0.00    -0.252 OA
BRANCH   3   5
ATOM      5  C   UNL A   1      33.861  24.161  24.932  1.00  0.00     0.184 C 
BRANCH   5   6
ATOM      6  C   UNL A   1      32.757  24.504  23.924  1.00  0.00     0.274 C 
BRANCH   6   7
ATOM      7  N   UNL A   1      32.161  25.833  23.954  1.00  0.00    -0.326 N 
ATOM      8  C   UNL A   1      31.536  26.341  22.718  1.00  0.00     0.277 C 
ATOM      9  C   UNL A   1      32.881  26.862  24.733  1.00  0.00     0.247 C 
ATOM     10  H   UNL A   1      31.347  25.611  24.527  1.00  0.00     0.348 HD
ATOM     11  C   UNL A   1      31.597  27.901  22.598  1.00  0.00     0.139 C 
ATOM     12  C   UNL A   1      32.597  28.360  23.679  1.00  0.00     0.256 C 
ATOM     13  C   UNL A   1      32.306  27.281  26.478  1.00  0.00     0.065 C 
ATOM     14  N   UNL A   1      32.537  29.739  24.518  1.00  0.00    -0.327 N 
ATOM     15  C   UNL A   1      31.530  27.953  25.547  1.00  0.00     0.071 C 
ATOM     16  C   UNL A   1      31.760  28.827  27.172  1.00  0.00     0.071 C 
ATOM     17  C   UNL A   1      33.183  28.947  25.460  1.00  0.00     0.263 C 
ATOM     18  C   UNL A   1      31.625  30.134  25.824  1.00  0.00     0.263 C 
ATOM     19  H   UNL A   1      32.573  30.533  23.879  1.00  0.00     0.348 HD
BRANCH  11  20
ATOM     20  C   UNL A   1      30.310  28.695  22.513  1.00  0.00    -0.033 A 
ATOM     21  C   UNL A   1      30.200  29.910  21.829  1.00  0.00     0.004 A 
ATOM     22  C   UNL A   1      29.151  28.158  23.104  1.00  0.00     0.004 A 
ATOM     23  C   UNL A   1      28.963  30.543  21.693  1.00  0.00     0.000 A 
ATOM     24  C   UNL A   1      27.918  28.799  22.986  1.00  0.00     0.000 A 
ATOM     25  C   UNL A   1      27.822  29.986  22.268  1.00  0.00     0.000 A 
ENDBRANCH  11  20
ENDBRANCH   6   7
ENDBRANCH   5   6
ENDBRANCH   3   5
ENDBRANCH   2   3
ENDBRANCH   1   2
BRANCH   1  26
ATOM     26  C   UNL A   1      38.356  23.274  26.190  1.00  0.00     0.275 C 
BRANCH  26  27
ATOM     27  O   UNL A   1      38.559  24.665  26.463  1.00  0.00    -0.458 OA
BRANCH  27  28
ATOM     28  C   UNL A   1      39.885  25.007  26.479  1.00  0.00     0.338 C 
ATOM     29  O   UNL A   1      40.683  24.734  25.640  1.00  0.00    -0.246 OA
BRANCH  28  30
ATOM     30  C   UNL A   1      40.082  25.960  27.615  1.00  0.00     0.060 A 
ATOM     31  C   UNL A   1      39.253  25.830  28.736  1.00  0.00     0.016 A 
ATOM     32  C   UNL A   1      41.145  26.873  27.624  1.00  0.00     0.016 A 
ATOM     33  C   UNL A   1      39.447  26.655  29.844  1.00  0.00     0.010 A 
ATOM     34  C   UNL A   1      41.358  27.676  28.736  1.00  0.00     0.010 A 
ATOM     35  C   UNL A   1      40.472  27.610  29.823  1.00  0.00    -0.014 A 
BRANCH  35  36
ATOM     36  C   UNL A   1      40.459  28.756  30.754  1.00  0.00     0.031 A 
ATOM     37  C   UNL A   1      41.377  28.658  31.944  1.00  0.00     0.074 A 
ATOM     38  C   UNL A   1      39.609  29.785  30.604  1.00  0.00     0.049 A 
ATOM     39  N   UNL A   1      41.449  29.421  32.999  1.00  0.00    -0.248 NA
ATOM     40  C   UNL A   1      42.319  27.520  31.958  1.00  0.00     0.031 C 
ATOM     41  C   UNL A   1      38.683  29.970  29.487  1.00  0.00     0.029 A 
ATOM     42  N   UNL A   1      39.366  30.855  31.425  1.00  0.00    -0.354 N 
ATOM     43  C   UNL A   1      42.420  28.842  33.809  1.00  0.00     0.074 A 
ATOM     44  C   UNL A   1      42.893  27.653  33.142  1.00  0.00     0.031 C 
ATOM     45  C   UNL A   1      37.948  31.076  29.710  1.00  0.00     0.029 A 
ATOM     46  C   UNL A   1      38.332  31.654  30.997  1.00  0.00     0.049 A 
ATOM     47  H   UNL A   1      39.882  31.035  32.244  1.00  0.00     0.167 HD
ATOM     48  C   UNL A   1      42.878  29.269  35.005  1.00  0.00     0.031 A 
ATOM     49  C   UNL A   1      37.747  32.708  31.601  1.00  0.00     0.031 A 
ATOM     50  C   UNL A   1      42.407  30.459  35.652  1.00  0.00     0.049 A 
ATOM     51  C   UNL A   1      38.260  33.147  32.951  1.00  0.00     0.074 A 
ATOM     52  C   UNL A   1      42.846  31.025  36.833  1.00  0.00     0.029 A 
ATOM     53  N   UNL A   1      41.381  31.257  35.172  1.00  0.00    -0.354 N 
ATOM     54  N   UNL A   1      39.233  32.638  33.670  1.00  0.00    -0.248 NA
ATOM     55  C   UNL A   1      37.594  34.302  33.572  1.00  0.00     0.031 C 
ATOM     56  C   UNL A   1      42.046  32.139  37.097  1.00  0.00     0.029 A 
ATOM     57  C   UNL A   1      41.145  32.293  36.053  1.00  0.00     0.049 A 
ATOM     58  H   UNL A   1      40.895  31.108  34.329  1.00  0.00     0.167 HD
ATOM     59  C   UNL A   1      39.309  33.422  34.817  1.00  0.00     0.074 A 
ATOM     60  C   UNL A   1      38.297  34.450  34.688  1.00  0.00     0.031 C 
ATOM     61  C   UNL A   1      40.133  33.303  35.887  1.00  0.00     0.031 A 
BRANCH  48  62
ATOM     62  C   UNL A   1      43.922  28.438  35.696  1.00  0.00    -0.014 A 
ATOM     63  C   UNL A   1      45.294  28.683  35.501  1.00  0.00     0.010 A 
ATOM     64  C   UNL A   1      43.524  27.436  36.598  1.00  0.00     0.010 A 
ATOM     65  C   UNL A   1      46.249  27.932  36.189  1.00  0.00     0.020 A 
ATOM     66  C   UNL A   1      44.476  26.698  37.306  1.00  0.00     0.020 A 
ATOM     67  C   UNL A   1      45.833  26.948  37.093  1.00  0.00     0.054 A 
BRANCH  67  68
ATOM     68  S   UNL A   1      47.095  26.039  38.027  1.00  0.00     0.124 S 
ATOM     69  O   UNL A   1      48.314  26.755  37.663  1.00  0.00    -0.237 OA
ATOM     70  O   UNL A   1      46.653  26.209  39.408  1.00  0.00    -0.237 OA
ATOM     71  O   UNL A   1      46.995  24.677  37.508  1.00  0.00    -0.744 OA
ENDBRANCH  67  68
ENDBRANCH  48  62
BRANCH  49  72
ATOM     72  C   UNL A   1      36.585  33.394  30.970  1.00  0.00    -0.014 A 
ATOM     73  C   UNL A   1      36.710  34.016  29.715  1.00  0.00     0.010 A 
ATOM     74  C   UNL A   1      35.351  33.464  31.645  1.00  0.00     0.010 A 
ATOM     75  C   UNL A   1      35.634  34.719  29.161  1.00  0.00     0.020 A 
ATOM     76  C   UNL A   1      34.266  34.142  31.081  1.00  0.00     0.020 A 
ATOM     77  C   UNL A   1      34.420  34.781  29.851  1.00  0.00     0.054 A 
BRANCH  77  78
ATOM     78  S   UNL A   1      33.031  35.681  29.107  1.00  0.00     0.124 S 
ATOM     79  O   UNL A   1      32.278  36.104  30.284  1.00  0.00    -0.237 OA
ATOM     80  O   UNL A   1      33.703  36.747  28.367  1.00  0.00    -0.237 OA
ATOM     81  O   UNL A   1      32.380  34.673  28.274  1.00  0.00    -0.744 OA
ENDBRANCH  77  78
ENDBRANCH  49  72
BRANCH  61  82
ATOM     82  C   UNL A   1      39.991  34.314  36.991  1.00  0.00    -0.014 A 
ATOM     83  C   UNL A   1      40.527  35.605  36.857  1.00  0.00     0.010 A 
ATOM     84  C   UNL A   1      39.230  33.995  38.131  1.00  0.00     0.010 A 
ATOM     85  C   UNL A   1      40.320  36.558  37.856  1.00  0.00     0.020 A 
ATOM     86  C   UNL A   1      38.999  34.953  39.119  1.00  0.00     0.020 A 
ATOM     87  C   UNL A   1      39.554  36.228  38.979  1.00  0.00     0.054 A 
BRANCH  87  88
ATOM     88  S   UNL A   1      39.244  37.503  40.229  1.00  0.00     0.124 S 
ATOM     89  O   UNL A   1      40.592  37.990  40.506  1.00  0.00    -0.237 OA
ATOM     90  O   UNL A   1      38.371  38.438  39.523  1.00  0.00    -0.237 OA
ATOM     91  O   UNL A   1      38.608  36.771  41.321  1.00  0.00    -0.744 OA
ENDBRANCH  87  88
ENDBRANCH  61  82
ENDBRANCH  35  36
ENDBRANCH  28  30
ENDBRANCH  27  28
ENDBRANCH  26  27
ENDBRANCH   1  26
TORSDOF 17
ENDMDL
MODEL 3
REMARK VINA RESULT:     -11.3      3.254      9.835
REMARK SMILES O=C(CC[N@@H+]1C[C@@H](c2ccccc2)[C@@H]2[C@H]1[C@H]1CC[N@H+]2CC1)OCCOC(=O)c1ccc(-c2c3nc(c(-c4ccc(S(=O)(=O)[O-])cc4)c4ccc([nH]4)c(-c4ccc(S(=O)(=O)[O-])cc4)c4nc(c(-c5ccc(S(=O)(=O)[O-])cc5)c5ccc2[nH]5)C=C4)C=C3)cc1
REMARK SMILES IDX 23 1 22 2 2 3 1 4 3 5 4 6 5 7 6 8 15 9 7 11 14 12 16 13
REMARK SMILES IDX 19 14 17 15 21 16 18 17 20 18 8 20 9 21 13 22 10 23 12 24
REMARK SMILES IDX 11 25 24 26 25 27 26 28 27 29 28 30 29 31 87 32 30 33 86 34
REMARK SMILES IDX 31 35 32 36 33 37 80 38 34 39 85 40 79 41 81 42 35 43 84 44
REMARK SMILES IDX 78 45 77 46 36 48 66 49 47 50 65 51 48 52 51 53 64 54 82 55
REMARK SMILES IDX 49 56 50 57 63 59 83 60 52 61 37 62 38 63 46 64 39 65 45 66
REMARK SMILES IDX 40 67 41 68 42 69 43 70 44 71 67 72 68 73 76 74 69 75 75 76
REMARK SMILES IDX 70 77 71 78 72 79 73 80 74 81 53 82 54 83 62 84 55 85 61 86
REMARK SMILES IDX 56 87 57 88 58 89 59 90 60 91
REMARK H PARENT 5 10 19 19 81 47 51 58
REMARK Flexibility Score: inf
ROOT
ATOM      1  C   UNL A   1      36.541  21.732  24.829  1.00  0.00     0.274 C 
ENDROOT
BRANCH   1   2
ATOM      2  O   UNL A   1      35.873  22.691  25.673  1.00  0.00    -0.462 OA
BRANCH   2   3
ATOM      3  C   UNL A   1      34.599  23.111  25.479  1.00  0.00     0.311 C 
ATOM      4  O   UNL A   1      33.667  22.521  26.022  1.00  0.00    -0.252 OA
BRANCH   3   5
ATOM      5  C   UNL A   1      34.367  24.354  24.662  1.00  0.00     0.184 C 
BRANCH   5   6
ATOM      6  C   UNL A   1      32.955  24.450  24.070  1.00  0.00     0.274 C 
BRANCH   6   7
ATOM      7  N   UNL A   1      32.278  25.739  24.062  1.00  0.00    -0.326 N 
ATOM      8  C   UNL A   1      31.556  26.136  22.838  1.00  0.00     0.277 C 
ATOM      9  C   UNL A   1      32.972  26.854  24.741  1.00  0.00     0.247 C 
ATOM     10  H   UNL A   1      31.512  25.502  24.691  1.00  0.00     0.348 HD
ATOM     11  C   UNL A   1      31.511  27.687  22.629  1.00  0.00     0.139 C 
ATOM     12  C   UNL A   1      32.537  28.268  23.625  1.00  0.00     0.256 C 
ATOM     13  C   UNL A   1      32.465  27.337  26.491  1.00  0.00     0.065 C 
ATOM     14  N   UNL A   1      32.434  29.686  24.390  1.00  0.00    -0.327 N 
ATOM     15  C   UNL A   1      31.600  27.905  25.571  1.00  0.00     0.071 C 
ATOM     16  C   UNL A   1      31.860  28.885  27.129  1.00  0.00     0.071 C 
ATOM     17  C   UNL A   1      33.179  28.991  25.335  1.00  0.00     0.263 C 
ATOM     18  C   UNL A   1      31.570  30.101  25.723  1.00  0.00     0.263 C 
ATOM     19  H   UNL A   1      32.385  30.443  23.708  1.00  0.00     0.348 HD
BRANCH  11  20
ATOM     20  C   UNL A   1      30.174  28.396  22.575  1.00  0.00    -0.033 A 
ATOM     21  C   UNL A   1      29.008  27.883  23.153  1.00  0.00     0.004 A 
ATOM     22  C   UNL A   1      30.110  29.661  21.961  1.00  0.00     0.004 A 
ATOM     23  C   UNL A   1      27.829  28.631  23.165  1.00  0.00     0.000 A 
ATOM     24  C   UNL A   1      28.928  30.401  21.956  1.00  0.00     0.000 A 
ATOM     25  C   UNL A   1      27.790  29.890  22.570  1.00  0.00     0.000 A 
ENDBRANCH  11  20
ENDBRANCH   6   7
ENDBRANCH   5   6
ENDBRANCH   3   5
ENDBRANCH   2   3
ENDBRANCH   1   2
BRANCH   1  26
ATOM     26  C   UNL A   1      38.028  21.662  25.203  1.00  0.00     0.275 C 
BRANCH  26  27
ATOM     27  O   UNL A   1      38.318  22.506  26.323  1.00  0.00    -0.458 OA
BRANCH  27  28
ATOM     28  C   UNL A   1      39.657  22.759  26.454  1.00  0.00     0.338 C 
ATOM     29  O   UNL A   1      40.538  22.073  26.043  1.00  0.00    -0.246 OA
BRANCH  28  30
ATOM     30  C   UNL A   1      39.793  24.144  27.005  1.00  0.00     0.060 A 
ATOM     31  C   UNL A   1      40.367  25.124  26.186  1.00  0.00     0.016 A 
ATOM     32  C   UNL A   1      39.248  24.489  28.248  1.00  0.00     0.016 A 
ATOM     33  C   UNL A   1      40.452  26.442  26.637  1.00  0.00     0.010 A 
ATOM     34  C   UNL A   1      39.307  25.805  28.687  1.00  0.00     0.010 A 
ATOM     35  C   UNL A   1      39.963  26.771  27.907  1.00  0.00    -0.014 A 
BRANCH  35  36
ATOM     36  C   UNL A   1      40.391  28.010  28.587  1.00  0.00     0.031 A 
ATOM     37  C   UNL A   1      41.745  27.974  29.246  1.00  0.00     0.074 A 
ATOM     38  C   UNL A   1      39.583  29.077  28.696  1.00  0.00     0.049 A 
ATOM     39  N   UNL A   1      42.298  28.840  30.050  1.00  0.00    -0.248 NA
ATOM     40  C   UNL A   1      42.571  26.777  28.990  1.00  0.00     0.031 C 
ATOM     41  C   UNL A   1      38.257  29.209  28.093  1.00  0.00     0.029 A 
ATOM     42  N   UNL A   1      39.756  30.246  29.391  1.00  0.00    -0.354 N 
ATOM     43  C   UNL A   1      43.519  28.281  30.412  1.00  0.00     0.074 A 
ATOM     44  C   UNL A   1      43.620  26.995  29.767  1.00  0.00     0.031 C 
ATOM     45  C   UNL A   1      37.722  30.385  28.472  1.00  0.00     0.029 A 
ATOM     46  C   UNL A   1      38.654  31.069  29.366  1.00  0.00     0.049 A 
ATOM     47  H   UNL A   1      40.588  30.475  29.864  1.00  0.00     0.167 HD
ATOM     48  C   UNL A   1      44.474  28.801  31.212  1.00  0.00     0.031 A 
ATOM     49  C   UNL A   1      38.423  32.223  30.023  1.00  0.00     0.031 A 
ATOM     50  C   UNL A   1      44.366  30.087  31.838  1.00  0.00     0.049 A 
ATOM     51  C   UNL A   1      39.496  32.768  30.934  1.00  0.00     0.074 A 
ATOM     52  C   UNL A   1      45.300  30.744  32.616  1.00  0.00     0.029 A 
ATOM     53  N   UNL A   1      43.249  30.903  31.764  1.00  0.00    -0.354 N 
ATOM     54  N   UNL A   1      40.680  32.269  31.206  1.00  0.00    -0.248 NA
ATOM     55  C   UNL A   1      39.203  34.030  31.628  1.00  0.00     0.031 C 
ATOM     56  C   UNL A   1      44.725  31.937  33.059  1.00  0.00     0.029 A 
ATOM     57  C   UNL A   1      43.453  32.044  32.513  1.00  0.00     0.049 A 
ATOM     58  H   UNL A   1      42.432  30.699  31.252  1.00  0.00     0.167 HD
ATOM     59  C   UNL A   1      41.278  33.165  32.085  1.00  0.00     0.074 A 
ATOM     60  C   UNL A   1      40.335  34.246  32.286  1.00  0.00     0.031 C 
ATOM     61  C   UNL A   1      42.493  33.103  32.683  1.00  0.00     0.031 A 
BRANCH  48  62
ATOM     62  C   UNL A   1      45.702  27.974  31.470  1.00  0.00    -0.014 A 
ATOM     63  C   UNL A   1      46.836  28.079  30.644  1.00  0.00     0.010 A 
ATOM     64  C   UNL A   1      45.742  27.124  32.589  1.00  0.00     0.010 A 
ATOM     65  C   UNL A   1      47.986  27.339  30.928  1.00  0.00     0.020 A 
ATOM     66  C   UNL A   1      46.899  26.400  32.890  1.00  0.00     0.020 A 
ATOM     67  C   UNL A   1      48.011  26.508  32.054  1.00  0.00     0.054 A 
BRANCH  67  68
ATOM     68  S   UNL A   1      49.542  25.615  32.439  1.00  0.00     0.124 S 
ATOM     69  O   UNL A   1      50.436  26.702  32.829  1.00  0.00    -0.237 OA
ATOM     70  O   UNL A   1      49.127  24.722  33.517  1.00  0.00    -0.237 OA
ATOM     71  O   UNL A   1      49.882  24.952  31.182  1.00  0.00    -0.744 OA
ENDBRANCH  67  68
ENDBRANCH  48  62
BRANCH  49  72
ATOM     72  C   UNL A   1      37.114  32.922  29.890  1.00  0.00    -0.014 A 
ATOM     73  C   UNL A   1      36.832  33.717  28.765  1.00  0.00     0.010 A 
ATOM     74  C   UNL A   1      36.153  32.827  30.914  1.00  0.00     0.010 A 
ATOM     75  C   UNL A   1      35.629  34.426  28.679  1.00  0.00     0.020 A 
ATOM     76  C   UNL A   1      34.938  33.514  30.819  1.00  0.00     0.020 A 
ATOM     77  C   UNL A   1      34.692  34.323  29.711  1.00  0.00     0.054 A 
BRANCH  77  78
ATOM     78  S   UNL A   1      33.129  35.236  29.573  1.00  0.00     0.124 S 
ATOM     79  O   UNL A   1      32.460  34.529  28.486  1.00  0.00    -0.237 OA
ATOM     80  O   UNL A   1      32.542  35.062  30.900  1.00  0.00    -0.237 OA
ATOM     81  O   UNL A   1      33.557  36.599  29.266  1.00  0.00    -0.744 OA
ENDBRANCH  77  78
ENDBRANCH  49  72
BRANCH  61  82
ATOM     82  C   UNL A   1      42.881  34.236  33.591  1.00  0.00    -0.014 A 
ATOM     83  C   UNL A   1      42.597  34.186  34.966  1.00  0.00     0.010 A 
ATOM     84  C   UNL A   1      43.623  35.315  33.077  1.00  0.00     0.010 A 
ATOM     85  C   UNL A   1      43.033  35.208  35.811  1.00  0.00     0.020 A 
ATOM     86  C   UNL A   1      44.083  36.326  33.923  1.00  0.00     0.020 A 
ATOM     87  C   UNL A   1      43.777  36.270  35.285  1.00  0.00     0.054 A 
BRANCH  87  88
ATOM     88  S   UNL A   1      44.388  37.550  36.413  1.00  0.00     0.124 S 
ATOM     89  O   UNL A   1      44.028  38.775  35.706  1.00  0.00    -0.237 OA
ATOM     90  O   UNL A   1      43.634  37.285  37.636  1.00  0.00    -0.237 OA
ATOM     91  O   UNL A   1      45.821  37.279  36.501  1.00  0.00    -0.744 OA
ENDBRANCH  87  88
ENDBRANCH  61  82
ENDBRANCH  35  36
ENDBRANCH  28  30
ENDBRANCH  27  28
ENDBRANCH  26  27
ENDBRANCH   1  26
TORSDOF 17
ENDMDL
