MODEL 1
REMARK VINA RESULT:     -11.1      0.000      0.000
REMARK SMILES O=C(COc1cc(-c2ccccc2)nc(Nc2ccccc2Br)n1)OCCOC(=O)c1ccc(-c2c3nc(c(-c4ccc(S(=O)(=O)[O-])cc4)c4ccc([nH]4)c(-c4ccc(S(=O)(=O)[O-])cc4)c4nc(c(-c5ccc(S(=O)(=O)[O-])cc5)c5ccc2[nH]5)C=C4)C=C3)cc1
REMARK SMILES IDX 26 1 25 2 2 3 1 4 3 5 4 6 5 7 6 8 24 9 7 10 15 11 14 12 8 13
REMARK SMILES IDX 9 14 13 15 10 16 12 17 11 18 16 19 17 21 18 22 22 23 19 24
REMARK SMILES IDX 21 25 23 26 20 27 27 28 28 29 29 30 30 31 31 32 32 33 90 34
REMARK SMILES IDX 33 35 89 36 34 37 35 38 36 39 83 40 37 41 88 42 82 43 84 44
REMARK SMILES IDX 38 45 87 46 81 47 80 48 39 50 69 51 50 52 68 53 51 54 54 55
REMARK SMILES IDX 67 56 85 57 52 58 53 59 66 61 86 62 55 63 40 64 41 65 49 66
REMARK SMILES IDX 42 67 48 68 43 69 44 70 45 71 46 72 47 73 70 74 71 75 79 76
REMARK SMILES IDX 72 77 78 78 73 79 74 80 75 81 76 82 77 83 56 84 57 85 65 86
REMARK SMILES IDX 58 87 64 88 59 89 60 90 61 91 62 92 63 93
REMARK H PARENT 16 20 84 49 54 60
REMARK Flexibility Score: inf
ROOT
ATOM      1  C   UNL A   1      34.743  32.185  28.036  1.00  0.00     0.274 C 
ENDROOT
BRANCH   1   2
ATOM      2  O   UNL A   1      33.938  31.047  27.667  1.00  0.00    -0.460 OA
BRANCH   2   3
ATOM      3  C   UNL A   1      32.790  31.150  26.951  1.00  0.00     0.344 C 
ATOM      4  O   UNL A   1      32.041  32.111  27.114  1.00  0.00    -0.248 OA
BRANCH   3   5
ATOM      5  C   UNL A   1      32.524  30.111  25.872  1.00  0.00     0.353 C 
BRANCH   5   6
ATOM      6  O   UNL A   1      33.586  29.159  25.816  1.00  0.00    -0.466 OA
BRANCH   6   7
ATOM      7  C   UNL A   1      33.194  28.091  25.052  1.00  0.00     0.219 A 
ATOM      8  C   UNL A   1      33.741  26.857  25.253  1.00  0.00     0.097 A 
ATOM      9  N   UNL A   1      32.286  28.357  24.120  1.00  0.00    -0.177 NA
ATOM     10  C   UNL A   1      33.354  25.880  24.365  1.00  0.00     0.080 A 
ATOM     11  C   UNL A   1      31.953  27.356  23.291  1.00  0.00     0.231 A 
ATOM     12  N   UNL A   1      32.465  26.115  23.374  1.00  0.00    -0.212 NA
BRANCH  10  13
ATOM     13  C   UNL A   1      33.961  24.544  24.449  1.00  0.00     0.000 A 
ATOM     14  C   UNL A   1      33.265  23.398  24.036  1.00  0.00     0.010 A 
ATOM     15  C   UNL A   1      35.304  24.393  24.849  1.00  0.00     0.010 A 
ATOM     16  C   UNL A   1      33.901  22.153  23.990  1.00  0.00     0.001 A 
ATOM     17  C   UNL A   1      35.938  23.152  24.807  1.00  0.00     0.001 A 
ATOM     18  C   UNL A   1      35.237  22.033  24.369  1.00  0.00     0.000 A 
ENDBRANCH  10  13
BRANCH  11  19
ATOM     19  N   UNL A   1      31.059  27.626  22.253  1.00  0.00    -0.323 N 
ATOM     20  H   UNL A   1      31.214  27.188  21.385  1.00  0.00     0.170 HD
BRANCH  19  21
ATOM     21  C   UNL A   1      29.951  28.487  22.366  1.00  0.00     0.055 A 
ATOM     22  C   UNL A   1      30.047  29.786  21.851  1.00  0.00     0.027 A 
ATOM     23  C   UNL A   1      28.767  28.119  23.030  1.00  0.00     0.041 A 
ATOM     24  C   UNL A   1      28.960  30.663  21.910  1.00  0.00     0.002 A 
ATOM     25  C   UNL A   1      27.672  28.989  23.072  1.00  0.00     0.018 A 
ATOM     26  Br  UNL A   1      28.629  26.447  23.928  1.00  0.00    -0.049 Br
ATOM     27  C   UNL A   1      27.768  30.258  22.505  1.00  0.00     0.001 A 
ENDBRANCH  19  21
ENDBRANCH  11  19
ENDBRANCH   6   7
ENDBRANCH   5   6
ENDBRANCH   3   5
ENDBRANCH   2   3
ENDBRANCH   1   2
BRANCH   1  28
ATOM     28  C   UNL A   1      35.127  32.113  29.515  1.00  0.00     0.275 C 
BRANCH  28  29
ATOM     29  O   UNL A   1      35.809  30.875  29.787  1.00  0.00    -0.458 OA
BRANCH  29  30
ATOM     30  C   UNL A   1      36.614  30.866  30.882  1.00  0.00     0.338 C 
ATOM     31  O   UNL A   1      36.262  30.950  32.045  1.00  0.00    -0.246 OA
BRANCH  30  32
ATOM     32  C   UNL A   1      37.990  30.546  30.447  1.00  0.00     0.060 A 
ATOM     33  C   UNL A   1      38.248  30.397  29.076  1.00  0.00     0.016 A 
ATOM     34  C   UNL A   1      39.023  30.406  31.378  1.00  0.00     0.016 A 
ATOM     35  C   UNL A   1      39.539  30.086  28.638  1.00  0.00     0.010 A 
ATOM     36  C   UNL A   1      40.309  30.087  30.938  1.00  0.00     0.010 A 
ATOM     37  C   UNL A   1      40.570  29.903  29.570  1.00  0.00    -0.014 A 
BRANCH  37  38
ATOM     38  C   UNL A   1      41.898  29.393  29.155  1.00  0.00     0.031 A 
ATOM     39  C   UNL A   1      43.043  30.353  29.048  1.00  0.00     0.074 A 
ATOM     40  C   UNL A   1      42.074  28.105  28.814  1.00  0.00     0.049 A 
ATOM     41  N   UNL A   1      44.252  30.145  28.596  1.00  0.00    -0.248 NA
ATOM     42  C   UNL A   1      42.784  31.731  29.491  1.00  0.00     0.031 C 
ATOM     43  C   UNL A   1      41.047  27.074  28.890  1.00  0.00     0.029 A 
ATOM     44  N   UNL A   1      43.175  27.450  28.318  1.00  0.00    -0.354 N 
ATOM     45  C   UNL A   1      44.895  31.372  28.676  1.00  0.00     0.074 A 
ATOM     46  C   UNL A   1      43.937  32.319  29.209  1.00  0.00     0.031 C 
ATOM     47  C   UNL A   1      41.566  25.915  28.455  1.00  0.00     0.029 A 
ATOM     48  C   UNL A   1      42.939  26.130  28.016  1.00  0.00     0.049 A 
ATOM     49  H   UNL A   1      44.051  27.884  28.190  1.00  0.00     0.167 HD
ATOM     50  C   UNL A   1      46.164  31.685  28.325  1.00  0.00     0.031 A 
ATOM     51  C   UNL A   1      43.716  25.201  27.427  1.00  0.00     0.031 A 
ATOM     52  C   UNL A   1      47.103  30.750  27.767  1.00  0.00     0.049 A 
ATOM     53  C   UNL A   1      45.110  25.573  27.008  1.00  0.00     0.074 A 
ATOM     54  C   UNL A   1      48.418  30.971  27.397  1.00  0.00     0.029 A 
ATOM     55  N   UNL A   1      46.825  29.421  27.482  1.00  0.00    -0.354 N 
ATOM     56  N   UNL A   1      45.718  26.729  27.127  1.00  0.00    -0.248 NA
ATOM     57  C   UNL A   1      45.925  24.523  26.381  1.00  0.00     0.031 C 
ATOM     58  C   UNL A   1      48.918  29.790  26.839  1.00  0.00     0.029 A 
ATOM     59  C   UNL A   1      47.933  28.817  26.913  1.00  0.00     0.049 A 
ATOM     60  H   UNL A   1      45.965  28.974  27.659  1.00  0.00     0.167 HD
ATOM     61  C   UNL A   1      46.992  26.543  26.603  1.00  0.00     0.074 A 
ATOM     62  C   UNL A   1      47.072  25.160  26.177  1.00  0.00     0.031 C 
ATOM     63  C   UNL A   1      48.002  27.440  26.490  1.00  0.00     0.031 A 
BRANCH  50  64
ATOM     64  C   UNL A   1      46.572  33.123  28.477  1.00  0.00    -0.014 A 
ATOM     65  C   UNL A   1      47.016  33.630  29.712  1.00  0.00     0.010 A 
ATOM     66  C   UNL A   1      46.482  33.987  27.371  1.00  0.00     0.010 A 
ATOM     67  C   UNL A   1      47.302  34.990  29.852  1.00  0.00     0.020 A 
ATOM     68  C   UNL A   1      46.792  35.341  27.501  1.00  0.00     0.020 A 
ATOM     69  C   UNL A   1      47.174  35.839  28.748  1.00  0.00     0.054 A 
BRANCH  69  70
ATOM     70  S   UNL A   1      47.519  37.606  28.961  1.00  0.00     0.124 S 
ATOM     71  O   UNL A   1      48.311  37.610  30.189  1.00  0.00    -0.237 OA
ATOM     72  O   UNL A   1      48.249  37.942  27.742  1.00  0.00    -0.237 OA
ATOM     73  O   UNL A   1      46.192  38.207  29.074  1.00  0.00    -0.744 OA
ENDBRANCH  69  70
ENDBRANCH  50  64
BRANCH  51  74
ATOM     74  C   UNL A   1      43.169  23.838  27.172  1.00  0.00    -0.014 A 
ATOM     75  C   UNL A   1      42.598  23.513  25.930  1.00  0.00     0.010 A 
ATOM     76  C   UNL A   1      43.264  22.842  28.162  1.00  0.00     0.010 A 
ATOM     77  C   UNL A   1      42.133  22.217  25.682  1.00  0.00     0.020 A 
ATOM     78  C   UNL A   1      42.824  21.539  27.909  1.00  0.00     0.020 A 
ATOM     79  C   UNL A   1      42.256  21.236  26.672  1.00  0.00     0.054 A 
BRANCH  79  80
ATOM     80  S   UNL A   1      41.714  19.542  26.303  1.00  0.00     0.124 S 
ATOM     81  O   UNL A   1      40.287  19.726  26.066  1.00  0.00    -0.237 OA
ATOM     82  O   UNL A   1      42.512  19.202  25.128  1.00  0.00    -0.237 OA
ATOM     83  O   UNL A   1      42.058  18.803  27.517  1.00  0.00    -0.744 OA
ENDBRANCH  79  80
ENDBRANCH  51  74
BRANCH  63  84
ATOM     84  C   UNL A   1      49.301  26.961  25.902  1.00  0.00    -0.014 A 
ATOM     85  C   UNL A   1      49.624  27.208  24.556  1.00  0.00     0.010 A 
ATOM     86  C   UNL A   1      50.250  26.344  26.736  1.00  0.00     0.010 A 
ATOM     87  C   UNL A   1      50.876  26.841  24.054  1.00  0.00     0.020 A 
ATOM     88  C   UNL A   1      51.511  25.997  26.243  1.00  0.00     0.020 A 
ATOM     89  C   UNL A   1      51.814  26.244  24.902  1.00  0.00     0.054 A 
BRANCH  89  90
ATOM     90  S   UNL A   1      53.463  25.858  24.251  1.00  0.00     0.124 S 
ATOM     91  O   UNL A   1      54.276  26.924  24.831  1.00  0.00    -0.237 OA
ATOM     92  O   UNL A   1      53.712  24.519  24.778  1.00  0.00    -0.237 OA
ATOM     93  O   UNL A   1      53.287  25.927  22.802  1.00  0.00    -0.744 OA
ENDBRANCH  89  90
ENDBRANCH  63  84
ENDBRANCH  37  38
ENDBRANCH  30  32
ENDBRANCH  29  30
ENDBRANCH  28  29
ENDBRANCH   1  28
TORSDOF 19
ENDMDL
MODEL 2
REMARK VINA RESULT:     -10.9      1.079      3.571
REMARK SMILES O=C(COc1cc(-c2ccccc2)nc(Nc2ccccc2Br)n1)OCCOC(=O)c1ccc(-c2c3nc(c(-c4ccc(S(=O)(=O)[O-])cc4)c4ccc([nH]4)c(-c4ccc(S(=O)(=O)[O-])cc4)c4nc(c(-c5ccc(S(=O)(=O)[O-])cc5)c5ccc2[nH]5)C=C4)C=C3)cc1
REMARK SMILES IDX 26 1 25 2 2 3 1 4 3 5 4 6 5 7 6 8 24 9 7 10 15 11 14 12 8 13
REMARK SMILES IDX 9 14 13 15 10 16 12 17 11 18 16 19 17 21 18 22 22 23 19 24
REMARK SMILES IDX 21 25 23 26 20 27 27 28 28 29 29 30 30 31 31 32 32 33 90 34
REMARK SMILES IDX 33 35 89 36 34 37 35 38 36 39 83 40 37 41 88 42 82 43 84 44
REMARK SMILES IDX 38 45 87 46 81 47 80 48 39 50 69 51 50 52 68 53 51 54 54 55
REMARK SMILES IDX 67 56 85 57 52 58 53 59 66 61 86 62 55 63 40 64 41 65 49 66
REMARK SMILES IDX 42 67 48 68 43 69 44 70 45 71 46 72 47 73 70 74 71 75 79 76
REMARK SMILES IDX 72 77 78 78 73 79 74 80 75 81 76 82 77 83 56 84 57 85 65 86
REMARK SMILES IDX 58 87 64 88 59 89 60 90 61 91 62 92 63 93
REMARK H PARENT 16 20 84 49 54 60
REMARK Flexibility Score: inf
ROOT
ATOM      1  C   UNL A   1      34.701  32.673  29.420  1.00  0.00     0.274 C 
ENDROOT
BRANCH   1   2
ATOM      2  O   UNL A   1      34.442  32.465  28.017  1.00  0.00    -0.460 OA
BRANCH   2   3
ATOM      3  C   UNL A   1      34.233  31.240  27.473  1.00  0.00     0.344 C 
ATOM      4  O   UNL A   1      35.161  30.439  27.373  1.00  0.00    -0.248 OA
BRANCH   3   5
ATOM      5  C   UNL A   1      32.809  30.854  27.105  1.00  0.00     0.353 C 
BRANCH   5   6
ATOM      6  O   UNL A   1      32.630  29.441  27.197  1.00  0.00    -0.466 OA
BRANCH   6   7
ATOM      7  C   UNL A   1      31.964  28.997  26.084  1.00  0.00     0.219 A 
ATOM      8  C   UNL A   1      31.269  29.870  25.299  1.00  0.00     0.097 A 
ATOM      9  N   UNL A   1      32.033  27.690  25.860  1.00  0.00    -0.177 NA
ATOM     10  C   UNL A   1      30.552  29.305  24.268  1.00  0.00     0.080 A 
ATOM     11  C   UNL A   1      31.312  27.209  24.836  1.00  0.00     0.231 A 
ATOM     12  N   UNL A   1      30.559  27.975  24.027  1.00  0.00    -0.212 NA
BRANCH  10  13
ATOM     13  C   UNL A   1      29.702  30.159  23.426  1.00  0.00     0.000 A 
ATOM     14  C   UNL A   1      29.065  31.296  23.947  1.00  0.00     0.010 A 
ATOM     15  C   UNL A   1      29.592  29.916  22.043  1.00  0.00     0.010 A 
ATOM     16  C   UNL A   1      28.374  32.176  23.107  1.00  0.00     0.001 A 
ATOM     17  C   UNL A   1      28.901  30.790  21.205  1.00  0.00     0.001 A 
ATOM     18  C   UNL A   1      28.299  31.926  21.738  1.00  0.00     0.000 A 
ENDBRANCH  10  13
BRANCH  11  19
ATOM     19  N   UNL A   1      31.304  25.829  24.623  1.00  0.00    -0.323 N 
ATOM     20  H   UNL A   1      30.432  25.386  24.504  1.00  0.00     0.170 HD
BRANCH  19  21
ATOM     21  C   UNL A   1      32.461  25.029  24.569  1.00  0.00     0.055 A 
ATOM     22  C   UNL A   1      32.752  24.187  25.650  1.00  0.00     0.027 A 
ATOM     23  C   UNL A   1      33.374  25.083  23.501  1.00  0.00     0.041 A 
ATOM     24  C   UNL A   1      33.871  23.349  25.624  1.00  0.00     0.002 A 
ATOM     25  C   UNL A   1      34.483  24.231  23.466  1.00  0.00     0.018 A 
ATOM     26  Br  UNL A   1      33.155  26.343  22.091  1.00  0.00    -0.049 Br
ATOM     27  C   UNL A   1      34.726  23.360  24.525  1.00  0.00     0.001 A 
ENDBRANCH  19  21
ENDBRANCH  11  19
ENDBRANCH   6   7
ENDBRANCH   5   6
ENDBRANCH   3   5
ENDBRANCH   2   3
ENDBRANCH   1   2
BRANCH   1  28
ATOM     28  C   UNL A   1      36.206  32.682  29.693  1.00  0.00     0.275 C 
BRANCH  28  29
ATOM     29  O   UNL A   1      36.501  31.887  30.856  1.00  0.00    -0.458 OA
BRANCH  29  30
ATOM     30  C   UNL A   1      36.611  30.548  30.651  1.00  0.00     0.338 C 
ATOM     31  O   UNL A   1      35.703  29.736  30.643  1.00  0.00    -0.246 OA
BRANCH  30  32
ATOM     32  C   UNL A   1      38.002  30.249  30.251  1.00  0.00     0.060 A 
ATOM     33  C   UNL A   1      38.292  30.078  28.890  1.00  0.00     0.016 A 
ATOM     34  C   UNL A   1      39.018  30.150  31.206  1.00  0.00     0.016 A 
ATOM     35  C   UNL A   1      39.598  29.786  28.485  1.00  0.00     0.010 A 
ATOM     36  C   UNL A   1      40.319  29.849  30.800  1.00  0.00     0.010 A 
ATOM     37  C   UNL A   1      40.613  29.644  29.441  1.00  0.00    -0.014 A 
BRANCH  37  38
ATOM     38  C   UNL A   1      41.959  29.153  29.065  1.00  0.00     0.031 A 
ATOM     39  C   UNL A   1      43.096  30.127  29.005  1.00  0.00     0.074 A 
ATOM     40  C   UNL A   1      42.162  27.871  28.715  1.00  0.00     0.049 A 
ATOM     41  N   UNL A   1      44.321  29.939  28.590  1.00  0.00    -0.248 NA
ATOM     42  C   UNL A   1      42.806  31.497  29.454  1.00  0.00     0.031 C 
ATOM     43  C   UNL A   1      41.145  26.828  28.747  1.00  0.00     0.029 A 
ATOM     44  N   UNL A   1      43.286  27.234  28.249  1.00  0.00    -0.354 N 
ATOM     45  C   UNL A   1      44.946  31.172  28.704  1.00  0.00     0.074 A 
ATOM     46  C   UNL A   1      43.960  32.102  29.216  1.00  0.00     0.031 C 
ATOM     47  C   UNL A   1      41.692  25.679  28.317  1.00  0.00     0.029 A 
ATOM     48  C   UNL A   1      43.075  25.916  27.925  1.00  0.00     0.049 A 
ATOM     49  H   UNL A   1      44.160  27.680  28.154  1.00  0.00     0.167 HD
ATOM     50  C   UNL A   1      46.222  31.504  28.397  1.00  0.00     0.031 A 
ATOM     51  C   UNL A   1      43.882  25.002  27.352  1.00  0.00     0.031 A 
ATOM     52  C   UNL A   1      47.190  30.586  27.861  1.00  0.00     0.049 A 
ATOM     53  C   UNL A   1      45.285  25.395  26.983  1.00  0.00     0.074 A 
ATOM     54  C   UNL A   1      48.513  30.826  27.536  1.00  0.00     0.029 A 
ATOM     55  N   UNL A   1      46.937  29.257  27.552  1.00  0.00    -0.354 N 
ATOM     56  N   UNL A   1      45.874  26.556  27.133  1.00  0.00    -0.248 NA
ATOM     57  C   UNL A   1      46.132  24.361  26.370  1.00  0.00     0.031 C 
ATOM     58  C   UNL A   1      49.045  29.657  26.982  1.00  0.00     0.029 A 
ATOM     59  C   UNL A   1      48.070  28.672  27.013  1.00  0.00     0.049 A 
ATOM     60  H   UNL A   1      46.077  28.798  27.697  1.00  0.00     0.167 HD
ATOM     61  C   UNL A   1      47.167  26.391  26.648  1.00  0.00     0.074 A 
ATOM     62  C   UNL A   1      47.278  25.014  26.211  1.00  0.00     0.031 C 
ATOM     63  C   UNL A   1      48.169  27.301  26.578  1.00  0.00     0.031 A 
BRANCH  50  64
ATOM     64  C   UNL A   1      46.608  32.944  28.578  1.00  0.00    -0.014 A 
ATOM     65  C   UNL A   1      46.446  33.880  27.541  1.00  0.00     0.010 A 
ATOM     66  C   UNL A   1      47.169  33.360  29.799  1.00  0.00     0.010 A 
ATOM     67  C   UNL A   1      46.898  35.193  27.701  1.00  0.00     0.020 A 
ATOM     68  C   UNL A   1      47.596  34.678  29.972  1.00  0.00     0.020 A 
ATOM     69  C   UNL A   1      47.482  35.578  28.911  1.00  0.00     0.054 A 
BRANCH  69  70
ATOM     70  S   UNL A   1      48.090  37.278  29.085  1.00  0.00     0.124 S 
ATOM     71  O   UNL A   1      49.507  37.060  29.366  1.00  0.00    -0.237 OA
ATOM     72  O   UNL A   1      47.792  37.862  27.780  1.00  0.00    -0.237 OA
ATOM     73  O   UNL A   1      47.310  37.813  30.197  1.00  0.00    -0.744 OA
ENDBRANCH  69  70
ENDBRANCH  50  64
BRANCH  51  74
ATOM     74  C   UNL A   1      43.360  23.636  27.065  1.00  0.00    -0.014 A 
ATOM     75  C   UNL A   1      43.122  23.220  25.744  1.00  0.00     0.010 A 
ATOM     76  C   UNL A   1      43.147  22.725  28.117  1.00  0.00     0.010 A 
ATOM     77  C   UNL A   1      42.680  21.919  25.480  1.00  0.00     0.020 A 
ATOM     78  C   UNL A   1      42.730  21.417  27.855  1.00  0.00     0.020 A 
ATOM     79  C   UNL A   1      42.494  21.023  26.538  1.00  0.00     0.054 A 
BRANCH  79  80
ATOM     80  S   UNL A   1      41.991  19.317  26.169  1.00  0.00     0.124 S 
ATOM     81  O   UNL A   1      40.569  19.476  25.886  1.00  0.00    -0.237 OA
ATOM     82  O   UNL A   1      42.831  18.981  25.021  1.00  0.00    -0.237 OA
ATOM     83  O   UNL A   1      42.309  18.594  27.399  1.00  0.00    -0.744 OA
ENDBRANCH  79  80
ENDBRANCH  51  74
BRANCH  63  84
ATOM     84  C   UNL A   1      49.492  26.843  26.027  1.00  0.00    -0.014 A 
ATOM     85  C   UNL A   1      49.915  27.225  24.743  1.00  0.00     0.010 A 
ATOM     86  C   UNL A   1      50.364  26.106  26.849  1.00  0.00     0.010 A 
ATOM     87  C   UNL A   1      51.189  26.871  24.286  1.00  0.00     0.020 A 
ATOM     88  C   UNL A   1      51.645  25.770  26.404  1.00  0.00     0.020 A 
ATOM     89  C   UNL A   1      52.048  26.151  25.123  1.00  0.00     0.054 A 
BRANCH  89  90
ATOM     90  S   UNL A   1      53.727  25.781  24.543  1.00  0.00     0.124 S 
ATOM     91  O   UNL A   1      53.842  24.355  24.837  1.00  0.00    -0.237 OA
ATOM     92  O   UNL A   1      53.661  26.128  23.126  1.00  0.00    -0.237 OA
ATOM     93  O   UNL A   1      54.573  26.654  25.353  1.00  0.00    -0.744 OA
ENDBRANCH  89  90
ENDBRANCH  63  84
ENDBRANCH  37  38
ENDBRANCH  30  32
ENDBRANCH  29  30
ENDBRANCH  28  29
ENDBRANCH   1  28
TORSDOF 19
ENDMDL
MODEL 3
REMARK VINA RESULT:     -10.9      5.979      8.985
REMARK SMILES O=C(COc1cc(-c2ccccc2)nc(Nc2ccccc2Br)n1)OCCOC(=O)c1ccc(-c2c3nc(c(-c4ccc(S(=O)(=O)[O-])cc4)c4ccc([nH]4)c(-c4ccc(S(=O)(=O)[O-])cc4)c4nc(c(-c5ccc(S(=O)(=O)[O-])cc5)c5ccc2[nH]5)C=C4)C=C3)cc1
REMARK SMILES IDX 26 1 25 2 2 3 1 4 3 5 4 6 5 7 6 8 24 9 7 10 15 11 14 12 8 13
REMARK SMILES IDX 9 14 13 15 10 16 12 17 11 18 16 19 17 21 18 22 22 23 19 24
REMARK SMILES IDX 21 25 23 26 20 27 27 28 28 29 29 30 30 31 31 32 32 33 90 34
REMARK SMILES IDX 33 35 89 36 34 37 35 38 36 39 83 40 37 41 88 42 82 43 84 44
REMARK SMILES IDX 38 45 87 46 81 47 80 48 39 50 69 51 50 52 68 53 51 54 54 55
REMARK SMILES IDX 67 56 85 57 52 58 53 59 66 61 86 62 55 63 40 64 41 65 49 66
REMARK SMILES IDX 42 67 48 68 43 69 44 70 45 71 46 72 47 73 70 74 71 75 79 76
REMARK SMILES IDX 72 77 78 78 73 79 74 80 75 81 76 82 77 83 56 84 57 85 65 86
REMARK SMILES IDX 58 87 64 88 59 89 60 90 61 91 62 92 63 93
REMARK H PARENT 16 20 84 49 54 60
REMARK Flexibility Score: inf
ROOT
ATOM      1  C   UNL A   1      34.021  34.313  27.947  1.00  0.00     0.274 C 
ENDROOT
BRANCH   1   2
ATOM      2  O   UNL A   1      33.504  33.006  28.271  1.00  0.00    -0.460 OA
BRANCH   2   3
ATOM      3  C   UNL A   1      34.099  31.852  27.874  1.00  0.00     0.344 C 
ATOM      4  O   UNL A   1      35.300  31.675  28.069  1.00  0.00    -0.248 OA
BRANCH   3   5
ATOM      5  C   UNL A   1      33.219  30.756  27.294  1.00  0.00     0.353 C 
BRANCH   5   6
ATOM      6  O   UNL A   1      33.998  29.831  26.537  1.00  0.00    -0.466 OA
BRANCH   6   7
ATOM      7  C   UNL A   1      33.198  29.221  25.607  1.00  0.00     0.219 A 
ATOM      8  C   UNL A   1      32.069  29.838  25.152  1.00  0.00     0.097 A 
ATOM      9  N   UNL A   1      33.591  28.013  25.219  1.00  0.00    -0.177 NA
ATOM     10  C   UNL A   1      31.285  29.095  24.300  1.00  0.00     0.080 A 
ATOM     11  C   UNL A   1      32.778  27.347  24.385  1.00  0.00     0.231 A 
ATOM     12  N   UNL A   1      31.623  27.846  23.911  1.00  0.00    -0.212 NA
BRANCH  10  13
ATOM     13  C   UNL A   1      30.005  29.645  23.832  1.00  0.00     0.000 A 
ATOM     14  C   UNL A   1      29.651  30.981  24.076  1.00  0.00     0.010 A 
ATOM     15  C   UNL A   1      29.145  28.871  23.029  1.00  0.00     0.010 A 
ATOM     16  C   UNL A   1      28.498  31.531  23.507  1.00  0.00     0.001 A 
ATOM     17  C   UNL A   1      27.992  29.416  22.463  1.00  0.00     0.001 A 
ATOM     18  C   UNL A   1      27.674  30.750  22.697  1.00  0.00     0.000 A 
ENDBRANCH  10  13
BRANCH  11  19
ATOM     19  N   UNL A   1      33.127  26.045  24.021  1.00  0.00    -0.323 N 
ATOM     20  H   UNL A   1      33.077  25.804  23.067  1.00  0.00     0.170 HD
BRANCH  19  21
ATOM     21  C   UNL A   1      33.544  25.053  24.928  1.00  0.00     0.055 A 
ATOM     22  C   UNL A   1      34.891  24.671  24.941  1.00  0.00     0.027 A 
ATOM     23  C   UNL A   1      32.652  24.380  25.783  1.00  0.00     0.041 A 
ATOM     24  C   UNL A   1      35.356  23.715  25.848  1.00  0.00     0.002 A 
ATOM     25  C   UNL A   1      33.120  23.437  26.704  1.00  0.00     0.018 A 
ATOM     26  Br  UNL A   1      30.778  24.699  25.686  1.00  0.00    -0.049 Br
ATOM     27  C   UNL A   1      34.474  23.112  26.740  1.00  0.00     0.001 A 
ENDBRANCH  19  21
ENDBRANCH  11  19
ENDBRANCH   6   7
ENDBRANCH   5   6
ENDBRANCH   3   5
ENDBRANCH   2   3
ENDBRANCH   1   2
BRANCH   1  28
ATOM     28  C   UNL A   1      33.356  35.383  28.814  1.00  0.00     0.275 C 
BRANCH  28  29
ATOM     29  O   UNL A   1      32.706  34.769  29.941  1.00  0.00    -0.458 OA
BRANCH  29  30
ATOM     30  C   UNL A   1      33.119  35.184  31.167  1.00  0.00     0.338 C 
ATOM     31  O   UNL A   1      32.511  35.909  31.933  1.00  0.00    -0.246 OA
BRANCH  30  32
ATOM     32  C   UNL A   1      34.361  34.459  31.512  1.00  0.00     0.060 A 
ATOM     33  C   UNL A   1      34.285  33.089  31.803  1.00  0.00     0.016 A 
ATOM     34  C   UNL A   1      35.593  35.118  31.538  1.00  0.00     0.016 A 
ATOM     35  C   UNL A   1      35.442  32.382  32.141  1.00  0.00     0.010 A 
ATOM     36  C   UNL A   1      36.745  34.411  31.884  1.00  0.00     0.010 A 
ATOM     37  C   UNL A   1      36.675  33.046  32.209  1.00  0.00    -0.014 A 
BRANCH  37  38
ATOM     38  C   UNL A   1      37.882  32.372  32.742  1.00  0.00     0.031 A 
ATOM     39  C   UNL A   1      38.305  32.651  34.152  1.00  0.00     0.074 A 
ATOM     40  C   UNL A   1      38.634  31.572  31.968  1.00  0.00     0.049 A 
ATOM     41  N   UNL A   1      39.384  32.264  34.780  1.00  0.00    -0.248 NA
ATOM     42  C   UNL A   1      37.401  33.492  34.952  1.00  0.00     0.031 C 
ATOM     43  C   UNL A   1      38.321  31.212  30.591  1.00  0.00     0.029 A 
ATOM     44  N   UNL A   1      39.823  30.934  32.223  1.00  0.00    -0.354 N 
ATOM     45  C   UNL A   1      39.304  32.834  36.043  1.00  0.00     0.074 A 
ATOM     46  C   UNL A   1      38.076  33.601  36.085  1.00  0.00     0.031 C 
ATOM     47  C   UNL A   1      39.296  30.416  30.121  1.00  0.00     0.029 A 
ATOM     48  C   UNL A   1      40.327  30.257  31.139  1.00  0.00     0.049 A 
ATOM     49  H   UNL A   1      40.272  30.959  33.100  1.00  0.00     0.167 HD
ATOM     50  C   UNL A   1      40.181  32.737  37.070  1.00  0.00     0.031 A 
ATOM     51  C   UNL A   1      41.494  29.608  30.960  1.00  0.00     0.031 A 
ATOM     52  C   UNL A   1      41.414  32.000  37.015  1.00  0.00     0.049 A 
ATOM     53  C   UNL A   1      42.474  29.541  32.098  1.00  0.00     0.074 A 
ATOM     54  C   UNL A   1      42.358  31.830  38.012  1.00  0.00     0.029 A 
ATOM     55  N   UNL A   1      41.884  31.325  35.898  1.00  0.00    -0.354 N 
ATOM     56  N   UNL A   1      42.367  30.053  33.300  1.00  0.00    -0.248 NA
ATOM     57  C   UNL A   1      43.728  28.812  31.860  1.00  0.00     0.031 C 
ATOM     58  C   UNL A   1      43.424  31.096  37.481  1.00  0.00     0.029 A 
ATOM     59  C   UNL A   1      43.119  30.761  36.171  1.00  0.00     0.049 A 
ATOM     60  H   UNL A   1      41.409  31.256  35.038  1.00  0.00     0.167 HD
ATOM     61  C   UNL A   1      43.531  29.695  33.970  1.00  0.00     0.074 A 
ATOM     62  C   UNL A   1      44.325  28.914  33.043  1.00  0.00     0.031 C 
ATOM     63  C   UNL A   1      43.903  29.988  35.240  1.00  0.00     0.031 A 
BRANCH  50  64
ATOM     64  C   UNL A   1      39.852  33.513  38.314  1.00  0.00    -0.014 A 
ATOM     65  C   UNL A   1      40.378  34.798  38.535  1.00  0.00     0.010 A 
ATOM     66  C   UNL A   1      39.024  32.931  39.291  1.00  0.00     0.010 A 
ATOM     67  C   UNL A   1      40.133  35.461  39.740  1.00  0.00     0.020 A 
ATOM     68  C   UNL A   1      38.755  33.602  40.485  1.00  0.00     0.020 A 
ATOM     69  C   UNL A   1      39.334  34.852  40.712  1.00  0.00     0.054 A 
BRANCH  69  70
ATOM     70  S   UNL A   1      39.056  35.716  42.282  1.00  0.00     0.124 S 
ATOM     71  O   UNL A   1      40.070  35.109  43.141  1.00  0.00    -0.237 OA
ATOM     72  O   UNL A   1      39.290  37.114  41.926  1.00  0.00    -0.237 OA
ATOM     73  O   UNL A   1      37.674  35.386  42.620  1.00  0.00    -0.744 OA
ENDBRANCH  69  70
ENDBRANCH  50  64
BRANCH  51  74
ATOM     74  C   UNL A   1      41.804  29.001  29.635  1.00  0.00    -0.014 A 
ATOM     75  C   UNL A   1      41.240  27.771  29.258  1.00  0.00     0.010 A 
ATOM     76  C   UNL A   1      42.630  29.682  28.721  1.00  0.00     0.010 A 
ATOM     77  C   UNL A   1      41.495  27.233  27.992  1.00  0.00     0.020 A 
ATOM     78  C   UNL A   1      42.868  29.161  27.447  1.00  0.00     0.020 A 
ATOM     79  C   UNL A   1      42.302  27.936  27.091  1.00  0.00     0.054 A 
BRANCH  79  80
ATOM     80  S   UNL A   1      42.562  27.257  25.427  1.00  0.00     0.124 S 
ATOM     81  O   UNL A   1      42.309  28.419  24.582  1.00  0.00    -0.237 OA
ATOM     82  O   UNL A   1      43.950  26.804  25.482  1.00  0.00    -0.237 OA
ATOM     83  O   UNL A   1      41.568  26.188  25.337  1.00  0.00    -0.744 OA
ENDBRANCH  79  80
ENDBRANCH  51  74
BRANCH  63  84
ATOM     84  C   UNL A   1      45.220  29.447  35.726  1.00  0.00    -0.014 A 
ATOM     85  C   UNL A   1      45.298  28.204  36.379  1.00  0.00     0.010 A 
ATOM     86  C   UNL A   1      46.404  30.146  35.433  1.00  0.00     0.010 A 
ATOM     87  C   UNL A   1      46.541  27.673  36.735  1.00  0.00     0.020 A 
ATOM     88  C   UNL A   1      47.649  29.608  35.768  1.00  0.00     0.020 A 
ATOM     89  C   UNL A   1      47.709  28.376  36.421  1.00  0.00     0.054 A 
BRANCH  89  90
ATOM     90  S   UNL A   1      49.314  27.625  36.814  1.00  0.00     0.124 S 
ATOM     91  O   UNL A   1      49.741  27.123  35.511  1.00  0.00    -0.237 OA
ATOM     92  O   UNL A   1      50.078  28.756  37.335  1.00  0.00    -0.237 OA
ATOM     93  O   UNL A   1      48.983  26.598  37.800  1.00  0.00    -0.744 OA
ENDBRANCH  89  90
ENDBRANCH  63  84
ENDBRANCH  37  38
ENDBRANCH  30  32
ENDBRANCH  29  30
ENDBRANCH  28  29
ENDBRANCH   1  28
TORSDOF 19
ENDMDL
