MODEL 1
REMARK VINA RESULT:     -11.1      0.000      0.000
REMARK SMILES CC[C@](C)(NC(=O)c1cccc2ncccc12)C(=O)OCCOC(=O)c1ccc(-c2c3nc(c(-c4ccc(S(=O)(=O)[O-])cc4)c4ccc([nH]4)c(-c4ccc(S(=O)(=O)[O-])cc4)c4nc(c(-c5ccc(S(=O)(=O)[O-])cc5)c5ccc2[nH]5)C=C4)C=C3)cc1
REMARK SMILES IDX 22 1 21 2 20 3 18 4 19 5 3 6 4 7 2 8 1 9 5 10 6 11 7 13 8 14
REMARK SMILES IDX 9 15 17 16 10 17 12 18 16 19 11 20 13 21 15 22 14 23 23 24
REMARK SMILES IDX 24 25 25 26 26 27 27 28 85 29 28 30 84 31 29 32 30 33 31 34
REMARK SMILES IDX 78 35 32 36 83 37 77 38 79 39 33 40 82 41 76 42 75 43 34 45
REMARK SMILES IDX 64 46 45 47 63 48 46 49 49 50 62 51 80 52 47 53 48 54 61 56
REMARK SMILES IDX 81 57 50 58 35 59 36 60 44 61 37 62 43 63 38 64 39 65 40 66
REMARK SMILES IDX 41 67 42 68 65 69 66 70 74 71 67 72 73 73 68 74 69 75 70 76
REMARK SMILES IDX 71 77 72 78 51 79 52 80 60 81 53 82 59 83 54 84 55 85 56 86
REMARK SMILES IDX 57 87 58 88
REMARK H PARENT 5 12 79 44 49 55
REMARK Flexibility Score: inf
ROOT
ATOM      1  C   UNL A   1      33.159  30.322  26.711  1.00  0.00     0.275 C 
ENDROOT
BRANCH   1   2
ATOM      2  C   UNL A   1      33.350  29.422  25.482  1.00  0.00     0.274 C 
BRANCH   2   3
ATOM      3  O   UNL A   1      32.190  29.395  24.622  1.00  0.00    -0.460 OA
BRANCH   3   4
ATOM      4  C   UNL A   1      32.328  28.741  23.444  1.00  0.00     0.331 C 
ATOM      5  O   UNL A   1      33.166  29.055  22.603  1.00  0.00    -0.249 OA
BRANCH   4   6
ATOM      6  C   UNL A   1      31.276  27.612  23.207  1.00  0.00     0.135 C 
ATOM      7  C   UNL A   1      30.118  28.192  22.369  1.00  0.00     0.047 C 
BRANCH   6   8
ATOM      8  C   UNL A   1      30.733  27.200  24.615  1.00  0.00     0.037 C 
ATOM      9  C   UNL A   1      29.951  25.894  24.724  1.00  0.00     0.007 C 
ENDBRANCH   6   8
BRANCH   6  10
ATOM     10  N   UNL A   1      31.708  26.319  22.573  1.00  0.00    -0.336 N 
ATOM     11  C   UNL A   1      33.006  25.846  22.523  1.00  0.00     0.252 C 
ATOM     12  H   UNL A   1      31.009  25.763  22.159  1.00  0.00     0.165 HD
ATOM     13  O   UNL A   1      33.647  25.974  21.485  1.00  0.00    -0.269 OA
BRANCH  11  14
ATOM     14  C   UNL A   1      33.476  24.955  23.625  1.00  0.00     0.049 A 
ATOM     15  C   UNL A   1      34.225  25.549  24.653  1.00  0.00     0.014 A 
ATOM     16  C   UNL A   1      33.160  23.564  23.678  1.00  0.00     0.013 A 
ATOM     17  C   UNL A   1      34.737  24.775  25.682  1.00  0.00     0.003 A 
ATOM     18  C   UNL A   1      33.706  22.789  24.728  1.00  0.00     0.071 A 
ATOM     19  C   UNL A   1      32.375  22.856  22.735  1.00  0.00     0.013 A 
ATOM     20  C   UNL A   1      34.481  23.406  25.698  1.00  0.00     0.029 A 
ATOM     21  N   UNL A   1      33.534  21.460  24.837  1.00  0.00    -0.256 NA
ATOM     22  C   UNL A   1      32.197  21.481  22.839  1.00  0.00     0.021 A 
ATOM     23  C   UNL A   1      32.800  20.833  23.894  1.00  0.00     0.112 A 
ENDBRANCH  11  14
ENDBRANCH   6  10
ENDBRANCH   4   6
ENDBRANCH   3   4
ENDBRANCH   2   3
ENDBRANCH   1   2
BRANCH   1  24
ATOM     24  O   UNL A   1      33.891  29.869  27.863  1.00  0.00    -0.458 OA
BRANCH  24  25
ATOM     25  C   UNL A   1      34.716  30.787  28.411  1.00  0.00     0.338 C 
ATOM     26  O   UNL A   1      34.431  31.894  28.820  1.00  0.00    -0.246 OA
BRANCH  25  27
ATOM     27  C   UNL A   1      36.038  30.212  28.632  1.00  0.00     0.060 A 
ATOM     28  C   UNL A   1      36.899  30.169  27.536  1.00  0.00     0.016 A 
ATOM     29  C   UNL A   1      36.405  29.681  29.866  1.00  0.00     0.016 A 
ATOM     30  C   UNL A   1      38.161  29.628  27.667  1.00  0.00     0.010 A 
ATOM     31  C   UNL A   1      37.695  29.178  30.014  1.00  0.00     0.010 A 
ATOM     32  C   UNL A   1      38.583  29.189  28.925  1.00  0.00    -0.014 A 
BRANCH  32  33
ATOM     33  C   UNL A   1      40.018  28.924  29.123  1.00  0.00     0.031 A 
ATOM     34  C   UNL A   1      40.930  30.002  29.600  1.00  0.00     0.074 A 
ATOM     35  C   UNL A   1      40.453  27.680  28.845  1.00  0.00     0.049 A 
ATOM     36  N   UNL A   1      42.230  29.979  29.699  1.00  0.00    -0.248 NA
ATOM     37  C   UNL A   1      40.309  31.270  30.014  1.00  0.00     0.031 C 
ATOM     38  C   UNL A   1      39.601  26.564  28.410  1.00  0.00     0.029 A 
ATOM     39  N   UNL A   1      41.709  27.139  28.880  1.00  0.00    -0.354 N 
ATOM     40  C   UNL A   1      42.594  31.240  30.151  1.00  0.00     0.074 A 
ATOM     41  C   UNL A   1      41.374  32.001  30.322  1.00  0.00     0.031 C 
ATOM     42  C   UNL A   1      40.359  25.474  28.226  1.00  0.00     0.029 A 
ATOM     43  C   UNL A   1      41.750  25.831  28.456  1.00  0.00     0.049 A 
ATOM     44  H   UNL A   1      42.504  27.636  29.180  1.00  0.00     0.167 HD
ATOM     45  C   UNL A   1      43.842  31.707  30.380  1.00  0.00     0.031 A 
ATOM     46  C   UNL A   1      42.802  25.028  28.224  1.00  0.00     0.031 A 
ATOM     47  C   UNL A   1      45.030  30.916  30.193  1.00  0.00     0.049 A 
ATOM     48  C   UNL A   1      44.174  25.593  28.445  1.00  0.00     0.074 A 
ATOM     49  C   UNL A   1      46.347  31.276  30.401  1.00  0.00     0.029 A 
ATOM     50  N   UNL A   1      45.037  29.601  29.747  1.00  0.00    -0.354 N 
ATOM     51  N   UNL A   1      44.506  26.789  28.874  1.00  0.00    -0.248 NA
ATOM     52  C   UNL A   1      45.309  24.719  28.133  1.00  0.00     0.031 C 
ATOM     53  C   UNL A   1      47.155  30.193  30.037  1.00  0.00     0.029 A 
ATOM     54  C   UNL A   1      46.339  29.144  29.643  1.00  0.00     0.049 A 
ATOM     55  H   UNL A   1      44.234  29.071  29.535  1.00  0.00     0.167 HD
ATOM     56  C   UNL A   1      45.892  26.815  28.875  1.00  0.00     0.074 A 
ATOM     57  C   UNL A   1      46.334  25.504  28.437  1.00  0.00     0.031 C 
ATOM     58  C   UNL A   1      46.730  27.832  29.193  1.00  0.00     0.031 A 
BRANCH  45  59
ATOM     59  C   UNL A   1      43.989  33.144  30.794  1.00  0.00    -0.014 A 
ATOM     60  C   UNL A   1      44.103  34.172  29.842  1.00  0.00     0.010 A 
ATOM     61  C   UNL A   1      43.960  33.474  32.161  1.00  0.00     0.010 A 
ATOM     62  C   UNL A   1      44.204  35.506  30.253  1.00  0.00     0.020 A 
ATOM     63  C   UNL A   1      44.044  34.807  32.575  1.00  0.00     0.020 A 
ATOM     64  C   UNL A   1      44.176  35.815  31.618  1.00  0.00     0.054 A 
BRANCH  64  65
ATOM     65  S   UNL A   1      44.268  37.555  32.124  1.00  0.00     0.124 S 
ATOM     66  O   UNL A   1      43.819  38.243  30.916  1.00  0.00    -0.237 OA
ATOM     67  O   UNL A   1      43.346  37.610  33.256  1.00  0.00    -0.237 OA
ATOM     68  O   UNL A   1      45.676  37.745  32.462  1.00  0.00    -0.744 OA
ENDBRANCH  64  65
ENDBRANCH  45  59
BRANCH  46  69
ATOM     69  C   UNL A   1      42.594  23.660  27.680  1.00  0.00    -0.014 A 
ATOM     70  C   UNL A   1      42.559  23.431  26.295  1.00  0.00     0.010 A 
ATOM     71  C   UNL A   1      42.453  22.567  28.557  1.00  0.00     0.010 A 
ATOM     72  C   UNL A   1      42.365  22.139  25.797  1.00  0.00     0.020 A 
ATOM     73  C   UNL A   1      42.286  21.271  28.064  1.00  0.00     0.020 A 
ATOM     74  C   UNL A   1      42.228  21.066  26.685  1.00  0.00     0.054 A 
BRANCH  74  75
ATOM     75  S   UNL A   1      42.018  19.389  26.024  1.00  0.00     0.124 S 
ATOM     76  O   UNL A   1      42.876  19.422  24.844  1.00  0.00    -0.237 OA
ATOM     77  O   UNL A   1      42.487  18.550  27.123  1.00  0.00    -0.237 OA
ATOM     78  O   UNL A   1      40.584  19.307  25.757  1.00  0.00    -0.744 OA
ENDBRANCH  74  75
ENDBRANCH  46  69
BRANCH  58  79
ATOM     79  C   UNL A   1      48.197  27.553  29.071  1.00  0.00    -0.014 A 
ATOM     80  C   UNL A   1      48.870  27.793  27.861  1.00  0.00     0.010 A 
ATOM     81  C   UNL A   1      48.916  27.095  30.189  1.00  0.00     0.010 A 
ATOM     82  C   UNL A   1      50.243  27.560  27.764  1.00  0.00     0.020 A 
ATOM     83  C   UNL A   1      50.292  26.881  30.101  1.00  0.00     0.020 A 
ATOM     84  C   UNL A   1      50.943  27.106  28.885  1.00  0.00     0.054 A 
BRANCH  84  85
ATOM     85  S   UNL A   1      52.735  26.863  28.754  1.00  0.00     0.124 S 
ATOM     86  O   UNL A   1      53.057  26.275  30.052  1.00  0.00    -0.237 OA
ATOM     87  O   UNL A   1      52.857  25.965  27.609  1.00  0.00    -0.237 OA
ATOM     88  O   UNL A   1      53.250  28.213  28.536  1.00  0.00    -0.744 OA
ENDBRANCH  84  85
ENDBRANCH  58  79
ENDBRANCH  32  33
ENDBRANCH  25  27
ENDBRANCH  24  25
ENDBRANCH   1  24
TORSDOF 17
ENDMDL
MODEL 2
REMARK VINA RESULT:     -10.8      1.194      1.839
REMARK SMILES CC[C@](C)(NC(=O)c1cccc2ncccc12)C(=O)OCCOC(=O)c1ccc(-c2c3nc(c(-c4ccc(S(=O)(=O)[O-])cc4)c4ccc([nH]4)c(-c4ccc(S(=O)(=O)[O-])cc4)c4nc(c(-c5ccc(S(=O)(=O)[O-])cc5)c5ccc2[nH]5)C=C4)C=C3)cc1
REMARK SMILES IDX 22 1 21 2 20 3 18 4 19 5 3 6 4 7 2 8 1 9 5 10 6 11 7 13 8 14
REMARK SMILES IDX 9 15 17 16 10 17 12 18 16 19 11 20 13 21 15 22 14 23 23 24
REMARK SMILES IDX 24 25 25 26 26 27 27 28 85 29 28 30 84 31 29 32 30 33 31 34
REMARK SMILES IDX 78 35 32 36 83 37 77 38 79 39 33 40 82 41 76 42 75 43 34 45
REMARK SMILES IDX 64 46 45 47 63 48 46 49 49 50 62 51 80 52 47 53 48 54 61 56
REMARK SMILES IDX 81 57 50 58 35 59 36 60 44 61 37 62 43 63 38 64 39 65 40 66
REMARK SMILES IDX 41 67 42 68 65 69 66 70 74 71 67 72 73 73 68 74 69 75 70 76
REMARK SMILES IDX 71 77 72 78 51 79 52 80 60 81 53 82 59 83 54 84 55 85 56 86
REMARK SMILES IDX 57 87 58 88
REMARK H PARENT 5 12 79 44 49 55
REMARK Flexibility Score: inf
ROOT
ATOM      1  C   UNL A   1      32.999  29.318  27.441  1.00  0.00     0.275 C 
ENDROOT
BRANCH   1   2
ATOM      2  C   UNL A   1      31.892  29.263  26.379  1.00  0.00     0.274 C 
BRANCH   2   3
ATOM      3  O   UNL A   1      31.304  27.949  26.250  1.00  0.00    -0.460 OA
BRANCH   3   4
ATOM      4  C   UNL A   1      31.186  27.462  24.991  1.00  0.00     0.331 C 
ATOM      5  O   UNL A   1      30.575  28.052  24.105  1.00  0.00    -0.249 OA
BRANCH   4   6
ATOM      6  C   UNL A   1      31.817  26.048  24.787  1.00  0.00     0.135 C 
ATOM      7  C   UNL A   1      32.834  26.130  23.631  1.00  0.00     0.047 C 
BRANCH   6   8
ATOM      8  C   UNL A   1      30.649  25.091  24.377  1.00  0.00     0.037 C 
ATOM      9  C   UNL A   1      30.802  24.292  23.085  1.00  0.00     0.007 C 
ENDBRANCH   6   8
BRANCH   6  10
ATOM     10  N   UNL A   1      32.483  25.360  25.946  1.00  0.00    -0.336 N 
ATOM     11  C   UNL A   1      32.146  24.113  26.437  1.00  0.00     0.252 C 
ATOM     12  H   UNL A   1      33.219  25.838  26.392  1.00  0.00     0.165 HD
ATOM     13  O   UNL A   1      31.459  24.037  27.451  1.00  0.00    -0.269 OA
BRANCH  11  14
ATOM     14  C   UNL A   1      32.858  22.922  25.888  1.00  0.00     0.049 A 
ATOM     15  C   UNL A   1      32.073  21.813  25.533  1.00  0.00     0.014 A 
ATOM     16  C   UNL A   1      34.271  22.895  25.684  1.00  0.00     0.013 A 
ATOM     17  C   UNL A   1      32.670  20.654  25.064  1.00  0.00     0.003 A 
ATOM     18  C   UNL A   1      34.862  21.697  25.219  1.00  0.00     0.071 A 
ATOM     19  C   UNL A   1      35.166  23.959  25.953  1.00  0.00     0.013 A 
ATOM     20  C   UNL A   1      34.055  20.608  24.926  1.00  0.00     0.029 A 
ATOM     21  N   UNL A   1      36.187  21.535  25.060  1.00  0.00    -0.256 NA
ATOM     22  C   UNL A   1      36.539  23.798  25.794  1.00  0.00     0.021 A 
ATOM     23  C   UNL A   1      36.995  22.574  25.358  1.00  0.00     0.112 A 
ENDBRANCH  11  14
ENDBRANCH   6  10
ENDBRANCH   4   6
ENDBRANCH   3   4
ENDBRANCH   2   3
ENDBRANCH   1   2
BRANCH   1  24
ATOM     24  O   UNL A   1      34.141  30.089  27.028  1.00  0.00    -0.458 OA
BRANCH  24  25
ATOM     25  C   UNL A   1      34.747  30.783  28.016  1.00  0.00     0.338 C 
ATOM     26  O   UNL A   1      34.278  31.674  28.695  1.00  0.00    -0.246 OA
BRANCH  25  27
ATOM     27  C   UNL A   1      36.049  30.201  28.318  1.00  0.00     0.060 A 
ATOM     28  C   UNL A   1      36.964  30.122  27.268  1.00  0.00     0.016 A 
ATOM     29  C   UNL A   1      36.348  29.699  29.582  1.00  0.00     0.016 A 
ATOM     30  C   UNL A   1      38.211  29.572  27.476  1.00  0.00     0.010 A 
ATOM     31  C   UNL A   1      37.624  29.188  29.807  1.00  0.00     0.010 A 
ATOM     32  C   UNL A   1      38.565  29.162  28.764  1.00  0.00    -0.014 A 
BRANCH  32  33
ATOM     33  C   UNL A   1      39.985  28.889  29.042  1.00  0.00     0.031 A 
ATOM     34  C   UNL A   1      40.873  29.958  29.580  1.00  0.00     0.074 A 
ATOM     35  C   UNL A   1      40.430  27.645  28.777  1.00  0.00     0.049 A 
ATOM     36  N   UNL A   1      42.165  29.928  29.752  1.00  0.00    -0.248 NA
ATOM     37  C   UNL A   1      40.235  31.225  29.970  1.00  0.00     0.031 C 
ATOM     38  C   UNL A   1      39.600  26.538  28.284  1.00  0.00     0.029 A 
ATOM     39  N   UNL A   1      41.679  27.098  28.878  1.00  0.00    -0.354 N 
ATOM     40  C   UNL A   1      42.508  31.183  30.236  1.00  0.00     0.074 A 
ATOM     41  C   UNL A   1      41.283  31.948  30.344  1.00  0.00     0.031 C 
ATOM     42  C   UNL A   1      40.362  25.446  28.132  1.00  0.00     0.029 A 
ATOM     43  C   UNL A   1      41.740  25.794  28.444  1.00  0.00     0.049 A 
ATOM     44  H   UNL A   1      42.458  27.588  29.227  1.00  0.00     0.167 HD
ATOM     45  C   UNL A   1      43.743  31.642  30.539  1.00  0.00     0.031 A 
ATOM     46  C   UNL A   1      42.800  24.988  28.266  1.00  0.00     0.031 A 
ATOM     47  C   UNL A   1      44.936  30.847  30.413  1.00  0.00     0.049 A 
ATOM     48  C   UNL A   1      44.159  25.545  28.569  1.00  0.00     0.074 A 
ATOM     49  C   UNL A   1      46.241  31.199  30.699  1.00  0.00     0.029 A 
ATOM     50  N   UNL A   1      44.964  29.536  29.956  1.00  0.00    -0.354 N 
ATOM     51  N   UNL A   1      44.471  26.735  29.027  1.00  0.00    -0.248 NA
ATOM     52  C   UNL A   1      45.306  24.668  28.314  1.00  0.00     0.031 C 
ATOM     53  C   UNL A   1      47.064  30.116  30.371  1.00  0.00     0.029 A 
ATOM     54  C   UNL A   1      46.267  29.074  29.922  1.00  0.00     0.049 A 
ATOM     55  H   UNL A   1      44.172  29.012  29.694  1.00  0.00     0.167 HD
ATOM     56  C   UNL A   1      45.855  26.755  29.108  1.00  0.00     0.074 A 
ATOM     57  C   UNL A   1      46.316  25.445  28.684  1.00  0.00     0.031 C 
ATOM     58  C   UNL A   1      46.677  27.765  29.483  1.00  0.00     0.031 A 
BRANCH  45  59
ATOM     59  C   UNL A   1      43.872  33.075  30.975  1.00  0.00    -0.014 A 
ATOM     60  C   UNL A   1      44.059  34.109  30.041  1.00  0.00     0.010 A 
ATOM     61  C   UNL A   1      43.752  33.394  32.340  1.00  0.00     0.010 A 
ATOM     62  C   UNL A   1      44.142  35.439  30.470  1.00  0.00     0.020 A 
ATOM     63  C   UNL A   1      43.818  34.723  32.769  1.00  0.00     0.020 A 
ATOM     64  C   UNL A   1      44.023  35.737  31.832  1.00  0.00     0.054 A 
BRANCH  64  65
ATOM     65  S   UNL A   1      44.092  37.472  32.358  1.00  0.00     0.124 S 
ATOM     66  O   UNL A   1      43.855  38.177  31.101  1.00  0.00    -0.237 OA
ATOM     67  O   UNL A   1      43.011  37.556  33.337  1.00  0.00    -0.237 OA
ATOM     68  O   UNL A   1      45.438  37.615  32.908  1.00  0.00    -0.744 OA
ENDBRANCH  64  65
ENDBRANCH  45  59
BRANCH  46  69
ATOM     69  C   UNL A   1      42.617  23.626  27.698  1.00  0.00    -0.014 A 
ATOM     70  C   UNL A   1      42.772  23.390  26.322  1.00  0.00     0.010 A 
ATOM     71  C   UNL A   1      42.308  22.545  28.546  1.00  0.00     0.010 A 
ATOM     72  C   UNL A   1      42.600  22.103  25.802  1.00  0.00     0.020 A 
ATOM     73  C   UNL A   1      42.163  21.253  28.034  1.00  0.00     0.020 A 
ATOM     74  C   UNL A   1      42.294  21.043  26.661  1.00  0.00     0.054 A 
BRANCH  74  75
ATOM     75  S   UNL A   1      42.115  19.372  25.977  1.00  0.00     0.124 S 
ATOM     76  O   UNL A   1      42.933  19.451  24.772  1.00  0.00    -0.237 OA
ATOM     77  O   UNL A   1      42.644  18.529  27.046  1.00  0.00    -0.237 OA
ATOM     78  O   UNL A   1      40.676  19.249  25.754  1.00  0.00    -0.744 OA
ENDBRANCH  74  75
ENDBRANCH  46  69
BRANCH  58  79
ATOM     79  C   UNL A   1      48.148  27.480  29.441  1.00  0.00    -0.014 A 
ATOM     80  C   UNL A   1      48.927  27.906  28.352  1.00  0.00     0.010 A 
ATOM     81  C   UNL A   1      48.763  26.825  30.523  1.00  0.00     0.010 A 
ATOM     82  C   UNL A   1      50.302  27.665  28.335  1.00  0.00     0.020 A 
ATOM     83  C   UNL A   1      50.140  26.601  30.519  1.00  0.00     0.020 A 
ATOM     84  C   UNL A   1      50.898  27.013  29.419  1.00  0.00     0.054 A 
BRANCH  84  85
ATOM     85  S   UNL A   1      52.693  26.759  29.403  1.00  0.00     0.124 S 
ATOM     86  O   UNL A   1      52.892  25.936  30.593  1.00  0.00    -0.237 OA
ATOM     87  O   UNL A   1      52.912  26.084  28.127  1.00  0.00    -0.237 OA
ATOM     88  O   UNL A   1      53.233  28.114  29.484  1.00  0.00    -0.744 OA
ENDBRANCH  84  85
ENDBRANCH  58  79
ENDBRANCH  32  33
ENDBRANCH  25  27
ENDBRANCH  24  25
ENDBRANCH   1  24
TORSDOF 17
ENDMDL
MODEL 3
REMARK VINA RESULT:     -10.6      3.476      9.629
REMARK SMILES CC[C@](C)(NC(=O)c1cccc2ncccc12)C(=O)OCCOC(=O)c1ccc(-c2c3nc(c(-c4ccc(S(=O)(=O)[O-])cc4)c4ccc([nH]4)c(-c4ccc(S(=O)(=O)[O-])cc4)c4nc(c(-c5ccc(S(=O)(=O)[O-])cc5)c5ccc2[nH]5)C=C4)C=C3)cc1
REMARK SMILES IDX 22 1 21 2 20 3 18 4 19 5 3 6 4 7 2 8 1 9 5 10 6 11 7 13 8 14
REMARK SMILES IDX 9 15 17 16 10 17 12 18 16 19 11 20 13 21 15 22 14 23 23 24
REMARK SMILES IDX 24 25 25 26 26 27 27 28 85 29 28 30 84 31 29 32 30 33 31 34
REMARK SMILES IDX 78 35 32 36 83 37 77 38 79 39 33 40 82 41 76 42 75 43 34 45
REMARK SMILES IDX 64 46 45 47 63 48 46 49 49 50 62 51 80 52 47 53 48 54 61 56
REMARK SMILES IDX 81 57 50 58 35 59 36 60 44 61 37 62 43 63 38 64 39 65 40 66
REMARK SMILES IDX 41 67 42 68 65 69 66 70 74 71 67 72 73 73 68 74 69 75 70 76
REMARK SMILES IDX 71 77 72 78 51 79 52 80 60 81 53 82 59 83 54 84 55 85 56 86
REMARK SMILES IDX 57 87 58 88
REMARK H PARENT 5 12 79 44 49 55
REMARK Flexibility Score: inf
ROOT
ATOM      1  C   UNL A   1      37.657  21.534  25.375  1.00  0.00     0.275 C 
ENDROOT
BRANCH   1   2
ATOM      2  C   UNL A   1      36.129  21.393  25.341  1.00  0.00     0.274 C 
BRANCH   2   3
ATOM      3  O   UNL A   1      35.445  22.627  25.655  1.00  0.00    -0.460 OA
BRANCH   3   4
ATOM      4  C   UNL A   1      34.115  22.534  25.894  1.00  0.00     0.331 C 
ATOM      5  O   UNL A   1      33.655  21.984  26.890  1.00  0.00    -0.249 OA
BRANCH   4   6
ATOM      6  C   UNL A   1      33.215  23.108  24.754  1.00  0.00     0.135 C 
ATOM      7  C   UNL A   1      32.798  21.946  23.830  1.00  0.00     0.047 C 
BRANCH   6   8
ATOM      8  C   UNL A   1      34.099  24.115  23.946  1.00  0.00     0.037 C 
ATOM      9  C   UNL A   1      33.493  24.753  22.699  1.00  0.00     0.007 C 
ENDBRANCH   6   8
BRANCH   6  10
ATOM     10  N   UNL A   1      31.979  23.888  25.109  1.00  0.00    -0.336 N 
ATOM     11  C   UNL A   1      31.890  24.834  26.112  1.00  0.00     0.252 C 
ATOM     12  H   UNL A   1      31.166  23.709  24.582  1.00  0.00     0.165 HD
ATOM     13  O   UNL A   1      31.376  24.521  27.182  1.00  0.00    -0.269 OA
BRANCH  11  14
ATOM     14  C   UNL A   1      32.158  26.260  25.763  1.00  0.00     0.049 A 
ATOM     15  C   UNL A   1      33.309  26.848  26.312  1.00  0.00     0.014 A 
ATOM     16  C   UNL A   1      31.321  27.008  24.882  1.00  0.00     0.013 A 
ATOM     17  C   UNL A   1      33.594  28.183  26.073  1.00  0.00     0.003 A 
ATOM     18  C   UNL A   1      31.621  28.373  24.664  1.00  0.00     0.071 A 
ATOM     19  C   UNL A   1      30.164  26.520  24.226  1.00  0.00     0.013 A 
ATOM     20  C   UNL A   1      32.741  28.929  25.264  1.00  0.00     0.029 A 
ATOM     21  N   UNL A   1      30.862  29.190  23.912  1.00  0.00    -0.256 NA
ATOM     22  C   UNL A   1      29.372  27.361  23.450  1.00  0.00     0.021 A 
ATOM     23  C   UNL A   1      29.756  28.678  23.333  1.00  0.00     0.112 A 
ENDBRANCH  11  14
ENDBRANCH   6  10
ENDBRANCH   4   6
ENDBRANCH   3   4
ENDBRANCH   2   3
ENDBRANCH   1   2
BRANCH   1  24
ATOM     24  O   UNL A   1      38.095  22.849  25.760  1.00  0.00    -0.458 OA
BRANCH  24  25
ATOM     25  C   UNL A   1      39.396  22.935  26.111  1.00  0.00     0.338 C 
ATOM     26  O   UNL A   1      40.296  22.170  25.828  1.00  0.00    -0.246 OA
BRANCH  25  27
ATOM     27  C   UNL A   1      39.660  24.212  26.764  1.00  0.00     0.060 A 
ATOM     28  C   UNL A   1      39.050  24.428  27.999  1.00  0.00     0.016 A 
ATOM     29  C   UNL A   1      40.442  25.193  26.159  1.00  0.00     0.016 A 
ATOM     30  C   UNL A   1      39.244  25.617  28.670  1.00  0.00     0.010 A 
ATOM     31  C   UNL A   1      40.680  26.375  26.856  1.00  0.00     0.010 A 
ATOM     32  C   UNL A   1      40.112  26.568  28.127  1.00  0.00    -0.014 A 
BRANCH  32  33
ATOM     33  C   UNL A   1      40.564  27.671  28.990  1.00  0.00     0.031 A 
ATOM     34  C   UNL A   1      41.836  27.562  29.759  1.00  0.00     0.074 A 
ATOM     35  C   UNL A   1      39.773  28.760  29.055  1.00  0.00     0.049 A 
ATOM     36  N   UNL A   1      42.310  28.375  30.661  1.00  0.00    -0.248 NA
ATOM     37  C   UNL A   1      42.684  26.391  29.487  1.00  0.00     0.031 C 
ATOM     38  C   UNL A   1      38.529  28.945  28.294  1.00  0.00     0.029 A 
ATOM     39  N   UNL A   1      39.884  29.910  29.786  1.00  0.00    -0.354 N 
ATOM     40  C   UNL A   1      43.496  27.800  31.098  1.00  0.00     0.074 A 
ATOM     41  C   UNL A   1      43.677  26.574  30.349  1.00  0.00     0.031 C 
ATOM     42  C   UNL A   1      37.999  30.139  28.596  1.00  0.00     0.029 A 
ATOM     43  C   UNL A   1      38.821  30.766  29.619  1.00  0.00     0.049 A 
ATOM     44  H   UNL A   1      40.650  30.105  30.373  1.00  0.00     0.167 HD
ATOM     45  C   UNL A   1      44.335  28.260  32.053  1.00  0.00     0.031 A 
ATOM     46  C   UNL A   1      38.517  31.905  30.265  1.00  0.00     0.031 A 
ATOM     47  C   UNL A   1      44.114  29.485  32.777  1.00  0.00     0.049 A 
ATOM     48  C   UNL A   1      39.446  32.363  31.349  1.00  0.00     0.074 A 
ATOM     49  C   UNL A   1      44.897  30.059  33.760  1.00  0.00     0.029 A 
ATOM     50  N   UNL A   1      43.019  30.320  32.596  1.00  0.00    -0.354 N 
ATOM     51  N   UNL A   1      40.566  31.810  31.753  1.00  0.00    -0.248 NA
ATOM     52  C   UNL A   1      39.065  33.577  32.078  1.00  0.00     0.031 C 
ATOM     53  C   UNL A   1      44.254  31.218  34.205  1.00  0.00     0.029 A 
ATOM     54  C   UNL A   1      43.090  31.390  33.470  1.00  0.00     0.049 A 
ATOM     55  H   UNL A   1      42.298  30.173  31.941  1.00  0.00     0.167 HD
ATOM     56  C   UNL A   1      41.023  32.606  32.793  1.00  0.00     0.074 A 
ATOM     57  C   UNL A   1      40.075  33.696  32.931  1.00  0.00     0.031 C 
ATOM     58  C   UNL A   1      42.117  32.446  33.577  1.00  0.00     0.031 A 
BRANCH  45  59
ATOM     59  C   UNL A   1      45.525  27.415  32.409  1.00  0.00    -0.014 A 
ATOM     60  C   UNL A   1      46.782  27.635  31.819  1.00  0.00     0.010 A 
ATOM     61  C   UNL A   1      45.393  26.417  33.393  1.00  0.00     0.010 A 
ATOM     62  C   UNL A   1      47.883  26.857  32.195  1.00  0.00     0.020 A 
ATOM     63  C   UNL A   1      46.494  25.650  33.782  1.00  0.00     0.020 A 
ATOM     64  C   UNL A   1      47.731  25.867  33.172  1.00  0.00     0.054 A 
BRANCH  64  65
ATOM     65  S   UNL A   1      49.183  24.899  33.671  1.00  0.00     0.124 S 
ATOM     66  O   UNL A   1      49.876  25.831  34.557  1.00  0.00    -0.237 OA
ATOM     67  O   UNL A   1      48.586  23.737  34.326  1.00  0.00    -0.237 OA
ATOM     68  O   UNL A   1      49.862  24.617  32.409  1.00  0.00    -0.744 OA
ENDBRANCH  64  65
ENDBRANCH  45  59
BRANCH  46  69
ATOM     69  C   UNL A   1      37.249  32.621  29.961  1.00  0.00    -0.014 A 
ATOM     70  C   UNL A   1      37.195  33.594  28.950  1.00  0.00     0.010 A 
ATOM     71  C   UNL A   1      36.076  32.310  30.674  1.00  0.00     0.010 A 
ATOM     72  C   UNL A   1      35.995  34.258  28.672  1.00  0.00     0.020 A 
ATOM     73  C   UNL A   1      34.870  32.951  30.381  1.00  0.00     0.020 A 
ATOM     74  C   UNL A   1      34.840  33.934  29.391  1.00  0.00     0.054 A 
BRANCH  74  75
ATOM     75  S   UNL A   1      33.282  34.775  28.992  1.00  0.00     0.124 S 
ATOM     76  O   UNL A   1      32.681  34.935  30.312  1.00  0.00    -0.237 OA
ATOM     77  O   UNL A   1      33.737  36.006  28.350  1.00  0.00    -0.237 OA
ATOM     78  O   UNL A   1      32.606  33.833  28.103  1.00  0.00    -0.744 OA
ENDBRANCH  74  75
ENDBRANCH  46  69
BRANCH  58  79
ATOM     79  C   UNL A   1      42.330  33.476  34.645  1.00  0.00    -0.014 A 
ATOM     80  C   UNL A   1      43.017  34.668  34.359  1.00  0.00     0.010 A 
ATOM     81  C   UNL A   1      41.795  33.271  35.928  1.00  0.00     0.010 A 
ATOM     82  C   UNL A   1      43.184  35.636  35.350  1.00  0.00     0.020 A 
ATOM     83  C   UNL A   1      41.942  34.246  36.915  1.00  0.00     0.020 A 
ATOM     84  C   UNL A   1      42.645  35.417  36.622  1.00  0.00     0.054 A 
BRANCH  84  85
ATOM     85  S   UNL A   1      42.824  36.712  37.879  1.00  0.00     0.124 S 
ATOM     86  O   UNL A   1      41.433  36.984  38.232  1.00  0.00    -0.237 OA
ATOM     87  O   UNL A   1      43.618  36.051  38.912  1.00  0.00    -0.237 OA
ATOM     88  O   UNL A   1      43.510  37.788  37.169  1.00  0.00    -0.744 OA
ENDBRANCH  84  85
ENDBRANCH  58  79
ENDBRANCH  32  33
ENDBRANCH  25  27
ENDBRANCH  24  25
ENDBRANCH   1  24
TORSDOF 17
ENDMDL
