MODEL 1
REMARK VINA RESULT:     -12.1      0.000      0.000
REMARK SMILES O=C(Cn1cnc(-c2ccccc2)c1-c1ccccc1)OCCOC(=O)c1ccc(-c2c3nc(c(-c4ccc(S(=O)(=O)[O-])cc4)c4ccc([nH]4)c(-c4ccc(S(=O)(=O)[O-])cc4)c4nc(c(-c5ccc(S(=O)(=O)[O-])cc5)c5ccc2[nH]5)C=C4)C=C3)cc1
REMARK SMILES IDX 23 1 22 2 21 3 2 4 1 5 3 6 4 7 5 8 14 9 6 10 7 11 15 12
REMARK SMILES IDX 16 13 20 14 17 15 19 16 18 17 8 18 9 19 13 20 10 21 12 22
REMARK SMILES IDX 11 23 24 24 25 25 26 26 27 27 28 28 86 29 29 30 85 31 30 32
REMARK SMILES IDX 31 33 32 34 79 35 33 36 84 37 78 38 80 39 34 40 83 41 77 42
REMARK SMILES IDX 76 43 35 45 65 46 46 47 64 48 47 49 50 50 63 51 81 52 48 53
REMARK SMILES IDX 49 54 62 56 82 57 51 58 36 59 37 60 45 61 38 62 44 63 39 64
REMARK SMILES IDX 40 65 41 66 42 67 43 68 66 69 67 70 75 71 68 72 74 73 69 74
REMARK SMILES IDX 70 75 71 76 72 77 73 78 52 79 53 80 61 81 54 82 60 83 55 84
REMARK SMILES IDX 56 85 57 86 58 87 59 88
REMARK H PARENT 80 44 50 55
REMARK Flexibility Score: inf
ROOT
ATOM      1  C   UNL A   1      38.062  21.407  25.665  1.00  0.00     0.275 C 
ENDROOT
BRANCH   1   2
ATOM      2  C   UNL A   1      36.574  21.468  25.353  1.00  0.00     0.274 C 
BRANCH   2   3
ATOM      3  O   UNL A   1      35.793  22.252  26.269  1.00  0.00    -0.461 OA
BRANCH   3   4
ATOM      4  C   UNL A   1      35.170  23.411  25.925  1.00  0.00     0.326 C 
ATOM      5  O   UNL A   1      35.772  24.249  25.253  1.00  0.00    -0.250 OA
BRANCH   4   6
ATOM      6  C   UNL A   1      33.778  23.694  26.444  1.00  0.00     0.246 C 
BRANCH   6   7
ATOM      7  N   UNL A   1      32.841  24.112  25.419  1.00  0.00    -0.319 N 
ATOM      8  C   UNL A   1      32.284  23.260  24.501  1.00  0.00     0.201 A 
ATOM      9  C   UNL A   1      32.395  25.391  25.140  1.00  0.00     0.076 A 
ATOM     10  N   UNL A   1      31.441  23.882  23.711  1.00  0.00    -0.236 NA
ATOM     11  C   UNL A   1      31.502  25.198  24.094  1.00  0.00     0.096 A 
BRANCH   9  12
ATOM     12  C   UNL A   1      32.675  26.614  25.895  1.00  0.00     0.000 A 
ATOM     13  C   UNL A   1      31.705  27.109  26.784  1.00  0.00     0.010 A 
ATOM     14  C   UNL A   1      33.862  27.331  25.722  1.00  0.00     0.010 A 
ATOM     15  C   UNL A   1      31.936  28.273  27.519  1.00  0.00     0.001 A 
ATOM     16  C   UNL A   1      34.090  28.503  26.452  1.00  0.00     0.001 A 
ATOM     17  C   UNL A   1      33.130  28.969  27.354  1.00  0.00     0.000 A 
ENDBRANCH   9  12
BRANCH  11  18
ATOM     18  C   UNL A   1      30.628  26.231  23.579  1.00  0.00     0.002 A 
ATOM     19  C   UNL A   1      29.291  26.244  23.985  1.00  0.00     0.010 A 
ATOM     20  C   UNL A   1      31.131  27.287  22.809  1.00  0.00     0.010 A 
ATOM     21  C   UNL A   1      28.476  27.327  23.662  1.00  0.00     0.001 A 
ATOM     22  C   UNL A   1      30.314  28.371  22.488  1.00  0.00     0.001 A 
ATOM     23  C   UNL A   1      28.990  28.393  22.923  1.00  0.00     0.000 A 
ENDBRANCH  11  18
ENDBRANCH   6   7
ENDBRANCH   4   6
ENDBRANCH   3   4
ENDBRANCH   2   3
ENDBRANCH   1   2
BRANCH   1  24
ATOM     24  O   UNL A   1      38.551  22.651  26.151  1.00  0.00    -0.458 OA
BRANCH  24  25
ATOM     25  C   UNL A   1      39.652  22.584  26.940  1.00  0.00     0.338 C 
ATOM     26  O   UNL A   1      40.142  21.597  27.431  1.00  0.00    -0.246 OA
BRANCH  25  27
ATOM     27  C   UNL A   1      40.138  23.958  27.143  1.00  0.00     0.060 A 
ATOM     28  C   UNL A   1      41.262  24.115  27.954  1.00  0.00     0.016 A 
ATOM     29  C   UNL A   1      39.383  25.056  26.702  1.00  0.00     0.016 A 
ATOM     30  C   UNL A   1      41.482  25.348  28.524  1.00  0.00     0.010 A 
ATOM     31  C   UNL A   1      39.602  26.285  27.272  1.00  0.00     0.010 A 
ATOM     32  C   UNL A   1      40.582  26.387  28.253  1.00  0.00    -0.014 A 
BRANCH  32  33
ATOM     33  C   UNL A   1      40.729  27.632  28.971  1.00  0.00     0.031 A 
ATOM     34  C   UNL A   1      41.812  28.472  28.417  1.00  0.00     0.074 A 
ATOM     35  C   UNL A   1      39.905  27.990  29.975  1.00  0.00     0.049 A 
ATOM     36  N   UNL A   1      42.975  28.677  28.935  1.00  0.00    -0.248 NA
ATOM     37  C   UNL A   1      41.673  28.959  27.034  1.00  0.00     0.031 C 
ATOM     38  C   UNL A   1      38.665  27.345  30.420  1.00  0.00     0.029 A 
ATOM     39  N   UNL A   1      39.965  29.088  30.769  1.00  0.00    -0.354 N 
ATOM     40  C   UNL A   1      43.624  29.531  28.055  1.00  0.00     0.074 A 
ATOM     41  C   UNL A   1      42.879  29.488  26.824  1.00  0.00     0.031 C 
ATOM     42  C   UNL A   1      37.980  28.196  31.222  1.00  0.00     0.029 A 
ATOM     43  C   UNL A   1      38.795  29.376  31.463  1.00  0.00     0.049 A 
ATOM     44  H   UNL A   1      40.778  29.639  30.849  1.00  0.00     0.167 HD
ATOM     45  C   UNL A   1      44.545  30.428  28.504  1.00  0.00     0.031 A 
ATOM     46  C   UNL A   1      38.513  30.527  32.133  1.00  0.00     0.031 A 
ATOM     47  C   UNL A   1      44.998  30.101  29.831  1.00  0.00     0.049 A 
ATOM     48  C   UNL A   1      39.815  31.187  32.414  1.00  0.00     0.074 A 
ATOM     49  C   UNL A   1      45.637  29.014  30.395  1.00  0.00     0.029 A 
ATOM     50  N   UNL A   1      44.415  30.786  30.873  1.00  0.00    -0.354 N 
ATOM     51  N   UNL A   1      40.710  30.676  33.213  1.00  0.00    -0.248 NA
ATOM     52  C   UNL A   1      40.325  32.127  31.426  1.00  0.00     0.031 C 
ATOM     53  C   UNL A   1      45.011  28.840  31.664  1.00  0.00     0.029 A 
ATOM     54  C   UNL A   1      44.092  29.876  31.846  1.00  0.00     0.049 A 
ATOM     55  H   UNL A   1      44.258  31.757  30.912  1.00  0.00     0.167 HD
ATOM     56  C   UNL A   1      41.920  30.871  32.563  1.00  0.00     0.074 A 
ATOM     57  C   UNL A   1      41.628  31.836  31.501  1.00  0.00     0.031 C 
ATOM     58  C   UNL A   1      42.973  30.022  32.755  1.00  0.00     0.031 A 
BRANCH  45  59
ATOM     59  C   UNL A   1      44.683  31.811  27.921  1.00  0.00    -0.014 A 
ATOM     60  C   UNL A   1      45.916  32.189  27.359  1.00  0.00     0.010 A 
ATOM     61  C   UNL A   1      43.741  32.837  28.151  1.00  0.00     0.010 A 
ATOM     62  C   UNL A   1      46.210  33.533  27.095  1.00  0.00     0.020 A 
ATOM     63  C   UNL A   1      44.007  34.172  27.853  1.00  0.00     0.020 A 
ATOM     64  C   UNL A   1      45.253  34.515  27.352  1.00  0.00     0.054 A 
BRANCH  64  65
ATOM     65  S   UNL A   1      45.669  36.253  27.078  1.00  0.00     0.124 S 
ATOM     66  O   UNL A   1      46.492  36.179  25.875  1.00  0.00    -0.237 OA
ATOM     67  O   UNL A   1      44.352  36.861  26.912  1.00  0.00    -0.237 OA
ATOM     68  O   UNL A   1      46.377  36.631  28.299  1.00  0.00    -0.744 OA
ENDBRANCH  64  65
ENDBRANCH  45  59
BRANCH  46  69
ATOM     69  C   UNL A   1      37.219  31.264  32.188  1.00  0.00    -0.014 A 
ATOM     70  C   UNL A   1      36.814  31.959  33.347  1.00  0.00     0.010 A 
ATOM     71  C   UNL A   1      36.517  31.534  30.995  1.00  0.00     0.010 A 
ATOM     72  C   UNL A   1      35.792  32.928  33.298  1.00  0.00     0.020 A 
ATOM     73  C   UNL A   1      35.497  32.494  30.939  1.00  0.00     0.020 A 
ATOM     74  C   UNL A   1      35.154  33.205  32.086  1.00  0.00     0.054 A 
BRANCH  74  75
ATOM     75  S   UNL A   1      33.964  34.580  31.980  1.00  0.00     0.124 S 
ATOM     76  O   UNL A   1      34.752  35.711  32.459  1.00  0.00    -0.237 OA
ATOM     77  O   UNL A   1      33.625  34.601  30.560  1.00  0.00    -0.237 OA
ATOM     78  O   UNL A   1      32.879  34.163  32.866  1.00  0.00    -0.744 OA
ENDBRANCH  74  75
ENDBRANCH  46  69
BRANCH  58  79
ATOM     79  C   UNL A   1      42.895  29.018  33.886  1.00  0.00    -0.014 A 
ATOM     80  C   UNL A   1      43.398  29.238  35.184  1.00  0.00     0.010 A 
ATOM     81  C   UNL A   1      42.136  27.859  33.653  1.00  0.00     0.010 A 
ATOM     82  C   UNL A   1      43.168  28.304  36.211  1.00  0.00     0.020 A 
ATOM     83  C   UNL A   1      41.887  26.937  34.670  1.00  0.00     0.020 A 
ATOM     84  C   UNL A   1      42.415  27.156  35.943  1.00  0.00     0.054 A 
BRANCH  84  85
ATOM     85  S   UNL A   1      42.093  25.959  37.269  1.00  0.00     0.124 S 
ATOM     86  O   UNL A   1      43.020  26.384  38.313  1.00  0.00    -0.237 OA
ATOM     87  O   UNL A   1      40.677  26.168  37.559  1.00  0.00    -0.237 OA
ATOM     88  O   UNL A   1      42.406  24.667  36.655  1.00  0.00    -0.744 OA
ENDBRANCH  84  85
ENDBRANCH  58  79
ENDBRANCH  32  33
ENDBRANCH  25  27
ENDBRANCH  24  25
ENDBRANCH   1  24
TORSDOF 17
ENDMDL
MODEL 2
REMARK VINA RESULT:     -11.6      2.887      9.317
REMARK SMILES O=C(Cn1cnc(-c2ccccc2)c1-c1ccccc1)OCCOC(=O)c1ccc(-c2c3nc(c(-c4ccc(S(=O)(=O)[O-])cc4)c4ccc([nH]4)c(-c4ccc(S(=O)(=O)[O-])cc4)c4nc(c(-c5ccc(S(=O)(=O)[O-])cc5)c5ccc2[nH]5)C=C4)C=C3)cc1
REMARK SMILES IDX 23 1 22 2 21 3 2 4 1 5 3 6 4 7 5 8 14 9 6 10 7 11 15 12
REMARK SMILES IDX 16 13 20 14 17 15 19 16 18 17 8 18 9 19 13 20 10 21 12 22
REMARK SMILES IDX 11 23 24 24 25 25 26 26 27 27 28 28 86 29 29 30 85 31 30 32
REMARK SMILES IDX 31 33 32 34 79 35 33 36 84 37 78 38 80 39 34 40 83 41 77 42
REMARK SMILES IDX 76 43 35 45 65 46 46 47 64 48 47 49 50 50 63 51 81 52 48 53
REMARK SMILES IDX 49 54 62 56 82 57 51 58 36 59 37 60 45 61 38 62 44 63 39 64
REMARK SMILES IDX 40 65 41 66 42 67 43 68 66 69 67 70 75 71 68 72 74 73 69 74
REMARK SMILES IDX 70 75 71 76 72 77 73 78 52 79 53 80 61 81 54 82 60 83 55 84
REMARK SMILES IDX 56 85 57 86 58 87 59 88
REMARK H PARENT 80 44 50 55
REMARK Flexibility Score: inf
ROOT
ATOM      1  C   UNL A   1      33.036  30.478  26.679  1.00  0.00     0.275 C 
ENDROOT
BRANCH   1   2
ATOM      2  C   UNL A   1      32.816  29.798  25.335  1.00  0.00     0.274 C 
BRANCH   2   3
ATOM      3  O   UNL A   1      32.386  28.430  25.410  1.00  0.00    -0.461 OA
BRANCH   3   4
ATOM      4  C   UNL A   1      33.211  27.371  25.193  1.00  0.00     0.326 C 
ATOM      5  O   UNL A   1      34.002  27.024  26.072  1.00  0.00    -0.250 OA
BRANCH   4   6
ATOM      6  C   UNL A   1      33.208  26.684  23.845  1.00  0.00     0.246 C 
BRANCH   6   7
ATOM      7  N   UNL A   1      32.504  25.417  23.830  1.00  0.00    -0.319 N 
ATOM      8  C   UNL A   1      31.154  25.296  23.626  1.00  0.00     0.201 A 
ATOM      9  C   UNL A   1      33.015  24.154  24.067  1.00  0.00     0.076 A 
ATOM     10  N   UNL A   1      30.774  24.041  23.622  1.00  0.00    -0.236 NA
ATOM     11  C   UNL A   1      31.913  23.326  23.895  1.00  0.00     0.096 A 
BRANCH   9  12
ATOM     12  C   UNL A   1      34.417  23.786  24.272  1.00  0.00     0.000 A 
ATOM     13  C   UNL A   1      35.168  23.310  23.183  1.00  0.00     0.010 A 
ATOM     14  C   UNL A   1      35.019  23.851  25.532  1.00  0.00     0.010 A 
ATOM     15  C   UNL A   1      36.507  22.950  23.340  1.00  0.00     0.001 A 
ATOM     16  C   UNL A   1      36.359  23.479  25.692  1.00  0.00     0.001 A 
ATOM     17  C   UNL A   1      37.103  23.036  24.596  1.00  0.00     0.000 A 
ENDBRANCH   9  12
BRANCH  11  18
ATOM     18  C   UNL A   1      31.990  21.880  23.853  1.00  0.00     0.002 A 
ATOM     19  C   UNL A   1      32.011  21.245  22.608  1.00  0.00     0.010 A 
ATOM     20  C   UNL A   1      32.191  21.131  25.019  1.00  0.00     0.010 A 
ATOM     21  C   UNL A   1      32.275  19.879  22.528  1.00  0.00     0.001 A 
ATOM     22  C   UNL A   1      32.457  19.765  24.936  1.00  0.00     0.001 A 
ATOM     23  C   UNL A   1      32.507  19.143  23.689  1.00  0.00     0.000 A 
ENDBRANCH  11  18
ENDBRANCH   6   7
ENDBRANCH   4   6
ENDBRANCH   3   4
ENDBRANCH   2   3
ENDBRANCH   1   2
BRANCH   1  24
ATOM     24  O   UNL A   1      34.376  30.331  27.132  1.00  0.00    -0.458 OA
BRANCH  24  25
ATOM     25  C   UNL A   1      34.887  31.385  27.815  1.00  0.00     0.338 C 
ATOM     26  O   UNL A   1      34.507  32.530  27.786  1.00  0.00    -0.246 OA
BRANCH  25  27
ATOM     27  C   UNL A   1      36.043  30.899  28.584  1.00  0.00     0.060 A 
ATOM     28  C   UNL A   1      37.110  31.783  28.743  1.00  0.00     0.016 A 
ATOM     29  C   UNL A   1      36.137  29.549  28.959  1.00  0.00     0.016 A 
ATOM     30  C   UNL A   1      38.346  31.258  29.045  1.00  0.00     0.010 A 
ATOM     31  C   UNL A   1      37.370  29.027  29.259  1.00  0.00     0.010 A 
ATOM     32  C   UNL A   1      38.472  29.871  29.195  1.00  0.00    -0.014 A 
BRANCH  32  33
ATOM     33  C   UNL A   1      39.794  29.313  29.361  1.00  0.00     0.031 A 
ATOM     34  C   UNL A   1      40.140  29.104  30.783  1.00  0.00     0.074 A 
ATOM     35  C   UNL A   1      40.566  28.959  28.315  1.00  0.00     0.049 A 
ATOM     36  N   UNL A   1      40.951  29.809  31.494  1.00  0.00    -0.248 NA
ATOM     37  C   UNL A   1      39.330  28.149  31.560  1.00  0.00     0.031 C 
ATOM     38  C   UNL A   1      40.214  28.894  26.893  1.00  0.00     0.029 A 
ATOM     39  N   UNL A   1      41.839  28.487  28.323  1.00  0.00    -0.354 N 
ATOM     40  C   UNL A   1      40.945  29.222  32.751  1.00  0.00     0.074 A 
ATOM     41  C   UNL A   1      39.786  28.368  32.794  1.00  0.00     0.031 C 
ATOM     42  C   UNL A   1      41.157  28.182  26.229  1.00  0.00     0.029 A 
ATOM     43  C   UNL A   1      42.244  27.872  27.143  1.00  0.00     0.049 A 
ATOM     44  H   UNL A   1      42.431  28.575  29.105  1.00  0.00     0.167 HD
ATOM     45  C   UNL A   1      42.050  29.257  33.544  1.00  0.00     0.031 A 
ATOM     46  C   UNL A   1      43.366  27.121  26.966  1.00  0.00     0.031 A 
ATOM     47  C   UNL A   1      42.991  30.252  33.097  1.00  0.00     0.049 A 
ATOM     48  C   UNL A   1      44.300  27.483  28.064  1.00  0.00     0.074 A 
ATOM     49  C   UNL A   1      42.944  31.622  32.934  1.00  0.00     0.029 A 
ATOM     50  N   UNL A   1      44.046  29.810  32.332  1.00  0.00    -0.354 N 
ATOM     51  N   UNL A   1      44.838  28.665  28.175  1.00  0.00    -0.248 NA
ATOM     52  C   UNL A   1      44.225  26.713  29.298  1.00  0.00     0.031 C 
ATOM     53  C   UNL A   1      43.656  31.871  31.724  1.00  0.00     0.029 A 
ATOM     54  C   UNL A   1      44.174  30.659  31.263  1.00  0.00     0.049 A 
ATOM     55  H   UNL A   1      44.609  29.024  32.519  1.00  0.00     0.167 HD
ATOM     56  C   UNL A   1      44.761  28.965  29.528  1.00  0.00     0.074 A 
ATOM     57  C   UNL A   1      44.441  27.693  30.180  1.00  0.00     0.031 C 
ATOM     58  C   UNL A   1      44.674  30.258  29.963  1.00  0.00     0.031 A 
BRANCH  45  59
ATOM     59  C   UNL A   1      42.454  28.104  34.426  1.00  0.00    -0.014 A 
ATOM     60  C   UNL A   1      42.916  28.376  35.728  1.00  0.00     0.010 A 
ATOM     61  C   UNL A   1      42.655  26.796  33.935  1.00  0.00     0.010 A 
ATOM     62  C   UNL A   1      43.595  27.403  36.473  1.00  0.00     0.020 A 
ATOM     63  C   UNL A   1      43.291  25.808  34.684  1.00  0.00     0.020 A 
ATOM     64  C   UNL A   1      43.783  26.127  35.940  1.00  0.00     0.054 A 
BRANCH  64  65
ATOM     65  S   UNL A   1      44.726  24.904  36.879  1.00  0.00     0.124 S 
ATOM     66  O   UNL A   1      44.141  25.030  38.210  1.00  0.00    -0.237 OA
ATOM     67  O   UNL A   1      44.421  23.668  36.164  1.00  0.00    -0.237 OA
ATOM     68  O   UNL A   1      46.106  25.367  36.754  1.00  0.00    -0.744 OA
ENDBRANCH  64  65
ENDBRANCH  45  59
BRANCH  46  69
ATOM     69  C   UNL A   1      43.515  25.866  26.175  1.00  0.00    -0.014 A 
ATOM     70  C   UNL A   1      44.654  25.627  25.380  1.00  0.00     0.010 A 
ATOM     71  C   UNL A   1      42.669  24.769  26.438  1.00  0.00     0.010 A 
ATOM     72  C   UNL A   1      44.966  24.331  24.921  1.00  0.00     0.020 A 
ATOM     73  C   UNL A   1      42.970  23.478  25.984  1.00  0.00     0.020 A 
ATOM     74  C   UNL A   1      44.130  23.259  25.246  1.00  0.00     0.054 A 
BRANCH  74  75
ATOM     75  S   UNL A   1      44.624  21.560  24.812  1.00  0.00     0.124 S 
ATOM     76  O   UNL A   1      45.923  21.437  25.465  1.00  0.00    -0.237 OA
ATOM     77  O   UNL A   1      43.548  20.758  25.386  1.00  0.00    -0.237 OA
ATOM     78  O   UNL A   1      44.666  21.578  23.351  1.00  0.00    -0.744 OA
ENDBRANCH  74  75
ENDBRANCH  46  69
BRANCH  58  79
ATOM     79  C   UNL A   1      44.930  31.373  28.971  1.00  0.00    -0.014 A 
ATOM     80  C   UNL A   1      46.167  32.029  28.810  1.00  0.00     0.010 A 
ATOM     81  C   UNL A   1      43.901  31.657  28.058  1.00  0.00     0.010 A 
ATOM     82  C   UNL A   1      46.353  32.965  27.777  1.00  0.00     0.020 A 
ATOM     83  C   UNL A   1      44.084  32.569  27.019  1.00  0.00     0.020 A 
ATOM     84  C   UNL A   1      45.306  33.230  26.889  1.00  0.00     0.054 A 
BRANCH  84  85
ATOM     85  S   UNL A   1      45.547  34.418  25.537  1.00  0.00     0.124 S 
ATOM     86  O   UNL A   1      46.993  34.385  25.340  1.00  0.00    -0.237 OA
ATOM     87  O   UNL A   1      44.750  33.846  24.455  1.00  0.00    -0.237 OA
ATOM     88  O   UNL A   1      45.028  35.674  26.080  1.00  0.00    -0.744 OA
ENDBRANCH  84  85
ENDBRANCH  58  79
ENDBRANCH  32  33
ENDBRANCH  25  27
ENDBRANCH  24  25
ENDBRANCH   1  24
TORSDOF 17
ENDMDL
MODEL 3
REMARK VINA RESULT:     -11.2      3.303      7.823
REMARK SMILES O=C(Cn1cnc(-c2ccccc2)c1-c1ccccc1)OCCOC(=O)c1ccc(-c2c3nc(c(-c4ccc(S(=O)(=O)[O-])cc4)c4ccc([nH]4)c(-c4ccc(S(=O)(=O)[O-])cc4)c4nc(c(-c5ccc(S(=O)(=O)[O-])cc5)c5ccc2[nH]5)C=C4)C=C3)cc1
REMARK SMILES IDX 23 1 22 2 21 3 2 4 1 5 3 6 4 7 5 8 14 9 6 10 7 11 15 12
REMARK SMILES IDX 16 13 20 14 17 15 19 16 18 17 8 18 9 19 13 20 10 21 12 22
REMARK SMILES IDX 11 23 24 24 25 25 26 26 27 27 28 28 86 29 29 30 85 31 30 32
REMARK SMILES IDX 31 33 32 34 79 35 33 36 84 37 78 38 80 39 34 40 83 41 77 42
REMARK SMILES IDX 76 43 35 45 65 46 46 47 64 48 47 49 50 50 63 51 81 52 48 53
REMARK SMILES IDX 49 54 62 56 82 57 51 58 36 59 37 60 45 61 38 62 44 63 39 64
REMARK SMILES IDX 40 65 41 66 42 67 43 68 66 69 67 70 75 71 68 72 74 73 69 74
REMARK SMILES IDX 70 75 71 76 72 77 73 78 52 79 53 80 61 81 54 82 60 83 55 84
REMARK SMILES IDX 56 85 57 86 58 87 59 88
REMARK H PARENT 80 44 50 55
REMARK Flexibility Score: inf
ROOT
ATOM      1  C   UNL A   1      31.313  31.511  26.232  1.00  0.00     0.275 C 
ENDROOT
BRANCH   1   2
ATOM      2  C   UNL A   1      31.505  30.428  25.179  1.00  0.00     0.274 C 
BRANCH   2   3
ATOM      3  O   UNL A   1      30.325  30.094  24.431  1.00  0.00    -0.461 OA
BRANCH   3   4
ATOM      4  C   UNL A   1      30.283  29.106  23.498  1.00  0.00     0.326 C 
ATOM      5  O   UNL A   1      29.209  28.562  23.235  1.00  0.00    -0.250 OA
BRANCH   4   6
ATOM      6  C   UNL A   1      31.566  28.628  22.856  1.00  0.00     0.246 C 
BRANCH   6   7
ATOM      7  N   UNL A   1      31.903  27.251  23.164  1.00  0.00    -0.319 N 
ATOM      8  C   UNL A   1      31.685  26.203  22.309  1.00  0.00     0.201 A 
ATOM      9  C   UNL A   1      32.423  26.742  24.340  1.00  0.00     0.076 A 
ATOM     10  N   UNL A   1      32.113  25.070  22.812  1.00  0.00    -0.236 NA
ATOM     11  C   UNL A   1      32.570  25.389  24.066  1.00  0.00     0.096 A 
BRANCH   9  12
ATOM     12  C   UNL A   1      32.871  27.495  25.513  1.00  0.00     0.000 A 
ATOM     13  C   UNL A   1      34.108  28.163  25.470  1.00  0.00     0.010 A 
ATOM     14  C   UNL A   1      32.124  27.531  26.694  1.00  0.00     0.010 A 
ATOM     15  C   UNL A   1      34.567  28.889  26.570  1.00  0.00     0.001 A 
ATOM     16  C   UNL A   1      32.590  28.252  27.800  1.00  0.00     0.001 A 
ATOM     17  C   UNL A   1      33.806  28.934  27.735  1.00  0.00     0.000 A 
ENDBRANCH   9  12
BRANCH  11  18
ATOM     18  C   UNL A   1      33.262  24.460  24.935  1.00  0.00     0.002 A 
ATOM     19  C   UNL A   1      34.655  24.377  24.855  1.00  0.00     0.010 A 
ATOM     20  C   UNL A   1      32.581  23.765  25.942  1.00  0.00     0.010 A 
ATOM     21  C   UNL A   1      35.364  23.639  25.801  1.00  0.00     0.001 A 
ATOM     22  C   UNL A   1      33.292  23.029  26.890  1.00  0.00     0.001 A 
ATOM     23  C   UNL A   1      34.684  22.975  26.822  1.00  0.00     0.000 A 
ENDBRANCH  11  18
ENDBRANCH   6   7
ENDBRANCH   4   6
ENDBRANCH   3   4
ENDBRANCH   2   3
ENDBRANCH   1   2
BRANCH   1  24
ATOM     24  O   UNL A   1      32.517  31.781  26.938  1.00  0.00    -0.458 OA
BRANCH  24  25
ATOM     25  C   UNL A   1      32.632  33.029  27.454  1.00  0.00     0.338 C 
ATOM     26  O   UNL A   1      31.874  33.956  27.303  1.00  0.00    -0.246 OA
BRANCH  25  27
ATOM     27  C   UNL A   1      33.893  33.085  28.210  1.00  0.00     0.060 A 
ATOM     28  C   UNL A   1      34.938  33.811  27.640  1.00  0.00     0.016 A 
ATOM     29  C   UNL A   1      34.082  32.279  29.345  1.00  0.00     0.016 A 
ATOM     30  C   UNL A   1      36.221  33.535  28.057  1.00  0.00     0.010 A 
ATOM     31  C   UNL A   1      35.361  32.004  29.758  1.00  0.00     0.010 A 
ATOM     32  C   UNL A   1      36.415  32.557  29.040  1.00  0.00    -0.014 A 
BRANCH  32  33
ATOM     33  C   UNL A   1      37.767  32.163  29.364  1.00  0.00     0.031 A 
ATOM     34  C   UNL A   1      37.994  30.717  29.157  1.00  0.00     0.074 A 
ATOM     35  C   UNL A   1      38.710  33.052  29.732  1.00  0.00     0.049 A 
ATOM     36  N   UNL A   1      38.102  29.812  30.068  1.00  0.00    -0.248 NA
ATOM     37  C   UNL A   1      37.865  30.185  27.789  1.00  0.00     0.031 C 
ATOM     38  C   UNL A   1      38.647  34.517  29.722  1.00  0.00     0.029 A 
ATOM     39  N   UNL A   1      39.989  32.818  30.122  1.00  0.00    -0.354 N 
ATOM     40  C   UNL A   1      38.311  28.623  29.384  1.00  0.00     0.074 A 
ATOM     41  C   UNL A   1      37.936  28.872  28.016  1.00  0.00     0.031 C 
ATOM     42  C   UNL A   1      39.899  35.022  29.845  1.00  0.00     0.029 A 
ATOM     43  C   UNL A   1      40.826  33.928  30.090  1.00  0.00     0.049 A 
ATOM     44  H   UNL A   1      40.300  31.928  30.407  1.00  0.00     0.167 HD
ATOM     45  C   UNL A   1      39.052  27.622  29.932  1.00  0.00     0.031 A 
ATOM     46  C   UNL A   1      42.182  33.923  30.204  1.00  0.00     0.031 A 
ATOM     47  C   UNL A   1      39.219  27.805  31.351  1.00  0.00     0.049 A 
ATOM     48  C   UNL A   1      42.552  32.638  30.852  1.00  0.00     0.074 A 
ATOM     49  C   UNL A   1      38.354  27.884  32.424  1.00  0.00     0.029 A 
ATOM     50  N   UNL A   1      40.403  28.367  31.771  1.00  0.00    -0.354 N 
ATOM     51  N   UNL A   1      42.224  32.343  32.079  1.00  0.00    -0.248 NA
ATOM     52  C   UNL A   1      42.823  31.497  29.988  1.00  0.00     0.031 C 
ATOM     53  C   UNL A   1      38.897  28.906  33.257  1.00  0.00     0.029 A 
ATOM     54  C   UNL A   1      40.105  29.331  32.699  1.00  0.00     0.049 A 
ATOM     55  H   UNL A   1      41.304  28.121  31.459  1.00  0.00     0.167 HD
ATOM     56  C   UNL A   1      41.816  31.017  32.029  1.00  0.00     0.074 A 
ATOM     57  C   UNL A   1      42.278  30.528  30.729  1.00  0.00     0.031 C 
ATOM     58  C   UNL A   1      40.896  30.526  32.912  1.00  0.00     0.031 A 
BRANCH  45  59
ATOM     59  C   UNL A   1      39.975  26.754  29.116  1.00  0.00    -0.014 A 
ATOM     60  C   UNL A   1      41.345  27.070  29.078  1.00  0.00     0.010 A 
ATOM     61  C   UNL A   1      39.508  25.813  28.173  1.00  0.00     0.010 A 
ATOM     62  C   UNL A   1      42.190  26.515  28.109  1.00  0.00     0.020 A 
ATOM     63  C   UNL A   1      40.347  25.222  27.232  1.00  0.00     0.020 A 
ATOM     64  C   UNL A   1      41.681  25.598  27.188  1.00  0.00     0.054 A 
BRANCH  64  65
ATOM     65  S   UNL A   1      42.762  24.945  25.895  1.00  0.00     0.124 S 
ATOM     66  O   UNL A   1      44.085  25.171  26.468  1.00  0.00    -0.237 OA
ATOM     67  O   UNL A   1      42.333  23.552  25.812  1.00  0.00    -0.237 OA
ATOM     68  O   UNL A   1      42.435  25.764  24.730  1.00  0.00    -0.744 OA
ENDBRANCH  64  65
ENDBRANCH  45  59
BRANCH  46  69
ATOM     69  C   UNL A   1      43.169  34.748  29.450  1.00  0.00    -0.014 A 
ATOM     70  C   UNL A   1      43.117  34.860  28.046  1.00  0.00     0.010 A 
ATOM     71  C   UNL A   1      43.984  35.668  30.142  1.00  0.00     0.010 A 
ATOM     72  C   UNL A   1      43.803  35.890  27.369  1.00  0.00     0.020 A 
ATOM     73  C   UNL A   1      44.671  36.693  29.477  1.00  0.00     0.020 A 
ATOM     74  C   UNL A   1      44.559  36.814  28.094  1.00  0.00     0.054 A 
BRANCH  74  75
ATOM     75  S   UNL A   1      45.294  38.248  27.245  1.00  0.00     0.124 S 
ATOM     76  O   UNL A   1      44.139  38.842  26.579  1.00  0.00    -0.237 OA
ATOM     77  O   UNL A   1      45.853  39.022  28.351  1.00  0.00    -0.237 OA
ATOM     78  O   UNL A   1      46.283  37.648  26.352  1.00  0.00    -0.744 OA
ENDBRANCH  74  75
ENDBRANCH  46  69
BRANCH  58  79
ATOM     79  C   UNL A   1      40.522  31.371  34.112  1.00  0.00    -0.014 A 
ATOM     80  C   UNL A   1      41.199  31.343  35.349  1.00  0.00     0.010 A 
ATOM     81  C   UNL A   1      39.531  32.346  33.916  1.00  0.00     0.010 A 
ATOM     82  C   UNL A   1      40.867  32.254  36.368  1.00  0.00     0.020 A 
ATOM     83  C   UNL A   1      39.210  33.266  34.915  1.00  0.00     0.020 A 
ATOM     84  C   UNL A   1      39.870  33.209  36.142  1.00  0.00     0.054 A 
BRANCH  84  85
ATOM     85  S   UNL A   1      39.454  34.404  37.444  1.00  0.00     0.124 S 
ATOM     86  O   UNL A   1      40.422  34.085  38.489  1.00  0.00    -0.237 OA
ATOM     87  O   UNL A   1      39.645  35.690  36.778  1.00  0.00    -0.237 OA
ATOM     88  O   UNL A   1      38.063  34.089  37.775  1.00  0.00    -0.744 OA
ENDBRANCH  84  85
ENDBRANCH  58  79
ENDBRANCH  32  33
ENDBRANCH  25  27
ENDBRANCH  24  25
ENDBRANCH   1  24
TORSDOF 17
ENDMDL
