MODEL 1
REMARK VINA RESULT:     -12.0      0.000      0.000
REMARK SMILES O=C(OCCOC(=O)[C@H]1CC=CC[C@H]1c1nc2cc(Br)ccc2o1)c1ccc(-c2c3nc(c(-c4ccc(S(=O)(=O)[O-])cc4)c4ccc([nH]4)c(-c4ccc(S(=O)(=O)[O-])cc4)c4nc(c(-c5ccc(S(=O)(=O)[O-])cc5)c5ccc2[nH]5)C=C4)C=C3)cc1
REMARK SMILES IDX 4 1 3 2 2 3 1 4 25 5 26 6 84 7 27 8 83 9 28 10 29 11 30 12
REMARK SMILES IDX 77 13 31 14 82 15 76 16 78 17 32 18 81 19 75 20 74 21 33 23
REMARK SMILES IDX 63 24 44 25 62 26 45 27 48 28 61 29 79 30 46 31 47 32 60 34
REMARK SMILES IDX 80 35 49 36 34 37 35 38 43 39 36 40 42 41 37 42 38 43 39 44
REMARK SMILES IDX 40 45 41 46 64 47 65 48 73 49 66 50 72 51 67 52 68 53 69 54
REMARK SMILES IDX 70 55 71 56 50 57 51 58 59 59 52 60 58 61 53 62 54 63 55 64
REMARK SMILES IDX 56 65 57 66 5 67 6 68 7 69 8 70 9 71 10 72 14 73 11 74 13 75
REMARK SMILES IDX 12 76 15 77 16 78 24 79 17 80 23 81 18 82 22 83 19 84 21 85
REMARK SMILES IDX 20 86
REMARK H PARENT 78 22 48 33
REMARK Flexibility Score: inf
ROOT
ATOM      1  C   UNL A   1      33.566  29.896  26.527  1.00  0.00     0.275 C 
ENDROOT
BRANCH   1   2
ATOM      2  O   UNL A   1      33.652  30.449  27.855  1.00  0.00    -0.458 OA
BRANCH   2   3
ATOM      3  C   UNL A   1      34.575  31.425  28.007  1.00  0.00     0.338 C 
ATOM      4  O   UNL A   1      34.622  32.344  27.236  1.00  0.00    -0.246 OA
BRANCH   3   5
ATOM      5  C   UNL A   1      35.642  31.005  28.981  1.00  0.00     0.060 A 
ATOM      6  C   UNL A   1      36.578  31.926  29.441  1.00  0.00     0.016 A 
ATOM      7  C   UNL A   1      35.999  29.668  29.037  1.00  0.00     0.016 A 
ATOM      8  C   UNL A   1      37.914  31.571  29.448  1.00  0.00     0.010 A 
ATOM      9  C   UNL A   1      37.241  29.323  29.474  1.00  0.00     0.010 A 
ATOM     10  C   UNL A   1      38.236  30.242  29.264  1.00  0.00    -0.014 A 
BRANCH  10  11
ATOM     11  C   UNL A   1      39.611  29.809  29.319  1.00  0.00     0.031 A 
ATOM     12  C   UNL A   1      40.067  29.832  30.729  1.00  0.00     0.074 A 
ATOM     13  C   UNL A   1      40.242  29.350  28.215  1.00  0.00     0.049 A 
ATOM     14  N   UNL A   1      40.971  30.607  31.231  1.00  0.00    -0.248 NA
ATOM     15  C   UNL A   1      39.174  29.221  31.749  1.00  0.00     0.031 C 
ATOM     16  C   UNL A   1      39.757  29.248  26.833  1.00  0.00     0.029 A 
ATOM     17  N   UNL A   1      41.446  28.730  28.127  1.00  0.00    -0.354 N 
ATOM     18  C   UNL A   1      40.921  30.342  32.592  1.00  0.00     0.074 A 
ATOM     19  C   UNL A   1      39.622  29.799  32.859  1.00  0.00     0.031 C 
ATOM     20  C   UNL A   1      40.508  28.351  26.149  1.00  0.00     0.029 A 
ATOM     21  C   UNL A   1      41.598  27.918  26.998  1.00  0.00     0.049 A 
ATOM     22  H   UNL A   1      42.154  28.842  28.803  1.00  0.00     0.167 HD
ATOM     23  C   UNL A   1      42.063  30.166  33.303  1.00  0.00     0.031 A 
ATOM     24  C   UNL A   1      42.487  26.887  26.889  1.00  0.00     0.031 A 
ATOM     25  C   UNL A   1      43.180  30.799  32.661  1.00  0.00     0.049 A 
ATOM     26  C   UNL A   1      43.530  27.149  27.927  1.00  0.00     0.074 A 
ATOM     27  C   UNL A   1      43.431  32.107  32.295  1.00  0.00     0.029 A 
ATOM     28  N   UNL A   1      43.979  30.009  31.865  1.00  0.00    -0.354 N 
ATOM     29  N   UNL A   1      44.319  28.191  27.875  1.00  0.00    -0.248 NA
ATOM     30  C   UNL A   1      43.282  26.608  29.259  1.00  0.00     0.031 C 
ATOM     31  C   UNL A   1      44.002  32.022  30.997  1.00  0.00     0.029 A 
ATOM     32  C   UNL A   1      44.199  30.675  30.681  1.00  0.00     0.049 A 
ATOM     33  H   UNL A   1      44.331  29.122  32.101  1.00  0.00     0.167 HD
ATOM     34  C   UNL A   1      44.315  28.699  29.168  1.00  0.00     0.074 A 
ATOM     35  C   UNL A   1      43.668  27.665  29.982  1.00  0.00     0.031 C 
ATOM     36  C   UNL A   1      44.518  30.026  29.422  1.00  0.00     0.031 A 
BRANCH  23  37
ATOM     37  C   UNL A   1      42.173  29.080  34.336  1.00  0.00    -0.014 A 
ATOM     38  C   UNL A   1      42.020  27.705  34.032  1.00  0.00     0.010 A 
ATOM     39  C   UNL A   1      42.630  29.398  35.621  1.00  0.00     0.010 A 
ATOM     40  C   UNL A   1      42.213  26.702  34.975  1.00  0.00     0.020 A 
ATOM     41  C   UNL A   1      42.878  28.393  36.566  1.00  0.00     0.020 A 
ATOM     42  C   UNL A   1      42.640  27.056  36.243  1.00  0.00     0.054 A 
BRANCH  42  43
ATOM     43  S   UNL A   1      42.892  25.729  37.440  1.00  0.00     0.124 S 
ATOM     44  O   UNL A   1      41.534  25.217  37.607  1.00  0.00    -0.237 OA
ATOM     45  O   UNL A   1      43.817  24.844  36.738  1.00  0.00    -0.237 OA
ATOM     46  O   UNL A   1      43.447  26.419  38.602  1.00  0.00    -0.744 OA
ENDBRANCH  42  43
ENDBRANCH  23  37
BRANCH  24  47
ATOM     47  C   UNL A   1      42.171  25.496  26.423  1.00  0.00    -0.014 A 
ATOM     48  C   UNL A   1      41.039  24.829  26.934  1.00  0.00     0.010 A 
ATOM     49  C   UNL A   1      43.127  24.709  25.741  1.00  0.00     0.010 A 
ATOM     50  C   UNL A   1      40.908  23.435  26.864  1.00  0.00     0.020 A 
ATOM     51  C   UNL A   1      42.998  23.305  25.661  1.00  0.00     0.020 A 
ATOM     52  C   UNL A   1      41.910  22.676  26.267  1.00  0.00     0.054 A 
BRANCH  52  53
ATOM     53  S   UNL A   1      41.804  20.866  26.413  1.00  0.00     0.124 S 
ATOM     54  O   UNL A   1      42.200  20.652  27.803  1.00  0.00    -0.237 OA
ATOM     55  O   UNL A   1      40.396  20.606  26.118  1.00  0.00    -0.237 OA
ATOM     56  O   UNL A   1      42.748  20.377  25.412  1.00  0.00    -0.744 OA
ENDBRANCH  52  53
ENDBRANCH  24  47
BRANCH  36  57
ATOM     57  C   UNL A   1      44.929  30.959  28.293  1.00  0.00    -0.014 A 
ATOM     58  C   UNL A   1      46.141  31.646  28.469  1.00  0.00     0.010 A 
ATOM     59  C   UNL A   1      44.089  31.359  27.228  1.00  0.00     0.010 A 
ATOM     60  C   UNL A   1      46.491  32.726  27.659  1.00  0.00     0.020 A 
ATOM     61  C   UNL A   1      44.450  32.432  26.387  1.00  0.00     0.020 A 
ATOM     62  C   UNL A   1      45.641  33.122  26.627  1.00  0.00     0.054 A 
BRANCH  62  63
ATOM     63  S   UNL A   1      46.132  34.565  25.640  1.00  0.00     0.124 S 
ATOM     64  O   UNL A   1      45.272  34.445  24.465  1.00  0.00    -0.237 OA
ATOM     65  O   UNL A   1      45.816  35.681  26.529  1.00  0.00    -0.237 OA
ATOM     66  O   UNL A   1      47.556  34.358  25.392  1.00  0.00    -0.744 OA
ENDBRANCH  62  63
ENDBRANCH  36  57
ENDBRANCH  10  11
ENDBRANCH   3   5
ENDBRANCH   2   3
ENDBRANCH   1   2
BRANCH   1  67
ATOM     67  C   UNL A   1      33.910  28.390  26.231  1.00  0.00     0.274 C 
BRANCH  67  68
ATOM     68  O   UNL A   1      32.796  27.452  26.263  1.00  0.00    -0.462 OA
BRANCH  68  69
ATOM     69  C   UNL A   1      32.901  26.194  25.746  1.00  0.00     0.310 C 
ATOM     70  O   UNL A   1      33.812  25.912  24.976  1.00  0.00    -0.252 OA
BRANCH  69  71
ATOM     71  C   UNL A   1      31.674  25.243  26.108  1.00  0.00     0.115 C 
ATOM     72  C   UNL A   1      30.419  26.166  26.031  1.00  0.00     0.043 C 
ATOM     73  C   UNL A   1      31.263  23.932  25.295  1.00  0.00     0.094 C 
ATOM     74  C   UNL A   1      30.038  26.432  24.601  1.00  0.00    -0.030 C 
ATOM     75  C   UNL A   1      31.088  24.292  23.815  1.00  0.00     0.041 C 
ATOM     76  C   UNL A   1      30.386  25.606  23.602  1.00  0.00    -0.030 C 
BRANCH  73  77
ATOM     77  C   UNL A   1      31.961  22.565  25.421  1.00  0.00     0.199 A 
ATOM     78  N   UNL A   1      31.442  21.344  25.357  1.00  0.00    -0.213 NA
ATOM     79  O   UNL A   1      33.323  22.529  25.719  1.00  0.00    -0.440 OA
ATOM     80  C   UNL A   1      32.536  20.528  25.150  1.00  0.00     0.111 A 
ATOM     81  C   UNL A   1      33.697  21.234  25.411  1.00  0.00     0.154 A 
ATOM     82  C   UNL A   1      32.631  19.224  24.632  1.00  0.00     0.048 A 
ATOM     83  C   UNL A   1      34.986  20.720  25.235  1.00  0.00     0.050 A 
ATOM     84  C   UNL A   1      33.909  18.705  24.376  1.00  0.00     0.020 A 
ATOM     85  C   UNL A   1      35.067  19.429  24.683  1.00  0.00     0.019 A 
ATOM     86  Br  UNL A   1      34.069  17.011  23.536  1.00  0.00    -0.051 Br
ENDBRANCH  73  77
ENDBRANCH  69  71
ENDBRANCH  68  69
ENDBRANCH  67  68
ENDBRANCH   1  67
TORSDOF 15
ENDMDL
MODEL 2
REMARK VINA RESULT:     -11.6      3.775      7.965
REMARK SMILES O=C(OCCOC(=O)[C@H]1CC=CC[C@H]1c1nc2cc(Br)ccc2o1)c1ccc(-c2c3nc(c(-c4ccc(S(=O)(=O)[O-])cc4)c4ccc([nH]4)c(-c4ccc(S(=O)(=O)[O-])cc4)c4nc(c(-c5ccc(S(=O)(=O)[O-])cc5)c5ccc2[nH]5)C=C4)C=C3)cc1
REMARK SMILES IDX 4 1 3 2 2 3 1 4 25 5 26 6 84 7 27 8 83 9 28 10 29 11 30 12
REMARK SMILES IDX 77 13 31 14 82 15 76 16 78 17 32 18 81 19 75 20 74 21 33 23
REMARK SMILES IDX 63 24 44 25 62 26 45 27 48 28 61 29 79 30 46 31 47 32 60 34
REMARK SMILES IDX 80 35 49 36 34 37 35 38 43 39 36 40 42 41 37 42 38 43 39 44
REMARK SMILES IDX 40 45 41 46 64 47 65 48 73 49 66 50 72 51 67 52 68 53 69 54
REMARK SMILES IDX 70 55 71 56 50 57 51 58 59 59 52 60 58 61 53 62 54 63 55 64
REMARK SMILES IDX 56 65 57 66 5 67 6 68 7 69 8 70 9 71 10 72 14 73 11 74 13 75
REMARK SMILES IDX 12 76 15 77 16 78 24 79 17 80 23 81 18 82 22 83 19 84 21 85
REMARK SMILES IDX 20 86
REMARK H PARENT 78 22 48 33
REMARK Flexibility Score: inf
ROOT
ATOM      1  C   UNL A   1      37.406  20.914  24.955  1.00  0.00     0.275 C 
ENDROOT
BRANCH   1   2
ATOM      2  O   UNL A   1      38.551  21.260  25.759  1.00  0.00    -0.458 OA
BRANCH   2   3
ATOM      3  C   UNL A   1      39.557  20.358  25.736  1.00  0.00     0.338 C 
ATOM      4  O   UNL A   1      39.343  19.214  25.445  1.00  0.00    -0.246 OA
BRANCH   3   5
ATOM      5  C   UNL A   1      40.780  20.905  26.422  1.00  0.00     0.060 A 
ATOM      6  C   UNL A   1      40.834  20.982  27.810  1.00  0.00     0.016 A 
ATOM      7  C   UNL A   1      41.611  21.757  25.715  1.00  0.00     0.016 A 
ATOM      8  C   UNL A   1      41.275  22.155  28.396  1.00  0.00     0.010 A 
ATOM      9  C   UNL A   1      42.384  22.653  26.389  1.00  0.00     0.010 A 
ATOM     10  C   UNL A   1      41.898  23.088  27.594  1.00  0.00    -0.014 A 
BRANCH  10  11
ATOM     11  C   UNL A   1      42.428  24.303  28.164  1.00  0.00     0.031 A 
ATOM     12  C   UNL A   1      41.466  25.405  27.929  1.00  0.00     0.074 A 
ATOM     13  C   UNL A   1      43.568  24.293  28.891  1.00  0.00     0.049 A 
ATOM     14  N   UNL A   1      41.654  26.443  27.182  1.00  0.00    -0.248 NA
ATOM     15  C   UNL A   1      40.035  25.142  28.231  1.00  0.00     0.031 C 
ATOM     16  C   UNL A   1      44.475  23.179  29.194  1.00  0.00     0.029 A 
ATOM     17  N   UNL A   1      44.094  25.287  29.650  1.00  0.00    -0.354 N 
ATOM     18  C   UNL A   1      40.422  27.081  27.179  1.00  0.00     0.074 A 
ATOM     19  C   UNL A   1      39.442  26.089  27.510  1.00  0.00     0.031 C 
ATOM     20  C   UNL A   1      45.223  23.481  30.284  1.00  0.00     0.029 A 
ATOM     21  C   UNL A   1      44.943  24.848  30.671  1.00  0.00     0.049 A 
ATOM     22  H   UNL A   1      43.894  26.239  29.495  1.00  0.00     0.167 HD
ATOM     23  C   UNL A   1      40.341  28.425  27.348  1.00  0.00     0.031 A 
ATOM     24  C   UNL A   1      45.243  25.557  31.799  1.00  0.00     0.031 A 
ATOM     25  C   UNL A   1      41.569  29.072  26.979  1.00  0.00     0.049 A 
ATOM     26  C   UNL A   1      44.934  26.981  31.468  1.00  0.00     0.074 A 
ATOM     27  C   UNL A   1      42.287  29.112  25.800  1.00  0.00     0.029 A 
ATOM     28  N   UNL A   1      42.457  29.360  27.990  1.00  0.00    -0.354 N 
ATOM     29  N   UNL A   1      45.593  27.643  30.552  1.00  0.00    -0.248 NA
ATOM     30  C   UNL A   1      43.569  27.433  31.717  1.00  0.00     0.031 C 
ATOM     31  C   UNL A   1      43.644  28.954  26.192  1.00  0.00     0.029 A 
ATOM     32  C   UNL A   1      43.710  28.959  27.587  1.00  0.00     0.049 A 
ATOM     33  H   UNL A   1      42.235  29.779  28.852  1.00  0.00     0.167 HD
ATOM     34  C   UNL A   1      44.611  28.291  29.813  1.00  0.00     0.074 A 
ATOM     35  C   UNL A   1      43.380  28.135  30.595  1.00  0.00     0.031 C 
ATOM     36  C   UNL A   1      44.787  28.600  28.494  1.00  0.00     0.031 A 
BRANCH  23  37
ATOM     37  C   UNL A   1      39.284  29.034  28.226  1.00  0.00    -0.014 A 
ATOM     38  C   UNL A   1      39.396  29.103  29.636  1.00  0.00     0.010 A 
ATOM     39  C   UNL A   1      38.223  29.735  27.638  1.00  0.00     0.010 A 
ATOM     40  C   UNL A   1      38.457  29.748  30.433  1.00  0.00     0.020 A 
ATOM     41  C   UNL A   1      37.298  30.432  28.427  1.00  0.00     0.020 A 
ATOM     42  C   UNL A   1      37.407  30.408  29.819  1.00  0.00     0.054 A 
BRANCH  42  43
ATOM     43  S   UNL A   1      36.211  31.246  30.881  1.00  0.00     0.124 S 
ATOM     44  O   UNL A   1      35.150  31.573  29.931  1.00  0.00    -0.237 OA
ATOM     45  O   UNL A   1      35.884  30.214  31.860  1.00  0.00    -0.237 OA
ATOM     46  O   UNL A   1      36.958  32.388  31.401  1.00  0.00    -0.744 OA
ENDBRANCH  42  43
ENDBRANCH  23  37
BRANCH  24  47
ATOM     47  C   UNL A   1      45.176  25.044  33.207  1.00  0.00    -0.014 A 
ATOM     48  C   UNL A   1      46.177  25.408  34.131  1.00  0.00     0.010 A 
ATOM     49  C   UNL A   1      44.337  23.963  33.562  1.00  0.00     0.010 A 
ATOM     50  C   UNL A   1      46.403  24.674  35.304  1.00  0.00     0.020 A 
ATOM     51  C   UNL A   1      44.555  23.222  34.745  1.00  0.00     0.020 A 
ATOM     52  C   UNL A   1      45.620  23.558  35.583  1.00  0.00     0.054 A 
BRANCH  52  53
ATOM     53  S   UNL A   1      46.107  22.508  36.986  1.00  0.00     0.124 S 
ATOM     54  O   UNL A   1      47.562  22.635  36.966  1.00  0.00    -0.237 OA
ATOM     55  O   UNL A   1      45.439  23.157  38.113  1.00  0.00    -0.237 OA
ATOM     56  O   UNL A   1      45.588  21.189  36.635  1.00  0.00    -0.744 OA
ENDBRANCH  52  53
ENDBRANCH  24  47
BRANCH  36  57
ATOM     57  C   UNL A   1      46.146  28.393  27.843  1.00  0.00    -0.014 A 
ATOM     58  C   UNL A   1      46.448  27.079  27.447  1.00  0.00     0.010 A 
ATOM     59  C   UNL A   1      47.191  29.345  27.832  1.00  0.00     0.010 A 
ATOM     60  C   UNL A   1      47.746  26.702  27.103  1.00  0.00     0.020 A 
ATOM     61  C   UNL A   1      48.500  28.977  27.458  1.00  0.00     0.020 A 
ATOM     62  C   UNL A   1      48.770  27.649  27.119  1.00  0.00     0.054 A 
BRANCH  62  63
ATOM     63  S   UNL A   1      50.446  27.082  26.707  1.00  0.00     0.124 S 
ATOM     64  O   UNL A   1      50.184  25.999  25.762  1.00  0.00    -0.237 OA
ATOM     65  O   UNL A   1      51.053  28.279  26.128  1.00  0.00    -0.237 OA
ATOM     66  O   UNL A   1      51.004  26.665  27.991  1.00  0.00    -0.744 OA
ENDBRANCH  62  63
ENDBRANCH  36  57
ENDBRANCH  10  11
ENDBRANCH   3   5
ENDBRANCH   2   3
ENDBRANCH   1   2
BRANCH   1  67
ATOM     67  C   UNL A   1      35.945  21.326  25.368  1.00  0.00     0.274 C 
BRANCH  67  68
ATOM     68  O   UNL A   1      35.071  21.780  24.295  1.00  0.00    -0.462 OA
BRANCH  68  69
ATOM     69  C   UNL A   1      34.447  22.991  24.342  1.00  0.00     0.310 C 
ATOM     70  O   UNL A   1      34.883  23.890  25.052  1.00  0.00    -0.252 OA
BRANCH  69  71
ATOM     71  C   UNL A   1      33.069  23.038  23.541  1.00  0.00     0.115 C 
ATOM     72  C   UNL A   1      32.534  21.573  23.584  1.00  0.00     0.043 C 
ATOM     73  C   UNL A   1      31.811  23.939  23.935  1.00  0.00     0.094 C 
ATOM     74  C   UNL A   1      31.958  21.253  24.935  1.00  0.00    -0.030 C 
ATOM     75  C   UNL A   1      31.435  23.664  25.396  1.00  0.00     0.041 C 
ATOM     76  C   UNL A   1      31.509  22.207  25.765  1.00  0.00    -0.030 C 
BRANCH  73  77
ATOM     77  C   UNL A   1      31.681  25.444  23.637  1.00  0.00     0.199 A 
ATOM     78  N   UNL A   1      31.161  26.052  22.577  1.00  0.00    -0.213 NA
ATOM     79  O   UNL A   1      32.235  26.359  24.533  1.00  0.00    -0.440 OA
ATOM     80  C   UNL A   1      30.961  27.350  23.002  1.00  0.00     0.111 A 
ATOM     81  C   UNL A   1      31.652  27.563  24.182  1.00  0.00     0.154 A 
ATOM     82  C   UNL A   1      30.121  28.365  22.510  1.00  0.00     0.048 A 
ATOM     83  C   UNL A   1      31.610  28.754  24.913  1.00  0.00     0.050 A 
ATOM     84  C   UNL A   1      30.001  29.545  23.258  1.00  0.00     0.020 A 
ATOM     85  C   UNL A   1      30.738  29.746  24.430  1.00  0.00     0.019 A 
ATOM     86  Br  UNL A   1      28.761  30.870  22.703  1.00  0.00    -0.051 Br
ENDBRANCH  73  77
ENDBRANCH  69  71
ENDBRANCH  68  69
ENDBRANCH  67  68
ENDBRANCH   1  67
TORSDOF 15
ENDMDL
MODEL 3
REMARK VINA RESULT:     -11.5      3.101      8.123
REMARK SMILES O=C(OCCOC(=O)[C@H]1CC=CC[C@H]1c1nc2cc(Br)ccc2o1)c1ccc(-c2c3nc(c(-c4ccc(S(=O)(=O)[O-])cc4)c4ccc([nH]4)c(-c4ccc(S(=O)(=O)[O-])cc4)c4nc(c(-c5ccc(S(=O)(=O)[O-])cc5)c5ccc2[nH]5)C=C4)C=C3)cc1
REMARK SMILES IDX 4 1 3 2 2 3 1 4 25 5 26 6 84 7 27 8 83 9 28 10 29 11 30 12
REMARK SMILES IDX 77 13 31 14 82 15 76 16 78 17 32 18 81 19 75 20 74 21 33 23
REMARK SMILES IDX 63 24 44 25 62 26 45 27 48 28 61 29 79 30 46 31 47 32 60 34
REMARK SMILES IDX 80 35 49 36 34 37 35 38 43 39 36 40 42 41 37 42 38 43 39 44
REMARK SMILES IDX 40 45 41 46 64 47 65 48 73 49 66 50 72 51 67 52 68 53 69 54
REMARK SMILES IDX 70 55 71 56 50 57 51 58 59 59 52 60 58 61 53 62 54 63 55 64
REMARK SMILES IDX 56 65 57 66 5 67 6 68 7 69 8 70 9 71 10 72 14 73 11 74 13 75
REMARK SMILES IDX 12 76 15 77 16 78 24 79 17 80 23 81 18 82 22 83 19 84 21 85
REMARK SMILES IDX 20 86
REMARK H PARENT 78 22 48 33
REMARK Flexibility Score: inf
ROOT
ATOM      1  C   UNL A   1      34.136  28.919  27.091  1.00  0.00     0.275 C 
ENDROOT
BRANCH   1   2
ATOM      2  O   UNL A   1      34.044  30.260  26.570  1.00  0.00    -0.458 OA
BRANCH   2   3
ATOM      3  C   UNL A   1      33.407  31.141  27.374  1.00  0.00     0.338 C 
ATOM      4  O   UNL A   1      32.261  31.434  27.169  1.00  0.00    -0.246 OA
BRANCH   3   5
ATOM      5  C   UNL A   1      34.389  31.879  28.243  1.00  0.00     0.060 A 
ATOM      6  C   UNL A   1      35.285  32.783  27.681  1.00  0.00     0.016 A 
ATOM      7  C   UNL A   1      34.739  31.327  29.464  1.00  0.00     0.016 A 
ATOM      8  C   UNL A   1      36.616  32.719  28.051  1.00  0.00     0.010 A 
ATOM      9  C   UNL A   1      35.941  31.640  30.022  1.00  0.00     0.010 A 
ATOM     10  C   UNL A   1      36.950  31.958  29.152  1.00  0.00    -0.014 A 
BRANCH  10  11
ATOM     11  C   UNL A   1      38.315  31.903  29.615  1.00  0.00     0.031 A 
ATOM     12  C   UNL A   1      38.842  30.534  29.399  1.00  0.00     0.074 A 
ATOM     13  C   UNL A   1      38.955  33.017  30.036  1.00  0.00     0.049 A 
ATOM     14  N   UNL A   1      39.181  29.689  30.317  1.00  0.00    -0.248 NA
ATOM     15  C   UNL A   1      38.602  29.907  28.074  1.00  0.00     0.031 C 
ATOM     16  C   UNL A   1      38.454  34.391  30.165  1.00  0.00     0.029 A 
ATOM     17  N   UNL A   1      40.273  33.180  30.312  1.00  0.00    -0.354 N 
ATOM     18  C   UNL A   1      39.462  28.526  29.613  1.00  0.00     0.074 A 
ATOM     19  C   UNL A   1      38.764  28.620  28.365  1.00  0.00     0.031 C 
ATOM     20  C   UNL A   1      39.495  35.258  30.186  1.00  0.00     0.029 A 
ATOM     21  C   UNL A   1      40.728  34.499  30.204  1.00  0.00     0.049 A 
ATOM     22  H   UNL A   1      40.861  32.432  30.568  1.00  0.00     0.167 HD
ATOM     23  C   UNL A   1      40.570  27.798  29.898  1.00  0.00     0.031 A 
ATOM     24  C   UNL A   1      42.029  34.864  30.004  1.00  0.00     0.031 A 
ATOM     25  C   UNL A   1      41.024  28.041  31.239  1.00  0.00     0.049 A 
ATOM     26  C   UNL A   1      42.843  33.688  30.437  1.00  0.00     0.074 A 
ATOM     27  C   UNL A   1      40.421  27.886  32.472  1.00  0.00     0.029 A 
ATOM     28  N   UNL A   1      42.028  28.968  31.406  1.00  0.00    -0.354 N 
ATOM     29  N   UNL A   1      42.868  33.276  31.678  1.00  0.00    -0.248 NA
ATOM     30  C   UNL A   1      43.121  32.673  29.426  1.00  0.00     0.031 C 
ATOM     31  C   UNL A   1      40.771  29.055  33.200  1.00  0.00     0.029 A 
ATOM     32  C   UNL A   1      41.673  29.804  32.439  1.00  0.00     0.049 A 
ATOM     33  H   UNL A   1      42.855  29.023  30.877  1.00  0.00     0.167 HD
ATOM     34  C   UNL A   1      42.728  31.896  31.592  1.00  0.00     0.074 A 
ATOM     35  C   UNL A   1      42.907  31.582  30.171  1.00  0.00     0.031 C 
ATOM     36  C   UNL A   1      42.153  31.166  32.593  1.00  0.00     0.031 A 
BRANCH  23  37
ATOM     37  C   UNL A   1      41.415  27.212  28.802  1.00  0.00    -0.014 A 
ATOM     38  C   UNL A   1      42.397  27.956  28.101  1.00  0.00     0.010 A 
ATOM     39  C   UNL A   1      41.383  25.831  28.573  1.00  0.00     0.010 A 
ATOM     40  C   UNL A   1      43.236  27.384  27.153  1.00  0.00     0.020 A 
ATOM     41  C   UNL A   1      42.259  25.233  27.656  1.00  0.00     0.020 A 
ATOM     42  C   UNL A   1      43.158  26.020  26.934  1.00  0.00     0.054 A 
BRANCH  42  43
ATOM     43  S   UNL A   1      44.270  25.306  25.704  1.00  0.00     0.124 S 
ATOM     44  O   UNL A   1      44.762  26.500  25.020  1.00  0.00    -0.237 OA
ATOM     45  O   UNL A   1      45.247  24.606  26.532  1.00  0.00    -0.237 OA
ATOM     46  O   UNL A   1      43.394  24.448  24.910  1.00  0.00    -0.744 OA
ENDBRANCH  42  43
ENDBRANCH  23  37
BRANCH  24  47
ATOM     47  C   UNL A   1      42.525  35.826  28.966  1.00  0.00    -0.014 A 
ATOM     48  C   UNL A   1      43.629  36.655  29.252  1.00  0.00     0.010 A 
ATOM     49  C   UNL A   1      41.745  36.163  27.836  1.00  0.00     0.010 A 
ATOM     50  C   UNL A   1      43.888  37.821  28.518  1.00  0.00     0.020 A 
ATOM     51  C   UNL A   1      42.004  37.333  27.088  1.00  0.00     0.020 A 
ATOM     52  C   UNL A   1      43.048  38.178  27.468  1.00  0.00     0.054 A 
BRANCH  52  53
ATOM     53  S   UNL A   1      43.289  39.812  26.706  1.00  0.00     0.124 S 
ATOM     54  O   UNL A   1      42.070  39.957  25.913  1.00  0.00    -0.237 OA
ATOM     55  O   UNL A   1      43.384  40.693  27.869  1.00  0.00    -0.237 OA
ATOM     56  O   UNL A   1      44.522  39.664  25.938  1.00  0.00    -0.744 OA
ENDBRANCH  52  53
ENDBRANCH  24  47
BRANCH  36  57
ATOM     57  C   UNL A   1      41.804  31.835  33.914  1.00  0.00    -0.014 A 
ATOM     58  C   UNL A   1      42.683  31.590  34.982  1.00  0.00     0.010 A 
ATOM     59  C   UNL A   1      40.571  32.463  34.202  1.00  0.00     0.010 A 
ATOM     60  C   UNL A   1      42.338  31.903  36.297  1.00  0.00     0.020 A 
ATOM     61  C   UNL A   1      40.226  32.807  35.525  1.00  0.00     0.020 A 
ATOM     62  C   UNL A   1      41.107  32.501  36.566  1.00  0.00     0.054 A 
BRANCH  62  63
ATOM     63  S   UNL A   1      40.698  32.838  38.303  1.00  0.00     0.124 S 
ATOM     64  O   UNL A   1      40.926  34.278  38.402  1.00  0.00    -0.237 OA
ATOM     65  O   UNL A   1      39.299  32.423  38.387  1.00  0.00    -0.237 OA
ATOM     66  O   UNL A   1      41.635  32.008  39.056  1.00  0.00    -0.744 OA
ENDBRANCH  62  63
ENDBRANCH  36  57
ENDBRANCH  10  11
ENDBRANCH   3   5
ENDBRANCH   2   3
ENDBRANCH   1   2
BRANCH   1  67
ATOM     67  C   UNL A   1      32.941  27.902  26.981  1.00  0.00     0.274 C 
BRANCH  67  68
ATOM     68  O   UNL A   1      32.616  27.426  25.643  1.00  0.00    -0.462 OA
BRANCH  68  69
ATOM     69  C   UNL A   1      32.772  26.118  25.289  1.00  0.00     0.310 C 
ATOM     70  O   UNL A   1      33.673  25.782  24.529  1.00  0.00    -0.252 OA
BRANCH  69  71
ATOM     71  C   UNL A   1      31.607  25.165  25.814  1.00  0.00     0.115 C 
ATOM     72  C   UNL A   1      30.316  26.039  25.743  1.00  0.00     0.043 C 
ATOM     73  C   UNL A   1      31.191  23.775  25.147  1.00  0.00     0.094 C 
ATOM     74  C   UNL A   1      29.832  26.165  24.325  1.00  0.00    -0.030 C 
ATOM     75  C   UNL A   1      30.907  23.998  23.657  1.00  0.00     0.041 C 
ATOM     76  C   UNL A   1      30.145  25.265  23.380  1.00  0.00    -0.030 C 
BRANCH  73  77
ATOM     77  C   UNL A   1      31.946  22.447  25.341  1.00  0.00     0.199 A 
ATOM     78  N   UNL A   1      31.472  21.208  25.403  1.00  0.00    -0.213 NA
ATOM     79  O   UNL A   1      33.322  22.481  25.567  1.00  0.00    -0.440 OA
ATOM     80  C   UNL A   1      32.583  20.415  25.201  1.00  0.00     0.111 A 
ATOM     81  C   UNL A   1      33.729  21.179  25.342  1.00  0.00     0.154 A 
ATOM     82  C   UNL A   1      32.701  19.078  24.782  1.00  0.00     0.048 A 
ATOM     83  C   UNL A   1      35.025  20.695  25.137  1.00  0.00     0.050 A 
ATOM     84  C   UNL A   1      33.982  18.583  24.499  1.00  0.00     0.020 A 
ATOM     85  C   UNL A   1      35.126  19.368  24.684  1.00  0.00     0.019 A 
ATOM     86  Br  UNL A   1      34.162  16.833  23.788  1.00  0.00    -0.051 Br
ENDBRANCH  73  77
ENDBRANCH  69  71
ENDBRANCH  68  69
ENDBRANCH  67  68
ENDBRANCH   1  67
TORSDOF 15
ENDMDL
