MODEL 1
REMARK VINA RESULT:     -12.4      0.000      0.000
REMARK SMILES CC1(C)[C@@]2(C(=O)OCCOC(=O)c3ccc(-c4c5nc(c(-c6ccc(S(=O)(=O)[O-])cc6)c6ccc([nH]6)c(-c6ccc(S(=O)(=O)[O-])cc6)c6nc(c(-c7ccc(S(=O)(=O)[O-])cc7)c7ccc4[nH]7)C=C6)C=C5)cc3)CC[C@]1(C)/C(=N/NC(=O)c1ccc(Cl)cc1)C2
REMARK SMILES IDX 9 1 8 2 7 3 5 4 6 5 4 6 1 7 2 8 3 9 75 10 73 11 89 12 74 13
REMARK SMILES IDX 76 14 77 15 78 16 79 17 80 18 81 20 82 21 83 22 88 23 84 24
REMARK SMILES IDX 87 25 85 26 86 27 10 28 11 29 12 30 13 31 14 32 72 33 15 34
REMARK SMILES IDX 71 35 16 36 17 37 18 38 65 39 19 40 70 41 64 42 66 43 20 44
REMARK SMILES IDX 69 45 63 46 62 47 21 49 51 50 32 51 50 52 33 53 36 54 49 55
REMARK SMILES IDX 67 56 34 57 35 58 48 60 68 61 37 62 22 63 23 64 31 65 24 66
REMARK SMILES IDX 30 67 25 68 26 69 27 70 28 71 29 72 52 73 53 74 61 75 54 76
REMARK SMILES IDX 60 77 55 78 56 79 57 80 58 81 59 82 38 83 39 84 47 85 40 86
REMARK SMILES IDX 46 87 41 88 42 89 43 90 44 91 45 92
REMARK H PARENT 79 19 66 48 36 59
REMARK Flexibility Score: inf
ROOT
ATOM      1  C   UNL A   1      34.514  30.693  27.249  1.00  0.00     0.275 C 
ENDROOT
BRANCH   1   2
ATOM      2  C   UNL A   1      33.012  30.382  27.317  1.00  0.00     0.274 C 
BRANCH   2   3
ATOM      3  O   UNL A   1      32.606  29.211  26.552  1.00  0.00    -0.462 OA
BRANCH   3   4
ATOM      4  C   UNL A   1      31.809  29.456  25.469  1.00  0.00     0.313 C 
ATOM      5  O   UNL A   1      31.247  30.528  25.274  1.00  0.00    -0.252 OA
BRANCH   4   6
ATOM      6  C   UNL A   1      31.580  28.238  24.565  1.00  0.00     0.079 C 
ATOM      7  C   UNL A   1      33.385  28.862  22.770  1.00  0.00     0.013 C 
ATOM      8  C   UNL A   1      32.788  27.773  23.687  1.00  0.00    -0.008 C 
ATOM      9  C   UNL A   1      33.935  27.104  24.474  1.00  0.00     0.013 C 
ATOM     10  C   UNL A   1      31.930  26.711  22.934  1.00  0.00     0.014 C 
ATOM     11  C   UNL A   1      30.495  28.571  23.494  1.00  0.00     0.021 C 
ATOM     12  C   UNL A   1      31.140  26.923  25.259  1.00  0.00     0.073 C 
ATOM     13  C   UNL A   1      30.719  27.508  22.403  1.00  0.00     0.014 C 
ATOM     14  C   UNL A   1      32.645  25.897  21.877  1.00  0.00     0.018 C 
ATOM     15  C   UNL A   1      31.356  25.933  24.149  1.00  0.00     0.046 C 
ATOM     16  N   UNL A   1      31.131  24.668  24.030  1.00  0.00    -0.181 NA
BRANCH  16  17
ATOM     17  N   UNL A   1      30.643  23.688  24.825  1.00  0.00    -0.243 N 
ATOM     18  C   UNL A   1      31.030  22.602  25.576  1.00  0.00     0.271 C 
ATOM     19  H   UNL A   1      29.665  23.786  24.887  1.00  0.00     0.194 HD
ATOM     20  O   UNL A   1      30.163  21.920  26.131  1.00  0.00    -0.267 OA
BRANCH  18  21
ATOM     21  C   UNL A   1      32.399  22.117  25.690  1.00  0.00     0.041 A 
ATOM     22  C   UNL A   1      32.685  20.852  25.164  1.00  0.00     0.015 A 
ATOM     23  C   UNL A   1      33.386  22.847  26.342  1.00  0.00     0.015 A 
ATOM     24  C   UNL A   1      34.006  20.443  25.050  1.00  0.00     0.021 A 
ATOM     25  C   UNL A   1      34.720  22.469  26.170  1.00  0.00     0.021 A 
ATOM     26  C   UNL A   1      35.018  21.299  25.470  1.00  0.00     0.041 A 
ATOM     27  Cl  UNL A   1      36.633  20.925  25.046  1.00  0.00    -0.084 Cl
ENDBRANCH  18  21
ENDBRANCH  16  17
ENDBRANCH   4   6
ENDBRANCH   3   4
ENDBRANCH   2   3
ENDBRANCH   1   2
BRANCH   1  28
ATOM     28  O   UNL A   1      35.192  29.925  28.242  1.00  0.00    -0.458 OA
BRANCH  28  29
ATOM     29  C   UNL A   1      35.930  30.557  29.180  1.00  0.00     0.338 C 
ATOM     30  O   UNL A   1      35.531  31.379  30.001  1.00  0.00    -0.246 OA
BRANCH  29  31
ATOM     31  C   UNL A   1      37.325  30.054  29.077  1.00  0.00     0.060 A 
ATOM     32  C   UNL A   1      37.937  29.991  27.827  1.00  0.00     0.016 A 
ATOM     33  C   UNL A   1      38.034  29.605  30.195  1.00  0.00     0.016 A 
ATOM     34  C   UNL A   1      39.206  29.447  27.680  1.00  0.00     0.010 A 
ATOM     35  C   UNL A   1      39.365  29.164  30.052  1.00  0.00     0.010 A 
ATOM     36  C   UNL A   1      39.976  29.091  28.788  1.00  0.00    -0.014 A 
BRANCH  36  37
ATOM     37  C   UNL A   1      41.409  28.711  28.592  1.00  0.00     0.031 A 
ATOM     38  C   UNL A   1      42.510  29.731  28.709  1.00  0.00     0.074 A 
ATOM     39  C   UNL A   1      41.738  27.429  28.308  1.00  0.00     0.049 A 
ATOM     40  N   UNL A   1      43.756  29.647  28.317  1.00  0.00    -0.248 NA
ATOM     41  C   UNL A   1      42.168  31.015  29.342  1.00  0.00     0.031 C 
ATOM     42  C   UNL A   1      40.807  26.297  28.234  1.00  0.00     0.029 A 
ATOM     43  N   UNL A   1      42.958  26.855  28.031  1.00  0.00    -0.354 N 
ATOM     44  C   UNL A   1      44.327  30.887  28.582  1.00  0.00     0.074 A 
ATOM     45  C   UNL A   1      43.294  31.700  29.189  1.00  0.00     0.031 C 
ATOM     46  C   UNL A   1      41.488  25.170  27.990  1.00  0.00     0.029 A 
ATOM     47  C   UNL A   1      42.879  25.512  27.738  1.00  0.00     0.049 A 
ATOM     48  H   UNL A   1      43.805  27.356  28.042  1.00  0.00     0.167 HD
ATOM     49  C   UNL A   1      45.590  31.308  28.324  1.00  0.00     0.031 A 
ATOM     50  C   UNL A   1      43.787  24.652  27.237  1.00  0.00     0.031 A 
ATOM     51  C   UNL A   1      46.624  30.476  27.760  1.00  0.00     0.049 A 
ATOM     52  C   UNL A   1      45.154  25.156  26.890  1.00  0.00     0.074 A 
ATOM     53  C   UNL A   1      47.933  30.815  27.459  1.00  0.00     0.029 A 
ATOM     54  N   UNL A   1      46.476  29.137  27.428  1.00  0.00    -0.354 N 
ATOM     55  N   UNL A   1      45.648  26.359  27.047  1.00  0.00    -0.248 NA
ATOM     56  C   UNL A   1      46.076  24.194  26.274  1.00  0.00     0.031 C 
ATOM     57  C   UNL A   1      48.561  29.696  26.901  1.00  0.00     0.029 A 
ATOM     58  C   UNL A   1      47.663  28.642  26.911  1.00  0.00     0.049 A 
ATOM     59  H   UNL A   1      45.648  28.615  27.542  1.00  0.00     0.167 HD
ATOM     60  C   UNL A   1      46.947  26.297  26.558  1.00  0.00     0.074 A 
ATOM     61  C   UNL A   1      47.167  24.932  26.124  1.00  0.00     0.031 C 
ATOM     62  C   UNL A   1      47.872  27.284  26.476  1.00  0.00     0.031 A 
BRANCH  49  63
ATOM     63  C   UNL A   1      45.916  32.758  28.585  1.00  0.00    -0.014 A 
ATOM     64  C   UNL A   1      46.402  33.200  29.828  1.00  0.00     0.010 A 
ATOM     65  C   UNL A   1      45.785  33.687  27.535  1.00  0.00     0.010 A 
ATOM     66  C   UNL A   1      46.714  34.550  30.026  1.00  0.00     0.020 A 
ATOM     67  C   UNL A   1      46.123  35.031  27.719  1.00  0.00     0.020 A 
ATOM     68  C   UNL A   1      46.569  35.457  28.970  1.00  0.00     0.054 A 
BRANCH  68  69
ATOM     69  S   UNL A   1      46.998  37.198  29.248  1.00  0.00     0.124 S 
ATOM     70  O   UNL A   1      45.984  37.607  30.216  1.00  0.00    -0.237 OA
ATOM     71  O   UNL A   1      48.362  37.113  29.764  1.00  0.00    -0.237 OA
ATOM     72  O   UNL A   1      46.874  37.803  27.924  1.00  0.00    -0.744 OA
ENDBRANCH  68  69
ENDBRANCH  49  63
BRANCH  50  73
ATOM     73  C   UNL A   1      43.386  23.247  26.942  1.00  0.00    -0.014 A 
ATOM     74  C   UNL A   1      43.611  22.687  25.673  1.00  0.00     0.010 A 
ATOM     75  C   UNL A   1      42.806  22.450  27.949  1.00  0.00     0.010 A 
ATOM     76  C   UNL A   1      43.261  21.357  25.417  1.00  0.00     0.020 A 
ATOM     77  C   UNL A   1      42.490  21.111  27.707  1.00  0.00     0.020 A 
ATOM     78  C   UNL A   1      42.711  20.575  26.438  1.00  0.00     0.054 A 
BRANCH  78  79
ATOM     79  S   UNL A   1      42.337  18.832  26.106  1.00  0.00     0.124 S 
ATOM     80  O   UNL A   1      42.653  18.206  27.385  1.00  0.00    -0.237 OA
ATOM     81  O   UNL A   1      40.920  18.874  25.753  1.00  0.00    -0.237 OA
ATOM     82  O   UNL A   1      43.234  18.495  25.003  1.00  0.00    -0.744 OA
ENDBRANCH  78  79
ENDBRANCH  50  73
BRANCH  62  83
ATOM     83  C   UNL A   1      49.224  26.912  25.932  1.00  0.00    -0.014 A 
ATOM     84  C   UNL A   1      50.216  26.354  26.757  1.00  0.00     0.010 A 
ATOM     85  C   UNL A   1      49.496  27.103  24.565  1.00  0.00     0.010 A 
ATOM     86  C   UNL A   1      51.468  26.025  26.231  1.00  0.00     0.020 A 
ATOM     87  C   UNL A   1      50.736  26.750  24.029  1.00  0.00     0.020 A 
ATOM     88  C   UNL A   1      51.721  26.226  24.870  1.00  0.00     0.054 A 
BRANCH  88  89
ATOM     89  S   UNL A   1      53.342  25.761  24.203  1.00  0.00     0.124 S 
ATOM     90  O   UNL A   1      54.225  26.729  24.849  1.00  0.00    -0.237 OA
ATOM     91  O   UNL A   1      53.489  24.379  24.651  1.00  0.00    -0.237 OA
ATOM     92  O   UNL A   1      53.184  25.927  22.760  1.00  0.00    -0.744 OA
ENDBRANCH  88  89
ENDBRANCH  62  83
ENDBRANCH  36  37
ENDBRANCH  29  31
ENDBRANCH  28  29
ENDBRANCH   1  28
TORSDOF 16
ENDMDL
MODEL 2
REMARK VINA RESULT:     -12.3      2.494      8.500
REMARK SMILES CC1(C)[C@@]2(C(=O)OCCOC(=O)c3ccc(-c4c5nc(c(-c6ccc(S(=O)(=O)[O-])cc6)c6ccc([nH]6)c(-c6ccc(S(=O)(=O)[O-])cc6)c6nc(c(-c7ccc(S(=O)(=O)[O-])cc7)c7ccc4[nH]7)C=C6)C=C5)cc3)CC[C@]1(C)/C(=N/NC(=O)c1ccc(Cl)cc1)C2
REMARK SMILES IDX 9 1 8 2 7 3 5 4 6 5 4 6 1 7 2 8 3 9 75 10 73 11 89 12 74 13
REMARK SMILES IDX 76 14 77 15 78 16 79 17 80 18 81 20 82 21 83 22 88 23 84 24
REMARK SMILES IDX 87 25 85 26 86 27 10 28 11 29 12 30 13 31 14 32 72 33 15 34
REMARK SMILES IDX 71 35 16 36 17 37 18 38 65 39 19 40 70 41 64 42 66 43 20 44
REMARK SMILES IDX 69 45 63 46 62 47 21 49 51 50 32 51 50 52 33 53 36 54 49 55
REMARK SMILES IDX 67 56 34 57 35 58 48 60 68 61 37 62 22 63 23 64 31 65 24 66
REMARK SMILES IDX 30 67 25 68 26 69 27 70 28 71 29 72 52 73 53 74 61 75 54 76
REMARK SMILES IDX 60 77 55 78 56 79 57 80 58 81 59 82 38 83 39 84 47 85 40 86
REMARK SMILES IDX 46 87 41 88 42 89 43 90 44 91 45 92
REMARK H PARENT 79 19 66 48 36 59
REMARK Flexibility Score: inf
ROOT
ATOM      1  C   UNL A   1      39.327  19.992  25.692  1.00  0.00     0.275 C 
ENDROOT
BRANCH   1   2
ATOM      2  C   UNL A   1      38.776  21.425  25.751  1.00  0.00     0.274 C 
BRANCH   2   3
ATOM      3  O   UNL A   1      37.364  21.511  26.097  1.00  0.00    -0.462 OA
BRANCH   3   4
ATOM      4  C   UNL A   1      36.733  22.668  25.734  1.00  0.00     0.313 C 
ATOM      5  O   UNL A   1      37.152  23.784  26.024  1.00  0.00    -0.252 OA
BRANCH   4   6
ATOM      6  C   UNL A   1      35.389  22.460  25.025  1.00  0.00     0.079 C 
ATOM      7  C   UNL A   1      33.988  21.988  27.189  1.00  0.00     0.013 C 
ATOM      8  C   UNL A   1      34.099  22.760  25.856  1.00  0.00    -0.008 C 
ATOM      9  C   UNL A   1      33.842  24.257  26.128  1.00  0.00     0.013 C 
ATOM     10  C   UNL A   1      33.159  22.224  24.733  1.00  0.00     0.014 C 
ATOM     11  C   UNL A   1      35.212  20.953  24.660  1.00  0.00     0.021 C 
ATOM     12  C   UNL A   1      35.150  23.270  23.725  1.00  0.00     0.073 C 
ATOM     13  C   UNL A   1      33.696  20.808  24.432  1.00  0.00     0.014 C 
ATOM     14  C   UNL A   1      31.674  22.274  25.021  1.00  0.00     0.018 C 
ATOM     15  C   UNL A   1      33.671  23.075  23.539  1.00  0.00     0.046 C 
ATOM     16  N   UNL A   1      32.835  23.428  22.622  1.00  0.00    -0.181 NA
BRANCH  16  17
ATOM     17  N   UNL A   1      32.899  24.130  21.467  1.00  0.00    -0.243 N 
ATOM     18  C   UNL A   1      32.842  25.411  20.967  1.00  0.00     0.271 C 
ATOM     19  H   UNL A   1      33.032  23.502  20.719  1.00  0.00     0.194 HD
ATOM     20  O   UNL A   1      32.901  25.578  19.745  1.00  0.00    -0.267 OA
BRANCH  18  21
ATOM     21  C   UNL A   1      32.610  26.605  21.769  1.00  0.00     0.041 A 
ATOM     22  C   UNL A   1      31.282  26.977  22.007  1.00  0.00     0.015 A 
ATOM     23  C   UNL A   1      33.656  27.387  22.242  1.00  0.00     0.015 A 
ATOM     24  C   UNL A   1      31.008  27.968  22.939  1.00  0.00     0.021 A 
ATOM     25  C   UNL A   1      33.384  28.340  23.229  1.00  0.00     0.021 A 
ATOM     26  C   UNL A   1      32.063  28.575  23.611  1.00  0.00     0.041 A 
ATOM     27  Cl  UNL A   1      31.710  29.561  24.964  1.00  0.00    -0.084 Cl
ENDBRANCH  18  21
ENDBRANCH  16  17
ENDBRANCH   4   6
ENDBRANCH   3   4
ENDBRANCH   2   3
ENDBRANCH   1   2
BRANCH   1  28
ATOM     28  O   UNL A   1      40.436  19.885  26.582  1.00  0.00    -0.458 OA
BRANCH  28  29
ATOM     29  C   UNL A   1      41.690  19.875  26.081  1.00  0.00     0.338 C 
ATOM     30  O   UNL A   1      42.198  19.000  25.384  1.00  0.00    -0.246 OA
BRANCH  29  31
ATOM     31  C   UNL A   1      42.353  21.140  26.489  1.00  0.00     0.060 A 
ATOM     32  C   UNL A   1      42.670  22.089  25.518  1.00  0.00     0.016 A 
ATOM     33  C   UNL A   1      42.706  21.397  27.817  1.00  0.00     0.016 A 
ATOM     34  C   UNL A   1      43.367  23.243  25.846  1.00  0.00     0.010 A 
ATOM     35  C   UNL A   1      43.309  22.625  28.159  1.00  0.00     0.010 A 
ATOM     36  C   UNL A   1      43.636  23.574  27.175  1.00  0.00    -0.014 A 
BRANCH  36  37
ATOM     37  C   UNL A   1      44.199  24.923  27.494  1.00  0.00     0.031 A 
ATOM     38  C   UNL A   1      43.323  26.027  28.024  1.00  0.00     0.074 A 
ATOM     39  C   UNL A   1      45.517  25.169  27.312  1.00  0.00     0.049 A 
ATOM     40  N   UNL A   1      43.572  27.310  28.101  1.00  0.00    -0.248 NA
ATOM     41  C   UNL A   1      41.994  25.644  28.528  1.00  0.00     0.031 C 
ATOM     42  C   UNL A   1      46.524  24.193  26.879  1.00  0.00     0.029 A 
ATOM     43  N   UNL A   1      46.246  26.326  27.473  1.00  0.00    -0.354 N 
ATOM     44  C   UNL A   1      42.409  27.898  28.586  1.00  0.00     0.074 A 
ATOM     45  C   UNL A   1      41.460  26.826  28.806  1.00  0.00     0.031 C 
ATOM     46  C   UNL A   1      47.732  24.770  26.864  1.00  0.00     0.029 A 
ATOM     47  C   UNL A   1      47.573  26.190  27.135  1.00  0.00     0.049 A 
ATOM     48  H   UNL A   1      45.855  27.169  27.800  1.00  0.00     0.167 HD
ATOM     49  C   UNL A   1      42.155  29.212  28.809  1.00  0.00     0.031 A 
ATOM     50  C   UNL A   1      48.550  27.102  26.968  1.00  0.00     0.031 A 
ATOM     51  C   UNL A   1      43.122  30.267  28.629  1.00  0.00     0.049 A 
ATOM     52  C   UNL A   1      48.230  28.554  27.147  1.00  0.00     0.074 A 
ATOM     53  C   UNL A   1      42.957  31.629  28.825  1.00  0.00     0.029 A 
ATOM     54  N   UNL A   1      44.438  30.082  28.229  1.00  0.00    -0.354 N 
ATOM     55  N   UNL A   1      47.096  29.106  27.502  1.00  0.00    -0.248 NA
ATOM     56  C   UNL A   1      49.312  29.508  26.875  1.00  0.00     0.031 C 
ATOM     57  C   UNL A   1      44.156  32.269  28.498  1.00  0.00     0.029 A 
ATOM     58  C   UNL A   1      45.089  31.303  28.157  1.00  0.00     0.049 A 
ATOM     59  H   UNL A   1      44.849  29.210  28.026  1.00  0.00     0.167 HD
ATOM     60  C   UNL A   1      47.331  30.475  27.509  1.00  0.00     0.074 A 
ATOM     61  C   UNL A   1      48.721  30.663  27.144  1.00  0.00     0.031 C 
ATOM     62  C   UNL A   1      46.470  31.483  27.790  1.00  0.00     0.031 A 
BRANCH  49  63
ATOM     63  C   UNL A   1      40.754  29.601  29.208  1.00  0.00    -0.014 A 
ATOM     64  C   UNL A   1      40.425  29.947  30.530  1.00  0.00     0.010 A 
ATOM     65  C   UNL A   1      39.757  29.677  28.216  1.00  0.00     0.010 A 
ATOM     66  C   UNL A   1      39.118  30.323  30.859  1.00  0.00     0.020 A 
ATOM     67  C   UNL A   1      38.457  30.081  28.534  1.00  0.00     0.020 A 
ATOM     68  C   UNL A   1      38.141  30.384  29.858  1.00  0.00     0.054 A 
BRANCH  68  69
ATOM     69  S   UNL A   1      36.459  30.894  30.308  1.00  0.00     0.124 S 
ATOM     70  O   UNL A   1      35.743  30.713  29.048  1.00  0.00    -0.237 OA
ATOM     71  O   UNL A   1      36.111  29.951  31.368  1.00  0.00    -0.237 OA
ATOM     72  O   UNL A   1      36.618  32.280  30.739  1.00  0.00    -0.744 OA
ENDBRANCH  68  69
ENDBRANCH  49  63
BRANCH  50  73
ATOM     73  C   UNL A   1      49.899  26.662  26.512  1.00  0.00    -0.014 A 
ATOM     74  C   UNL A   1      50.222  26.636  25.145  1.00  0.00     0.010 A 
ATOM     75  C   UNL A   1      50.881  26.297  27.454  1.00  0.00     0.010 A 
ATOM     76  C   UNL A   1      51.502  26.253  24.729  1.00  0.00     0.020 A 
ATOM     77  C   UNL A   1      52.171  25.950  27.044  1.00  0.00     0.020 A 
ATOM     78  C   UNL A   1      52.470  25.921  25.682  1.00  0.00     0.054 A 
BRANCH  78  79
ATOM     79  S   UNL A   1      54.144  25.503  25.124  1.00  0.00     0.124 S 
ATOM     80  O   UNL A   1      54.071  24.051  25.007  1.00  0.00    -0.237 OA
ATOM     81  O   UNL A   1      54.250  26.235  23.864  1.00  0.00    -0.237 OA
ATOM     82  O   UNL A   1      54.998  26.004  26.199  1.00  0.00    -0.744 OA
ENDBRANCH  78  79
ENDBRANCH  50  73
BRANCH  62  83
ATOM     83  C   UNL A   1      47.020  32.883  27.755  1.00  0.00    -0.014 A 
ATOM     84  C   UNL A   1      46.958  33.664  26.587  1.00  0.00     0.010 A 
ATOM     85  C   UNL A   1      47.584  33.433  28.920  1.00  0.00     0.010 A 
ATOM     86  C   UNL A   1      47.483  34.959  26.577  1.00  0.00     0.020 A 
ATOM     87  C   UNL A   1      48.085  34.737  28.921  1.00  0.00     0.020 A 
ATOM     88  C   UNL A   1      48.045  35.487  27.744  1.00  0.00     0.054 A 
BRANCH  88  89
ATOM     89  S   UNL A   1      48.690  37.182  27.715  1.00  0.00     0.124 S 
ATOM     90  O   UNL A   1      47.494  37.967  28.008  1.00  0.00    -0.237 OA
ATOM     91  O   UNL A   1      49.701  37.159  28.769  1.00  0.00    -0.237 OA
ATOM     92  O   UNL A   1      49.216  37.329  26.360  1.00  0.00    -0.744 OA
ENDBRANCH  88  89
ENDBRANCH  62  83
ENDBRANCH  36  37
ENDBRANCH  29  31
ENDBRANCH  28  29
ENDBRANCH   1  28
TORSDOF 16
ENDMDL
MODEL 3
REMARK VINA RESULT:     -12.3      6.384     11.957
REMARK SMILES CC1(C)[C@@]2(C(=O)OCCOC(=O)c3ccc(-c4c5nc(c(-c6ccc(S(=O)(=O)[O-])cc6)c6ccc([nH]6)c(-c6ccc(S(=O)(=O)[O-])cc6)c6nc(c(-c7ccc(S(=O)(=O)[O-])cc7)c7ccc4[nH]7)C=C6)C=C5)cc3)CC[C@]1(C)/C(=N/NC(=O)c1ccc(Cl)cc1)C2
REMARK SMILES IDX 9 1 8 2 7 3 5 4 6 5 4 6 1 7 2 8 3 9 75 10 73 11 89 12 74 13
REMARK SMILES IDX 76 14 77 15 78 16 79 17 80 18 81 20 82 21 83 22 88 23 84 24
REMARK SMILES IDX 87 25 85 26 86 27 10 28 11 29 12 30 13 31 14 32 72 33 15 34
REMARK SMILES IDX 71 35 16 36 17 37 18 38 65 39 19 40 70 41 64 42 66 43 20 44
REMARK SMILES IDX 69 45 63 46 62 47 21 49 51 50 32 51 50 52 33 53 36 54 49 55
REMARK SMILES IDX 67 56 34 57 35 58 48 60 68 61 37 62 22 63 23 64 31 65 24 66
REMARK SMILES IDX 30 67 25 68 26 69 27 70 28 71 29 72 52 73 53 74 61 75 54 76
REMARK SMILES IDX 60 77 55 78 56 79 57 80 58 81 59 82 38 83 39 84 47 85 40 86
REMARK SMILES IDX 46 87 41 88 42 89 43 90 44 91 45 92
REMARK H PARENT 79 19 66 48 36 59
REMARK Flexibility Score: inf
ROOT
ATOM      1  C   UNL A   1      38.971  22.460  26.499  1.00  0.00     0.275 C 
ENDROOT
BRANCH   1   2
ATOM      2  C   UNL A   1      38.141  22.159  25.243  1.00  0.00     0.274 C 
BRANCH   2   3
ATOM      3  O   UNL A   1      36.711  22.389  25.397  1.00  0.00    -0.462 OA
BRANCH   3   4
ATOM      4  C   UNL A   1      35.905  21.317  25.135  1.00  0.00     0.313 C 
ATOM      5  O   UNL A   1      36.326  20.172  25.012  1.00  0.00    -0.252 OA
BRANCH   4   6
ATOM      6  C   UNL A   1      34.434  21.677  24.892  1.00  0.00     0.079 C 
ATOM      7  C   UNL A   1      33.684  21.555  27.400  1.00  0.00     0.013 C 
ATOM      8  C   UNL A   1      33.666  22.350  26.076  1.00  0.00    -0.008 C 
ATOM      9  C   UNL A   1      34.084  23.807  26.368  1.00  0.00     0.013 C 
ATOM     10  C   UNL A   1      32.303  22.297  25.323  1.00  0.00     0.014 C 
ATOM     11  C   UNL A   1      33.605  20.378  24.648  1.00  0.00     0.021 C 
ATOM     12  C   UNL A   1      34.134  22.632  23.707  1.00  0.00     0.073 C 
ATOM     13  C   UNL A   1      32.152  20.816  24.913  1.00  0.00     0.014 C 
ATOM     14  C   UNL A   1      31.106  22.858  26.061  1.00  0.00     0.018 C 
ATOM     15  C   UNL A   1      32.708  23.006  24.002  1.00  0.00     0.046 C 
ATOM     16  N   UNL A   1      31.830  23.721  23.384  1.00  0.00    -0.181 NA
BRANCH  16  17
ATOM     17  N   UNL A   1      31.798  24.452  22.245  1.00  0.00    -0.243 N 
ATOM     18  C   UNL A   1      31.960  25.734  21.771  1.00  0.00     0.271 C 
ATOM     19  H   UNL A   1      31.582  23.857  21.490  1.00  0.00     0.194 HD
ATOM     20  O   UNL A   1      31.769  25.954  20.571  1.00  0.00    -0.267 OA
BRANCH  18  21
ATOM     21  C   UNL A   1      32.243  26.897  22.601  1.00  0.00     0.041 A 
ATOM     22  C   UNL A   1      31.342  27.966  22.547  1.00  0.00     0.015 A 
ATOM     23  C   UNL A   1      33.389  26.981  23.382  1.00  0.00     0.015 A 
ATOM     24  C   UNL A   1      31.447  28.994  23.475  1.00  0.00     0.021 A 
ATOM     25  C   UNL A   1      33.460  27.978  24.359  1.00  0.00     0.021 A 
ATOM     26  C   UNL A   1      32.452  28.939  24.433  1.00  0.00     0.041 A 
ATOM     27  Cl  UNL A   1      32.386  30.032  25.748  1.00  0.00    -0.084 Cl
ENDBRANCH  18  21
ENDBRANCH  16  17
ENDBRANCH   4   6
ENDBRANCH   3   4
ENDBRANCH   2   3
ENDBRANCH   1   2
BRANCH   1  28
ATOM     28  O   UNL A   1      39.186  23.868  26.586  1.00  0.00    -0.458 OA
BRANCH  28  29
ATOM     29  C   UNL A   1      40.449  24.346  26.604  1.00  0.00     0.338 C 
ATOM     30  O   UNL A   1      41.403  23.930  25.951  1.00  0.00    -0.246 OA
BRANCH  29  31
ATOM     31  C   UNL A   1      40.485  25.504  27.534  1.00  0.00     0.060 A 
ATOM     32  C   UNL A   1      39.590  25.551  28.602  1.00  0.00     0.016 A 
ATOM     33  C   UNL A   1      41.367  26.573  27.352  1.00  0.00     0.016 A 
ATOM     34  C   UNL A   1      39.535  26.656  29.440  1.00  0.00     0.010 A 
ATOM     35  C   UNL A   1      41.384  27.637  28.277  1.00  0.00     0.010 A 
ATOM     36  C   UNL A   1      40.472  27.685  29.346  1.00  0.00    -0.014 A 
BRANCH  36  37
ATOM     37  C   UNL A   1      40.503  28.745  30.400  1.00  0.00     0.031 A 
ATOM     38  C   UNL A   1      41.509  28.702  31.520  1.00  0.00     0.074 A 
ATOM     39  C   UNL A   1      39.621  29.771  30.358  1.00  0.00     0.049 A 
ATOM     40  N   UNL A   1      41.515  29.368  32.647  1.00  0.00    -0.248 NA
ATOM     41  C   UNL A   1      42.651  27.789  31.359  1.00  0.00     0.031 C 
ATOM     42  C   UNL A   1      38.630  30.011  29.302  1.00  0.00     0.029 A 
ATOM     43  N   UNL A   1      39.416  30.817  31.229  1.00  0.00    -0.354 N 
ATOM     44  C   UNL A   1      42.612  28.902  33.363  1.00  0.00     0.074 A 
ATOM     45  C   UNL A   1      43.261  27.910  32.532  1.00  0.00     0.031 C 
ATOM     46  C   UNL A   1      37.970  31.148  29.556  1.00  0.00     0.029 A 
ATOM     47  C   UNL A   1      38.375  31.640  30.864  1.00  0.00     0.049 A 
ATOM     48  H   UNL A   1      39.961  30.962  32.036  1.00  0.00     0.167 HD
ATOM     49  C   UNL A   1      43.025  29.259  34.604  1.00  0.00     0.031 A 
ATOM     50  C   UNL A   1      37.744  32.629  31.525  1.00  0.00     0.031 A 
ATOM     51  C   UNL A   1      42.398  30.281  35.406  1.00  0.00     0.049 A 
ATOM     52  C   UNL A   1      38.168  32.957  32.923  1.00  0.00     0.074 A 
ATOM     53  C   UNL A   1      42.742  30.710  36.678  1.00  0.00     0.029 A 
ATOM     54  N   UNL A   1      41.311  31.047  35.011  1.00  0.00    -0.354 N 
ATOM     55  N   UNL A   1      39.140  32.434  33.629  1.00  0.00    -0.248 NA
ATOM     56  C   UNL A   1      37.393  33.988  33.624  1.00  0.00     0.031 C 
ATOM     57  C   UNL A   1      41.834  31.699  37.070  1.00  0.00     0.029 A 
ATOM     58  C   UNL A   1      40.962  31.932  36.020  1.00  0.00     0.049 A 
ATOM     59  H   UNL A   1      40.853  30.972  34.143  1.00  0.00     0.167 HD
ATOM     60  C   UNL A   1      39.102  33.082  34.858  1.00  0.00     0.074 A 
ATOM     61  C   UNL A   1      38.026  34.050  34.787  1.00  0.00     0.031 C 
ATOM     62  C   UNL A   1      39.887  32.889  35.944  1.00  0.00     0.031 A 
BRANCH  49  63
ATOM     63  C   UNL A   1      44.175  28.494  35.212  1.00  0.00    -0.014 A 
ATOM     64  C   UNL A   1      45.506  28.929  35.091  1.00  0.00     0.010 A 
ATOM     65  C   UNL A   1      43.902  27.340  35.972  1.00  0.00     0.010 A 
ATOM     66  C   UNL A   1      46.544  28.204  35.687  1.00  0.00     0.020 A 
ATOM     67  C   UNL A   1      44.932  26.629  36.593  1.00  0.00     0.020 A 
ATOM     68  C   UNL A   1      46.250  27.056  36.431  1.00  0.00     0.054 A 
BRANCH  68  69
ATOM     69  S   UNL A   1      47.613  26.145  37.208  1.00  0.00     0.124 S 
ATOM     70  O   UNL A   1      48.243  27.181  38.021  1.00  0.00    -0.237 OA
ATOM     71  O   UNL A   1      46.916  25.099  37.954  1.00  0.00    -0.237 OA
ATOM     72  O   UNL A   1      48.407  25.673  36.076  1.00  0.00    -0.744 OA
ENDBRANCH  68  69
ENDBRANCH  49  63
BRANCH  50  73
ATOM     73  C   UNL A   1      36.574  33.306  30.897  1.00  0.00    -0.014 A 
ATOM     74  C   UNL A   1      35.356  33.423  31.586  1.00  0.00     0.010 A 
ATOM     75  C   UNL A   1      36.688  33.868  29.610  1.00  0.00     0.010 A 
ATOM     76  C   UNL A   1      34.274  34.090  31.000  1.00  0.00     0.020 A 
ATOM     77  C   UNL A   1      35.623  34.566  29.037  1.00  0.00     0.020 A 
ATOM     78  C   UNL A   1      34.418  34.664  29.732  1.00  0.00     0.054 A 
BRANCH  78  79
ATOM     79  S   UNL A   1      33.028  35.589  29.025  1.00  0.00     0.124 S 
ATOM     80  O   UNL A   1      32.432  34.604  28.130  1.00  0.00    -0.237 OA
ATOM     81  O   UNL A   1      32.240  35.929  30.208  1.00  0.00    -0.237 OA
ATOM     82  O   UNL A   1      33.672  36.726  28.370  1.00  0.00    -0.744 OA
ENDBRANCH  78  79
ENDBRANCH  50  73
BRANCH  62  83
ATOM     83  C   UNL A   1      39.639  33.773  37.135  1.00  0.00    -0.014 A 
ATOM     84  C   UNL A   1      38.910  33.315  38.247  1.00  0.00     0.010 A 
ATOM     85  C   UNL A   1      40.168  35.077  37.151  1.00  0.00     0.010 A 
ATOM     86  C   UNL A   1      38.684  34.159  39.338  1.00  0.00     0.020 A 
ATOM     87  C   UNL A   1      39.969  35.913  38.251  1.00  0.00     0.020 A 
ATOM     88  C   UNL A   1      39.214  35.453  39.333  1.00  0.00     0.054 A 
BRANCH  88  89
ATOM     89  S   UNL A   1      38.936  36.518  40.775  1.00  0.00     0.124 S 
ATOM     90  O   UNL A   1      40.261  36.549  41.389  1.00  0.00    -0.237 OA
ATOM     91  O   UNL A   1      38.494  37.771  40.169  1.00  0.00    -0.237 OA
ATOM     92  O   UNL A   1      37.913  35.807  41.538  1.00  0.00    -0.744 OA
ENDBRANCH  88  89
ENDBRANCH  62  83
ENDBRANCH  36  37
ENDBRANCH  29  31
ENDBRANCH  28  29
ENDBRANCH   1  28
TORSDOF 16
ENDMDL
