MODEL 1
REMARK VINA RESULT:      -8.9      0.000      0.000
REMARK SMILES O=C(C[NH2+]Cc1cccs1)OCCOC(=O)c1ccc(-c2c3nc(c(-c4ccc(S(=O)(=O)[O-])cc4)c4ccc([nH]4)c(-c4ccc(S(=O)(=O)[O-])cc4)c4nc(c(-c5ccc(S(=O)(=O)[O-])cc5)c5ccc2[nH]5)C=C4)C=C3)cc1
REMARK SMILES IDX 12 1 11 2 2 3 1 4 3 5 4 6 5 9 6 10 7 11 10 12 8 13 9 14
REMARK SMILES IDX 13 15 14 16 15 17 16 18 17 19 18 20 76 21 19 22 75 23 20 24
REMARK SMILES IDX 21 25 22 26 69 27 23 28 74 29 68 30 70 31 24 32 73 33 67 34
REMARK SMILES IDX 66 35 25 37 55 38 36 39 54 40 37 41 40 42 53 43 71 44 38 45
REMARK SMILES IDX 39 46 52 48 72 49 41 50 26 51 27 52 35 53 28 54 34 55 29 56
REMARK SMILES IDX 30 57 31 58 32 59 33 60 56 61 57 62 65 63 58 64 64 65 59 66
REMARK SMILES IDX 60 67 61 68 62 69 63 70 42 71 43 72 51 73 44 74 50 75 45 76
REMARK SMILES IDX 46 77 47 78 48 79 49 80
REMARK H PARENT 4 7 4 8 70 36 40 47
REMARK Flexibility Score: inf
ROOT
ATOM      1  C   UNL A   1      33.460  33.991  28.181  1.00  0.00     0.274 C 
ENDROOT
BRANCH   1   2
ATOM      2  O   UNL A   1      33.265  34.413  29.548  1.00  0.00    -0.458 OA
BRANCH   2   3
ATOM      3  C   UNL A   1      32.861  35.654  29.920  1.00  0.00     0.361 C 
ATOM      4  O   UNL A   1      32.422  36.442  29.084  1.00  0.00    -0.245 OA
BRANCH   3   5
ATOM      5  C   UNL A   1      32.966  36.038  31.389  1.00  0.00     0.385 C 
BRANCH   5   6
ATOM      6  N   UNL A   1      34.368  36.086  31.827  1.00  0.00    -0.333 N 
ATOM      7  H   UNL A   1      34.554  37.001  32.239  1.00  0.00     0.347 HD
ATOM      8  H   UNL A   1      34.960  35.923  31.014  1.00  0.00     0.347 HD
BRANCH   6   9
ATOM      9  C   UNL A   1      34.661  35.049  32.823  1.00  0.00     0.308 C 
BRANCH   9  10
ATOM     10  C   UNL A   1      35.645  34.008  32.383  1.00  0.00     0.059 A 
ATOM     11  C   UNL A   1      36.255  33.828  31.156  1.00  0.00     0.021 A 
ATOM     12  S   UNL A   1      36.193  32.846  33.526  1.00  0.00    -0.143 S 
ATOM     13  C   UNL A   1      37.210  32.775  31.176  1.00  0.00     0.012 A 
ATOM     14  C   UNL A   1      37.275  32.155  32.403  1.00  0.00     0.065 A 
ENDBRANCH   9  10
ENDBRANCH   6   9
ENDBRANCH   5   6
ENDBRANCH   3   5
ENDBRANCH   2   3
ENDBRANCH   1   2
BRANCH   1  15
ATOM     15  C   UNL A   1      34.635  33.020  28.046  1.00  0.00     0.275 C 
BRANCH  15  16
ATOM     16  O   UNL A   1      34.348  31.762  28.689  1.00  0.00    -0.458 OA
BRANCH  16  17
ATOM     17  C   UNL A   1      34.580  30.652  27.945  1.00  0.00     0.338 C 
ATOM     18  O   UNL A   1      33.854  30.207  27.073  1.00  0.00    -0.246 OA
BRANCH  17  19
ATOM     19  C   UNL A   1      35.942  30.125  28.220  1.00  0.00     0.060 A 
ATOM     20  C   UNL A   1      36.217  29.658  29.514  1.00  0.00     0.016 A 
ATOM     21  C   UNL A   1      36.938  30.074  27.240  1.00  0.00     0.016 A 
ATOM     22  C   UNL A   1      37.491  29.181  29.840  1.00  0.00     0.010 A 
ATOM     23  C   UNL A   1      38.211  29.589  27.567  1.00  0.00     0.010 A 
ATOM     24  C   UNL A   1      38.507  29.165  28.877  1.00  0.00    -0.014 A 
BRANCH  24  25
ATOM     25  C   UNL A   1      39.905  28.815  29.238  1.00  0.00     0.031 A 
ATOM     26  C   UNL A   1      40.832  29.889  29.732  1.00  0.00     0.074 A 
ATOM     27  C   UNL A   1      40.374  27.559  29.116  1.00  0.00     0.049 A 
ATOM     28  N   UNL A   1      42.097  29.796  30.053  1.00  0.00    -0.248 NA
ATOM     29  C   UNL A   1      40.255  31.229  29.922  1.00  0.00     0.031 C 
ATOM     30  C   UNL A   1      39.583  26.392  28.747  1.00  0.00     0.029 A 
ATOM     31  N   UNL A   1      41.653  27.069  29.243  1.00  0.00    -0.354 N 
ATOM     32  C   UNL A   1      42.450  31.043  30.550  1.00  0.00     0.074 A 
ATOM     33  C   UNL A   1      41.294  31.901  30.399  1.00  0.00     0.031 C 
ATOM     34  C   UNL A   1      40.408  25.346  28.565  1.00  0.00     0.029 A 
ATOM     35  C   UNL A   1      41.781  25.773  28.803  1.00  0.00     0.049 A 
ATOM     36  H   UNL A   1      42.400  27.593  29.614  1.00  0.00     0.167 HD
ATOM     37  C   UNL A   1      43.613  31.423  31.130  1.00  0.00     0.031 A 
ATOM     38  C   UNL A   1      42.877  25.024  28.574  1.00  0.00     0.031 A 
ATOM     39  C   UNL A   1      44.778  30.588  31.247  1.00  0.00     0.049 A 
ATOM     40  C   UNL A   1      44.226  25.544  28.980  1.00  0.00     0.074 A 
ATOM     41  C   UNL A   1      45.982  30.872  31.866  1.00  0.00     0.029 A 
ATOM     42  N   UNL A   1      44.896  29.317  30.709  1.00  0.00    -0.354 N 
ATOM     43  N   UNL A   1      44.526  26.697  29.528  1.00  0.00    -0.248 NA
ATOM     44  C   UNL A   1      45.374  24.646  28.796  1.00  0.00     0.031 C 
ATOM     45  C   UNL A   1      46.851  29.794  31.651  1.00  0.00     0.029 A 
ATOM     46  C   UNL A   1      46.168  28.819  30.942  1.00  0.00     0.049 A 
ATOM     47  H   UNL A   1      44.182  28.837  30.230  1.00  0.00     0.167 HD
ATOM     48  C   UNL A   1      45.878  26.624  29.838  1.00  0.00     0.074 A 
ATOM     49  C   UNL A   1      46.348  25.336  29.374  1.00  0.00     0.031 C 
ATOM     50  C   UNL A   1      46.642  27.533  30.494  1.00  0.00     0.031 A 
BRANCH  37  51
ATOM     51  C   UNL A   1      43.661  32.810  31.705  1.00  0.00    -0.014 A 
ATOM     52  C   UNL A   1      43.209  33.054  33.015  1.00  0.00     0.010 A 
ATOM     53  C   UNL A   1      44.183  33.872  30.947  1.00  0.00     0.010 A 
ATOM     54  C   UNL A   1      43.237  34.346  33.543  1.00  0.00     0.020 A 
ATOM     55  C   UNL A   1      44.232  35.163  31.480  1.00  0.00     0.020 A 
ATOM     56  C   UNL A   1      43.741  35.394  32.768  1.00  0.00     0.054 A 
BRANCH  56  57
ATOM     57  S   UNL A   1      43.768  37.062  33.478  1.00  0.00     0.124 S 
ATOM     58  O   UNL A   1      42.557  37.058  34.296  1.00  0.00    -0.237 OA
ATOM     59  O   UNL A   1      45.025  37.076  34.220  1.00  0.00    -0.237 OA
ATOM     60  O   UNL A   1      43.728  37.937  32.309  1.00  0.00    -0.744 OA
ENDBRANCH  56  57
ENDBRANCH  37  51
BRANCH  38  61
ATOM     61  C   UNL A   1      42.744  23.703  27.907  1.00  0.00    -0.014 A 
ATOM     62  C   UNL A   1      42.368  22.558  28.628  1.00  0.00     0.010 A 
ATOM     63  C   UNL A   1      43.009  23.591  26.529  1.00  0.00     0.010 A 
ATOM     64  C   UNL A   1      42.281  21.318  27.986  1.00  0.00     0.020 A 
ATOM     65  C   UNL A   1      42.906  22.358  25.881  1.00  0.00     0.020 A 
ATOM     66  C   UNL A   1      42.552  21.226  26.617  1.00  0.00     0.054 A 
BRANCH  66  67
ATOM     67  S   UNL A   1      42.405  19.610  25.806  1.00  0.00     0.124 S 
ATOM     68  O   UNL A   1      40.990  19.576  25.448  1.00  0.00    -0.237 OA
ATOM     69  O   UNL A   1      43.338  19.736  24.690  1.00  0.00    -0.237 OA
ATOM     70  O   UNL A   1      42.810  18.667  26.845  1.00  0.00    -0.744 OA
ENDBRANCH  66  67
ENDBRANCH  38  61
BRANCH  50  71
ATOM     71  C   UNL A   1      48.051  27.138  30.840  1.00  0.00    -0.014 A 
ATOM     72  C   UNL A   1      48.353  26.418  32.009  1.00  0.00     0.010 A 
ATOM     73  C   UNL A   1      49.089  27.458  29.945  1.00  0.00     0.010 A 
ATOM     74  C   UNL A   1      49.673  26.049  32.287  1.00  0.00     0.020 A 
ATOM     75  C   UNL A   1      50.404  27.069  30.206  1.00  0.00     0.020 A 
ATOM     76  C   UNL A   1      50.690  26.376  31.384  1.00  0.00     0.054 A 
BRANCH  76  77
ATOM     77  S   UNL A   1      52.386  25.841  31.740  1.00  0.00     0.124 S 
ATOM     78  O   UNL A   1      52.190  24.447  32.128  1.00  0.00    -0.237 OA
ATOM     79  O   UNL A   1      53.064  26.048  30.462  1.00  0.00    -0.237 OA
ATOM     80  O   UNL A   1      52.813  26.734  32.813  1.00  0.00    -0.744 OA
ENDBRANCH  76  77
ENDBRANCH  50  71
ENDBRANCH  24  25
ENDBRANCH  17  19
ENDBRANCH  16  17
ENDBRANCH  15  16
ENDBRANCH   1  15
TORSDOF 17
ENDMDL
MODEL 2
REMARK VINA RESULT:      -8.7      2.034      2.592
REMARK SMILES O=C(C[NH2+]Cc1cccs1)OCCOC(=O)c1ccc(-c2c3nc(c(-c4ccc(S(=O)(=O)[O-])cc4)c4ccc([nH]4)c(-c4ccc(S(=O)(=O)[O-])cc4)c4nc(c(-c5ccc(S(=O)(=O)[O-])cc5)c5ccc2[nH]5)C=C4)C=C3)cc1
REMARK SMILES IDX 12 1 11 2 2 3 1 4 3 5 4 6 5 9 6 10 7 11 10 12 8 13 9 14
REMARK SMILES IDX 13 15 14 16 15 17 16 18 17 19 18 20 76 21 19 22 75 23 20 24
REMARK SMILES IDX 21 25 22 26 69 27 23 28 74 29 68 30 70 31 24 32 73 33 67 34
REMARK SMILES IDX 66 35 25 37 55 38 36 39 54 40 37 41 40 42 53 43 71 44 38 45
REMARK SMILES IDX 39 46 52 48 72 49 41 50 26 51 27 52 35 53 28 54 34 55 29 56
REMARK SMILES IDX 30 57 31 58 32 59 33 60 56 61 57 62 65 63 58 64 64 65 59 66
REMARK SMILES IDX 60 67 61 68 62 69 63 70 42 71 43 72 51 73 44 74 50 75 45 76
REMARK SMILES IDX 46 77 47 78 48 79 49 80
REMARK H PARENT 4 7 4 8 70 36 40 47
REMARK Flexibility Score: inf
ROOT
ATOM      1  C   UNL A   1      33.426  33.895  28.153  1.00  0.00     0.274 C 
ENDROOT
BRANCH   1   2
ATOM      2  O   UNL A   1      33.333  34.504  29.458  1.00  0.00    -0.458 OA
BRANCH   2   3
ATOM      3  C   UNL A   1      32.833  35.743  29.695  1.00  0.00     0.361 C 
ATOM      4  O   UNL A   1      32.240  36.356  28.809  1.00  0.00    -0.245 OA
BRANCH   3   5
ATOM      5  C   UNL A   1      33.026  36.348  31.079  1.00  0.00     0.385 C 
BRANCH   5   6
ATOM      6  N   UNL A   1      34.251  35.843  31.714  1.00  0.00    -0.333 N 
ATOM      7  H   UNL A   1      34.796  36.634  32.057  1.00  0.00     0.347 HD
ATOM      8  H   UNL A   1      34.775  35.314  31.017  1.00  0.00     0.347 HD
BRANCH   6   9
ATOM      9  C   UNL A   1      33.952  34.950  32.838  1.00  0.00     0.308 C 
BRANCH   9  10
ATOM     10  C   UNL A   1      34.823  33.734  32.931  1.00  0.00     0.059 A 
ATOM     11  C   UNL A   1      34.866  32.612  32.126  1.00  0.00     0.021 A 
ATOM     12  S   UNL A   1      36.013  33.656  34.170  1.00  0.00    -0.143 S 
ATOM     13  C   UNL A   1      35.911  31.721  32.495  1.00  0.00     0.012 A 
ATOM     14  C   UNL A   1      36.612  32.168  33.593  1.00  0.00     0.065 A 
ENDBRANCH   9  10
ENDBRANCH   6   9
ENDBRANCH   5   6
ENDBRANCH   3   5
ENDBRANCH   2   3
ENDBRANCH   1   2
BRANCH   1  15
ATOM     15  C   UNL A   1      34.551  32.859  28.086  1.00  0.00     0.275 C 
BRANCH  15  16
ATOM     16  O   UNL A   1      34.064  31.540  28.402  1.00  0.00    -0.458 OA
BRANCH  16  17
ATOM     17  C   UNL A   1      34.550  30.531  27.635  1.00  0.00     0.338 C 
ATOM     18  O   UNL A   1      34.064  30.123  26.594  1.00  0.00    -0.246 OA
BRANCH  17  19
ATOM     19  C   UNL A   1      35.870  30.085  28.150  1.00  0.00     0.060 A 
ATOM     20  C   UNL A   1      35.925  29.558  29.449  1.00  0.00     0.016 A 
ATOM     21  C   UNL A   1      37.039  30.166  27.387  1.00  0.00     0.016 A 
ATOM     22  C   UNL A   1      37.145  29.151  29.999  1.00  0.00     0.010 A 
ATOM     23  C   UNL A   1      38.258  29.752  27.937  1.00  0.00     0.010 A 
ATOM     24  C   UNL A   1      38.327  29.267  29.258  1.00  0.00    -0.014 A 
BRANCH  24  25
ATOM     25  C   UNL A   1      39.652  28.994  29.873  1.00  0.00     0.031 A 
ATOM     26  C   UNL A   1      40.207  29.952  30.889  1.00  0.00     0.074 A 
ATOM     27  C   UNL A   1      40.382  27.917  29.531  1.00  0.00     0.049 A 
ATOM     28  N   UNL A   1      41.361  29.916  31.504  1.00  0.00    -0.248 NA
ATOM     29  C   UNL A   1      39.341  31.072  31.288  1.00  0.00     0.031 C 
ATOM     30  C   UNL A   1      39.948  26.848  28.640  1.00  0.00     0.029 A 
ATOM     31  N   UNL A   1      41.673  27.574  29.858  1.00  0.00    -0.354 N 
ATOM     32  C   UNL A   1      41.332  30.963  32.414  1.00  0.00     0.074 A 
ATOM     33  C   UNL A   1      40.089  31.673  32.203  1.00  0.00     0.031 C 
ATOM     34  C   UNL A   1      40.988  26.030  28.401  1.00  0.00     0.029 A 
ATOM     35  C   UNL A   1      42.157  26.522  29.118  1.00  0.00     0.049 A 
ATOM     36  H   UNL A   1      42.196  28.035  30.553  1.00  0.00     0.167 HD
ATOM     37  C   UNL A   1      42.235  31.273  33.375  1.00  0.00     0.031 A 
ATOM     38  C   UNL A   1      43.406  26.032  28.995  1.00  0.00     0.031 A 
ATOM     39  C   UNL A   1      43.491  30.597  33.563  1.00  0.00     0.049 A 
ATOM     40  C   UNL A   1      44.496  26.553  29.887  1.00  0.00     0.074 A 
ATOM     41  C   UNL A   1      44.444  30.808  34.543  1.00  0.00     0.029 A 
ATOM     42  N   UNL A   1      43.983  29.599  32.737  1.00  0.00    -0.354 N 
ATOM     43  N   UNL A   1      44.426  27.488  30.801  1.00  0.00    -0.248 NA
ATOM     44  C   UNL A   1      45.815  25.914  29.775  1.00  0.00     0.031 C 
ATOM     45  C   UNL A   1      45.540  29.978  34.275  1.00  0.00     0.029 A 
ATOM     46  C   UNL A   1      45.245  29.214  33.158  1.00  0.00     0.049 A 
ATOM     47  H   UNL A   1      43.506  29.219  31.964  1.00  0.00     0.167 HD
ATOM     48  C   UNL A   1      45.662  27.486  31.437  1.00  0.00     0.074 A 
ATOM     49  C   UNL A   1      46.476  26.491  30.771  1.00  0.00     0.031 C 
ATOM     50  C   UNL A   1      46.059  28.216  32.509  1.00  0.00     0.031 A 
BRANCH  37  51
ATOM     51  C   UNL A   1      41.872  32.388  34.312  1.00  0.00    -0.014 A 
ATOM     52  C   UNL A   1      42.097  33.728  33.946  1.00  0.00     0.010 A 
ATOM     53  C   UNL A   1      41.278  32.104  35.554  1.00  0.00     0.010 A 
ATOM     54  C   UNL A   1      41.776  34.764  34.825  1.00  0.00     0.020 A 
ATOM     55  C   UNL A   1      40.936  33.139  36.428  1.00  0.00     0.020 A 
ATOM     56  C   UNL A   1      41.205  34.463  36.064  1.00  0.00     0.054 A 
BRANCH  56  57
ATOM     57  S   UNL A   1      40.796  35.827  37.185  1.00  0.00     0.124 S 
ATOM     58  O   UNL A   1      40.271  36.828  36.260  1.00  0.00    -0.237 OA
ATOM     59  O   UNL A   1      39.813  35.224  38.081  1.00  0.00    -0.237 OA
ATOM     60  O   UNL A   1      42.076  36.161  37.805  1.00  0.00    -0.744 OA
ENDBRANCH  56  57
ENDBRANCH  37  51
BRANCH  38  61
ATOM     61  C   UNL A   1      43.696  24.998  27.968  1.00  0.00    -0.014 A 
ATOM     62  C   UNL A   1      43.575  23.629  28.257  1.00  0.00     0.010 A 
ATOM     63  C   UNL A   1      44.112  25.394  26.682  1.00  0.00     0.010 A 
ATOM     64  C   UNL A   1      43.885  22.673  27.285  1.00  0.00     0.020 A 
ATOM     65  C   UNL A   1      44.406  24.442  25.702  1.00  0.00     0.020 A 
ATOM     66  C   UNL A   1      44.300  23.086  26.014  1.00  0.00     0.054 A 
BRANCH  66  67
ATOM     67  S   UNL A   1      44.670  21.823  24.765  1.00  0.00     0.124 S 
ATOM     68  O   UNL A   1      46.058  21.489  25.072  1.00  0.00    -0.237 OA
ATOM     69  O   UNL A   1      43.687  20.787  25.070  1.00  0.00    -0.237 OA
ATOM     70  O   UNL A   1      44.459  22.520  23.499  1.00  0.00    -0.744 OA
ENDBRANCH  66  67
ENDBRANCH  38  61
BRANCH  50  71
ATOM     71  C   UNL A   1      47.406  27.906  33.100  1.00  0.00    -0.014 A 
ATOM     72  C   UNL A   1      47.577  26.905  34.072  1.00  0.00     0.010 A 
ATOM     73  C   UNL A   1      48.533  28.608  32.633  1.00  0.00     0.010 A 
ATOM     74  C   UNL A   1      48.849  26.631  34.583  1.00  0.00     0.020 A 
ATOM     75  C   UNL A   1      49.809  28.319  33.123  1.00  0.00     0.020 A 
ATOM     76  C   UNL A   1      49.958  27.338  34.105  1.00  0.00     0.054 A 
BRANCH  76  77
ATOM     77  S   UNL A   1      51.604  26.929  34.745  1.00  0.00     0.124 S 
ATOM     78  O   UNL A   1      51.297  25.917  35.752  1.00  0.00    -0.237 OA
ATOM     79  O   UNL A   1      52.300  26.442  33.556  1.00  0.00    -0.237 OA
ATOM     80  O   UNL A   1      52.098  28.200  35.268  1.00  0.00    -0.744 OA
ENDBRANCH  76  77
ENDBRANCH  50  71
ENDBRANCH  24  25
ENDBRANCH  17  19
ENDBRANCH  16  17
ENDBRANCH  15  16
ENDBRANCH   1  15
TORSDOF 17
ENDMDL
MODEL 3
REMARK VINA RESULT:      -8.4      2.547      8.791
REMARK SMILES O=C(C[NH2+]Cc1cccs1)OCCOC(=O)c1ccc(-c2c3nc(c(-c4ccc(S(=O)(=O)[O-])cc4)c4ccc([nH]4)c(-c4ccc(S(=O)(=O)[O-])cc4)c4nc(c(-c5ccc(S(=O)(=O)[O-])cc5)c5ccc2[nH]5)C=C4)C=C3)cc1
REMARK SMILES IDX 12 1 11 2 2 3 1 4 3 5 4 6 5 9 6 10 7 11 10 12 8 13 9 14
REMARK SMILES IDX 13 15 14 16 15 17 16 18 17 19 18 20 76 21 19 22 75 23 20 24
REMARK SMILES IDX 21 25 22 26 69 27 23 28 74 29 68 30 70 31 24 32 73 33 67 34
REMARK SMILES IDX 66 35 25 37 55 38 36 39 54 40 37 41 40 42 53 43 71 44 38 45
REMARK SMILES IDX 39 46 52 48 72 49 41 50 26 51 27 52 35 53 28 54 34 55 29 56
REMARK SMILES IDX 30 57 31 58 32 59 33 60 56 61 57 62 65 63 58 64 64 65 59 66
REMARK SMILES IDX 60 67 61 68 62 69 63 70 42 71 43 72 51 73 44 74 50 75 45 76
REMARK SMILES IDX 46 77 47 78 48 79 49 80
REMARK H PARENT 4 7 4 8 70 36 40 47
REMARK Flexibility Score: inf
ROOT
ATOM      1  C   UNL A   1      33.990  34.141  28.398  1.00  0.00     0.274 C 
ENDROOT
BRANCH   1   2
ATOM      2  O   UNL A   1      33.204  34.525  29.546  1.00  0.00    -0.458 OA
BRANCH   2   3
ATOM      3  C   UNL A   1      32.871  35.802  29.859  1.00  0.00     0.361 C 
ATOM      4  O   UNL A   1      32.673  36.630  28.971  1.00  0.00    -0.245 OA
BRANCH   3   5
ATOM      5  C   UNL A   1      32.752  36.179  31.329  1.00  0.00     0.385 C 
BRANCH   5   6
ATOM      6  N   UNL A   1      33.978  36.831  31.811  1.00  0.00    -0.333 N 
ATOM      7  H   UNL A   1      33.739  37.753  32.179  1.00  0.00     0.347 HD
ATOM      8  H   UNL A   1      34.626  36.906  31.028  1.00  0.00     0.347 HD
BRANCH   6   9
ATOM      9  C   UNL A   1      34.627  36.051  32.871  1.00  0.00     0.308 C 
BRANCH   9  10
ATOM     10  C   UNL A   1      35.016  34.657  32.484  1.00  0.00     0.059 A 
ATOM     11  C   UNL A   1      35.971  34.221  31.586  1.00  0.00     0.021 A 
ATOM     12  S   UNL A   1      34.241  33.332  33.259  1.00  0.00    -0.143 S 
ATOM     13  C   UNL A   1      36.102  32.805  31.580  1.00  0.00     0.012 A 
ATOM     14  C   UNL A   1      35.218  32.197  32.443  1.00  0.00     0.065 A 
ENDBRANCH   9  10
ENDBRANCH   6   9
ENDBRANCH   5   6
ENDBRANCH   3   5
ENDBRANCH   2   3
ENDBRANCH   1   2
BRANCH   1  15
ATOM     15  C   UNL A   1      33.457  32.864  27.743  1.00  0.00     0.275 C 
BRANCH  15  16
ATOM     16  O   UNL A   1      33.878  31.693  28.469  1.00  0.00    -0.458 OA
BRANCH  16  17
ATOM     17  C   UNL A   1      34.439  30.706  27.725  1.00  0.00     0.338 C 
ATOM     18  O   UNL A   1      34.001  30.258  26.679  1.00  0.00    -0.246 OA
BRANCH  17  19
ATOM     19  C   UNL A   1      35.773  30.345  28.272  1.00  0.00     0.060 A 
ATOM     20  C   UNL A   1      35.819  29.695  29.514  1.00  0.00     0.016 A 
ATOM     21  C   UNL A   1      36.962  30.622  27.591  1.00  0.00     0.016 A 
ATOM     22  C   UNL A   1      37.047  29.359  30.093  1.00  0.00     0.010 A 
ATOM     23  C   UNL A   1      38.191  30.279  28.171  1.00  0.00     0.010 A 
ATOM     24  C   UNL A   1      38.245  29.670  29.439  1.00  0.00    -0.014 A 
BRANCH  24  25
ATOM     25  C   UNL A   1      39.559  29.470  30.104  1.00  0.00     0.031 A 
ATOM     26  C   UNL A   1      40.399  28.279  29.740  1.00  0.00     0.074 A 
ATOM     27  C   UNL A   1      40.014  30.321  31.043  1.00  0.00     0.049 A 
ATOM     28  N   UNL A   1      41.549  27.904  30.237  1.00  0.00    -0.248 NA
ATOM     29  C   UNL A   1      39.898  27.420  28.655  1.00  0.00     0.031 C 
ATOM     30  C   UNL A   1      39.371  31.568  31.438  1.00  0.00     0.029 A 
ATOM     31  N   UNL A   1      41.106  30.231  31.874  1.00  0.00    -0.354 N 
ATOM     32  C   UNL A   1      41.945  26.810  29.481  1.00  0.00     0.074 A 
ATOM     33  C   UNL A   1      40.869  26.523  28.555  1.00  0.00     0.031 C 
ATOM     34  C   UNL A   1      40.012  32.069  32.508  1.00  0.00     0.029 A 
ATOM     35  C   UNL A   1      41.105  31.177  32.871  1.00  0.00     0.049 A 
ATOM     36  H   UNL A   1      41.816  29.558  31.764  1.00  0.00     0.167 HD
ATOM     37  C   UNL A   1      43.121  26.139  29.516  1.00  0.00     0.031 A 
ATOM     38  C   UNL A   1      41.867  31.292  33.976  1.00  0.00     0.031 A 
ATOM     39  C   UNL A   1      44.177  26.393  30.459  1.00  0.00     0.049 A 
ATOM     40  C   UNL A   1      43.040  30.375  34.165  1.00  0.00     0.074 A 
ATOM     41  C   UNL A   1      45.424  25.798  30.537  1.00  0.00     0.029 A 
ATOM     42  N   UNL A   1      44.100  27.295  31.508  1.00  0.00    -0.354 N 
ATOM     43  N   UNL A   1      43.447  29.399  33.391  1.00  0.00    -0.248 NA
ATOM     44  C   UNL A   1      43.892  30.610  35.339  1.00  0.00     0.031 C 
ATOM     45  C   UNL A   1      46.079  26.299  31.669  1.00  0.00     0.029 A 
ATOM     46  C   UNL A   1      45.260  27.243  32.265  1.00  0.00     0.049 A 
ATOM     47  H   UNL A   1      43.334  27.887  31.690  1.00  0.00     0.167 HD
ATOM     48  C   UNL A   1      44.650  28.965  33.933  1.00  0.00     0.074 A 
ATOM     49  C   UNL A   1      44.882  29.752  35.126  1.00  0.00     0.031 C 
ATOM     50  C   UNL A   1      45.504  28.030  33.448  1.00  0.00     0.031 A 
BRANCH  37  51
ATOM     51  C   UNL A   1      43.326  25.076  28.477  1.00  0.00    -0.014 A 
ATOM     52  C   UNL A   1      43.040  23.729  28.769  1.00  0.00     0.010 A 
ATOM     53  C   UNL A   1      43.781  25.419  27.192  1.00  0.00     0.010 A 
ATOM     54  C   UNL A   1      43.248  22.738  27.809  1.00  0.00     0.020 A 
ATOM     55  C   UNL A   1      43.970  24.432  26.221  1.00  0.00     0.020 A 
ATOM     56  C   UNL A   1      43.720  23.094  26.543  1.00  0.00     0.054 A 
BRANCH  56  57
ATOM     57  S   UNL A   1      43.979  21.788  25.314  1.00  0.00     0.124 S 
ATOM     58  O   UNL A   1      45.298  21.282  25.689  1.00  0.00    -0.237 OA
ATOM     59  O   UNL A   1      42.864  20.881  25.568  1.00  0.00    -0.237 OA
ATOM     60  O   UNL A   1      43.923  22.497  24.037  1.00  0.00    -0.744 OA
ENDBRANCH  56  57
ENDBRANCH  37  51
BRANCH  38  61
ATOM     61  C   UNL A   1      41.528  32.312  35.004  1.00  0.00    -0.014 A 
ATOM     62  C   UNL A   1      42.026  33.622  34.922  1.00  0.00     0.010 A 
ATOM     63  C   UNL A   1      40.702  31.957  36.087  1.00  0.00     0.010 A 
ATOM     64  C   UNL A   1      41.721  34.555  35.918  1.00  0.00     0.020 A 
ATOM     65  C   UNL A   1      40.381  32.891  37.075  1.00  0.00     0.020 A 
ATOM     66  C   UNL A   1      40.902  34.183  36.989  1.00  0.00     0.054 A 
BRANCH  66  67
ATOM     67  S   UNL A   1      40.502  35.423  38.252  1.00  0.00     0.124 S 
ATOM     68  O   UNL A   1      41.713  35.429  39.067  1.00  0.00    -0.237 OA
ATOM     69  O   UNL A   1      40.272  36.622  37.450  1.00  0.00    -0.237 OA
ATOM     70  O   UNL A   1      39.312  34.878  38.902  1.00  0.00    -0.744 OA
ENDBRANCH  66  67
ENDBRANCH  38  61
BRANCH  50  71
ATOM     71  C   UNL A   1      46.823  27.861  34.151  1.00  0.00    -0.014 A 
ATOM     72  C   UNL A   1      47.002  26.914  35.174  1.00  0.00     0.010 A 
ATOM     73  C   UNL A   1      47.919  28.643  33.741  1.00  0.00     0.010 A 
ATOM     74  C   UNL A   1      48.249  26.770  35.790  1.00  0.00     0.020 A 
ATOM     75  C   UNL A   1      49.173  28.485  34.337  1.00  0.00     0.020 A 
ATOM     76  C   UNL A   1      49.327  27.556  35.367  1.00  0.00     0.054 A 
BRANCH  76  77
ATOM     77  S   UNL A   1      50.948  27.316  36.145  1.00  0.00     0.124 S 
ATOM     78  O   UNL A   1      51.333  28.685  36.474  1.00  0.00    -0.237 OA
ATOM     79  O   UNL A   1      50.633  26.460  37.286  1.00  0.00    -0.237 OA
ATOM     80  O   UNL A   1      51.743  26.678  35.098  1.00  0.00    -0.744 OA
ENDBRANCH  76  77
ENDBRANCH  50  71
ENDBRANCH  24  25
ENDBRANCH  17  19
ENDBRANCH  16  17
ENDBRANCH  15  16
ENDBRANCH   1  15
TORSDOF 17
ENDMDL
