MODEL 1
REMARK VINA RESULT:     -10.4      0.000      0.000
REMARK SMILES Cn1ncc(C(=O)OCCOC(=O)c2ccc(-c3c4nc(c(-c5ccc(S(=O)(=O)[O-])cc5)c5ccc([nH]5)c(-c5ccc(S(=O)(=O)[O-])cc5)c5nc(c(-c6ccc(S(=O)(=O)[O-])cc6)c6ccc3[nH]6)C=C5)C=C4)cc2)c1C(=O)N1CCN(S(C)(=O)=O)CC1
REMARK SMILES IDX 10 1 9 2 8 3 6 4 7 5 5 6 1 7 2 8 3 9 74 10 4 11 75 12 76 13
REMARK SMILES IDX 77 14 78 15 86 16 79 17 85 18 80 19 81 20 82 21 83 22 84 23
REMARK SMILES IDX 11 24 12 25 13 26 14 27 15 28 73 29 16 30 72 31 17 32 18 33
REMARK SMILES IDX 19 34 66 35 20 36 71 37 65 38 67 39 21 40 70 41 64 42 63 43
REMARK SMILES IDX 22 45 52 46 33 47 51 48 34 49 37 50 50 51 68 52 35 53 36 54
REMARK SMILES IDX 49 56 69 57 38 58 23 59 24 60 32 61 25 62 31 63 26 64 27 65
REMARK SMILES IDX 28 66 29 67 30 68 53 69 54 70 62 71 55 72 61 73 56 74 57 75
REMARK SMILES IDX 58 76 59 77 60 78 39 79 40 80 48 81 41 82 47 83 42 84 43 85
REMARK SMILES IDX 44 86 45 87 46 88
REMARK H PARENT 67 44 37 55
REMARK Flexibility Score: inf
ROOT
ATOM      1  C   UNL A   1      35.301  31.117  28.558  1.00  0.00     0.275 C 
ENDROOT
BRANCH   1   2
ATOM      2  C   UNL A   1      35.450  32.467  27.857  1.00  0.00     0.275 C 
BRANCH   2   3
ATOM      3  O   UNL A   1      35.165  33.551  28.763  1.00  0.00    -0.458 OA
BRANCH   3   4
ATOM      4  C   UNL A   1      33.879  34.006  28.766  1.00  0.00     0.342 C 
ATOM      5  O   UNL A   1      32.985  33.550  28.064  1.00  0.00    -0.246 OA
BRANCH   4   6
ATOM      6  C   UNL A   1      33.606  35.003  29.787  1.00  0.00     0.111 A 
ATOM      7  C   UNL A   1      33.514  36.800  32.926  1.00  0.00     0.174 C 
ATOM      8  N   UNL A   1      33.413  36.200  31.618  1.00  0.00    -0.262 N 
ATOM      9  N   UNL A   1      33.025  37.031  30.638  1.00  0.00    -0.180 NA
ATOM     10  C   UNL A   1      33.774  34.939  31.175  1.00  0.00     0.140 A 
ATOM     11  C   UNL A   1      33.231  36.336  29.530  1.00  0.00     0.151 A 
BRANCH  10  12
ATOM     12  C   UNL A   1      34.397  33.848  31.900  1.00  0.00     0.273 C 
ATOM     13  O   UNL A   1      33.758  32.886  32.327  1.00  0.00    -0.267 OA
ATOM     14  N   UNL A   1      35.782  33.788  31.926  1.00  0.00    -0.335 N 
ATOM     15  C   UNL A   1      36.360  32.470  31.683  1.00  0.00     0.136 C 
ATOM     16  C   UNL A   1      36.567  34.646  32.815  1.00  0.00     0.136 C 
ATOM     17  C   UNL A   1      37.777  32.592  31.134  1.00  0.00     0.123 C 
ATOM     18  C   UNL A   1      38.037  34.758  32.362  1.00  0.00     0.123 C 
ATOM     19  N   UNL A   1      38.623  33.433  32.019  1.00  0.00    -0.199 NA
BRANCH  19  20
ATOM     20  S   UNL A   1      39.730  32.710  33.049  1.00  0.00     0.211 S 
ATOM     21  C   UNL A   1      39.935  31.088  32.347  1.00  0.00     0.176 C 
ATOM     22  O   UNL A   1      40.989  33.408  32.921  1.00  0.00    -0.213 OA
ATOM     23  O   UNL A   1      39.091  32.547  34.339  1.00  0.00    -0.213 OA
ENDBRANCH  19  20
ENDBRANCH  10  12
ENDBRANCH   4   6
ENDBRANCH   3   4
ENDBRANCH   2   3
ENDBRANCH   1   2
BRANCH   1  24
ATOM     24  O   UNL A   1      36.372  30.238  28.170  1.00  0.00    -0.458 OA
BRANCH  24  25
ATOM     25  C   UNL A   1      36.969  29.572  29.186  1.00  0.00     0.338 C 
ATOM     26  O   UNL A   1      36.478  29.240  30.251  1.00  0.00    -0.246 OA
BRANCH  25  27
ATOM     27  C   UNL A   1      38.324  29.177  28.775  1.00  0.00     0.060 A 
ATOM     28  C   UNL A   1      39.147  28.600  29.735  1.00  0.00     0.016 A 
ATOM     29  C   UNL A   1      38.832  29.497  27.521  1.00  0.00     0.016 A 
ATOM     30  C   UNL A   1      40.503  28.414  29.491  1.00  0.00     0.010 A 
ATOM     31  C   UNL A   1      40.179  29.224  27.240  1.00  0.00     0.010 A 
ATOM     32  C   UNL A   1      41.038  28.711  28.233  1.00  0.00    -0.014 A 
BRANCH  32  33
ATOM     33  C   UNL A   1      42.496  28.533  27.981  1.00  0.00     0.031 A 
ATOM     34  C   UNL A   1      43.458  29.650  28.300  1.00  0.00     0.074 A 
ATOM     35  C   UNL A   1      42.972  27.368  27.495  1.00  0.00     0.049 A 
ATOM     36  N   UNL A   1      44.726  29.760  27.999  1.00  0.00    -0.248 NA
ATOM     37  C   UNL A   1      42.917  30.801  29.044  1.00  0.00     0.031 C 
ATOM     38  C   UNL A   1      42.172  26.176  27.205  1.00  0.00     0.029 A 
ATOM     39  N   UNL A   1      44.251  26.991  27.163  1.00  0.00    -0.354 N 
ATOM     40  C   UNL A   1      45.121  31.011  28.464  1.00  0.00     0.074 A 
ATOM     41  C   UNL A   1      43.955  31.624  29.062  1.00  0.00     0.031 C 
ATOM     42  C   UNL A   1      42.980  25.195  26.774  1.00  0.00     0.029 A 
ATOM     43  C   UNL A   1      44.338  25.711  26.666  1.00  0.00     0.049 A 
ATOM     44  H   UNL A   1      45.033  27.581  27.271  1.00  0.00     0.167 HD
ATOM     45  C   UNL A   1      46.342  31.595  28.395  1.00  0.00     0.031 A 
ATOM     46  C   UNL A   1      45.380  25.038  26.137  1.00  0.00     0.031 A 
ATOM     47  C   UNL A   1      47.509  30.963  27.835  1.00  0.00     0.049 A 
ATOM     48  C   UNL A   1      46.711  25.727  26.019  1.00  0.00     0.074 A 
ATOM     49  C   UNL A   1      48.792  31.470  27.726  1.00  0.00     0.029 A 
ATOM     50  N   UNL A   1      47.539  29.682  27.303  1.00  0.00    -0.354 N 
ATOM     51  N   UNL A   1      47.052  26.931  26.412  1.00  0.00    -0.248 NA
ATOM     52  C   UNL A   1      47.793  24.972  25.372  1.00  0.00     0.031 C 
ATOM     53  C   UNL A   1      49.587  30.513  27.086  1.00  0.00     0.029 A 
ATOM     54  C   UNL A   1      48.813  29.390  26.847  1.00  0.00     0.049 A 
ATOM     55  H   UNL A   1      46.767  29.072  27.258  1.00  0.00     0.167 HD
ATOM     56  C   UNL A   1      48.392  27.073  26.070  1.00  0.00     0.074 A 
ATOM     57  C   UNL A   1      48.805  25.825  25.461  1.00  0.00     0.031 C 
ATOM     58  C   UNL A   1      49.206  28.144  26.241  1.00  0.00     0.031 A 
BRANCH  45  59
ATOM     59  C   UNL A   1      46.469  33.010  28.896  1.00  0.00    -0.014 A 
ATOM     60  C   UNL A   1      46.885  33.295  30.208  1.00  0.00     0.010 A 
ATOM     61  C   UNL A   1      46.205  34.077  28.016  1.00  0.00     0.010 A 
ATOM     62  C   UNL A   1      46.995  34.619  30.644  1.00  0.00     0.020 A 
ATOM     63  C   UNL A   1      46.341  35.402  28.439  1.00  0.00     0.020 A 
ATOM     64  C   UNL A   1      46.718  35.665  29.758  1.00  0.00     0.054 A 
BRANCH  64  65
ATOM     65  S   UNL A   1      46.887  37.374  30.343  1.00  0.00     0.124 S 
ATOM     66  O   UNL A   1      45.579  37.616  30.945  1.00  0.00    -0.237 OA
ATOM     67  O   UNL A   1      48.003  37.284  31.281  1.00  0.00    -0.237 OA
ATOM     68  O   UNL A   1      47.161  38.133  29.125  1.00  0.00    -0.744 OA
ENDBRANCH  64  65
ENDBRANCH  45  59
BRANCH  46  69
ATOM     69  C   UNL A   1      45.186  23.655  25.618  1.00  0.00    -0.014 A 
ATOM     70  C   UNL A   1      44.731  23.436  24.306  1.00  0.00     0.010 A 
ATOM     71  C   UNL A   1      45.468  22.545  26.436  1.00  0.00     0.010 A 
ATOM     72  C   UNL A   1      44.549  22.135  23.827  1.00  0.00     0.020 A 
ATOM     73  C   UNL A   1      45.318  21.243  25.951  1.00  0.00     0.020 A 
ATOM     74  C   UNL A   1      44.847  21.046  24.652  1.00  0.00     0.054 A 
BRANCH  74  75
ATOM     75  S   UNL A   1      44.657  19.366  23.994  1.00  0.00     0.124 S 
ATOM     76  O   UNL A   1      45.920  18.745  24.380  1.00  0.00    -0.237 OA
ATOM     77  O   UNL A   1      43.472  18.882  24.697  1.00  0.00    -0.237 OA
ATOM     78  O   UNL A   1      44.477  19.580  22.560  1.00  0.00    -0.744 OA
ENDBRANCH  74  75
ENDBRANCH  46  69
BRANCH  58  79
ATOM     79  C   UNL A   1      50.634  28.002  25.789  1.00  0.00    -0.014 A 
ATOM     80  C   UNL A   1      51.632  27.539  26.664  1.00  0.00     0.010 A 
ATOM     81  C   UNL A   1      50.971  28.290  24.454  1.00  0.00     0.010 A 
ATOM     82  C   UNL A   1      52.950  27.396  26.220  1.00  0.00     0.020 A 
ATOM     83  C   UNL A   1      52.281  28.124  23.999  1.00  0.00     0.020 A 
ATOM     84  C   UNL A   1      53.266  27.690  24.890  1.00  0.00     0.054 A 
BRANCH  84  85
ATOM     85  S   UNL A   1      54.973  27.454  24.326  1.00  0.00     0.124 S 
ATOM     86  O   UNL A   1      55.731  28.174  25.344  1.00  0.00    -0.237 OA
ATOM     87  O   UNL A   1      55.120  26.001  24.342  1.00  0.00    -0.237 OA
ATOM     88  O   UNL A   1      54.985  28.060  22.996  1.00  0.00    -0.744 OA
ENDBRANCH  84  85
ENDBRANCH  58  79
ENDBRANCH  32  33
ENDBRANCH  25  27
ENDBRANCH  24  25
ENDBRANCH   1  24
TORSDOF 16
ENDMDL
MODEL 2
REMARK VINA RESULT:     -10.4      5.650     14.483
REMARK SMILES Cn1ncc(C(=O)OCCOC(=O)c2ccc(-c3c4nc(c(-c5ccc(S(=O)(=O)[O-])cc5)c5ccc([nH]5)c(-c5ccc(S(=O)(=O)[O-])cc5)c5nc(c(-c6ccc(S(=O)(=O)[O-])cc6)c6ccc3[nH]6)C=C5)C=C4)cc2)c1C(=O)N1CCN(S(C)(=O)=O)CC1
REMARK SMILES IDX 10 1 9 2 8 3 6 4 7 5 5 6 1 7 2 8 3 9 74 10 4 11 75 12 76 13
REMARK SMILES IDX 77 14 78 15 86 16 79 17 85 18 80 19 81 20 82 21 83 22 84 23
REMARK SMILES IDX 11 24 12 25 13 26 14 27 15 28 73 29 16 30 72 31 17 32 18 33
REMARK SMILES IDX 19 34 66 35 20 36 71 37 65 38 67 39 21 40 70 41 64 42 63 43
REMARK SMILES IDX 22 45 52 46 33 47 51 48 34 49 37 50 50 51 68 52 35 53 36 54
REMARK SMILES IDX 49 56 69 57 38 58 23 59 24 60 32 61 25 62 31 63 26 64 27 65
REMARK SMILES IDX 28 66 29 67 30 68 53 69 54 70 62 71 55 72 61 73 56 74 57 75
REMARK SMILES IDX 58 76 59 77 60 78 39 79 40 80 48 81 41 82 47 83 42 84 43 85
REMARK SMILES IDX 44 86 45 87 46 88
REMARK H PARENT 67 44 37 55
REMARK Flexibility Score: inf
ROOT
ATOM      1  C   UNL A   1      38.544  23.809  26.239  1.00  0.00     0.275 C 
ENDROOT
BRANCH   1   2
ATOM      2  C   UNL A   1      38.874  22.318  26.272  1.00  0.00     0.275 C 
BRANCH   2   3
ATOM      3  O   UNL A   1      40.263  22.091  25.964  1.00  0.00    -0.458 OA
BRANCH   3   4
ATOM      4  C   UNL A   1      40.976  21.393  26.894  1.00  0.00     0.342 C 
ATOM      5  O   UNL A   1      40.705  21.358  28.088  1.00  0.00    -0.246 OA
BRANCH   4   6
ATOM      6  C   UNL A   1      42.027  20.561  26.331  1.00  0.00     0.111 A 
ATOM      7  C   UNL A   1      45.119  19.452  24.816  1.00  0.00     0.174 C 
ATOM      8  N   UNL A   1      43.820  19.721  25.384  1.00  0.00    -0.262 N 
ATOM      9  N   UNL A   1      43.203  18.658  25.923  1.00  0.00    -0.180 NA
ATOM     10  C   UNL A   1      43.155  20.918  25.585  1.00  0.00     0.140 A 
ATOM     11  C   UNL A   1      42.173  19.181  26.570  1.00  0.00     0.151 A 
BRANCH  10  12
ATOM     12  C   UNL A   1      43.589  22.274  25.308  1.00  0.00     0.273 C 
ATOM     13  O   UNL A   1      43.474  22.793  24.197  1.00  0.00    -0.267 OA
ATOM     14  N   UNL A   1      43.948  23.077  26.379  1.00  0.00    -0.335 N 
ATOM     15  C   UNL A   1      43.418  24.437  26.353  1.00  0.00     0.136 C 
ATOM     16  C   UNL A   1      45.250  22.940  27.034  1.00  0.00     0.136 C 
ATOM     17  C   UNL A   1      43.331  25.012  27.762  1.00  0.00     0.123 C 
ATOM     18  C   UNL A   1      45.259  23.568  28.443  1.00  0.00     0.123 C 
ATOM     19  N   UNL A   1      44.639  24.921  28.459  1.00  0.00    -0.199 NA
BRANCH  19  20
ATOM     20  S   UNL A   1      45.601  26.286  28.611  1.00  0.00     0.211 S 
ATOM     21  C   UNL A   1      46.747  25.831  29.894  1.00  0.00     0.176 C 
ATOM     22  O   UNL A   1      46.352  26.449  27.387  1.00  0.00    -0.213 OA
ATOM     23  O   UNL A   1      44.772  27.354  29.130  1.00  0.00    -0.213 OA
ENDBRANCH  19  20
ENDBRANCH  10  12
ENDBRANCH   4   6
ENDBRANCH   3   4
ENDBRANCH   2   3
ENDBRANCH   1   2
BRANCH   1  24
ATOM     24  O   UNL A   1      39.196  24.485  27.329  1.00  0.00    -0.458 OA
BRANCH  24  25
ATOM     25  C   UNL A   1      39.848  25.624  26.996  1.00  0.00     0.338 C 
ATOM     26  O   UNL A   1      40.371  25.898  25.929  1.00  0.00    -0.246 OA
BRANCH  25  27
ATOM     27  C   UNL A   1      39.741  26.584  28.103  1.00  0.00     0.060 A 
ATOM     28  C   UNL A   1      40.454  27.772  27.998  1.00  0.00     0.016 A 
ATOM     29  C   UNL A   1      39.078  26.270  29.284  1.00  0.00     0.016 A 
ATOM     30  C   UNL A   1      40.589  28.620  29.091  1.00  0.00     0.010 A 
ATOM     31  C   UNL A   1      39.136  27.169  30.359  1.00  0.00     0.010 A 
ATOM     32  C   UNL A   1      39.920  28.338  30.286  1.00  0.00    -0.014 A 
BRANCH  32  33
ATOM     33  C   UNL A   1      40.085  29.236  31.464  1.00  0.00     0.031 A 
ATOM     34  C   UNL A   1      41.276  29.073  32.375  1.00  0.00     0.074 A 
ATOM     35  C   UNL A   1      39.192  30.217  31.711  1.00  0.00     0.049 A 
ATOM     36  N   UNL A   1      41.512  29.631  33.535  1.00  0.00    -0.248 NA
ATOM     37  C   UNL A   1      42.334  28.151  31.927  1.00  0.00     0.031 C 
ATOM     38  C   UNL A   1      38.029  30.539  30.880  1.00  0.00     0.029 A 
ATOM     39  N   UNL A   1      39.125  31.132  32.734  1.00  0.00    -0.354 N 
ATOM     40  C   UNL A   1      42.712  29.086  33.981  1.00  0.00     0.074 A 
ATOM     41  C   UNL A   1      43.152  28.150  32.970  1.00  0.00     0.031 C 
ATOM     42  C   UNL A   1      37.389  31.595  31.405  1.00  0.00     0.029 A 
ATOM     43  C   UNL A   1      38.035  31.968  32.657  1.00  0.00     0.049 A 
ATOM     44  H   UNL A   1      39.795  31.185  33.455  1.00  0.00     0.167 HD
ATOM     45  C   UNL A   1      43.384  29.341  35.131  1.00  0.00     0.031 A 
ATOM     46  C   UNL A   1      37.573  32.898  33.517  1.00  0.00     0.031 A 
ATOM     47  C   UNL A   1      42.962  30.304  36.115  1.00  0.00     0.049 A 
ATOM     48  C   UNL A   1      38.304  33.124  34.811  1.00  0.00     0.074 A 
ATOM     49  C   UNL A   1      43.578  30.640  37.309  1.00  0.00     0.029 A 
ATOM     50  N   UNL A   1      41.828  31.096  36.015  1.00  0.00    -0.354 N 
ATOM     51  N   UNL A   1      39.405  32.559  35.243  1.00  0.00    -0.248 NA
ATOM     52  C   UNL A   1      37.718  34.100  35.741  1.00  0.00     0.031 C 
ATOM     53  C   UNL A   1      42.791  31.601  37.952  1.00  0.00     0.029 A 
ATOM     54  C   UNL A   1      41.715  31.904  37.133  1.00  0.00     0.049 A 
ATOM     55  H   UNL A   1      41.196  31.084  35.259  1.00  0.00     0.167 HD
ATOM     56  C   UNL A   1      39.653  33.121  36.491  1.00  0.00     0.074 A 
ATOM     57  C   UNL A   1      38.599  34.086  36.733  1.00  0.00     0.031 C 
ATOM     58  C   UNL A   1      40.659  32.857  37.360  1.00  0.00     0.031 A 
BRANCH  45  59
ATOM     59  C   UNL A   1      44.623  28.531  35.412  1.00  0.00    -0.014 A 
ATOM     60  C   UNL A   1      45.903  28.993  35.060  1.00  0.00     0.010 A 
ATOM     61  C   UNL A   1      44.501  27.298  36.080  1.00  0.00     0.010 A 
ATOM     62  C   UNL A   1      47.035  28.219  35.335  1.00  0.00     0.020 A 
ATOM     63  C   UNL A   1      45.632  26.534  36.381  1.00  0.00     0.020 A 
ATOM     64  C   UNL A   1      46.891  26.992  35.990  1.00  0.00     0.054 A 
BRANCH  64  65
ATOM     65  S   UNL A   1      48.378  26.017  36.351  1.00  0.00     0.124 S 
ATOM     66  O   UNL A   1      49.260  26.394  35.250  1.00  0.00    -0.237 OA
ATOM     67  O   UNL A   1      48.773  26.508  37.669  1.00  0.00    -0.237 OA
ATOM     68  O   UNL A   1      47.903  24.635  36.322  1.00  0.00    -0.744 OA
ENDBRANCH  64  65
ENDBRANCH  45  59
BRANCH  46  69
ATOM     69  C   UNL A   1      36.319  33.640  33.208  1.00  0.00    -0.014 A 
ATOM     70  C   UNL A   1      36.363  34.907  32.602  1.00  0.00     0.010 A 
ATOM     71  C   UNL A   1      35.067  33.073  33.513  1.00  0.00     0.010 A 
ATOM     72  C   UNL A   1      35.181  35.598  32.317  1.00  0.00     0.020 A 
ATOM     73  C   UNL A   1      33.882  33.747  33.201  1.00  0.00     0.020 A 
ATOM     74  C   UNL A   1      33.947  35.011  32.616  1.00  0.00     0.054 A 
BRANCH  74  75
ATOM     75  S   UNL A   1      32.424  35.900  32.189  1.00  0.00     0.124 S 
ATOM     76  O   UNL A   1      32.549  37.115  32.989  1.00  0.00    -0.237 OA
ATOM     77  O   UNL A   1      32.553  36.076  30.745  1.00  0.00    -0.237 OA
ATOM     78  O   UNL A   1      31.366  34.983  32.605  1.00  0.00    -0.744 OA
ENDBRANCH  74  75
ENDBRANCH  46  69
BRANCH  58  79
ATOM     79  C   UNL A   1      40.686  33.645  38.642  1.00  0.00    -0.014 A 
ATOM     80  C   UNL A   1      41.316  34.899  38.713  1.00  0.00     0.010 A 
ATOM     81  C   UNL A   1      40.028  33.142  39.779  1.00  0.00     0.010 A 
ATOM     82  C   UNL A   1      41.313  35.625  39.908  1.00  0.00     0.020 A 
ATOM     83  C   UNL A   1      40.001  33.875  40.968  1.00  0.00     0.020 A 
ATOM     84  C   UNL A   1      40.655  35.106  41.028  1.00  0.00     0.054 A 
BRANCH  84  85
ATOM     85  S   UNL A   1      40.629  36.086  42.554  1.00  0.00     0.124 S 
ATOM     86  O   UNL A   1      41.121  35.127  43.539  1.00  0.00    -0.237 OA
ATOM     87  O   UNL A   1      41.533  37.190  42.244  1.00  0.00    -0.237 OA
ATOM     88  O   UNL A   1      39.224  36.461  42.700  1.00  0.00    -0.744 OA
ENDBRANCH  84  85
ENDBRANCH  58  79
ENDBRANCH  32  33
ENDBRANCH  25  27
ENDBRANCH  24  25
ENDBRANCH   1  24
TORSDOF 16
ENDMDL
MODEL 3
REMARK VINA RESULT:     -10.3      4.457      6.041
REMARK SMILES Cn1ncc(C(=O)OCCOC(=O)c2ccc(-c3c4nc(c(-c5ccc(S(=O)(=O)[O-])cc5)c5ccc([nH]5)c(-c5ccc(S(=O)(=O)[O-])cc5)c5nc(c(-c6ccc(S(=O)(=O)[O-])cc6)c6ccc3[nH]6)C=C5)C=C4)cc2)c1C(=O)N1CCN(S(C)(=O)=O)CC1
REMARK SMILES IDX 10 1 9 2 8 3 6 4 7 5 5 6 1 7 2 8 3 9 74 10 4 11 75 12 76 13
REMARK SMILES IDX 77 14 78 15 86 16 79 17 85 18 80 19 81 20 82 21 83 22 84 23
REMARK SMILES IDX 11 24 12 25 13 26 14 27 15 28 73 29 16 30 72 31 17 32 18 33
REMARK SMILES IDX 19 34 66 35 20 36 71 37 65 38 67 39 21 40 70 41 64 42 63 43
REMARK SMILES IDX 22 45 52 46 33 47 51 48 34 49 37 50 50 51 68 52 35 53 36 54
REMARK SMILES IDX 49 56 69 57 38 58 23 59 24 60 32 61 25 62 31 63 26 64 27 65
REMARK SMILES IDX 28 66 29 67 30 68 53 69 54 70 62 71 55 72 61 73 56 74 57 75
REMARK SMILES IDX 58 76 59 77 60 78 39 79 40 80 48 81 41 82 47 83 42 84 43 85
REMARK SMILES IDX 44 86 45 87 46 88
REMARK H PARENT 67 44 37 55
REMARK Flexibility Score: inf
ROOT
ATOM      1  C   UNL A   1      34.024  31.167  27.706  1.00  0.00     0.275 C 
ENDROOT
BRANCH   1   2
ATOM      2  C   UNL A   1      32.781  30.416  27.230  1.00  0.00     0.275 C 
BRANCH   2   3
ATOM      3  O   UNL A   1      32.699  30.417  25.792  1.00  0.00    -0.458 OA
BRANCH   3   4
ATOM      4  C   UNL A   1      32.953  29.227  25.176  1.00  0.00     0.342 C 
ATOM      5  O   UNL A   1      34.034  28.652  25.208  1.00  0.00    -0.246 OA
BRANCH   4   6
ATOM      6  C   UNL A   1      31.782  28.606  24.581  1.00  0.00     0.111 A 
ATOM      7  C   UNL A   1      28.922  26.467  24.002  1.00  0.00     0.174 C 
ATOM      8  N   UNL A   1      30.047  27.370  24.051  1.00  0.00    -0.262 N 
ATOM      9  N   UNL A   1      29.975  28.415  23.213  1.00  0.00    -0.180 NA
ATOM     10  C   UNL A   1      31.130  27.412  24.911  1.00  0.00     0.140 A 
ATOM     11  C   UNL A   1      30.969  29.201  23.598  1.00  0.00     0.151 A 
BRANCH  10  12
ATOM     12  C   UNL A   1      31.440  26.569  26.050  1.00  0.00     0.273 C 
ATOM     13  O   UNL A   1      31.119  26.865  27.201  1.00  0.00    -0.267 OA
ATOM     14  N   UNL A   1      31.925  25.293  25.805  1.00  0.00    -0.335 N 
ATOM     15  C   UNL A   1      31.327  24.228  26.604  1.00  0.00     0.136 C 
ATOM     16  C   UNL A   1      33.321  25.066  25.429  1.00  0.00     0.136 C 
ATOM     17  C   UNL A   1      31.439  22.886  25.889  1.00  0.00     0.123 C 
ATOM     18  C   UNL A   1      33.526  23.690  24.764  1.00  0.00     0.123 C 
ATOM     19  N   UNL A   1      32.846  22.597  25.511  1.00  0.00    -0.199 NA
BRANCH  19  20
ATOM     20  S   UNL A   1      33.745  21.509  26.414  1.00  0.00     0.211 S 
ATOM     21  C   UNL A   1      35.423  22.007  26.092  1.00  0.00     0.176 C 
ATOM     22  O   UNL A   1      33.475  21.749  27.813  1.00  0.00    -0.213 OA
ATOM     23  O   UNL A   1      33.565  20.196  25.830  1.00  0.00    -0.213 OA
ENDBRANCH  19  20
ENDBRANCH  10  12
ENDBRANCH   4   6
ENDBRANCH   3   4
ENDBRANCH   2   3
ENDBRANCH   1   2
BRANCH   1  24
ATOM     24  O   UNL A   1      35.100  30.242  27.945  1.00  0.00    -0.458 OA
BRANCH  24  25
ATOM     25  C   UNL A   1      35.911  30.553  28.984  1.00  0.00     0.338 C 
ATOM     26  O   UNL A   1      35.625  31.176  29.991  1.00  0.00    -0.246 OA
BRANCH  25  27
ATOM     27  C   UNL A   1      37.218  29.911  28.786  1.00  0.00     0.060 A 
ATOM     28  C   UNL A   1      37.927  29.531  29.919  1.00  0.00     0.016 A 
ATOM     29  C   UNL A   1      37.805  29.816  27.530  1.00  0.00     0.016 A 
ATOM     30  C   UNL A   1      39.256  29.134  29.826  1.00  0.00     0.010 A 
ATOM     31  C   UNL A   1      39.116  29.327  27.425  1.00  0.00     0.010 A 
ATOM     32  C   UNL A   1      39.868  29.013  28.574  1.00  0.00    -0.014 A 
BRANCH  32  33
ATOM     33  C   UNL A   1      41.300  28.611  28.479  1.00  0.00     0.031 A 
ATOM     34  C   UNL A   1      42.386  29.629  28.718  1.00  0.00     0.074 A 
ATOM     35  C   UNL A   1      41.638  27.333  28.207  1.00  0.00     0.049 A 
ATOM     36  N   UNL A   1      43.675  29.525  28.516  1.00  0.00    -0.248 NA
ATOM     37  C   UNL A   1      41.966  30.940  29.239  1.00  0.00     0.031 C 
ATOM     38  C   UNL A   1      40.698  26.224  28.022  1.00  0.00     0.029 A 
ATOM     39  N   UNL A   1      42.870  26.746  28.046  1.00  0.00    -0.354 N 
ATOM     40  C   UNL A   1      44.211  30.770  28.830  1.00  0.00     0.074 A 
ATOM     41  C   UNL A   1      43.106  31.615  29.229  1.00  0.00     0.031 C 
ATOM     42  C   UNL A   1      41.386  25.092  27.808  1.00  0.00     0.029 A 
ATOM     43  C   UNL A   1      42.808  25.404  27.746  1.00  0.00     0.049 A 
ATOM     44  H   UNL A   1      43.718  27.239  28.136  1.00  0.00     0.167 HD
ATOM     45  C   UNL A   1      45.504  31.173  28.785  1.00  0.00     0.031 A 
ATOM     46  C   UNL A   1      43.777  24.529  27.412  1.00  0.00     0.031 A 
ATOM     47  C   UNL A   1      46.604  30.317  28.425  1.00  0.00     0.049 A 
ATOM     48  C   UNL A   1      45.197  25.012  27.314  1.00  0.00     0.074 A 
ATOM     49  C   UNL A   1      47.951  30.629  28.357  1.00  0.00     0.029 A 
ATOM     50  N   UNL A   1      46.489  28.977  28.086  1.00  0.00    -0.354 N 
ATOM     51  N   UNL A   1      45.678  26.207  27.558  1.00  0.00    -0.248 NA
ATOM     52  C   UNL A   1      46.202  24.033  26.878  1.00  0.00     0.031 C 
ATOM     53  C   UNL A   1      48.644  29.490  27.932  1.00  0.00     0.029 A 
ATOM     54  C   UNL A   1      47.736  28.454  27.790  1.00  0.00     0.049 A 
ATOM     55  H   UNL A   1      45.643  28.472  28.061  1.00  0.00     0.167 HD
ATOM     56  C   UNL A   1      47.045  26.121  27.318  1.00  0.00     0.074 A 
ATOM     57  C   UNL A   1      47.316  24.750  26.932  1.00  0.00     0.031 C 
ATOM     58  C   UNL A   1      47.989  27.089  27.405  1.00  0.00     0.031 A 
BRANCH  45  59
ATOM     59  C   UNL A   1      45.797  32.620  29.087  1.00  0.00    -0.014 A 
ATOM     60  C   UNL A   1      45.763  33.606  28.085  1.00  0.00     0.010 A 
ATOM     61  C   UNL A   1      46.072  33.003  30.413  1.00  0.00     0.010 A 
ATOM     62  C   UNL A   1      46.037  34.941  28.397  1.00  0.00     0.020 A 
ATOM     63  C   UNL A   1      46.320  34.341  30.734  1.00  0.00     0.020 A 
ATOM     64  C   UNL A   1      46.319  35.299  29.719  1.00  0.00     0.054 A 
BRANCH  64  65
ATOM     65  S   UNL A   1      46.653  37.042  30.099  1.00  0.00     0.124 S 
ATOM     66  O   UNL A   1      46.117  37.715  28.918  1.00  0.00    -0.237 OA
ATOM     67  O   UNL A   1      45.904  37.252  31.335  1.00  0.00    -0.237 OA
ATOM     68  O   UNL A   1      48.106  37.094  30.238  1.00  0.00    -0.744 OA
ENDBRANCH  64  65
ENDBRANCH  45  59
BRANCH  46  69
ATOM     69  C   UNL A   1      43.425  23.120  27.081  1.00  0.00    -0.014 A 
ATOM     70  C   UNL A   1      43.647  22.606  25.792  1.00  0.00     0.010 A 
ATOM     71  C   UNL A   1      42.870  22.278  28.064  1.00  0.00     0.010 A 
ATOM     72  C   UNL A   1      43.311  21.283  25.488  1.00  0.00     0.020 A 
ATOM     73  C   UNL A   1      42.563  20.946  27.773  1.00  0.00     0.020 A 
ATOM     74  C   UNL A   1      42.774  20.460  26.483  1.00  0.00     0.054 A 
BRANCH  74  75
ATOM     75  S   UNL A   1      42.396  18.731  26.084  1.00  0.00     0.124 S 
ATOM     76  O   UNL A   1      42.644  18.065  27.358  1.00  0.00    -0.237 OA
ATOM     77  O   UNL A   1      40.998  18.800  25.666  1.00  0.00    -0.237 OA
ATOM     78  O   UNL A   1      43.342  18.413  25.016  1.00  0.00    -0.744 OA
ENDBRANCH  74  75
ENDBRANCH  46  69
BRANCH  58  79
ATOM     79  C   UNL A   1      49.409  26.695  27.105  1.00  0.00    -0.014 A 
ATOM     80  C   UNL A   1      49.939  26.815  25.808  1.00  0.00     0.010 A 
ATOM     81  C   UNL A   1      50.239  26.243  28.147  1.00  0.00     0.010 A 
ATOM     82  C   UNL A   1      51.267  26.462  25.553  1.00  0.00     0.020 A 
ATOM     83  C   UNL A   1      51.574  25.913  27.901  1.00  0.00     0.020 A 
ATOM     84  C   UNL A   1      52.076  26.012  26.601  1.00  0.00     0.054 A 
BRANCH  84  85
ATOM     85  S   UNL A   1      53.808  25.601  26.253  1.00  0.00     0.124 S 
ATOM     86  O   UNL A   1      53.690  24.279  25.646  1.00  0.00    -0.237 OA
ATOM     87  O   UNL A   1      54.218  26.674  25.350  1.00  0.00    -0.237 OA
ATOM     88  O   UNL A   1      54.441  25.627  27.570  1.00  0.00    -0.744 OA
ENDBRANCH  84  85
ENDBRANCH  58  79
ENDBRANCH  32  33
ENDBRANCH  25  27
ENDBRANCH  24  25
ENDBRANCH   1  24
TORSDOF 16
ENDMDL
