MODEL 1
REMARK VINA RESULT:     -12.4      0.000      0.000
REMARK SMILES Cc1cc(C)c2nc(NS(=O)(=O)c3cc(C(=O)OCCOC(=O)c4ccc(-c5c6nc(c(-c7ccc(S(=O)(=O)[O-])cc7)c7ccc([nH]7)c(-c7ccc(S(=O)(=O)[O-])cc7)c7nc(c(-c8ccc(S(=O)(=O)[O-])cc8)c8ccc5[nH]8)C=C7)C=C6)cc4)ccc3Cl)sc2c1
REMARK SMILES IDX 19 1 18 2 16 3 17 4 15 5 13 6 14 7 86 8 85 9 87 10 84 11
REMARK SMILES IDX 10 12 11 13 12 14 9 15 8 17 1 18 2 19 3 20 90 21 4 22 89 23
REMARK SMILES IDX 5 24 6 25 88 26 7 27 20 28 21 29 22 30 23 31 24 32 25 33
REMARK SMILES IDX 83 34 26 35 82 36 27 37 28 38 29 39 76 40 30 41 81 42 75 43
REMARK SMILES IDX 77 44 31 45 80 46 74 47 73 48 32 50 62 51 43 52 61 53 44 54
REMARK SMILES IDX 47 55 60 56 78 57 45 58 46 59 59 61 79 62 48 63 33 64 34 65
REMARK SMILES IDX 42 66 35 67 41 68 36 69 37 70 38 71 39 72 40 73 63 74 64 75
REMARK SMILES IDX 72 76 65 77 71 78 66 79 67 80 68 81 69 82 70 83 49 84 50 85
REMARK SMILES IDX 58 86 51 87 57 88 52 89 53 90 54 91 55 92 56 93
REMARK H PARENT 9 16 77 49 47 60
REMARK Flexibility Score: inf
ROOT
ATOM      1  C   UNL A   1      36.188  21.126  25.650  1.00  0.00     0.275 C 
ENDROOT
BRANCH   1   2
ATOM      2  O   UNL A   1      35.333  21.446  24.536  1.00  0.00    -0.458 OA
BRANCH   2   3
ATOM      3  C   UNL A   1      34.019  21.635  24.821  1.00  0.00     0.338 C 
ATOM      4  O   UNL A   1      33.365  21.009  25.640  1.00  0.00    -0.246 OA
BRANCH   3   5
ATOM      5  C   UNL A   1      33.505  22.840  24.105  1.00  0.00     0.061 A 
ATOM      6  C   UNL A   1      32.824  25.181  24.232  1.00  0.00     0.107 A 
ATOM      7  C   UNL A   1      33.159  23.966  24.863  1.00  0.00     0.039 A 
ATOM      8  C   UNL A   1      32.897  25.287  22.843  1.00  0.00     0.061 A 
ATOM      9  C   UNL A   1      33.184  24.142  22.087  1.00  0.00     0.023 A 
ATOM     10  Cl  UNL A   1      32.645  26.751  21.969  1.00  0.00    -0.083 Cl
ATOM     11  C   UNL A   1      33.472  22.923  22.711  1.00  0.00     0.017 A 
BRANCH   6  12
ATOM     12  S   UNL A   1      32.238  26.493  25.280  1.00  0.00     0.265 S 
ATOM     13  O   UNL A   1      32.325  25.996  26.635  1.00  0.00    -0.201 OA
ATOM     14  O   UNL A   1      30.965  26.926  24.738  1.00  0.00    -0.201 OA
BRANCH  12  15
ATOM     15  N   UNL A   1      33.249  27.809  25.180  1.00  0.00    -0.255 N 
ATOM     16  H   UNL A   1      33.698  27.990  24.322  1.00  0.00     0.182 HD
BRANCH  15  17
ATOM     17  C   UNL A   1      33.496  28.678  26.257  1.00  0.00     0.197 A 
ATOM     18  C   UNL A   1      35.058  34.197  28.226  1.00  0.00     0.044 C 
ATOM     19  C   UNL A   1      34.987  32.716  27.995  1.00  0.00    -0.049 A 
ATOM     20  C   UNL A   1      36.149  31.935  28.037  1.00  0.00     0.009 A 
ATOM     21  C   UNL A   1      33.747  32.109  27.765  1.00  0.00     0.024 A 
ATOM     22  C   UNL A   1      36.132  30.561  27.726  1.00  0.00    -0.024 A 
ATOM     23  C   UNL A   1      33.736  30.754  27.412  1.00  0.00     0.057 A 
ATOM     24  C   UNL A   1      37.400  29.760  27.777  1.00  0.00     0.047 C 
ATOM     25  C   UNL A   1      34.906  30.002  27.295  1.00  0.00     0.087 A 
ATOM     26  S   UNL A   1      32.404  29.722  27.048  1.00  0.00    -0.096 S 
ATOM     27  N   UNL A   1      34.737  28.774  26.672  1.00  0.00    -0.219 NA
ENDBRANCH  15  17
ENDBRANCH  12  15
ENDBRANCH   6  12
ENDBRANCH   3   5
ENDBRANCH   2   3
ENDBRANCH   1   2
BRANCH   1  28
ATOM     28  C   UNL A   1      37.641  21.450  25.318  1.00  0.00     0.275 C 
BRANCH  28  29
ATOM     29  O   UNL A   1      38.132  22.532  26.113  1.00  0.00    -0.458 OA
BRANCH  29  30
ATOM     30  C   UNL A   1      39.358  22.329  26.645  1.00  0.00     0.338 C 
ATOM     31  O   UNL A   1      39.826  21.273  27.038  1.00  0.00    -0.246 OA
BRANCH  30  32
ATOM     32  C   UNL A   1      40.020  23.615  26.873  1.00  0.00     0.060 A 
ATOM     33  C   UNL A   1      41.150  23.634  27.696  1.00  0.00     0.016 A 
ATOM     34  C   UNL A   1      39.352  24.788  26.504  1.00  0.00     0.016 A 
ATOM     35  C   UNL A   1      41.532  24.832  28.267  1.00  0.00     0.010 A 
ATOM     36  C   UNL A   1      39.729  25.980  27.080  1.00  0.00     0.010 A 
ATOM     37  C   UNL A   1      40.768  25.976  28.011  1.00  0.00    -0.014 A 
BRANCH  37  38
ATOM     38  C   UNL A   1      41.084  27.190  28.739  1.00  0.00     0.031 A 
ATOM     39  C   UNL A   1      42.285  27.921  28.266  1.00  0.00     0.074 A 
ATOM     40  C   UNL A   1      40.249  27.695  29.667  1.00  0.00     0.049 A 
ATOM     41  N   UNL A   1      43.335  28.259  28.937  1.00  0.00    -0.248 NA
ATOM     42  C   UNL A   1      42.351  28.241  26.831  1.00  0.00     0.031 C 
ATOM     43  C   UNL A   1      38.890  27.252  29.994  1.00  0.00     0.029 A 
ATOM     44  N   UNL A   1      40.399  28.818  30.415  1.00  0.00    -0.354 N 
ATOM     45  C   UNL A   1      44.139  28.969  28.051  1.00  0.00     0.074 A 
ATOM     46  C   UNL A   1      43.546  28.820  26.745  1.00  0.00     0.031 C 
ATOM     47  C   UNL A   1      38.261  28.235  30.678  1.00  0.00     0.029 A 
ATOM     48  C   UNL A   1      39.212  29.302  30.945  1.00  0.00     0.049 A 
ATOM     49  H   UNL A   1      41.270  29.249  30.569  1.00  0.00     0.167 HD
ATOM     50  C   UNL A   1      45.144  29.788  28.462  1.00  0.00     0.031 A 
ATOM     51  C   UNL A   1      39.015  30.538  31.467  1.00  0.00     0.031 A 
ATOM     52  C   UNL A   1      45.526  29.550  29.826  1.00  0.00     0.049 A 
ATOM     53  C   UNL A   1      40.348  31.095  31.808  1.00  0.00     0.074 A 
ATOM     54  C   UNL A   1      46.062  28.474  30.505  1.00  0.00     0.029 A 
ATOM     55  N   UNL A   1      45.015  30.386  30.790  1.00  0.00    -0.354 N 
ATOM     56  N   UNL A   1      41.116  30.612  32.741  1.00  0.00    -0.248 NA
ATOM     57  C   UNL A   1      41.017  31.943  30.834  1.00  0.00     0.031 C 
ATOM     58  C   UNL A   1      45.433  28.490  31.784  1.00  0.00     0.029 A 
ATOM     59  C   UNL A   1      44.580  29.595  31.825  1.00  0.00     0.049 A 
ATOM     60  H   UNL A   1      44.970  31.368  30.746  1.00  0.00     0.167 HD
ATOM     61  C   UNL A   1      42.407  30.734  32.245  1.00  0.00     0.074 A 
ATOM     62  C   UNL A   1      42.291  31.664  31.127  1.00  0.00     0.031 C 
ATOM     63  C   UNL A   1      43.394  29.862  32.614  1.00  0.00     0.031 A 
BRANCH  50  64
ATOM     64  C   UNL A   1      45.555  31.015  27.695  1.00  0.00    -0.014 A 
ATOM     65  C   UNL A   1      46.890  31.170  27.281  1.00  0.00     0.010 A 
ATOM     66  C   UNL A   1      44.710  32.140  27.579  1.00  0.00     0.010 A 
ATOM     67  C   UNL A   1      47.361  32.403  26.804  1.00  0.00     0.020 A 
ATOM     68  C   UNL A   1      45.155  33.357  27.065  1.00  0.00     0.020 A 
ATOM     69  C   UNL A   1      46.489  33.491  26.709  1.00  0.00     0.054 A 
BRANCH  69  70
ATOM     70  S   UNL A   1      47.129  35.104  26.195  1.00  0.00     0.124 S 
ATOM     71  O   UNL A   1      45.899  35.856  25.965  1.00  0.00    -0.237 OA
ATOM     72  O   UNL A   1      47.916  35.513  27.355  1.00  0.00    -0.237 OA
ATOM     73  O   UNL A   1      47.908  34.799  24.996  1.00  0.00    -0.744 OA
ENDBRANCH  69  70
ENDBRANCH  50  64
BRANCH  51  74
ATOM     74  C   UNL A   1      37.806  31.387  31.330  1.00  0.00    -0.014 A 
ATOM     75  C   UNL A   1      36.538  30.882  31.668  1.00  0.00     0.010 A 
ATOM     76  C   UNL A   1      37.932  32.779  31.146  1.00  0.00     0.010 A 
ATOM     77  C   UNL A   1      35.457  31.747  31.899  1.00  0.00     0.020 A 
ATOM     78  C   UNL A   1      36.856  33.646  31.361  1.00  0.00     0.020 A 
ATOM     79  C   UNL A   1      35.631  33.127  31.771  1.00  0.00     0.054 A 
BRANCH  79  80
ATOM     80  S   UNL A   1      34.295  34.247  32.277  1.00  0.00     0.124 S 
ATOM     81  O   UNL A   1      33.514  33.410  33.184  1.00  0.00    -0.237 OA
ATOM     82  O   UNL A   1      35.026  35.346  32.901  1.00  0.00    -0.237 OA
ATOM     83  O   UNL A   1      33.632  34.585  31.019  1.00  0.00    -0.744 OA
ENDBRANCH  79  80
ENDBRANCH  51  74
BRANCH  63  84
ATOM     84  C   UNL A   1      43.109  28.921  33.769  1.00  0.00    -0.014 A 
ATOM     85  C   UNL A   1      43.600  29.128  35.075  1.00  0.00     0.010 A 
ATOM     86  C   UNL A   1      42.223  27.851  33.555  1.00  0.00     0.010 A 
ATOM     87  C   UNL A   1      43.261  28.258  36.121  1.00  0.00     0.020 A 
ATOM     88  C   UNL A   1      41.864  26.991  34.600  1.00  0.00     0.020 A 
ATOM     89  C   UNL A   1      42.398  27.188  35.874  1.00  0.00     0.054 A 
BRANCH  89  90
ATOM     90  S   UNL A   1      41.961  26.069  37.235  1.00  0.00     0.124 S 
ATOM     91  O   UNL A   1      40.635  26.541  37.624  1.00  0.00    -0.237 OA
ATOM     92  O   UNL A   1      41.997  24.753  36.599  1.00  0.00    -0.237 OA
ATOM     93  O   UNL A   1      43.012  26.296  38.225  1.00  0.00    -0.744 OA
ENDBRANCH  89  90
ENDBRANCH  63  84
ENDBRANCH  37  38
ENDBRANCH  30  32
ENDBRANCH  29  30
ENDBRANCH  28  29
ENDBRANCH   1  28
TORSDOF 17
ENDMDL
MODEL 2
REMARK VINA RESULT:     -11.6      2.259      9.721
REMARK SMILES Cc1cc(C)c2nc(NS(=O)(=O)c3cc(C(=O)OCCOC(=O)c4ccc(-c5c6nc(c(-c7ccc(S(=O)(=O)[O-])cc7)c7ccc([nH]7)c(-c7ccc(S(=O)(=O)[O-])cc7)c7nc(c(-c8ccc(S(=O)(=O)[O-])cc8)c8ccc5[nH]8)C=C7)C=C6)cc4)ccc3Cl)sc2c1
REMARK SMILES IDX 19 1 18 2 16 3 17 4 15 5 13 6 14 7 86 8 85 9 87 10 84 11
REMARK SMILES IDX 10 12 11 13 12 14 9 15 8 17 1 18 2 19 3 20 90 21 4 22 89 23
REMARK SMILES IDX 5 24 6 25 88 26 7 27 20 28 21 29 22 30 23 31 24 32 25 33
REMARK SMILES IDX 83 34 26 35 82 36 27 37 28 38 29 39 76 40 30 41 81 42 75 43
REMARK SMILES IDX 77 44 31 45 80 46 74 47 73 48 32 50 62 51 43 52 61 53 44 54
REMARK SMILES IDX 47 55 60 56 78 57 45 58 46 59 59 61 79 62 48 63 33 64 34 65
REMARK SMILES IDX 42 66 35 67 41 68 36 69 37 70 38 71 39 72 40 73 63 74 64 75
REMARK SMILES IDX 72 76 65 77 71 78 66 79 67 80 68 81 69 82 70 83 49 84 50 85
REMARK SMILES IDX 58 86 51 87 57 88 52 89 53 90 54 91 55 92 56 93
REMARK H PARENT 9 16 77 49 47 60
REMARK Flexibility Score: inf
ROOT
ATOM      1  C   UNL A   1      33.670  35.675  31.073  1.00  0.00     0.275 C 
ENDROOT
BRANCH   1   2
ATOM      2  O   UNL A   1      33.132  34.831  30.037  1.00  0.00    -0.458 OA
BRANCH   2   3
ATOM      3  C   UNL A   1      33.856  34.748  28.892  1.00  0.00     0.338 C 
ATOM      4  O   UNL A   1      34.311  35.689  28.260  1.00  0.00    -0.246 OA
BRANCH   3   5
ATOM      5  C   UNL A   1      34.171  33.323  28.583  1.00  0.00     0.061 A 
ATOM      6  C   UNL A   1      33.555  31.286  27.385  1.00  0.00     0.107 A 
ATOM      7  C   UNL A   1      33.241  32.581  27.844  1.00  0.00     0.039 A 
ATOM      8  C   UNL A   1      34.827  30.758  27.611  1.00  0.00     0.061 A 
ATOM      9  C   UNL A   1      35.732  31.478  28.403  1.00  0.00     0.023 A 
ATOM     10  Cl  UNL A   1      35.373  29.248  26.985  1.00  0.00    -0.083 Cl
ATOM     11  C   UNL A   1      35.404  32.745  28.898  1.00  0.00     0.017 A 
BRANCH   6  12
ATOM     12  S   UNL A   1      32.244  30.371  26.606  1.00  0.00     0.265 S 
ATOM     13  O   UNL A   1      31.277  31.350  26.164  1.00  0.00    -0.201 OA
ATOM     14  O   UNL A   1      31.857  29.324  27.531  1.00  0.00    -0.201 OA
BRANCH  12  15
ATOM     15  N   UNL A   1      32.808  29.596  25.247  1.00  0.00    -0.255 N 
ATOM     16  H   UNL A   1      33.431  30.080  24.658  1.00  0.00     0.182 HD
BRANCH  15  17
ATOM     17  C   UNL A   1      32.439  28.286  24.896  1.00  0.00     0.197 A 
ATOM     18  C   UNL A   1      30.344  22.850  26.581  1.00  0.00     0.044 C 
ATOM     19  C   UNL A   1      31.173  23.959  25.999  1.00  0.00    -0.049 A 
ATOM     20  C   UNL A   1      32.567  23.847  25.940  1.00  0.00     0.009 A 
ATOM     21  C   UNL A   1      30.542  25.099  25.487  1.00  0.00     0.024 A 
ATOM     22  C   UNL A   1      33.379  24.909  25.494  1.00  0.00    -0.024 A 
ATOM     23  C   UNL A   1      31.350  26.170  25.086  1.00  0.00     0.057 A 
ATOM     24  C   UNL A   1      34.871  24.751  25.451  1.00  0.00     0.047 C 
ATOM     25  C   UNL A   1      32.742  26.130  25.173  1.00  0.00     0.087 A 
ATOM     26  S   UNL A   1      30.902  27.704  24.438  1.00  0.00    -0.096 S 
ATOM     27  N   UNL A   1      33.362  27.359  25.002  1.00  0.00    -0.219 NA
ENDBRANCH  15  17
ENDBRANCH  12  15
ENDBRANCH   6  12
ENDBRANCH   3   5
ENDBRANCH   2   3
ENDBRANCH   1   2
BRANCH   1  28
ATOM     28  C   UNL A   1      33.529  35.002  32.435  1.00  0.00     0.275 C 
BRANCH  28  29
ATOM     29  O   UNL A   1      33.839  33.608  32.367  1.00  0.00    -0.458 OA
BRANCH  29  30
ATOM     30  C   UNL A   1      34.863  33.219  33.160  1.00  0.00     0.338 C 
ATOM     31  O   UNL A   1      35.006  33.454  34.348  1.00  0.00    -0.246 OA
BRANCH  30  32
ATOM     32  C   UNL A   1      35.918  32.612  32.346  1.00  0.00     0.060 A 
ATOM     33  C   UNL A   1      35.866  31.232  32.128  1.00  0.00     0.016 A 
ATOM     34  C   UNL A   1      37.065  33.364  32.064  1.00  0.00     0.016 A 
ATOM     35  C   UNL A   1      37.022  30.577  31.752  1.00  0.00     0.010 A 
ATOM     36  C   UNL A   1      38.218  32.709  31.697  1.00  0.00     0.010 A 
ATOM     37  C   UNL A   1      38.202  31.316  31.617  1.00  0.00    -0.014 A 
BRANCH  37  38
ATOM     38  C   UNL A   1      39.439  30.597  31.378  1.00  0.00     0.031 A 
ATOM     39  C   UNL A   1      40.245  30.300  32.587  1.00  0.00     0.074 A 
ATOM     40  C   UNL A   1      39.742  30.097  30.165  1.00  0.00     0.049 A 
ATOM     41  N   UNL A   1      41.472  30.618  32.832  1.00  0.00    -0.248 NA
ATOM     42  C   UNL A   1      39.557  29.630  33.702  1.00  0.00     0.031 C 
ATOM     43  C   UNL A   1      38.889  30.037  28.974  1.00  0.00     0.029 A 
ATOM     44  N   UNL A   1      40.845  29.397  29.793  1.00  0.00    -0.354 N 
ATOM     45  C   UNL A   1      41.769  30.062  34.071  1.00  0.00     0.074 A 
ATOM     46  C   UNL A   1      40.524  29.575  34.614  1.00  0.00     0.031 C 
ATOM     47  C   UNL A   1      39.403  29.131  28.111  1.00  0.00     0.029 A 
ATOM     48  C   UNL A   1      40.676  28.659  28.631  1.00  0.00     0.049 A 
ATOM     49  H   UNL A   1      41.689  29.413  30.301  1.00  0.00     0.167 HD
ATOM     50  C   UNL A   1      43.043  29.868  34.507  1.00  0.00     0.031 A 
ATOM     51  C   UNL A   1      41.480  27.657  28.196  1.00  0.00     0.031 A 
ATOM     52  C   UNL A   1      44.003  30.625  33.754  1.00  0.00     0.049 A 
ATOM     53  C   UNL A   1      42.786  27.801  28.889  1.00  0.00     0.074 A 
ATOM     54  C   UNL A   1      44.228  31.972  33.552  1.00  0.00     0.029 A 
ATOM     55  N   UNL A   1      44.691  29.975  32.757  1.00  0.00    -0.354 N 
ATOM     56  N   UNL A   1      43.599  28.800  28.697  1.00  0.00    -0.248 NA
ATOM     57  C   UNL A   1      43.012  27.045  30.110  1.00  0.00     0.031 C 
ATOM     58  C   UNL A   1      44.636  32.082  32.191  1.00  0.00     0.029 A 
ATOM     59  C   UNL A   1      44.675  30.794  31.653  1.00  0.00     0.049 A 
ATOM     60  H   UNL A   1      45.116  29.090  32.822  1.00  0.00     0.167 HD
ATOM     61  C   UNL A   1      44.150  29.061  29.944  1.00  0.00     0.074 A 
ATOM     62  C   UNL A   1      43.842  27.880  30.743  1.00  0.00     0.031 C 
ATOM     63  C   UNL A   1      44.560  30.320  30.288  1.00  0.00     0.031 A 
BRANCH  50  64
ATOM     64  C   UNL A   1      43.423  28.740  35.427  1.00  0.00    -0.014 A 
ATOM     65  C   UNL A   1      44.078  29.014  36.641  1.00  0.00     0.010 A 
ATOM     66  C   UNL A   1      43.368  27.391  35.014  1.00  0.00     0.010 A 
ATOM     67  C   UNL A   1      44.676  27.987  37.387  1.00  0.00     0.020 A 
ATOM     68  C   UNL A   1      43.919  26.357  35.770  1.00  0.00     0.020 A 
ATOM     69  C   UNL A   1      44.599  26.666  36.939  1.00  0.00     0.054 A 
BRANCH  69  70
ATOM     70  S   UNL A   1      45.463  25.363  37.852  1.00  0.00     0.124 S 
ATOM     71  O   UNL A   1      44.794  25.409  39.148  1.00  0.00    -0.237 OA
ATOM     72  O   UNL A   1      45.193  24.181  37.039  1.00  0.00    -0.237 OA
ATOM     73  O   UNL A   1      46.855  25.808  37.851  1.00  0.00    -0.744 OA
ENDBRANCH  69  70
ENDBRANCH  50  64
BRANCH  51  74
ATOM     74  C   UNL A   1      41.064  26.399  27.530  1.00  0.00    -0.014 A 
ATOM     75  C   UNL A   1      41.918  25.760  26.615  1.00  0.00     0.010 A 
ATOM     76  C   UNL A   1      39.955  25.672  28.013  1.00  0.00     0.010 A 
ATOM     77  C   UNL A   1      41.719  24.416  26.262  1.00  0.00     0.020 A 
ATOM     78  C   UNL A   1      39.743  24.338  27.655  1.00  0.00     0.020 A 
ATOM     79  C   UNL A   1      40.647  23.705  26.807  1.00  0.00     0.054 A 
BRANCH  79  80
ATOM     80  S   UNL A   1      40.521  21.918  26.516  1.00  0.00     0.124 S 
ATOM     81  O   UNL A   1      40.616  21.375  27.869  1.00  0.00    -0.237 OA
ATOM     82  O   UNL A   1      39.215  21.795  25.875  1.00  0.00    -0.237 OA
ATOM     83  O   UNL A   1      41.662  21.627  25.650  1.00  0.00    -0.744 OA
ENDBRANCH  79  80
ENDBRANCH  51  74
BRANCH  63  84
ATOM     84  C   UNL A   1      44.637  31.362  29.189  1.00  0.00    -0.014 A 
ATOM     85  C   UNL A   1      45.707  31.443  28.273  1.00  0.00     0.010 A 
ATOM     86  C   UNL A   1      43.538  32.219  29.003  1.00  0.00     0.010 A 
ATOM     87  C   UNL A   1      45.704  32.391  27.239  1.00  0.00     0.020 A 
ATOM     88  C   UNL A   1      43.519  33.152  27.961  1.00  0.00     0.020 A 
ATOM     89  C   UNL A   1      44.609  33.246  27.094  1.00  0.00     0.054 A 
BRANCH  89  90
ATOM     90  S   UNL A   1      44.611  34.468  25.751  1.00  0.00     0.124 S 
ATOM     91  O   UNL A   1      44.593  35.737  26.474  1.00  0.00    -0.237 OA
ATOM     92  O   UNL A   1      45.852  34.169  25.040  1.00  0.00    -0.237 OA
ATOM     93  O   UNL A   1      43.392  34.167  25.003  1.00  0.00    -0.744 OA
ENDBRANCH  89  90
ENDBRANCH  63  84
ENDBRANCH  37  38
ENDBRANCH  30  32
ENDBRANCH  29  30
ENDBRANCH  28  29
ENDBRANCH   1  28
TORSDOF 17
ENDMDL
MODEL 3
REMARK VINA RESULT:     -11.6      4.361     10.835
REMARK SMILES Cc1cc(C)c2nc(NS(=O)(=O)c3cc(C(=O)OCCOC(=O)c4ccc(-c5c6nc(c(-c7ccc(S(=O)(=O)[O-])cc7)c7ccc([nH]7)c(-c7ccc(S(=O)(=O)[O-])cc7)c7nc(c(-c8ccc(S(=O)(=O)[O-])cc8)c8ccc5[nH]8)C=C7)C=C6)cc4)ccc3Cl)sc2c1
REMARK SMILES IDX 19 1 18 2 16 3 17 4 15 5 13 6 14 7 86 8 85 9 87 10 84 11
REMARK SMILES IDX 10 12 11 13 12 14 9 15 8 17 1 18 2 19 3 20 90 21 4 22 89 23
REMARK SMILES IDX 5 24 6 25 88 26 7 27 20 28 21 29 22 30 23 31 24 32 25 33
REMARK SMILES IDX 83 34 26 35 82 36 27 37 28 38 29 39 76 40 30 41 81 42 75 43
REMARK SMILES IDX 77 44 31 45 80 46 74 47 73 48 32 50 62 51 43 52 61 53 44 54
REMARK SMILES IDX 47 55 60 56 78 57 45 58 46 59 59 61 79 62 48 63 33 64 34 65
REMARK SMILES IDX 42 66 35 67 41 68 36 69 37 70 38 71 39 72 40 73 63 74 64 75
REMARK SMILES IDX 72 76 65 77 71 78 66 79 67 80 68 81 69 82 70 83 49 84 50 85
REMARK SMILES IDX 58 86 51 87 57 88 52 89 53 90 54 91 55 92 56 93
REMARK H PARENT 9 16 77 49 47 60
REMARK Flexibility Score: inf
ROOT
ATOM      1  C   UNL A   1      34.707  34.341  29.245  1.00  0.00     0.275 C 
ENDROOT
BRANCH   1   2
ATOM      2  O   UNL A   1      35.002  33.707  30.503  1.00  0.00    -0.458 OA
BRANCH   2   3
ATOM      3  C   UNL A   1      34.346  34.190  31.589  1.00  0.00     0.338 C 
ATOM      4  O   UNL A   1      33.242  34.713  31.588  1.00  0.00    -0.246 OA
BRANCH   3   5
ATOM      5  C   UNL A   1      35.091  33.848  32.836  1.00  0.00     0.061 A 
ATOM      6  C   UNL A   1      36.922  32.609  33.873  1.00  0.00     0.107 A 
ATOM      7  C   UNL A   1      36.079  32.857  32.771  1.00  0.00     0.039 A 
ATOM      8  C   UNL A   1      36.818  33.396  35.019  1.00  0.00     0.061 A 
ATOM      9  C   UNL A   1      35.788  34.344  35.104  1.00  0.00     0.023 A 
ATOM     10  Cl  UNL A   1      37.877  33.279  36.374  1.00  0.00    -0.083 Cl
ATOM     11  C   UNL A   1      34.921  34.560  34.027  1.00  0.00     0.017 A 
BRANCH   6  12
ATOM     12  S   UNL A   1      38.024  31.220  33.741  1.00  0.00     0.265 S 
ATOM     13  O   UNL A   1      37.754  30.611  32.458  1.00  0.00    -0.201 OA
ATOM     14  O   UNL A   1      37.879  30.452  34.963  1.00  0.00    -0.201 OA
BRANCH  12  15
ATOM     15  N   UNL A   1      39.605  31.736  33.711  1.00  0.00    -0.255 N 
ATOM     16  H   UNL A   1      40.276  31.215  34.210  1.00  0.00     0.182 HD
BRANCH  15  17
ATOM     17  C   UNL A   1      40.032  32.877  33.009  1.00  0.00     0.197 A 
ATOM     18  C   UNL A   1      44.259  35.618  29.634  1.00  0.00     0.044 C 
ATOM     19  C   UNL A   1      43.258  35.289  30.704  1.00  0.00    -0.049 A 
ATOM     20  C   UNL A   1      43.460  35.719  32.020  1.00  0.00     0.009 A 
ATOM     21  C   UNL A   1      42.103  34.571  30.374  1.00  0.00     0.024 A 
ATOM     22  C   UNL A   1      42.594  35.343  33.066  1.00  0.00    -0.024 A 
ATOM     23  C   UNL A   1      41.267  34.159  31.419  1.00  0.00     0.057 A 
ATOM     24  C   UNL A   1      42.848  35.821  34.466  1.00  0.00     0.047 C 
ATOM     25  C   UNL A   1      41.544  34.448  32.756  1.00  0.00     0.087 A 
ATOM     26  S   UNL A   1      39.799  33.257  31.363  1.00  0.00    -0.096 S 
ATOM     27  N   UNL A   1      40.776  33.735  33.665  1.00  0.00    -0.219 NA
ENDBRANCH  15  17
ENDBRANCH  12  15
ENDBRANCH   6  12
ENDBRANCH   3   5
ENDBRANCH   2   3
ENDBRANCH   1   2
BRANCH   1  28
ATOM     28  C   UNL A   1      34.157  33.324  28.251  1.00  0.00     0.275 C 
BRANCH  28  29
ATOM     29  O   UNL A   1      35.208  32.621  27.584  1.00  0.00    -0.458 OA
BRANCH  29  30
ATOM     30  C   UNL A   1      35.097  31.273  27.621  1.00  0.00     0.338 C 
ATOM     31  O   UNL A   1      34.142  30.602  27.270  1.00  0.00    -0.246 OA
BRANCH  30  32
ATOM     32  C   UNL A   1      36.240  30.700  28.335  1.00  0.00     0.060 A 
ATOM     33  C   UNL A   1      37.154  31.580  28.924  1.00  0.00     0.016 A 
ATOM     34  C   UNL A   1      36.526  29.341  28.163  1.00  0.00     0.016 A 
ATOM     35  C   UNL A   1      38.421  31.119  29.218  1.00  0.00     0.010 A 
ATOM     36  C   UNL A   1      37.793  28.884  28.449  1.00  0.00     0.010 A 
ATOM     37  C   UNL A   1      38.747  29.794  28.905  1.00  0.00    -0.014 A 
BRANCH  37  38
ATOM     38  C   UNL A   1      40.123  29.368  29.071  1.00  0.00     0.031 A 
ATOM     39  C   UNL A   1      40.550  29.131  30.472  1.00  0.00     0.074 A 
ATOM     40  C   UNL A   1      40.898  29.052  28.016  1.00  0.00     0.049 A 
ATOM     41  N   UNL A   1      41.534  29.669  31.112  1.00  0.00    -0.248 NA
ATOM     42  C   UNL A   1      39.713  28.236  31.285  1.00  0.00     0.031 C 
ATOM     43  C   UNL A   1      40.501  28.930  26.610  1.00  0.00     0.029 A 
ATOM     44  N   UNL A   1      42.188  28.630  28.012  1.00  0.00    -0.354 N 
ATOM     45  C   UNL A   1      41.540  29.073  32.369  1.00  0.00     0.074 A 
ATOM     46  C   UNL A   1      40.329  28.295  32.463  1.00  0.00     0.031 C 
ATOM     47  C   UNL A   1      41.449  28.231  25.945  1.00  0.00     0.029 A 
ATOM     48  C   UNL A   1      42.563  27.982  26.844  1.00  0.00     0.049 A 
ATOM     49  H   UNL A   1      42.802  28.770  28.769  1.00  0.00     0.167 HD
ATOM     50  C   UNL A   1      42.620  29.104  33.195  1.00  0.00     0.031 A 
ATOM     51  C   UNL A   1      43.666  27.210  26.678  1.00  0.00     0.031 A 
ATOM     52  C   UNL A   1      43.576  30.106  32.815  1.00  0.00     0.049 A 
ATOM     53  C   UNL A   1      44.619  27.552  27.764  1.00  0.00     0.074 A 
ATOM     54  C   UNL A   1      43.547  31.484  32.725  1.00  0.00     0.029 A 
ATOM     55  N   UNL A   1      44.670  29.705  32.086  1.00  0.00    -0.354 N 
ATOM     56  N   UNL A   1      45.207  28.708  27.870  1.00  0.00    -0.248 NA
ATOM     57  C   UNL A   1      44.609  26.750  28.976  1.00  0.00     0.031 C 
ATOM     58  C   UNL A   1      44.329  31.799  31.576  1.00  0.00     0.029 A 
ATOM     59  C   UNL A   1      44.822  30.600  31.055  1.00  0.00     0.049 A 
ATOM     60  H   UNL A   1      45.238  28.923  32.269  1.00  0.00     0.167 HD
ATOM     61  C   UNL A   1      45.263  28.961  29.233  1.00  0.00     0.074 A 
ATOM     62  C   UNL A   1      44.989  27.674  29.864  1.00  0.00     0.031 C 
ATOM     63  C   UNL A   1      45.252  30.240  29.719  1.00  0.00     0.031 A 
BRANCH  50  64
ATOM     64  C   UNL A   1      42.931  27.998  34.166  1.00  0.00    -0.014 A 
ATOM     65  C   UNL A   1      42.999  28.271  35.544  1.00  0.00     0.010 A 
ATOM     66  C   UNL A   1      43.398  26.737  33.734  1.00  0.00     0.010 A 
ATOM     67  C   UNL A   1      43.539  27.336  36.440  1.00  0.00     0.020 A 
ATOM     68  C   UNL A   1      43.895  25.783  34.621  1.00  0.00     0.020 A 
ATOM     69  C   UNL A   1      43.992  26.101  35.969  1.00  0.00     0.054 A 
BRANCH  69  70
ATOM     70  S   UNL A   1      44.785  24.945  37.114  1.00  0.00     0.124 S 
ATOM     71  O   UNL A   1      44.122  25.269  38.374  1.00  0.00    -0.237 OA
ATOM     72  O   UNL A   1      44.447  23.649  36.533  1.00  0.00    -0.237 OA
ATOM     73  O   UNL A   1      46.199  25.305  37.042  1.00  0.00    -0.744 OA
ENDBRANCH  69  70
ENDBRANCH  50  64
BRANCH  51  74
ATOM     74  C   UNL A   1      43.772  25.959  25.887  1.00  0.00    -0.014 A 
ATOM     75  C   UNL A   1      44.971  25.629  25.232  1.00  0.00     0.010 A 
ATOM     76  C   UNL A   1      42.795  24.950  26.017  1.00  0.00     0.010 A 
ATOM     77  C   UNL A   1      45.218  24.316  24.800  1.00  0.00     0.020 A 
ATOM     78  C   UNL A   1      43.028  23.644  25.577  1.00  0.00     0.020 A 
ATOM     79  C   UNL A   1      44.254  23.326  25.001  1.00  0.00     0.054 A 
BRANCH  79  80
ATOM     80  S   UNL A   1      44.664  21.595  24.637  1.00  0.00     0.124 S 
ATOM     81  O   UNL A   1      43.635  20.869  25.377  1.00  0.00    -0.237 OA
ATOM     82  O   UNL A   1      44.552  21.544  23.183  1.00  0.00    -0.237 OA
ATOM     83  O   UNL A   1      46.022  21.445  25.156  1.00  0.00    -0.744 OA
ENDBRANCH  79  80
ENDBRANCH  51  74
BRANCH  63  84
ATOM     84  C   UNL A   1      45.439  31.372  28.727  1.00  0.00    -0.014 A 
ATOM     85  C   UNL A   1      46.704  31.873  28.354  1.00  0.00     0.010 A 
ATOM     86  C   UNL A   1      44.305  31.874  28.065  1.00  0.00     0.010 A 
ATOM     87  C   UNL A   1      46.825  32.885  27.390  1.00  0.00     0.020 A 
ATOM     88  C   UNL A   1      44.421  32.868  27.086  1.00  0.00     0.020 A 
ATOM     89  C   UNL A   1      45.678  33.381  26.766  1.00  0.00     0.054 A 
BRANCH  89  90
ATOM     90  S   UNL A   1      45.844  34.688  25.516  1.00  0.00     0.124 S 
ATOM     91  O   UNL A   1      45.037  34.177  24.411  1.00  0.00    -0.237 OA
ATOM     92  O   UNL A   1      45.303  35.862  26.198  1.00  0.00    -0.237 OA
ATOM     93  O   UNL A   1      47.282  34.742  25.257  1.00  0.00    -0.744 OA
ENDBRANCH  89  90
ENDBRANCH  63  84
ENDBRANCH  37  38
ENDBRANCH  30  32
ENDBRANCH  29  30
ENDBRANCH  28  29
ENDBRANCH   1  28
TORSDOF 17
ENDMDL
