MODEL 1
REMARK VINA RESULT:     -11.0      0.000      0.000
REMARK SMILES CC(C)Cc1cc2c(cc1Cl)C=C(C(=O)OCCOC(=O)c1ccc(-c3c4nc(c(-c5ccc(S(=O)(=O)[O-])cc5)c5ccc([nH]5)c(-c5ccc(S(=O)(=O)[O-])cc5)c5nc(c(-c6ccc(S(=O)(=O)[O-])cc6)c6ccc3[nH]6)C=C5)C=C4)cc1)[C@@H](C(F)(F)F)O2
REMARK SMILES IDX 18 1 17 2 16 3 14 4 15 5 13 6 5 7 6 8 10 9 7 10 9 11 11 12
REMARK SMILES IDX 8 13 87 14 12 15 82 16 4 17 2 18 1 19 3 20 83 21 84 22 85 23
REMARK SMILES IDX 86 24 19 25 20 26 21 27 22 28 23 29 81 30 24 31 80 32 25 33
REMARK SMILES IDX 26 34 27 35 74 36 28 37 79 38 73 39 75 40 29 41 78 42 72 43
REMARK SMILES IDX 71 44 30 46 60 47 41 48 59 49 42 50 45 51 58 52 76 53 43 54
REMARK SMILES IDX 44 55 57 57 77 58 46 59 31 60 32 61 40 62 33 63 39 64 34 65
REMARK SMILES IDX 35 66 36 67 37 68 38 69 61 70 62 71 70 72 63 73 69 74 64 75
REMARK SMILES IDX 65 76 66 77 67 78 68 79 47 80 48 81 56 82 49 83 55 84 50 85
REMARK SMILES IDX 51 86 52 87 53 88 54 89
REMARK H PARENT 75 45 45 56
REMARK Flexibility Score: inf
ROOT
ATOM      1  C   UNL A   1      37.421  20.881  24.645  1.00  0.00     0.275 C 
ENDROOT
BRANCH   1   2
ATOM      2  C   UNL A   1      35.929  20.825  24.980  1.00  0.00     0.275 C 
BRANCH   2   3
ATOM      3  O   UNL A   1      35.206  21.921  24.374  1.00  0.00    -0.459 OA
BRANCH   3   4
ATOM      4  C   UNL A   1      33.859  21.806  24.394  1.00  0.00     0.338 C 
ATOM      5  O   UNL A   1      33.207  20.825  24.073  1.00  0.00    -0.246 OA
BRANCH   4   6
ATOM      6  C   UNL A   1      33.233  23.034  24.913  1.00  0.00     0.087 C 
ATOM      7  C   UNL A   1      32.513  27.929  25.825  1.00  0.00    -0.025 A 
ATOM      8  C   UNL A   1      32.330  26.749  26.584  1.00  0.00     0.052 A 
ATOM      9  C   UNL A   1      32.838  27.807  24.465  1.00  0.00     0.045 A 
ATOM     10  C   UNL A   1      32.536  25.489  26.017  1.00  0.00     0.128 A 
ATOM     11  C   UNL A   1      33.091  26.554  23.916  1.00  0.00     0.032 A 
ATOM     12  Cl  UNL A   1      32.946  29.164  23.401  1.00  0.00    -0.084 Cl
ATOM     13  C   UNL A   1      32.962  25.405  24.699  1.00  0.00     0.019 A 
ATOM     14  O   UNL A   1      32.345  24.394  26.816  1.00  0.00    -0.475 OA
ATOM     15  C   UNL A   1      33.373  24.130  24.164  1.00  0.00     0.027 C 
ATOM     16  C   UNL A   1      32.583  23.057  26.266  1.00  0.00     0.316 C 
BRANCH   7  17
ATOM     17  C   UNL A   1      32.402  29.273  26.511  1.00  0.00     0.040 C 
BRANCH  17  18
ATOM     18  C   UNL A   1      33.754  30.000  26.708  1.00  0.00    -0.013 C 
ATOM     19  C   UNL A   1      33.676  31.223  27.627  1.00  0.00     0.008 C 
ATOM     20  C   UNL A   1      34.780  29.019  27.284  1.00  0.00     0.008 C 
ENDBRANCH  17  18
ENDBRANCH   7  17
BRANCH  16  21
ATOM     21  C   UNL A   1      33.355  22.254  27.324  1.00  0.00     0.430 C 
ATOM     22  F   UNL A   1      32.788  22.399  28.548  1.00  0.00    -0.167 F 
ATOM     23  F   UNL A   1      33.348  20.925  27.060  1.00  0.00    -0.167 F 
ATOM     24  F   UNL A   1      34.644  22.643  27.426  1.00  0.00    -0.167 F 
ENDBRANCH  16  21
ENDBRANCH   4   6
ENDBRANCH   3   4
ENDBRANCH   2   3
ENDBRANCH   1   2
BRANCH   1  25
ATOM     25  O   UNL A   1      38.055  21.987  25.311  1.00  0.00    -0.458 OA
BRANCH  25  26
ATOM     26  C   UNL A   1      39.138  21.664  26.052  1.00  0.00     0.338 C 
ATOM     27  O   UNL A   1      39.713  20.591  26.094  1.00  0.00    -0.246 OA
BRANCH  26  28
ATOM     28  C   UNL A   1      39.635  22.855  26.754  1.00  0.00     0.060 A 
ATOM     29  C   UNL A   1      40.633  22.769  27.716  1.00  0.00     0.016 A 
ATOM     30  C   UNL A   1      39.222  24.097  26.290  1.00  0.00     0.016 A 
ATOM     31  C   UNL A   1      41.202  23.951  28.208  1.00  0.00     0.010 A 
ATOM     32  C   UNL A   1      39.930  25.244  26.629  1.00  0.00     0.010 A 
ATOM     33  C   UNL A   1      40.894  25.206  27.638  1.00  0.00    -0.014 A 
BRANCH  33  34
ATOM     34  C   UNL A   1      41.542  26.467  28.110  1.00  0.00     0.031 A 
ATOM     35  C   UNL A   1      43.030  26.695  27.927  1.00  0.00     0.074 A 
ATOM     36  C   UNL A   1      40.800  27.415  28.723  1.00  0.00     0.049 A 
ATOM     37  N   UNL A   1      43.741  27.755  28.226  1.00  0.00    -0.248 NA
ATOM     38  C   UNL A   1      43.837  25.590  27.380  1.00  0.00     0.031 C 
ATOM     39  C   UNL A   1      39.381  27.288  29.064  1.00  0.00     0.029 A 
ATOM     40  N   UNL A   1      41.121  28.686  29.140  1.00  0.00    -0.354 N 
ATOM     41  C   UNL A   1      45.060  27.428  27.926  1.00  0.00     0.074 A 
ATOM     42  C   UNL A   1      45.071  26.047  27.512  1.00  0.00     0.031 C 
ATOM     43  C   UNL A   1      38.931  28.461  29.533  1.00  0.00     0.029 A 
ATOM     44  C   UNL A   1      40.037  29.412  29.581  1.00  0.00     0.049 A 
ATOM     45  H   UNL A   1      42.039  29.043  29.124  1.00  0.00     0.167 HD
ATOM     46  C   UNL A   1      46.160  28.217  27.931  1.00  0.00     0.031 A 
ATOM     47  C   UNL A   1      39.929  30.704  29.955  1.00  0.00     0.031 A 
ATOM     48  C   UNL A   1      46.136  29.612  28.274  1.00  0.00     0.049 A 
ATOM     49  C   UNL A   1      41.146  31.586  29.894  1.00  0.00     0.074 A 
ATOM     50  C   UNL A   1      47.178  30.521  28.233  1.00  0.00     0.029 A 
ATOM     51  N   UNL A   1      45.013  30.305  28.697  1.00  0.00    -0.354 N 
ATOM     52  N   UNL A   1      42.365  31.275  29.523  1.00  0.00    -0.248 NA
ATOM     53  C   UNL A   1      40.975  32.992  30.282  1.00  0.00     0.031 C 
ATOM     54  C   UNL A   1      46.699  31.751  28.685  1.00  0.00     0.029 A 
ATOM     55  C   UNL A   1      45.341  31.628  28.936  1.00  0.00     0.049 A 
ATOM     56  H   UNL A   1      44.116  29.915  28.812  1.00  0.00     0.167 HD
ATOM     57  C   UNL A   1      43.102  32.450  29.616  1.00  0.00     0.074 A 
ATOM     58  C   UNL A   1      42.187  33.484  30.055  1.00  0.00     0.031 C 
ATOM     59  C   UNL A   1      44.419  32.650  29.364  1.00  0.00     0.031 A 
BRANCH  46  60
ATOM     60  C   UNL A   1      47.476  27.621  27.489  1.00  0.00    -0.014 A 
ATOM     61  C   UNL A   1      48.356  27.068  28.438  1.00  0.00     0.010 A 
ATOM     62  C   UNL A   1      47.894  27.714  26.149  1.00  0.00     0.010 A 
ATOM     63  C   UNL A   1      49.637  26.652  28.062  1.00  0.00     0.020 A 
ATOM     64  C   UNL A   1      49.158  27.264  25.761  1.00  0.00     0.020 A 
ATOM     65  C   UNL A   1      50.033  26.761  26.726  1.00  0.00     0.054 A 
BRANCH  65  66
ATOM     66  S   UNL A   1      51.710  26.250  26.261  1.00  0.00     0.124 S 
ATOM     67  O   UNL A   1      52.538  27.127  27.083  1.00  0.00    -0.237 OA
ATOM     68  O   UNL A   1      51.728  24.836  26.629  1.00  0.00    -0.237 OA
ATOM     69  O   UNL A   1      51.760  26.510  24.823  1.00  0.00    -0.744 OA
ENDBRANCH  65  66
ENDBRANCH  46  60
BRANCH  47  70
ATOM     70  C   UNL A   1      38.588  31.246  30.320  1.00  0.00    -0.014 A 
ATOM     71  C   UNL A   1      37.756  31.827  29.344  1.00  0.00     0.010 A 
ATOM     72  C   UNL A   1      38.181  31.279  31.667  1.00  0.00     0.010 A 
ATOM     73  C   UNL A   1      36.579  32.484  29.713  1.00  0.00     0.020 A 
ATOM     74  C   UNL A   1      36.985  31.907  32.036  1.00  0.00     0.020 A 
ATOM     75  C   UNL A   1      36.210  32.535  31.059  1.00  0.00     0.054 A 
BRANCH  75  76
ATOM     76  S   UNL A   1      34.718  33.458  31.523  1.00  0.00     0.124 S 
ATOM     77  O   UNL A   1      34.049  33.610  30.233  1.00  0.00    -0.237 OA
ATOM     78  O   UNL A   1      34.064  32.555  32.468  1.00  0.00    -0.237 OA
ATOM     79  O   UNL A   1      35.241  34.690  32.105  1.00  0.00    -0.744 OA
ENDBRANCH  75  76
ENDBRANCH  47  70
BRANCH  59  80
ATOM     80  C   UNL A   1      44.982  34.036  29.545  1.00  0.00    -0.014 A 
ATOM     81  C   UNL A   1      45.048  34.908  28.442  1.00  0.00     0.010 A 
ATOM     82  C   UNL A   1      45.584  34.415  30.756  1.00  0.00     0.010 A 
ATOM     83  C   UNL A   1      45.745  36.115  28.533  1.00  0.00     0.020 A 
ATOM     84  C   UNL A   1      46.254  35.637  30.862  1.00  0.00     0.020 A 
ATOM     85  C   UNL A   1      46.354  36.465  29.741  1.00  0.00     0.054 A 
BRANCH  85  86
ATOM     86  S   UNL A   1      47.293  38.014  29.828  1.00  0.00     0.124 S 
ATOM     87  O   UNL A   1      47.238  38.485  28.447  1.00  0.00    -0.237 OA
ATOM     88  O   UNL A   1      46.527  38.801  30.793  1.00  0.00    -0.237 OA
ATOM     89  O   UNL A   1      48.612  37.589  30.291  1.00  0.00    -0.744 OA
ENDBRANCH  85  86
ENDBRANCH  59  80
ENDBRANCH  33  34
ENDBRANCH  26  28
ENDBRANCH  25  26
ENDBRANCH   1  25
TORSDOF 17
ENDMDL
MODEL 2
REMARK VINA RESULT:     -10.9      4.132      6.952
REMARK SMILES CC(C)Cc1cc2c(cc1Cl)C=C(C(=O)OCCOC(=O)c1ccc(-c3c4nc(c(-c5ccc(S(=O)(=O)[O-])cc5)c5ccc([nH]5)c(-c5ccc(S(=O)(=O)[O-])cc5)c5nc(c(-c6ccc(S(=O)(=O)[O-])cc6)c6ccc3[nH]6)C=C5)C=C4)cc1)[C@@H](C(F)(F)F)O2
REMARK SMILES IDX 18 1 17 2 16 3 14 4 15 5 13 6 5 7 6 8 10 9 7 10 9 11 11 12
REMARK SMILES IDX 8 13 87 14 12 15 82 16 4 17 2 18 1 19 3 20 83 21 84 22 85 23
REMARK SMILES IDX 86 24 19 25 20 26 21 27 22 28 23 29 81 30 24 31 80 32 25 33
REMARK SMILES IDX 26 34 27 35 74 36 28 37 79 38 73 39 75 40 29 41 78 42 72 43
REMARK SMILES IDX 71 44 30 46 60 47 41 48 59 49 42 50 45 51 58 52 76 53 43 54
REMARK SMILES IDX 44 55 57 57 77 58 46 59 31 60 32 61 40 62 33 63 39 64 34 65
REMARK SMILES IDX 35 66 36 67 37 68 38 69 61 70 62 71 70 72 63 73 69 74 64 75
REMARK SMILES IDX 65 76 66 77 67 78 68 79 47 80 48 81 56 82 49 83 55 84 50 85
REMARK SMILES IDX 51 86 52 87 53 88 54 89
REMARK H PARENT 75 45 45 56
REMARK Flexibility Score: inf
ROOT
ATOM      1  C   UNL A   1      40.505  21.093  26.128  1.00  0.00     0.275 C 
ENDROOT
BRANCH   1   2
ATOM      2  C   UNL A   1      41.066  19.900  26.905  1.00  0.00     0.275 C 
BRANCH   2   3
ATOM      3  O   UNL A   1      42.511  19.926  26.953  1.00  0.00    -0.459 OA
BRANCH   3   4
ATOM      4  C   UNL A   1      43.126  20.107  25.763  1.00  0.00     0.338 C 
ATOM      5  O   UNL A   1      42.909  19.492  24.730  1.00  0.00    -0.246 OA
BRANCH   4   6
ATOM      6  C   UNL A   1      44.102  21.208  25.835  1.00  0.00     0.087 C 
ATOM      7  C   UNL A   1      46.167  25.727  25.051  1.00  0.00    -0.025 A 
ATOM      8  C   UNL A   1      46.681  24.412  25.136  1.00  0.00     0.052 A 
ATOM      9  C   UNL A   1      44.817  25.941  25.370  1.00  0.00     0.045 A 
ATOM     10  C   UNL A   1      45.853  23.335  25.462  1.00  0.00     0.128 A 
ATOM     11  C   UNL A   1      43.984  24.862  25.645  1.00  0.00     0.032 A 
ATOM     12  Cl  UNL A   1      44.109  27.515  25.444  1.00  0.00    -0.084 Cl
ATOM     13  C   UNL A   1      44.499  23.564  25.667  1.00  0.00     0.019 A 
ATOM     14  O   UNL A   1      46.421  22.092  25.519  1.00  0.00    -0.475 OA
ATOM     15  C   UNL A   1      43.601  22.444  25.801  1.00  0.00     0.027 C 
ATOM     16  C   UNL A   1      45.577  20.933  25.825  1.00  0.00     0.316 C 
BRANCH   7  17
ATOM     17  C   UNL A   1      47.071  26.843  24.573  1.00  0.00     0.040 C 
BRANCH  17  18
ATOM     18  C   UNL A   1      48.428  26.363  24.006  1.00  0.00    -0.013 C 
ATOM     19  C   UNL A   1      48.793  26.982  22.653  1.00  0.00     0.008 C 
ATOM     20  C   UNL A   1      49.541  26.688  25.007  1.00  0.00     0.008 C 
ENDBRANCH  17  18
ENDBRANCH   7  17
BRANCH  16  21
ATOM     21  C   UNL A   1      45.979  19.804  24.864  1.00  0.00     0.430 C 
ATOM     22  F   UNL A   1      45.326  19.923  23.681  1.00  0.00    -0.167 F 
ATOM     23  F   UNL A   1      47.301  19.830  24.569  1.00  0.00    -0.167 F 
ATOM     24  F   UNL A   1      45.695  18.580  25.362  1.00  0.00    -0.167 F 
ENDBRANCH  16  21
ENDBRANCH   4   6
ENDBRANCH   3   4
ENDBRANCH   2   3
ENDBRANCH   1   2
BRANCH   1  25
ATOM     25  O   UNL A   1      39.654  21.895  26.965  1.00  0.00    -0.458 OA
BRANCH  25  26
ATOM     26  C   UNL A   1      38.913  22.817  26.310  1.00  0.00     0.338 C 
ATOM     27  O   UNL A   1      38.097  22.619  25.426  1.00  0.00    -0.246 OA
BRANCH  26  28
ATOM     28  C   UNL A   1      39.134  24.144  26.899  1.00  0.00     0.060 A 
ATOM     29  C   UNL A   1      38.854  24.403  28.235  1.00  0.00     0.016 A 
ATOM     30  C   UNL A   1      39.819  25.082  26.138  1.00  0.00     0.016 A 
ATOM     31  C   UNL A   1      39.265  25.623  28.789  1.00  0.00     0.010 A 
ATOM     32  C   UNL A   1      40.400  26.189  26.745  1.00  0.00     0.010 A 
ATOM     33  C   UNL A   1      40.087  26.515  28.066  1.00  0.00    -0.014 A 
BRANCH  33  34
ATOM     34  C   UNL A   1      40.588  27.789  28.667  1.00  0.00     0.031 A 
ATOM     35  C   UNL A   1      42.063  27.987  28.960  1.00  0.00     0.074 A 
ATOM     36  C   UNL A   1      39.716  28.776  28.971  1.00  0.00     0.049 A 
ATOM     37  N   UNL A   1      42.671  29.050  29.426  1.00  0.00    -0.248 NA
ATOM     38  C   UNL A   1      42.969  26.845  28.746  1.00  0.00     0.031 C 
ATOM     39  C   UNL A   1      38.259  28.685  28.845  1.00  0.00     0.029 A 
ATOM     40  N   UNL A   1      39.925  30.061  29.415  1.00  0.00    -0.354 N 
ATOM     41  C   UNL A   1      44.007  28.690  29.577  1.00  0.00     0.074 A 
ATOM     42  C   UNL A   1      44.110  27.291  29.247  1.00  0.00     0.031 C 
ATOM     43  C   UNL A   1      37.718  29.886  29.096  1.00  0.00     0.029 A 
ATOM     44  C   UNL A   1      38.778  30.823  29.456  1.00  0.00     0.049 A 
ATOM     45  H   UNL A   1      40.809  30.404  29.678  1.00  0.00     0.167 HD
ATOM     46  C   UNL A   1      45.070  29.463  29.901  1.00  0.00     0.031 A 
ATOM     47  C   UNL A   1      38.594  32.133  29.721  1.00  0.00     0.031 A 
ATOM     48  C   UNL A   1      44.978  30.874  30.160  1.00  0.00     0.049 A 
ATOM     49  C   UNL A   1      39.792  32.993  30.016  1.00  0.00     0.074 A 
ATOM     50  C   UNL A   1      46.005  31.765  30.416  1.00  0.00     0.029 A 
ATOM     51  N   UNL A   1      43.800  31.602  30.173  1.00  0.00    -0.354 N 
ATOM     52  N   UNL A   1      41.056  32.648  30.067  1.00  0.00    -0.248 NA
ATOM     53  C   UNL A   1      39.546  34.420  30.269  1.00  0.00     0.031 C 
ATOM     54  C   UNL A   1      45.443  33.022  30.640  1.00  0.00     0.029 A 
ATOM     55  C   UNL A   1      44.073  32.931  30.449  1.00  0.00     0.049 A 
ATOM     56  H   UNL A   1      42.902  31.231  30.011  1.00  0.00     0.167 HD
ATOM     57  C   UNL A   1      41.758  33.816  30.342  1.00  0.00     0.074 A 
ATOM     58  C   UNL A   1      40.781  34.883  30.421  1.00  0.00     0.031 C 
ATOM     59  C   UNL A   1      43.092  33.985  30.516  1.00  0.00     0.031 A 
BRANCH  46  60
ATOM     60  C   UNL A   1      46.441  28.828  29.928  1.00  0.00    -0.014 A 
ATOM     61  C   UNL A   1      47.169  28.665  28.735  1.00  0.00     0.010 A 
ATOM     62  C   UNL A   1      46.960  28.289  31.120  1.00  0.00     0.010 A 
ATOM     63  C   UNL A   1      48.369  27.947  28.726  1.00  0.00     0.020 A 
ATOM     64  C   UNL A   1      48.178  27.604  31.123  1.00  0.00     0.020 A 
ATOM     65  C   UNL A   1      48.861  27.413  29.921  1.00  0.00     0.054 A 
BRANCH  65  66
ATOM     66  S   UNL A   1      50.400  26.454  29.887  1.00  0.00     0.124 S 
ATOM     67  O   UNL A   1      51.286  27.265  30.716  1.00  0.00    -0.237 OA
ATOM     68  O   UNL A   1      49.993  25.174  30.460  1.00  0.00    -0.237 OA
ATOM     69  O   UNL A   1      50.743  26.409  28.466  1.00  0.00    -0.744 OA
ENDBRANCH  65  66
ENDBRANCH  46  60
BRANCH  47  70
ATOM     70  C   UNL A   1      37.222  32.711  29.615  1.00  0.00    -0.014 A 
ATOM     71  C   UNL A   1      36.666  33.021  28.360  1.00  0.00     0.010 A 
ATOM     72  C   UNL A   1      36.507  33.053  30.778  1.00  0.00     0.010 A 
ATOM     73  C   UNL A   1      35.457  33.715  28.269  1.00  0.00     0.020 A 
ATOM     74  C   UNL A   1      35.279  33.719  30.691  1.00  0.00     0.020 A 
ATOM     75  C   UNL A   1      34.780  34.076  29.437  1.00  0.00     0.054 A 
BRANCH  75  76
ATOM     76  S   UNL A   1      33.250  35.042  29.297  1.00  0.00     0.124 S 
ATOM     77  O   UNL A   1      33.759  36.350  28.891  1.00  0.00    -0.237 OA
ATOM     78  O   UNL A   1      32.503  34.313  28.274  1.00  0.00    -0.237 OA
ATOM     79  O   UNL A   1      32.681  34.982  30.640  1.00  0.00    -0.744 OA
ENDBRANCH  75  76
ENDBRANCH  47  70
BRANCH  59  80
ATOM     80  C   UNL A   1      43.607  35.369  30.809  1.00  0.00    -0.014 A 
ATOM     81  C   UNL A   1      43.674  35.819  32.142  1.00  0.00     0.010 A 
ATOM     82  C   UNL A   1      43.875  36.273  29.767  1.00  0.00     0.010 A 
ATOM     83  C   UNL A   1      43.954  37.157  32.426  1.00  0.00     0.020 A 
ATOM     84  C   UNL A   1      44.189  37.605  30.048  1.00  0.00     0.020 A 
ATOM     85  C   UNL A   1      44.198  38.045  31.375  1.00  0.00     0.054 A 
BRANCH  85  86
ATOM     86  S   UNL A   1      44.515  39.788  31.760  1.00  0.00     0.124 S 
ATOM     87  O   UNL A   1      45.284  40.225  30.598  1.00  0.00    -0.237 OA
ATOM     88  O   UNL A   1      43.168  40.343  31.870  1.00  0.00    -0.237 OA
ATOM     89  O   UNL A   1      45.261  39.731  33.016  1.00  0.00    -0.744 OA
ENDBRANCH  85  86
ENDBRANCH  59  80
ENDBRANCH  33  34
ENDBRANCH  26  28
ENDBRANCH  25  26
ENDBRANCH   1  25
TORSDOF 17
ENDMDL
MODEL 3
REMARK VINA RESULT:     -10.8      5.268     11.305
REMARK SMILES CC(C)Cc1cc2c(cc1Cl)C=C(C(=O)OCCOC(=O)c1ccc(-c3c4nc(c(-c5ccc(S(=O)(=O)[O-])cc5)c5ccc([nH]5)c(-c5ccc(S(=O)(=O)[O-])cc5)c5nc(c(-c6ccc(S(=O)(=O)[O-])cc6)c6ccc3[nH]6)C=C5)C=C4)cc1)[C@@H](C(F)(F)F)O2
REMARK SMILES IDX 18 1 17 2 16 3 14 4 15 5 13 6 5 7 6 8 10 9 7 10 9 11 11 12
REMARK SMILES IDX 8 13 87 14 12 15 82 16 4 17 2 18 1 19 3 20 83 21 84 22 85 23
REMARK SMILES IDX 86 24 19 25 20 26 21 27 22 28 23 29 81 30 24 31 80 32 25 33
REMARK SMILES IDX 26 34 27 35 74 36 28 37 79 38 73 39 75 40 29 41 78 42 72 43
REMARK SMILES IDX 71 44 30 46 60 47 41 48 59 49 42 50 45 51 58 52 76 53 43 54
REMARK SMILES IDX 44 55 57 57 77 58 46 59 31 60 32 61 40 62 33 63 39 64 34 65
REMARK SMILES IDX 35 66 36 67 37 68 38 69 61 70 62 71 70 72 63 73 69 74 64 75
REMARK SMILES IDX 65 76 66 77 67 78 68 79 47 80 48 81 56 82 49 83 55 84 50 85
REMARK SMILES IDX 51 86 52 87 53 88 54 89
REMARK H PARENT 75 45 45 56
REMARK Flexibility Score: inf
ROOT
ATOM      1  C   UNL A   1      34.793  32.515  27.750  1.00  0.00     0.275 C 
ENDROOT
BRANCH   1   2
ATOM      2  C   UNL A   1      34.419  33.715  28.623  1.00  0.00     0.275 C 
BRANCH   2   3
ATOM      3  O   UNL A   1      35.348  33.889  29.717  1.00  0.00    -0.459 OA
BRANCH   3   4
ATOM      4  C   UNL A   1      35.012  33.264  30.867  1.00  0.00     0.338 C 
ATOM      5  O   UNL A   1      34.066  32.508  31.036  1.00  0.00    -0.246 OA
BRANCH   4   6
ATOM      6  C   UNL A   1      35.978  33.569  31.937  1.00  0.00     0.087 C 
ATOM      7  C   UNL A   1      38.866  32.905  36.001  1.00  0.00    -0.025 A 
ATOM      8  C   UNL A   1      38.104  33.987  35.502  1.00  0.00     0.052 A 
ATOM      9  C   UNL A   1      39.022  31.767  35.195  1.00  0.00     0.045 A 
ATOM     10  C   UNL A   1      37.459  33.904  34.265  1.00  0.00     0.128 A 
ATOM     11  C   UNL A   1      38.339  31.666  33.987  1.00  0.00     0.032 A 
ATOM     12  Cl  UNL A   1      40.044  30.443  35.629  1.00  0.00    -0.084 Cl
ATOM     13  C   UNL A   1      37.544  32.724  33.540  1.00  0.00     0.019 A 
ATOM     14  O   UNL A   1      36.735  34.989  33.852  1.00  0.00    -0.475 OA
ATOM     15  C   UNL A   1      36.723  32.549  32.367  1.00  0.00     0.027 C 
ATOM     16  C   UNL A   1      36.018  34.926  32.575  1.00  0.00     0.316 C 
BRANCH   7  17
ATOM     17  C   UNL A   1      39.442  32.991  37.398  1.00  0.00     0.040 C 
BRANCH  17  18
ATOM     18  C   UNL A   1      38.381  33.130  38.516  1.00  0.00    -0.013 C 
ATOM     19  C   UNL A   1      37.357  31.990  38.549  1.00  0.00     0.008 C 
ATOM     20  C   UNL A   1      39.081  33.198  39.877  1.00  0.00     0.008 C 
ENDBRANCH  17  18
ENDBRANCH   7  17
BRANCH  16  21
ATOM     21  C   UNL A   1      34.626  35.536  32.797  1.00  0.00     0.430 C 
ATOM     22  F   UNL A   1      34.713  36.699  33.491  1.00  0.00    -0.167 F 
ATOM     23  F   UNL A   1      34.009  35.838  31.630  1.00  0.00    -0.167 F 
ATOM     24  F   UNL A   1      33.809  34.712  33.489  1.00  0.00    -0.167 F 
ENDBRANCH  16  21
ENDBRANCH   4   6
ENDBRANCH   3   4
ENDBRANCH   2   3
ENDBRANCH   1   2
BRANCH   1  25
ATOM     25  O   UNL A   1      33.837  31.451  27.905  1.00  0.00    -0.458 OA
BRANCH  25  26
ATOM     26  C   UNL A   1      34.303  30.217  27.611  1.00  0.00     0.338 C 
ATOM     27  O   UNL A   1      33.757  29.361  26.937  1.00  0.00    -0.246 OA
BRANCH  26  28
ATOM     28  C   UNL A   1      35.668  30.062  28.131  1.00  0.00     0.060 A 
ATOM     29  C   UNL A   1      35.906  29.668  29.441  1.00  0.00     0.016 A 
ATOM     30  C   UNL A   1      36.716  30.128  27.223  1.00  0.00     0.016 A 
ATOM     31  C   UNL A   1      37.216  29.348  29.825  1.00  0.00     0.010 A 
ATOM     32  C   UNL A   1      37.965  29.615  27.555  1.00  0.00     0.010 A 
ATOM     33  C   UNL A   1      38.258  29.271  28.875  1.00  0.00    -0.014 A 
BRANCH  33  34
ATOM     34  C   UNL A   1      39.646  28.868  29.259  1.00  0.00     0.031 A 
ATOM     35  C   UNL A   1      40.485  29.736  30.177  1.00  0.00     0.074 A 
ATOM     36  C   UNL A   1      40.171  27.722  28.772  1.00  0.00     0.049 A 
ATOM     37  N   UNL A   1      41.683  29.506  30.653  1.00  0.00    -0.248 NA
ATOM     38  C   UNL A   1      39.938  31.043  30.583  1.00  0.00     0.031 C 
ATOM     39  C   UNL A   1      39.522  26.843  27.796  1.00  0.00     0.029 A 
ATOM     40  N   UNL A   1      41.354  27.079  29.053  1.00  0.00    -0.354 N 
ATOM     41  C   UNL A   1      42.028  30.640  31.383  1.00  0.00     0.074 A 
ATOM     42  C   UNL A   1      40.962  31.595  31.213  1.00  0.00     0.031 C 
ATOM     43  C   UNL A   1      40.258  25.732  27.643  1.00  0.00     0.029 A 
ATOM     44  C   UNL A   1      41.460  25.837  28.465  1.00  0.00     0.049 A 
ATOM     45  H   UNL A   1      42.058  27.468  29.620  1.00  0.00     0.167 HD
ATOM     46  C   UNL A   1      43.104  30.853  32.177  1.00  0.00     0.031 A 
ATOM     47  C   UNL A   1      42.397  24.875  28.591  1.00  0.00     0.031 A 
ATOM     48  C   UNL A   1      44.131  29.873  32.404  1.00  0.00     0.049 A 
ATOM     49  C   UNL A   1      43.553  25.099  29.526  1.00  0.00     0.074 A 
ATOM     50  C   UNL A   1      45.220  29.957  33.253  1.00  0.00     0.029 A 
ATOM     51  N   UNL A   1      44.185  28.627  31.801  1.00  0.00    -0.354 N 
ATOM     52  N   UNL A   1      43.812  26.146  30.273  1.00  0.00    -0.248 NA
ATOM     53  C   UNL A   1      44.532  24.011  29.653  1.00  0.00     0.031 C 
ATOM     54  C   UNL A   1      45.964  28.784  33.122  1.00  0.00     0.029 A 
ATOM     55  C   UNL A   1      45.299  27.938  32.248  1.00  0.00     0.049 A 
ATOM     56  H   UNL A   1      43.530  28.283  31.151  1.00  0.00     0.167 HD
ATOM     57  C   UNL A   1      44.973  25.837  30.971  1.00  0.00     0.074 A 
ATOM     58  C   UNL A   1      45.354  24.496  30.576  1.00  0.00     0.031 C 
ATOM     59  C   UNL A   1      45.662  26.599  31.854  1.00  0.00     0.031 A 
BRANCH  46  60
ATOM     60  C   UNL A   1      43.203  32.164  32.921  1.00  0.00    -0.014 A 
ATOM     61  C   UNL A   1      42.543  32.331  34.153  1.00  0.00     0.010 A 
ATOM     62  C   UNL A   1      43.855  33.270  32.344  1.00  0.00     0.010 A 
ATOM     63  C   UNL A   1      42.503  33.582  34.775  1.00  0.00     0.020 A 
ATOM     64  C   UNL A   1      43.851  34.514  32.981  1.00  0.00     0.020 A 
ATOM     65  C   UNL A   1      43.151  34.669  34.180  1.00  0.00     0.054 A 
BRANCH  65  66
ATOM     66  S   UNL A   1      43.061  36.293  34.981  1.00  0.00     0.124 S 
ATOM     67  O   UNL A   1      44.397  36.429  35.553  1.00  0.00    -0.237 OA
ATOM     68  O   UNL A   1      42.756  37.185  33.865  1.00  0.00    -0.237 OA
ATOM     69  O   UNL A   1      41.979  36.135  35.952  1.00  0.00    -0.744 OA
ENDBRANCH  65  66
ENDBRANCH  46  60
BRANCH  47  70
ATOM     70  C   UNL A   1      42.207  23.578  27.878  1.00  0.00    -0.014 A 
ATOM     71  C   UNL A   1      41.442  22.545  28.453  1.00  0.00     0.010 A 
ATOM     72  C   UNL A   1      42.879  23.331  26.666  1.00  0.00     0.010 A 
ATOM     73  C   UNL A   1      41.405  21.276  27.867  1.00  0.00     0.020 A 
ATOM     74  C   UNL A   1      42.817  22.072  26.059  1.00  0.00     0.020 A 
ATOM     75  C   UNL A   1      42.108  21.043  26.683  1.00  0.00     0.054 A 
BRANCH  75  76
ATOM     76  S   UNL A   1      42.106  19.370  25.981  1.00  0.00     0.124 S 
ATOM     77  O   UNL A   1      42.674  18.586  27.075  1.00  0.00    -0.237 OA
ATOM     78  O   UNL A   1      40.689  19.138  25.710  1.00  0.00    -0.237 OA
ATOM     79  O   UNL A   1      42.951  19.493  24.796  1.00  0.00    -0.744 OA
ENDBRANCH  75  76
ENDBRANCH  47  70
BRANCH  59  80
ATOM     80  C   UNL A   1      46.907  26.026  32.479  1.00  0.00    -0.014 A 
ATOM     81  C   UNL A   1      48.141  26.152  31.812  1.00  0.00     0.010 A 
ATOM     82  C   UNL A   1      46.831  25.235  33.638  1.00  0.00     0.010 A 
ATOM     83  C   UNL A   1      49.266  25.460  32.266  1.00  0.00     0.020 A 
ATOM     84  C   UNL A   1      47.963  24.568  34.114  1.00  0.00     0.020 A 
ATOM     85  C   UNL A   1      49.166  24.662  33.409  1.00  0.00     0.054 A 
BRANCH  85  86
ATOM     86  S   UNL A   1      50.625  23.736  33.957  1.00  0.00     0.124 S 
ATOM     87  O   UNL A   1      50.123  22.366  33.996  1.00  0.00    -0.237 OA
ATOM     88  O   UNL A   1      51.600  24.021  32.906  1.00  0.00    -0.237 OA
ATOM     89  O   UNL A   1      50.935  24.325  35.258  1.00  0.00    -0.744 OA
ENDBRANCH  85  86
ENDBRANCH  59  80
ENDBRANCH  33  34
ENDBRANCH  26  28
ENDBRANCH  25  26
ENDBRANCH   1  25
TORSDOF 17
ENDMDL
