MODEL 1
REMARK VINA RESULT:     -11.5      0.000      0.000
REMARK SMILES Cc1oc2c(C)c3oc(=O)c(CC(=O)N[C@@H](CC(C)C)C(=O)OCCOC(=O)c4ccc(-c5c6nc(c(-c7ccc(S(=O)(=O)[O-])cc7)c7ccc([nH]7)c(-c7ccc(S(=O)(=O)[O-])cc7)c7nc(c(-c8ccc(S(=O)(=O)[O-])cc8)c8ccc5[nH]8)C=C7)C=C6)cc4)c(C)c3cc2c1C
REMARK SMILES IDX 24 1 23 2 21 3 22 4 16 5 15 6 13 7 14 8 12 10 11 11 1 12
REMARK SMILES IDX 2 13 3 14 94 15 4 16 93 17 95 18 5 19 92 20 6 21 7 22 91 23
REMARK SMILES IDX 8 24 89 25 9 26 90 27 10 28 17 29 18 30 19 31 20 32 25 33
REMARK SMILES IDX 26 34 27 35 28 36 29 37 30 38 88 39 31 40 87 41 32 42 33 43
REMARK SMILES IDX 34 44 81 45 35 46 86 47 80 48 82 49 36 50 85 51 79 52 78 53
REMARK SMILES IDX 37 55 67 56 48 57 66 58 49 59 52 60 65 61 83 62 50 63 51 64
REMARK SMILES IDX 64 66 84 67 53 68 38 69 39 70 47 71 40 72 46 73 41 74 42 75
REMARK SMILES IDX 43 76 44 77 45 78 68 79 69 80 77 81 70 82 76 83 71 84 72 85
REMARK SMILES IDX 73 86 74 87 75 88 54 89 55 90 63 91 56 92 62 93 57 94 58 95
REMARK SMILES IDX 59 96 60 97 61 98
REMARK H PARENT 15 9 82 54 52 65
REMARK Flexibility Score: inf
ROOT
ATOM      1  C   UNL A   1      46.534  22.351  36.450  1.00  0.00     0.274 C 
ENDROOT
BRANCH   1   2
ATOM      2  O   UNL A   1      47.719  22.398  35.640  1.00  0.00    -0.461 OA
BRANCH   2   3
ATOM      3  C   UNL A   1      48.546  21.325  35.753  1.00  0.00     0.328 C 
ATOM      4  O   UNL A   1      48.451  20.297  35.092  1.00  0.00    -0.250 OA
BRANCH   3   5
ATOM      5  C   UNL A   1      49.602  21.513  36.847  1.00  0.00     0.192 C 
BRANCH   5   6
ATOM      6  N   UNL A   1      49.134  21.634  38.223  1.00  0.00    -0.342 N 
ATOM      7  C   UNL A   1      48.529  20.695  39.011  1.00  0.00     0.225 C 
ATOM      8  O   UNL A   1      48.080  21.060  40.100  1.00  0.00    -0.275 OA
ATOM      9  H   UNL A   1      49.272  22.514  38.643  1.00  0.00     0.164 HD
BRANCH   7  10
ATOM     10  C   UNL A   1      48.416  19.245  38.542  1.00  0.00     0.143 C 
BRANCH  10  11
ATOM     11  C   UNL A   1      47.347  18.458  39.261  1.00  0.00     0.051 A 
ATOM     12  C   UNL A   1      43.266  13.445  44.662  1.00  0.00     0.088 C 
ATOM     13  C   UNL A   1      44.019  14.467  43.908  1.00  0.00     0.105 A 
ATOM     14  O   UNL A   1      43.354  15.049  42.870  1.00  0.00    -0.461 OA
ATOM     15  C   UNL A   1      45.316  14.940  43.982  1.00  0.00    -0.002 A 
ATOM     16  C   UNL A   1      44.249  15.838  42.208  1.00  0.00     0.141 A 
ATOM     17  C   UNL A   1      45.470  15.802  42.862  1.00  0.00     0.025 A 
ATOM     18  C   UNL A   1      46.388  14.581  44.942  1.00  0.00     0.049 C 
ATOM     19  C   UNL A   1      43.998  16.550  41.033  1.00  0.00     0.036 A 
ATOM     20  C   UNL A   1      46.553  16.514  42.324  1.00  0.00     0.024 A 
ATOM     21  C   UNL A   1      42.654  16.577  40.378  1.00  0.00     0.052 C 
ATOM     22  C   UNL A   1      45.143  17.179  40.497  1.00  0.00     0.145 A 
ATOM     23  C   UNL A   1      46.409  17.168  41.097  1.00  0.00     0.022 A 
ATOM     24  O   UNL A   1      44.973  17.828  39.261  1.00  0.00    -0.422 OA
ATOM     25  C   UNL A   1      47.548  17.823  40.431  1.00  0.00    -0.029 A 
ATOM     26  C   UNL A   1      46.027  18.391  38.571  1.00  0.00     0.340 A 
ATOM     27  C   UNL A   1      48.904  17.720  41.087  1.00  0.00     0.046 C 
ATOM     28  O   UNL A   1      45.843  18.861  37.456  1.00  0.00    -0.246 OA
ENDBRANCH  10  11
ENDBRANCH   7  10
ENDBRANCH   5   6
BRANCH   5  29
ATOM     29  C   UNL A   1      50.720  20.461  36.739  1.00  0.00     0.040 C 
BRANCH  29  30
ATOM     30  C   UNL A   1      51.973  20.852  35.922  1.00  0.00    -0.015 C 
ATOM     31  C   UNL A   1      51.942  20.361  34.475  1.00  0.00     0.007 C 
ATOM     32  C   UNL A   1      52.127  22.376  35.936  1.00  0.00     0.007 C 
ENDBRANCH  29  30
ENDBRANCH   5  29
ENDBRANCH   3   5
ENDBRANCH   2   3
ENDBRANCH   1   2
BRANCH   1  33
ATOM     33  C   UNL A   1      45.346  21.823  35.649  1.00  0.00     0.275 C 
BRANCH  33  34
ATOM     34  O   UNL A   1      45.069  22.637  34.496  1.00  0.00    -0.458 OA
BRANCH  34  35
ATOM     35  C   UNL A   1      44.471  23.805  34.813  1.00  0.00     0.338 C 
ATOM     36  O   UNL A   1      43.666  23.987  35.725  1.00  0.00    -0.246 OA
BRANCH  35  37
ATOM     37  C   UNL A   1      44.859  24.907  33.931  1.00  0.00     0.060 A 
ATOM     38  C   UNL A   1      43.896  25.683  33.286  1.00  0.00     0.016 A 
ATOM     39  C   UNL A   1      46.200  24.955  33.543  1.00  0.00     0.016 A 
ATOM     40  C   UNL A   1      44.265  26.401  32.145  1.00  0.00     0.010 A 
ATOM     41  C   UNL A   1      46.566  25.699  32.429  1.00  0.00     0.010 A 
ATOM     42  C   UNL A   1      45.587  26.365  31.682  1.00  0.00    -0.014 A 
BRANCH  42  43
ATOM     43  C   UNL A   1      45.920  27.138  30.471  1.00  0.00     0.031 A 
ATOM     44  C   UNL A   1      45.870  26.273  29.257  1.00  0.00     0.074 A 
ATOM     45  C   UNL A   1      45.607  28.442  30.299  1.00  0.00     0.049 A 
ATOM     46  N   UNL A   1      44.732  25.887  28.760  1.00  0.00    -0.248 NA
ATOM     47  C   UNL A   1      47.023  25.527  28.760  1.00  0.00     0.031 C 
ATOM     48  C   UNL A   1      44.500  29.134  30.975  1.00  0.00     0.029 A 
ATOM     49  N   UNL A   1      46.027  29.340  29.342  1.00  0.00    -0.354 N 
ATOM     50  C   UNL A   1      44.990  24.789  27.966  1.00  0.00     0.074 A 
ATOM     51  C   UNL A   1      46.426  24.616  27.975  1.00  0.00     0.031 C 
ATOM     52  C   UNL A   1      44.195  30.247  30.277  1.00  0.00     0.029 A 
ATOM     53  C   UNL A   1      45.181  30.441  29.220  1.00  0.00     0.049 A 
ATOM     54  H   UNL A   1      46.839  29.216  28.800  1.00  0.00     0.167 HD
ATOM     55  C   UNL A   1      43.995  24.076  27.377  1.00  0.00     0.031 A 
ATOM     56  C   UNL A   1      44.984  31.147  28.073  1.00  0.00     0.031 A 
ATOM     57  C   UNL A   1      42.671  24.598  27.562  1.00  0.00     0.049 A 
ATOM     58  C   UNL A   1      44.104  30.190  27.309  1.00  0.00     0.074 A 
ATOM     59  C   UNL A   1      41.534  24.319  28.288  1.00  0.00     0.029 A 
ATOM     60  N   UNL A   1      42.345  25.717  26.837  1.00  0.00    -0.354 N 
ATOM     61  N   UNL A   1      42.827  29.991  27.490  1.00  0.00    -0.248 NA
ATOM     62  C   UNL A   1      44.765  29.158  26.509  1.00  0.00     0.031 C 
ATOM     63  C   UNL A   1      40.759  25.526  28.273  1.00  0.00     0.029 A 
ATOM     64  C   UNL A   1      41.491  26.488  27.577  1.00  0.00     0.049 A 
ATOM     65  H   UNL A   1      42.673  25.930  25.934  1.00  0.00     0.167 HD
ATOM     66  C   UNL A   1      42.597  28.664  27.114  1.00  0.00     0.074 A 
ATOM     67  C   UNL A   1      43.811  28.239  26.446  1.00  0.00     0.031 C 
ATOM     68  C   UNL A   1      41.521  27.939  27.547  1.00  0.00     0.031 A 
BRANCH  55  69
ATOM     69  C   UNL A   1      44.223  22.973  26.420  1.00  0.00    -0.014 A 
ATOM     70  C   UNL A   1      43.199  22.017  26.302  1.00  0.00     0.010 A 
ATOM     71  C   UNL A   1      45.454  22.750  25.788  1.00  0.00     0.010 A 
ATOM     72  C   UNL A   1      43.415  20.824  25.625  1.00  0.00     0.020 A 
ATOM     73  C   UNL A   1      45.671  21.552  25.091  1.00  0.00     0.020 A 
ATOM     74  C   UNL A   1      44.657  20.588  25.041  1.00  0.00     0.054 A 
BRANCH  74  75
ATOM     75  S   UNL A   1      44.926  18.970  24.272  1.00  0.00     0.124 S 
ATOM     76  O   UNL A   1      44.528  19.216  22.888  1.00  0.00    -0.237 OA
ATOM     77  O   UNL A   1      46.356  18.759  24.487  1.00  0.00    -0.237 OA
ATOM     78  O   UNL A   1      44.046  18.078  25.024  1.00  0.00    -0.744 OA
ENDBRANCH  74  75
ENDBRANCH  55  69
BRANCH  56  79
ATOM     79  C   UNL A   1      46.224  31.767  27.493  1.00  0.00    -0.014 A 
ATOM     80  C   UNL A   1      46.066  32.952  26.739  1.00  0.00     0.010 A 
ATOM     81  C   UNL A   1      47.532  31.288  27.673  1.00  0.00     0.010 A 
ATOM     82  C   UNL A   1      47.165  33.722  26.350  1.00  0.00     0.020 A 
ATOM     83  C   UNL A   1      48.642  32.068  27.316  1.00  0.00     0.020 A 
ATOM     84  C   UNL A   1      48.447  33.301  26.694  1.00  0.00     0.054 A 
BRANCH  84  85
ATOM     85  S   UNL A   1      49.832  34.434  26.405  1.00  0.00     0.124 S 
ATOM     86  O   UNL A   1      50.826  33.962  27.366  1.00  0.00    -0.237 OA
ATOM     87  O   UNL A   1      50.144  34.182  25.000  1.00  0.00    -0.237 OA
ATOM     88  O   UNL A   1      49.266  35.750  26.686  1.00  0.00    -0.744 OA
ENDBRANCH  84  85
ENDBRANCH  56  79
BRANCH  68  89
ATOM     89  C   UNL A   1      40.433  28.716  28.230  1.00  0.00    -0.014 A 
ATOM     90  C   UNL A   1      39.258  29.038  27.529  1.00  0.00     0.010 A 
ATOM     91  C   UNL A   1      40.533  29.081  29.586  1.00  0.00     0.010 A 
ATOM     92  C   UNL A   1      38.196  29.678  28.172  1.00  0.00     0.020 A 
ATOM     93  C   UNL A   1      39.465  29.703  30.242  1.00  0.00     0.020 A 
ATOM     94  C   UNL A   1      38.299  29.990  29.530  1.00  0.00     0.054 A 
BRANCH  94  95
ATOM     95  S   UNL A   1      36.865  30.730  30.357  1.00  0.00     0.124 S 
ATOM     96  O   UNL A   1      36.278  29.588  31.052  1.00  0.00    -0.237 OA
ATOM     97  O   UNL A   1      37.480  31.739  31.218  1.00  0.00    -0.237 OA
ATOM     98  O   UNL A   1      36.065  31.267  29.258  1.00  0.00    -0.744 OA
ENDBRANCH  94  95
ENDBRANCH  68  89
ENDBRANCH  42  43
ENDBRANCH  35  37
ENDBRANCH  34  35
ENDBRANCH  33  34
ENDBRANCH   1  33
TORSDOF 19
ENDMDL
MODEL 2
REMARK VINA RESULT:     -11.2      1.350      2.164
REMARK SMILES Cc1oc2c(C)c3oc(=O)c(CC(=O)N[C@@H](CC(C)C)C(=O)OCCOC(=O)c4ccc(-c5c6nc(c(-c7ccc(S(=O)(=O)[O-])cc7)c7ccc([nH]7)c(-c7ccc(S(=O)(=O)[O-])cc7)c7nc(c(-c8ccc(S(=O)(=O)[O-])cc8)c8ccc5[nH]8)C=C7)C=C6)cc4)c(C)c3cc2c1C
REMARK SMILES IDX 24 1 23 2 21 3 22 4 16 5 15 6 13 7 14 8 12 10 11 11 1 12
REMARK SMILES IDX 2 13 3 14 94 15 4 16 93 17 95 18 5 19 92 20 6 21 7 22 91 23
REMARK SMILES IDX 8 24 89 25 9 26 90 27 10 28 17 29 18 30 19 31 20 32 25 33
REMARK SMILES IDX 26 34 27 35 28 36 29 37 30 38 88 39 31 40 87 41 32 42 33 43
REMARK SMILES IDX 34 44 81 45 35 46 86 47 80 48 82 49 36 50 85 51 79 52 78 53
REMARK SMILES IDX 37 55 67 56 48 57 66 58 49 59 52 60 65 61 83 62 50 63 51 64
REMARK SMILES IDX 64 66 84 67 53 68 38 69 39 70 47 71 40 72 46 73 41 74 42 75
REMARK SMILES IDX 43 76 44 77 45 78 68 79 69 80 77 81 70 82 76 83 71 84 72 85
REMARK SMILES IDX 73 86 74 87 75 88 54 89 55 90 63 91 56 92 62 93 57 94 58 95
REMARK SMILES IDX 59 96 60 97 61 98
REMARK H PARENT 15 9 82 54 52 65
REMARK Flexibility Score: inf
ROOT
ATOM      1  C   UNL A   1      46.589  23.669  37.028  1.00  0.00     0.274 C 
ENDROOT
BRANCH   1   2
ATOM      2  O   UNL A   1      47.594  24.425  36.335  1.00  0.00    -0.461 OA
BRANCH   2   3
ATOM      3  C   UNL A   1      48.095  23.839  35.216  1.00  0.00     0.328 C 
ATOM      4  O   UNL A   1      47.822  24.175  34.068  1.00  0.00    -0.250 OA
BRANCH   3   5
ATOM      5  C   UNL A   1      49.018  22.659  35.535  1.00  0.00     0.192 C 
BRANCH   5   6
ATOM      6  N   UNL A   1      48.859  21.444  34.744  1.00  0.00    -0.342 N 
ATOM      7  C   UNL A   1      47.831  20.544  34.750  1.00  0.00     0.225 C 
ATOM      8  O   UNL A   1      47.973  19.503  34.103  1.00  0.00    -0.275 OA
ATOM      9  H   UNL A   1      49.593  21.244  34.120  1.00  0.00     0.164 HD
BRANCH   7  10
ATOM     10  C   UNL A   1      46.555  20.828  35.541  1.00  0.00     0.143 C 
BRANCH  10  11
ATOM     11  C   UNL A   1      46.265  19.804  36.610  1.00  0.00     0.051 A 
ATOM     12  C   UNL A   1      46.530  15.177  43.645  1.00  0.00     0.088 C 
ATOM     13  C   UNL A   1      46.426  16.172  42.559  1.00  0.00     0.105 A 
ATOM     14  O   UNL A   1      45.512  15.896  41.586  1.00  0.00    -0.461 OA
ATOM     15  C   UNL A   1      47.116  17.333  42.265  1.00  0.00    -0.002 A 
ATOM     16  C   UNL A   1      45.669  16.832  40.607  1.00  0.00     0.141 A 
ATOM     17  C   UNL A   1      46.645  17.740  40.986  1.00  0.00     0.025 A 
ATOM     18  C   UNL A   1      48.194  17.999  43.033  1.00  0.00     0.049 C 
ATOM     19  C   UNL A   1      44.985  16.865  39.390  1.00  0.00     0.036 A 
ATOM     20  C   UNL A   1      46.999  18.770  40.102  1.00  0.00     0.024 A 
ATOM     21  C   UNL A   1      43.919  15.876  39.037  1.00  0.00     0.052 C 
ATOM     22  C   UNL A   1      45.439  17.873  38.512  1.00  0.00     0.145 A 
ATOM     23  C   UNL A   1      46.432  18.809  38.825  1.00  0.00     0.022 A 
ATOM     24  O   UNL A   1      44.855  17.891  37.232  1.00  0.00    -0.422 OA
ATOM     25  C   UNL A   1      46.862  19.795  37.817  1.00  0.00    -0.029 A 
ATOM     26  C   UNL A   1      45.278  18.749  36.239  1.00  0.00     0.340 A 
ATOM     27  C   UNL A   1      47.985  20.736  38.184  1.00  0.00     0.046 C 
ATOM     28  O   UNL A   1      44.802  18.661  35.115  1.00  0.00    -0.246 OA
ENDBRANCH  10  11
ENDBRANCH   7  10
ENDBRANCH   5   6
BRANCH   5  29
ATOM     29  C   UNL A   1      50.494  23.093  35.582  1.00  0.00     0.040 C 
BRANCH  29  30
ATOM     30  C   UNL A   1      51.273  22.789  36.882  1.00  0.00    -0.015 C 
ATOM     31  C   UNL A   1      50.573  23.282  38.148  1.00  0.00     0.007 C 
ATOM     32  C   UNL A   1      51.505  21.278  36.988  1.00  0.00     0.007 C 
ENDBRANCH  29  30
ENDBRANCH   5  29
ENDBRANCH   3   5
ENDBRANCH   2   3
ENDBRANCH   1   2
BRANCH   1  33
ATOM     33  C   UNL A   1      45.201  24.260  36.793  1.00  0.00     0.275 C 
BRANCH  33  34
ATOM     34  O   UNL A   1      44.313  23.317  36.167  1.00  0.00    -0.458 OA
BRANCH  34  35
ATOM     35  C   UNL A   1      43.554  23.877  35.201  1.00  0.00     0.338 C 
ATOM     36  O   UNL A   1      42.334  23.768  35.079  1.00  0.00    -0.246 OA
BRANCH  35  37
ATOM     37  C   UNL A   1      44.332  24.658  34.239  1.00  0.00     0.060 A 
ATOM     38  C   UNL A   1      44.480  26.037  34.386  1.00  0.00     0.016 A 
ATOM     39  C   UNL A   1      44.663  24.024  33.039  1.00  0.00     0.016 A 
ATOM     40  C   UNL A   1      44.823  26.800  33.267  1.00  0.00     0.010 A 
ATOM     41  C   UNL A   1      45.037  24.785  31.940  1.00  0.00     0.010 A 
ATOM     42  C   UNL A   1      45.046  26.182  32.030  1.00  0.00    -0.014 A 
BRANCH  42  43
ATOM     43  C   UNL A   1      45.402  27.035  30.880  1.00  0.00     0.031 A 
ATOM     44  C   UNL A   1      45.458  26.237  29.622  1.00  0.00     0.074 A 
ATOM     45  C   UNL A   1      45.031  28.331  30.760  1.00  0.00     0.049 A 
ATOM     46  N   UNL A   1      44.368  25.825  29.044  1.00  0.00    -0.248 NA
ATOM     47  C   UNL A   1      46.672  25.577  29.150  1.00  0.00     0.031 C 
ATOM     48  C   UNL A   1      43.857  28.930  31.411  1.00  0.00     0.029 A 
ATOM     49  N   UNL A   1      45.453  29.299  29.876  1.00  0.00    -0.354 N 
ATOM     50  C   UNL A   1      44.722  24.786  28.210  1.00  0.00     0.074 A 
ATOM     51  C   UNL A   1      46.163  24.682  28.286  1.00  0.00     0.031 C 
ATOM     52  C   UNL A   1      43.532  30.064  30.756  1.00  0.00     0.029 A 
ATOM     53  C   UNL A   1      44.560  30.363  29.766  1.00  0.00     0.049 A 
ATOM     54  H   UNL A   1      46.297  29.244  29.373  1.00  0.00     0.167 HD
ATOM     55  C   UNL A   1      43.798  24.059  27.530  1.00  0.00     0.031 A 
ATOM     56  C   UNL A   1      44.387  31.121  28.649  1.00  0.00     0.031 A 
ATOM     57  C   UNL A   1      42.440  24.506  27.671  1.00  0.00     0.049 A 
ATOM     58  C   UNL A   1      43.597  30.165  27.789  1.00  0.00     0.074 A 
ATOM     59  C   UNL A   1      41.283  24.133  28.319  1.00  0.00     0.029 A 
ATOM     60  N   UNL A   1      42.096  25.646  26.989  1.00  0.00    -0.354 N 
ATOM     61  N   UNL A   1      42.324  29.896  27.889  1.00  0.00    -0.248 NA
ATOM     62  C   UNL A   1      44.350  29.212  26.973  1.00  0.00     0.031 C 
ATOM     63  C   UNL A   1      40.449  25.300  28.325  1.00  0.00     0.029 A 
ATOM     64  C   UNL A   1      41.166  26.333  27.721  1.00  0.00     0.049 A 
ATOM     65  H   UNL A   1      42.459  25.923  26.117  1.00  0.00     0.167 HD
ATOM     66  C   UNL A   1      42.182  28.582  27.433  1.00  0.00     0.074 A 
ATOM     67  C   UNL A   1      43.449  28.253  26.811  1.00  0.00     0.031 C 
ATOM     68  C   UNL A   1      41.123  27.783  27.768  1.00  0.00     0.031 A 
BRANCH  55  69
ATOM     69  C   UNL A   1      44.130  23.023  26.532  1.00  0.00    -0.014 A 
ATOM     70  C   UNL A   1      43.112  22.110  26.204  1.00  0.00     0.010 A 
ATOM     71  C   UNL A   1      45.431  22.809  26.054  1.00  0.00     0.010 A 
ATOM     72  C   UNL A   1      43.393  20.964  25.472  1.00  0.00     0.020 A 
ATOM     73  C   UNL A   1      45.716  21.659  25.303  1.00  0.00     0.020 A 
ATOM     74  C   UNL A   1      44.698  20.733  25.043  1.00  0.00     0.054 A 
BRANCH  74  75
ATOM     75  S   UNL A   1      45.036  19.168  24.196  1.00  0.00     0.124 S 
ATOM     76  O   UNL A   1      46.479  19.027  24.370  1.00  0.00    -0.237 OA
ATOM     77  O   UNL A   1      44.216  18.224  24.952  1.00  0.00    -0.237 OA
ATOM     78  O   UNL A   1      44.596  19.414  22.824  1.00  0.00    -0.744 OA
ENDBRANCH  74  75
ENDBRANCH  55  69
BRANCH  56  79
ATOM     79  C   UNL A   1      45.622  31.831  28.170  1.00  0.00    -0.014 A 
ATOM     80  C   UNL A   1      46.369  32.552  29.128  1.00  0.00     0.010 A 
ATOM     81  C   UNL A   1      46.117  31.802  26.856  1.00  0.00     0.010 A 
ATOM     82  C   UNL A   1      47.639  33.055  28.836  1.00  0.00     0.020 A 
ATOM     83  C   UNL A   1      47.404  32.274  26.559  1.00  0.00     0.020 A 
ATOM     84  C   UNL A   1      48.173  32.860  27.565  1.00  0.00     0.054 A 
BRANCH  84  85
ATOM     85  S   UNL A   1      49.910  33.292  27.284  1.00  0.00     0.124 S 
ATOM     86  O   UNL A   1      50.520  32.990  28.576  1.00  0.00    -0.237 OA
ATOM     87  O   UNL A   1      50.274  32.396  26.189  1.00  0.00    -0.237 OA
ATOM     88  O   UNL A   1      49.860  34.709  26.931  1.00  0.00    -0.744 OA
ENDBRANCH  84  85
ENDBRANCH  56  79
BRANCH  68  89
ATOM     89  C   UNL A   1      39.963  28.468  28.432  1.00  0.00    -0.014 A 
ATOM     90  C   UNL A   1      39.896  28.529  29.834  1.00  0.00     0.010 A 
ATOM     91  C   UNL A   1      38.963  29.111  27.679  1.00  0.00     0.010 A 
ATOM     92  C   UNL A   1      38.878  29.241  30.470  1.00  0.00     0.020 A 
ATOM     93  C   UNL A   1      37.952  29.845  28.309  1.00  0.00     0.020 A 
ATOM     94  C   UNL A   1      37.921  29.910  29.702  1.00  0.00     0.054 A 
BRANCH  94  95
ATOM     95  S   UNL A   1      36.671  30.906  30.558  1.00  0.00     0.124 S 
ATOM     96  O   UNL A   1      35.755  31.260  29.476  1.00  0.00    -0.237 OA
ATOM     97  O   UNL A   1      36.140  29.969  31.546  1.00  0.00    -0.237 OA
ATOM     98  O   UNL A   1      37.432  32.021  31.117  1.00  0.00    -0.744 OA
ENDBRANCH  94  95
ENDBRANCH  68  89
ENDBRANCH  42  43
ENDBRANCH  35  37
ENDBRANCH  34  35
ENDBRANCH  33  34
ENDBRANCH   1  33
TORSDOF 19
ENDMDL
MODEL 3
REMARK VINA RESULT:     -11.1      8.436     21.035
REMARK SMILES Cc1oc2c(C)c3oc(=O)c(CC(=O)N[C@@H](CC(C)C)C(=O)OCCOC(=O)c4ccc(-c5c6nc(c(-c7ccc(S(=O)(=O)[O-])cc7)c7ccc([nH]7)c(-c7ccc(S(=O)(=O)[O-])cc7)c7nc(c(-c8ccc(S(=O)(=O)[O-])cc8)c8ccc5[nH]8)C=C7)C=C6)cc4)c(C)c3cc2c1C
REMARK SMILES IDX 24 1 23 2 21 3 22 4 16 5 15 6 13 7 14 8 12 10 11 11 1 12
REMARK SMILES IDX 2 13 3 14 94 15 4 16 93 17 95 18 5 19 92 20 6 21 7 22 91 23
REMARK SMILES IDX 8 24 89 25 9 26 90 27 10 28 17 29 18 30 19 31 20 32 25 33
REMARK SMILES IDX 26 34 27 35 28 36 29 37 30 38 88 39 31 40 87 41 32 42 33 43
REMARK SMILES IDX 34 44 81 45 35 46 86 47 80 48 82 49 36 50 85 51 79 52 78 53
REMARK SMILES IDX 37 55 67 56 48 57 66 58 49 59 52 60 65 61 83 62 50 63 51 64
REMARK SMILES IDX 64 66 84 67 53 68 38 69 39 70 47 71 40 72 46 73 41 74 42 75
REMARK SMILES IDX 43 76 44 77 45 78 68 79 69 80 77 81 70 82 76 83 71 84 72 85
REMARK SMILES IDX 73 86 74 87 75 88 54 89 55 90 63 91 56 92 62 93 57 94 58 95
REMARK SMILES IDX 59 96 60 97 61 98
REMARK H PARENT 15 9 82 54 52 65
REMARK Flexibility Score: inf
ROOT
ATOM      1  C   UNL A   1      45.494  39.093  26.752  1.00  0.00     0.274 C 
ENDROOT
BRANCH   1   2
ATOM      2  O   UNL A   1      45.111  40.467  26.918  1.00  0.00    -0.461 OA
BRANCH   2   3
ATOM      3  C   UNL A   1      46.024  41.383  26.498  1.00  0.00     0.328 C 
ATOM      4  O   UNL A   1      47.236  41.202  26.476  1.00  0.00    -0.250 OA
BRANCH   3   5
ATOM      5  C   UNL A   1      45.377  42.711  26.094  1.00  0.00     0.192 C 
BRANCH   5   6
ATOM      6  N   UNL A   1      44.033  42.663  25.528  1.00  0.00    -0.342 N 
ATOM      7  C   UNL A   1      43.654  42.637  24.216  1.00  0.00     0.225 C 
ATOM      8  O   UNL A   1      42.452  42.748  23.961  1.00  0.00    -0.275 OA
ATOM      9  H   UNL A   1      43.298  42.648  26.182  1.00  0.00     0.164 HD
BRANCH   7  10
ATOM     10  C   UNL A   1      44.696  42.479  23.109  1.00  0.00     0.143 C 
BRANCH  10  11
ATOM     11  C   UNL A   1      44.454  43.374  21.919  1.00  0.00     0.051 A 
ATOM     12  C   UNL A   1      44.150  50.000  16.726  1.00  0.00     0.088 C 
ATOM     13  C   UNL A   1      44.444  48.858  17.613  1.00  0.00     0.105 A 
ATOM     14  O   UNL A   1      43.914  47.660  17.235  1.00  0.00    -0.461 OA
ATOM     15  C   UNL A   1      45.111  48.737  18.819  1.00  0.00    -0.002 A 
ATOM     16  C   UNL A   1      44.158  46.774  18.243  1.00  0.00     0.141 A 
ATOM     17  C   UNL A   1      44.895  47.395  19.238  1.00  0.00     0.025 A 
ATOM     18  C   UNL A   1      45.825  49.775  19.599  1.00  0.00     0.049 C 
ATOM     19  C   UNL A   1      43.710  45.452  18.295  1.00  0.00     0.036 A 
ATOM     20  C   UNL A   1      45.223  46.674  20.396  1.00  0.00     0.024 A 
ATOM     21  C   UNL A   1      42.937  44.818  17.183  1.00  0.00     0.052 C 
ATOM     22  C   UNL A   1      44.000  44.804  19.516  1.00  0.00     0.145 A 
ATOM     23  C   UNL A   1      44.725  45.379  20.567  1.00  0.00     0.022 A 
ATOM     24  O   UNL A   1      43.487  43.502  19.664  1.00  0.00    -0.422 OA
ATOM     25  C   UNL A   1      44.936  44.628  21.817  1.00  0.00    -0.029 A 
ATOM     26  C   UNL A   1      43.600  42.794  20.843  1.00  0.00     0.340 A 
ATOM     27  C   UNL A   1      45.664  45.321  22.944  1.00  0.00     0.046 C 
ATOM     28  O   UNL A   1      43.055  41.704  20.952  1.00  0.00    -0.246 OA
ENDBRANCH  10  11
ENDBRANCH   7  10
ENDBRANCH   5   6
BRANCH   5  29
ATOM     29  C   UNL A   1      45.457  43.747  27.228  1.00  0.00     0.040 C 
BRANCH  29  30
ATOM     30  C   UNL A   1      45.999  45.148  26.861  1.00  0.00    -0.015 C 
ATOM     31  C   UNL A   1      45.682  46.222  27.901  1.00  0.00     0.007 C 
ATOM     32  C   UNL A   1      47.516  45.065  26.665  1.00  0.00     0.007 C 
ENDBRANCH  29  30
ENDBRANCH   5  29
ENDBRANCH   3   5
ENDBRANCH   2   3
ENDBRANCH   1   2
BRANCH   1  33
ATOM     33  C   UNL A   1      45.218  38.292  28.022  1.00  0.00     0.275 C 
BRANCH  33  34
ATOM     34  O   UNL A   1      43.810  38.162  28.281  1.00  0.00    -0.458 OA
BRANCH  34  35
ATOM     35  C   UNL A   1      43.263  37.090  27.670  1.00  0.00     0.338 C 
ATOM     36  O   UNL A   1      42.870  37.037  26.505  1.00  0.00    -0.246 OA
BRANCH  35  37
ATOM     37  C   UNL A   1      43.146  35.926  28.548  1.00  0.00     0.060 A 
ATOM     38  C   UNL A   1      41.940  35.237  28.673  1.00  0.00     0.016 A 
ATOM     39  C   UNL A   1      44.187  35.720  29.457  1.00  0.00     0.016 A 
ATOM     40  C   UNL A   1      41.729  34.448  29.807  1.00  0.00     0.010 A 
ATOM     41  C   UNL A   1      43.984  34.906  30.563  1.00  0.00     0.010 A 
ATOM     42  C   UNL A   1      42.728  34.327  30.781  1.00  0.00    -0.014 A 
BRANCH  42  43
ATOM     43  C   UNL A   1      42.451  33.484  31.960  1.00  0.00     0.031 A 
ATOM     44  C   UNL A   1      41.020  33.591  32.365  1.00  0.00     0.074 A 
ATOM     45  C   UNL A   1      43.064  32.304  32.203  1.00  0.00     0.049 A 
ATOM     46  N   UNL A   1      40.085  33.014  31.669  1.00  0.00    -0.248 NA
ATOM     47  C   UNL A   1      40.532  34.589  33.312  1.00  0.00     0.031 C 
ATOM     48  C   UNL A   1      43.661  31.441  31.173  1.00  0.00     0.029 A 
ATOM     49  N   UNL A   1      43.074  31.523  33.338  1.00  0.00    -0.354 N 
ATOM     50  C   UNL A   1      38.897  33.631  32.000  1.00  0.00     0.074 A 
ATOM     51  C   UNL A   1      39.216  34.585  33.040  1.00  0.00     0.031 C 
ATOM     52  C   UNL A   1      43.779  30.192  31.669  1.00  0.00     0.029 A 
ATOM     53  C   UNL A   1      43.437  30.201  33.087  1.00  0.00     0.049 A 
ATOM     54  H   UNL A   1      42.846  31.863  34.233  1.00  0.00     0.167 HD
ATOM     55  C   UNL A   1      37.731  33.335  31.370  1.00  0.00     0.031 A 
ATOM     56  C   UNL A   1      43.007  29.126  33.804  1.00  0.00     0.031 A 
ATOM     57  C   UNL A   1      37.805  32.273  30.406  1.00  0.00     0.049 A 
ATOM     58  C   UNL A   1      41.594  29.001  33.291  1.00  0.00     0.074 A 
ATOM     59  C   UNL A   1      37.813  32.107  29.039  1.00  0.00     0.029 A 
ATOM     60  N   UNL A   1      37.902  30.998  30.904  1.00  0.00    -0.354 N 
ATOM     61  N   UNL A   1      41.222  28.480  32.154  1.00  0.00    -0.248 NA
ATOM     62  C   UNL A   1      40.562  29.800  33.952  1.00  0.00     0.031 C 
ATOM     63  C   UNL A   1      38.339  30.793  28.811  1.00  0.00     0.029 A 
ATOM     64  C   UNL A   1      38.668  30.249  30.053  1.00  0.00     0.049 A 
ATOM     65  H   UNL A   1      37.487  30.675  31.737  1.00  0.00     0.167 HD
ATOM     66  C   UNL A   1      40.043  29.146  31.804  1.00  0.00     0.074 A 
ATOM     67  C   UNL A   1      39.654  29.883  32.990  1.00  0.00     0.031 C 
ATOM     68  C   UNL A   1      39.576  29.218  30.520  1.00  0.00     0.031 A 
BRANCH  55  69
ATOM     69  C   UNL A   1      36.415  33.873  31.770  1.00  0.00    -0.014 A 
ATOM     70  C   UNL A   1      35.396  33.836  30.802  1.00  0.00     0.010 A 
ATOM     71  C   UNL A   1      36.203  34.565  32.971  1.00  0.00     0.010 A 
ATOM     72  C   UNL A   1      34.210  34.533  30.991  1.00  0.00     0.020 A 
ATOM     73  C   UNL A   1      35.000  35.258  33.172  1.00  0.00     0.020 A 
ATOM     74  C   UNL A   1      34.026  35.258  32.166  1.00  0.00     0.054 A 
BRANCH  74  75
ATOM     75  S   UNL A   1      32.514  36.244  32.313  1.00  0.00     0.124 S 
ATOM     76  O   UNL A   1      32.856  37.177  33.383  1.00  0.00    -0.237 OA
ATOM     77  O   UNL A   1      32.397  36.832  30.980  1.00  0.00    -0.237 OA
ATOM     78  O   UNL A   1      31.489  35.259  32.651  1.00  0.00    -0.744 OA
ENDBRANCH  74  75
ENDBRANCH  55  69
BRANCH  56  79
ATOM     79  C   UNL A   1      43.350  29.166  35.267  1.00  0.00    -0.014 A 
ATOM     80  C   UNL A   1      43.558  27.930  35.918  1.00  0.00     0.010 A 
ATOM     81  C   UNL A   1      43.522  30.333  36.030  1.00  0.00     0.010 A 
ATOM     82  C   UNL A   1      44.096  27.864  37.206  1.00  0.00     0.020 A 
ATOM     83  C   UNL A   1      44.091  30.281  37.310  1.00  0.00     0.020 A 
ATOM     84  C   UNL A   1      44.414  29.045  37.872  1.00  0.00     0.054 A 
BRANCH  84  85
ATOM     85  S   UNL A   1      45.338  28.936  39.427  1.00  0.00     0.124 S 
ATOM     86  O   UNL A   1      46.724  29.015  38.972  1.00  0.00    -0.237 OA
ATOM     87  O   UNL A   1      44.846  30.102  40.157  1.00  0.00    -0.237 OA
ATOM     88  O   UNL A   1      44.934  27.646  39.979  1.00  0.00    -0.744 OA
ENDBRANCH  84  85
ENDBRANCH  56  79
BRANCH  68  89
ATOM     89  C   UNL A   1      40.237  28.308  29.525  1.00  0.00    -0.014 A 
ATOM     90  C   UNL A   1      39.713  27.025  29.295  1.00  0.00     0.010 A 
ATOM     91  C   UNL A   1      41.342  28.733  28.764  1.00  0.00     0.010 A 
ATOM     92  C   UNL A   1      40.255  26.199  28.308  1.00  0.00     0.020 A 
ATOM     93  C   UNL A   1      41.877  27.920  27.759  1.00  0.00     0.020 A 
ATOM     94  C   UNL A   1      41.324  26.659  27.534  1.00  0.00     0.054 A 
BRANCH  94  95
ATOM     95  S   UNL A   1      41.938  25.600  26.197  1.00  0.00     0.124 S 
ATOM     96  O   UNL A   1      41.535  26.336  25.001  1.00  0.00    -0.237 OA
ATOM     97  O   UNL A   1      43.377  25.565  26.455  1.00  0.00    -0.237 OA
ATOM     98  O   UNL A   1      41.247  24.331  26.407  1.00  0.00    -0.744 OA
ENDBRANCH  94  95
ENDBRANCH  68  89
ENDBRANCH  42  43
ENDBRANCH  35  37
ENDBRANCH  34  35
ENDBRANCH  33  34
ENDBRANCH   1  33
TORSDOF 19
ENDMDL
