MODEL 1
REMARK VINA RESULT:     -11.8      0.000      0.000
REMARK SMILES Cc1ccccc1CN1C(=O)[C@H](CC(=O)OCCOC(=O)c2ccc(-c3c4nc(c(-c5ccc(S(=O)(=O)[O-])cc5)c5ccc([nH]5)c(-c5ccc(S(=O)(=O)[O-])cc5)c5nc(c(-c6ccc(S(=O)(=O)[O-])cc6)c6ccc3[nH]6)C=C5)C=C4)cc2)n2c(nc3ccccc32)[C@H]1C
REMARK SMILES IDX 17 1 16 2 14 3 15 4 13 5 12 6 9 7 10 8 91 9 11 10 83 11
REMARK SMILES IDX 92 12 82 13 84 14 90 15 85 16 89 17 86 18 88 19 87 20 8 21
REMARK SMILES IDX 7 22 1 23 2 24 3 25 4 26 6 27 5 28 18 29 19 30 20 31 21 32
REMARK SMILES IDX 22 33 23 34 81 35 24 36 80 37 25 38 26 39 27 40 74 41 28 42
REMARK SMILES IDX 79 43 73 44 75 45 29 46 78 47 72 48 71 49 30 51 60 52 41 53
REMARK SMILES IDX 59 54 42 55 45 56 58 57 76 58 43 59 44 60 57 62 77 63 46 64
REMARK SMILES IDX 31 65 32 66 40 67 33 68 39 69 34 70 35 71 36 72 37 73 38 74
REMARK SMILES IDX 61 75 62 76 70 77 63 78 69 79 64 80 65 81 66 82 67 83 68 84
REMARK SMILES IDX 47 85 48 86 56 87 49 88 55 89 50 90 51 91 52 92 53 93 54 94
REMARK H PARENT 75 50 45 61
REMARK Flexibility Score: inf
ROOT
ATOM      1  C   UNL A   1      38.400  21.860  25.907  1.00  0.00     0.274 C 
ENDROOT
BRANCH   1   2
ATOM      2  O   UNL A   1      38.005  23.232  25.707  1.00  0.00    -0.462 OA
BRANCH   2   3
ATOM      3  C   UNL A   1      36.934  23.371  24.892  1.00  0.00     0.308 C 
ATOM      4  O   UNL A   1      36.856  22.927  23.750  1.00  0.00    -0.252 OA
BRANCH   3   5
ATOM      5  C   UNL A   1      35.825  24.150  25.556  1.00  0.00     0.158 C 
BRANCH   5   6
ATOM      6  C   UNL A   1      34.549  23.450  25.102  1.00  0.00     0.189 C 
ATOM      7  N   UNL A   1      32.998  21.782  25.973  1.00  0.00    -0.327 N 
ATOM      8  C   UNL A   1      34.267  22.312  26.094  1.00  0.00     0.247 C 
ATOM      9  C   UNL A   1      31.963  22.767  26.320  1.00  0.00     0.149 C 
ATOM     10  O   UNL A   1      35.077  21.859  26.898  1.00  0.00    -0.272 OA
ATOM     11  C   UNL A   1      32.138  23.961  25.409  1.00  0.00     0.133 A 
ATOM     12  C   UNL A   1      30.518  22.298  26.328  1.00  0.00     0.040 C 
ATOM     13  N   UNL A   1      33.376  24.286  24.895  1.00  0.00    -0.313 N 
ATOM     14  N   UNL A   1      31.212  24.787  24.960  1.00  0.00    -0.231 NA
ATOM     15  C   UNL A   1      33.196  25.252  23.930  1.00  0.00     0.069 A 
ATOM     16  C   UNL A   1      31.840  25.563  24.017  1.00  0.00     0.089 A 
ATOM     17  C   UNL A   1      34.040  25.847  22.981  1.00  0.00     0.028 A 
ATOM     18  C   UNL A   1      31.292  26.530  23.158  1.00  0.00     0.030 A 
ATOM     19  C   UNL A   1      33.471  26.799  22.124  1.00  0.00     0.002 A 
ATOM     20  C   UNL A   1      32.121  27.143  22.212  1.00  0.00     0.002 A 
BRANCH   7  21
ATOM     21  C   UNL A   1      32.879  20.329  26.141  1.00  0.00     0.156 C 
BRANCH  21  22
ATOM     22  C   UNL A   1      32.578  19.651  24.813  1.00  0.00    -0.026 A 
ATOM     23  C   UNL A   1      32.750  17.204  25.653  1.00  0.00     0.044 C 
ATOM     24  C   UNL A   1      32.651  18.258  24.579  1.00  0.00    -0.046 A 
ATOM     25  C   UNL A   1      32.548  17.783  23.254  1.00  0.00     0.004 A 
ATOM     26  C   UNL A   1      32.374  18.654  22.181  1.00  0.00     0.000 A 
ATOM     27  C   UNL A   1      32.291  20.491  23.722  1.00  0.00     0.006 A 
ATOM     28  C   UNL A   1      32.223  20.008  22.419  1.00  0.00     0.000 A 
ENDBRANCH  21  22
ENDBRANCH   7  21
ENDBRANCH   5   6
ENDBRANCH   3   5
ENDBRANCH   2   3
ENDBRANCH   1   2
BRANCH   1  29
ATOM     29  C   UNL A   1      39.917  21.728  26.127  1.00  0.00     0.275 C 
BRANCH  29  30
ATOM     30  O   UNL A   1      40.205  21.895  27.533  1.00  0.00    -0.458 OA
BRANCH  30  31
ATOM     31  C   UNL A   1      41.477  22.164  27.905  1.00  0.00     0.338 C 
ATOM     32  O   UNL A   1      42.399  21.355  28.025  1.00  0.00    -0.246 OA
BRANCH  31  33
ATOM     33  C   UNL A   1      41.656  23.644  28.004  1.00  0.00     0.060 A 
ATOM     34  C   UNL A   1      42.877  24.248  27.688  1.00  0.00     0.016 A 
ATOM     35  C   UNL A   1      40.563  24.472  28.281  1.00  0.00     0.016 A 
ATOM     36  C   UNL A   1      42.985  25.659  27.661  1.00  0.00     0.010 A 
ATOM     37  C   UNL A   1      40.676  25.870  28.269  1.00  0.00     0.010 A 
ATOM     38  C   UNL A   1      41.881  26.500  27.947  1.00  0.00    -0.014 A 
BRANCH  38  39
ATOM     39  C   UNL A   1      41.911  27.937  27.482  1.00  0.00     0.031 A 
ATOM     40  C   UNL A   1      40.585  28.581  27.983  1.00  0.00     0.074 A 
ATOM     41  C   UNL A   1      42.945  28.861  27.443  1.00  0.00     0.049 A 
ATOM     42  N   UNL A   1      40.361  28.719  29.260  1.00  0.00    -0.248 NA
ATOM     43  C   UNL A   1      39.368  28.909  27.226  1.00  0.00     0.031 C 
ATOM     44  C   UNL A   1      42.878  30.059  26.588  1.00  0.00     0.029 A 
ATOM     45  N   UNL A   1      44.210  29.060  28.081  1.00  0.00    -0.354 N 
ATOM     46  C   UNL A   1      39.288  29.593  29.421  1.00  0.00     0.074 A 
ATOM     47  C   UNL A   1      38.576  29.477  28.169  1.00  0.00     0.031 C 
ATOM     48  C   UNL A   1      43.849  30.942  26.916  1.00  0.00     0.029 A 
ATOM     49  C   UNL A   1      44.593  30.459  28.081  1.00  0.00     0.049 A 
ATOM     50  H   UNL A   1      44.753  28.338  28.471  1.00  0.00     0.167 HD
ATOM     51  C   UNL A   1      39.322  30.526  30.442  1.00  0.00     0.031 A 
ATOM     52  C   UNL A   1      45.217  31.317  28.986  1.00  0.00     0.031 A 
ATOM     53  C   UNL A   1      40.680  30.587  30.929  1.00  0.00     0.049 A 
ATOM     54  C   UNL A   1      45.505  30.802  30.391  1.00  0.00     0.074 A 
ATOM     55  C   UNL A   1      41.727  30.895  30.094  1.00  0.00     0.029 A 
ATOM     56  N   UNL A   1      41.209  30.174  32.151  1.00  0.00    -0.354 N 
ATOM     57  N   UNL A   1      44.768  31.119  31.422  1.00  0.00    -0.248 NA
ATOM     58  C   UNL A   1      46.551  29.848  30.762  1.00  0.00     0.031 C 
ATOM     59  C   UNL A   1      42.603  29.941  30.529  1.00  0.00     0.029 A 
ATOM     60  C   UNL A   1      42.537  29.880  31.895  1.00  0.00     0.049 A 
ATOM     61  H   UNL A   1      40.739  30.106  33.014  1.00  0.00     0.167 HD
ATOM     62  C   UNL A   1      44.823  30.018  32.266  1.00  0.00     0.074 A 
ATOM     63  C   UNL A   1      46.126  29.441  31.975  1.00  0.00     0.031 C 
ATOM     64  C   UNL A   1      43.656  29.388  32.677  1.00  0.00     0.031 A 
BRANCH  51  65
ATOM     65  C   UNL A   1      38.493  31.738  30.767  1.00  0.00    -0.014 A 
ATOM     66  C   UNL A   1      38.027  31.850  32.110  1.00  0.00     0.010 A 
ATOM     67  C   UNL A   1      37.956  32.619  29.829  1.00  0.00     0.010 A 
ATOM     68  C   UNL A   1      36.987  32.693  32.485  1.00  0.00     0.020 A 
ATOM     69  C   UNL A   1      36.919  33.503  30.207  1.00  0.00     0.020 A 
ATOM     70  C   UNL A   1      36.414  33.497  31.517  1.00  0.00     0.054 A 
BRANCH  70  71
ATOM     71  S   UNL A   1      34.962  34.473  31.994  1.00  0.00     0.124 S 
ATOM     72  O   UNL A   1      34.497  34.990  30.710  1.00  0.00    -0.237 OA
ATOM     73  O   UNL A   1      34.098  33.481  32.628  1.00  0.00    -0.237 OA
ATOM     74  O   UNL A   1      35.511  35.479  32.902  1.00  0.00    -0.744 OA
ENDBRANCH  70  71
ENDBRANCH  51  65
BRANCH  52  75
ATOM     75  C   UNL A   1      45.063  32.852  28.976  1.00  0.00    -0.014 A 
ATOM     76  C   UNL A   1      43.893  33.547  29.335  1.00  0.00     0.010 A 
ATOM     77  C   UNL A   1      46.082  33.637  28.378  1.00  0.00     0.010 A 
ATOM     78  C   UNL A   1      43.774  34.949  29.117  1.00  0.00     0.020 A 
ATOM     79  C   UNL A   1      45.972  35.018  28.144  1.00  0.00     0.020 A 
ATOM     80  C   UNL A   1      44.817  35.677  28.528  1.00  0.00     0.054 A 
BRANCH  80  81
ATOM     81  S   UNL A   1      44.651  37.476  28.274  1.00  0.00     0.124 S 
ATOM     82  O   UNL A   1      43.210  37.687  28.390  1.00  0.00    -0.237 OA
ATOM     83  O   UNL A   1      45.447  38.015  29.375  1.00  0.00    -0.237 OA
ATOM     84  O   UNL A   1      45.202  37.702  26.941  1.00  0.00    -0.744 OA
ENDBRANCH  80  81
ENDBRANCH  52  75
BRANCH  64  85
ATOM     85  C   UNL A   1      43.616  28.007  33.255  1.00  0.00    -0.014 A 
ATOM     86  C   UNL A   1      43.247  27.748  34.581  1.00  0.00     0.010 A 
ATOM     87  C   UNL A   1      43.933  26.901  32.433  1.00  0.00     0.010 A 
ATOM     88  C   UNL A   1      43.189  26.435  35.066  1.00  0.00     0.020 A 
ATOM     89  C   UNL A   1      43.857  25.590  32.902  1.00  0.00     0.020 A 
ATOM     90  C   UNL A   1      43.471  25.364  34.215  1.00  0.00     0.054 A 
BRANCH  90  91
ATOM     91  S   UNL A   1      43.211  23.673  34.805  1.00  0.00     0.124 S 
ATOM     92  O   UNL A   1      41.835  23.720  35.288  1.00  0.00    -0.237 OA
ATOM     93  O   UNL A   1      43.429  22.890  33.593  1.00  0.00    -0.237 OA
ATOM     94  O   UNL A   1      44.229  23.507  35.843  1.00  0.00    -0.744 OA
ENDBRANCH  90  91
ENDBRANCH  64  85
ENDBRANCH  38  39
ENDBRANCH  31  33
ENDBRANCH  30  31
ENDBRANCH  29  30
ENDBRANCH   1  29
TORSDOF 17
ENDMDL
MODEL 2
REMARK VINA RESULT:     -11.6      5.943     11.676
REMARK SMILES Cc1ccccc1CN1C(=O)[C@H](CC(=O)OCCOC(=O)c2ccc(-c3c4nc(c(-c5ccc(S(=O)(=O)[O-])cc5)c5ccc([nH]5)c(-c5ccc(S(=O)(=O)[O-])cc5)c5nc(c(-c6ccc(S(=O)(=O)[O-])cc6)c6ccc3[nH]6)C=C5)C=C4)cc2)n2c(nc3ccccc32)[C@H]1C
REMARK SMILES IDX 17 1 16 2 14 3 15 4 13 5 12 6 9 7 10 8 91 9 11 10 83 11
REMARK SMILES IDX 92 12 82 13 84 14 90 15 85 16 89 17 86 18 88 19 87 20 8 21
REMARK SMILES IDX 7 22 1 23 2 24 3 25 4 26 6 27 5 28 18 29 19 30 20 31 21 32
REMARK SMILES IDX 22 33 23 34 81 35 24 36 80 37 25 38 26 39 27 40 74 41 28 42
REMARK SMILES IDX 79 43 73 44 75 45 29 46 78 47 72 48 71 49 30 51 60 52 41 53
REMARK SMILES IDX 59 54 42 55 45 56 58 57 76 58 43 59 44 60 57 62 77 63 46 64
REMARK SMILES IDX 31 65 32 66 40 67 33 68 39 69 34 70 35 71 36 72 37 73 38 74
REMARK SMILES IDX 61 75 62 76 70 77 63 78 69 79 64 80 65 81 66 82 67 83 68 84
REMARK SMILES IDX 47 85 48 86 56 87 49 88 55 89 50 90 51 91 52 92 53 93 54 94
REMARK H PARENT 75 50 45 61
REMARK Flexibility Score: inf
ROOT
ATOM      1  C   UNL A   1      38.424  31.433  34.899  1.00  0.00     0.274 C 
ENDROOT
BRANCH   1   2
ATOM      2  O   UNL A   1      38.178  32.665  35.607  1.00  0.00    -0.462 OA
BRANCH   2   3
ATOM      3  C   UNL A   1      39.156  33.586  35.442  1.00  0.00     0.308 C 
ATOM      4  O   UNL A   1      40.229  33.587  36.038  1.00  0.00    -0.252 OA
BRANCH   3   5
ATOM      5  C   UNL A   1      38.771  34.633  34.425  1.00  0.00     0.158 C 
BRANCH   5   6
ATOM      6  C   UNL A   1      38.329  33.829  33.208  1.00  0.00     0.189 C 
ATOM      7  N   UNL A   1      36.490  33.845  31.605  1.00  0.00    -0.327 N 
ATOM      8  C   UNL A   1      36.904  34.276  32.850  1.00  0.00     0.247 C 
ATOM      9  C   UNL A   1      37.290  34.448  30.529  1.00  0.00     0.149 C 
ATOM     10  O   UNL A   1      36.158  34.914  33.588  1.00  0.00    -0.272 OA
ATOM     11  C   UNL A   1      38.738  34.087  30.771  1.00  0.00     0.133 A 
ATOM     12  C   UNL A   1      36.887  34.143  29.096  1.00  0.00     0.040 C 
ATOM     13  N   UNL A   1      39.206  33.853  32.047  1.00  0.00    -0.313 N 
ATOM     14  N   UNL A   1      39.694  33.908  29.880  1.00  0.00    -0.231 NA
ATOM     15  C   UNL A   1      40.473  33.322  31.944  1.00  0.00     0.069 A 
ATOM     16  C   UNL A   1      40.758  33.398  30.582  1.00  0.00     0.089 A 
ATOM     17  C   UNL A   1      41.368  32.757  32.865  1.00  0.00     0.028 A 
ATOM     18  C   UNL A   1      41.994  32.932  30.103  1.00  0.00     0.030 A 
ATOM     19  C   UNL A   1      42.590  32.285  32.365  1.00  0.00     0.002 A 
ATOM     20  C   UNL A   1      42.904  32.375  31.008  1.00  0.00     0.002 A 
BRANCH   7  21
ATOM     21  C   UNL A   1      35.088  33.429  31.492  1.00  0.00     0.156 C 
BRANCH  21  22
ATOM     22  C   UNL A   1      34.234  34.546  30.912  1.00  0.00    -0.026 A 
ATOM     23  C   UNL A   1      33.747  33.426  28.624  1.00  0.00     0.044 C 
ATOM     24  C   UNL A   1      33.749  34.590  29.583  1.00  0.00    -0.046 A 
ATOM     25  C   UNL A   1      33.147  35.778  29.117  1.00  0.00     0.004 A 
ATOM     26  C   UNL A   1      33.017  36.898  29.935  1.00  0.00     0.000 A 
ATOM     27  C   UNL A   1      33.988  35.653  31.743  1.00  0.00     0.006 A 
ATOM     28  C   UNL A   1      33.419  36.827  31.257  1.00  0.00     0.000 A 
ENDBRANCH  21  22
ENDBRANCH   7  21
ENDBRANCH   5   6
ENDBRANCH   3   5
ENDBRANCH   2   3
ENDBRANCH   1   2
BRANCH   1  29
ATOM     29  C   UNL A   1      39.282  30.460  35.725  1.00  0.00     0.275 C 
BRANCH  29  30
ATOM     30  O   UNL A   1      40.222  29.800  34.849  1.00  0.00    -0.458 OA
BRANCH  30  31
ATOM     31  C   UNL A   1      41.274  29.152  35.398  1.00  0.00     0.338 C 
ATOM     32  O   UNL A   1      41.554  29.078  36.595  1.00  0.00    -0.246 OA
BRANCH  31  33
ATOM     33  C   UNL A   1      41.986  28.382  34.333  1.00  0.00     0.060 A 
ATOM     34  C   UNL A   1      42.125  28.895  33.039  1.00  0.00     0.016 A 
ATOM     35  C   UNL A   1      42.650  27.191  34.645  1.00  0.00     0.016 A 
ATOM     36  C   UNL A   1      42.914  28.210  32.085  1.00  0.00     0.010 A 
ATOM     37  C   UNL A   1      43.419  26.505  33.693  1.00  0.00     0.010 A 
ATOM     38  C   UNL A   1      43.583  27.000  32.397  1.00  0.00    -0.014 A 
BRANCH  38  39
ATOM     39  C   UNL A   1      44.738  26.554  31.531  1.00  0.00     0.031 A 
ATOM     40  C   UNL A   1      44.301  25.206  30.887  1.00  0.00     0.074 A 
ATOM     41  C   UNL A   1      45.580  27.272  30.694  1.00  0.00     0.049 A 
ATOM     42  N   UNL A   1      43.307  25.171  30.044  1.00  0.00    -0.248 NA
ATOM     43  C   UNL A   1      44.711  23.837  31.231  1.00  0.00     0.031 C 
ATOM     44  C   UNL A   1      46.882  26.735  30.263  1.00  0.00     0.029 A 
ATOM     45  N   UNL A   1      45.565  28.522  29.997  1.00  0.00    -0.354 N 
ATOM     46  C   UNL A   1      43.337  23.942  29.388  1.00  0.00     0.074 A 
ATOM     47  C   UNL A   1      44.044  23.089  30.317  1.00  0.00     0.031 C 
ATOM     48  C   UNL A   1      47.394  27.465  29.245  1.00  0.00     0.029 A 
ATOM     49  C   UNL A   1      46.439  28.499  28.840  1.00  0.00     0.049 A 
ATOM     50  H   UNL A   1      45.027  29.300  30.269  1.00  0.00     0.167 HD
ATOM     51  C   UNL A   1      43.054  23.888  28.035  1.00  0.00     0.031 A 
ATOM     52  C   UNL A   1      46.382  29.005  27.542  1.00  0.00     0.031 A 
ATOM     53  C   UNL A   1      43.109  25.239  27.527  1.00  0.00     0.049 A 
ATOM     54  C   UNL A   1      45.085  29.656  27.076  1.00  0.00     0.074 A 
ATOM     55  C   UNL A   1      44.244  26.004  27.651  1.00  0.00     0.029 A 
ATOM     56  N   UNL A   1      42.083  26.059  27.059  1.00  0.00    -0.354 N 
ATOM     57  N   UNL A   1      44.228  29.044  26.301  1.00  0.00    -0.248 NA
ATOM     58  C   UNL A   1      44.586  30.971  27.480  1.00  0.00     0.031 C 
ATOM     59  C   UNL A   1      43.645  27.170  28.038  1.00  0.00     0.029 A 
ATOM     60  C   UNL A   1      42.519  27.354  27.279  1.00  0.00     0.049 A 
ATOM     61  H   UNL A   1      41.229  25.778  26.657  1.00  0.00     0.167 HD
ATOM     62  C   UNL A   1      42.984  29.542  26.663  1.00  0.00     0.074 A 
ATOM     63  C   UNL A   1      43.286  30.885  27.132  1.00  0.00     0.031 C 
ATOM     64  C   UNL A   1      41.971  28.680  27.063  1.00  0.00     0.031 A 
BRANCH  51  65
ATOM     65  C   UNL A   1      43.211  22.824  26.984  1.00  0.00    -0.014 A 
ATOM     66  C   UNL A   1      42.359  21.686  27.096  1.00  0.00     0.010 A 
ATOM     67  C   UNL A   1      44.260  22.750  26.068  1.00  0.00     0.010 A 
ATOM     68  C   UNL A   1      42.605  20.487  26.440  1.00  0.00     0.020 A 
ATOM     69  C   UNL A   1      44.500  21.543  25.371  1.00  0.00     0.020 A 
ATOM     70  C   UNL A   1      43.702  20.412  25.600  1.00  0.00     0.054 A 
BRANCH  70  71
ATOM     71  S   UNL A   1      44.090  18.795  24.877  1.00  0.00     0.124 S 
ATOM     72  O   UNL A   1      45.373  18.475  25.499  1.00  0.00    -0.237 OA
ATOM     73  O   UNL A   1      42.959  17.971  25.295  1.00  0.00    -0.237 OA
ATOM     74  O   UNL A   1      44.152  19.069  23.442  1.00  0.00    -0.744 OA
ENDBRANCH  70  71
ENDBRANCH  51  65
BRANCH  52  75
ATOM     75  C   UNL A   1      47.178  28.434  26.351  1.00  0.00    -0.014 A 
ATOM     76  C   UNL A   1      48.577  28.288  26.313  1.00  0.00     0.010 A 
ATOM     77  C   UNL A   1      46.506  28.220  25.120  1.00  0.00     0.010 A 
ATOM     78  C   UNL A   1      49.247  27.930  25.108  1.00  0.00     0.020 A 
ATOM     79  C   UNL A   1      47.155  27.881  23.921  1.00  0.00     0.020 A 
ATOM     80  C   UNL A   1      48.531  27.723  23.921  1.00  0.00     0.054 A 
BRANCH  80  81
ATOM     81  S   UNL A   1      49.406  27.248  22.391  1.00  0.00     0.124 S 
ATOM     82  O   UNL A   1      50.742  26.909  22.877  1.00  0.00    -0.237 OA
ATOM     83  O   UNL A   1      48.610  26.115  21.924  1.00  0.00    -0.237 OA
ATOM     84  O   UNL A   1      49.338  28.442  21.555  1.00  0.00    -0.744 OA
ENDBRANCH  80  81
ENDBRANCH  52  75
BRANCH  64  85
ATOM     85  C   UNL A   1      40.755  29.119  27.818  1.00  0.00    -0.014 A 
ATOM     86  C   UNL A   1      39.469  29.101  27.265  1.00  0.00     0.010 A 
ATOM     87  C   UNL A   1      40.887  29.548  29.159  1.00  0.00     0.010 A 
ATOM     88  C   UNL A   1      38.356  29.488  28.022  1.00  0.00     0.020 A 
ATOM     89  C   UNL A   1      39.782  29.914  29.927  1.00  0.00     0.020 A 
ATOM     90  C   UNL A   1      38.518  29.869  29.357  1.00  0.00     0.054 A 
BRANCH  90  91
ATOM     91  S   UNL A   1      37.054  30.185  30.371  1.00  0.00     0.124 S 
ATOM     92  O   UNL A   1      36.590  28.836  30.677  1.00  0.00    -0.237 OA
ATOM     93  O   UNL A   1      37.616  30.929  31.494  1.00  0.00    -0.237 OA
ATOM     94  O   UNL A   1      36.180  30.958  29.488  1.00  0.00    -0.744 OA
ENDBRANCH  90  91
ENDBRANCH  64  85
ENDBRANCH  38  39
ENDBRANCH  31  33
ENDBRANCH  30  31
ENDBRANCH  29  30
ENDBRANCH   1  29
TORSDOF 17
ENDMDL
MODEL 3
REMARK VINA RESULT:     -11.3      4.257      6.667
REMARK SMILES Cc1ccccc1CN1C(=O)[C@H](CC(=O)OCCOC(=O)c2ccc(-c3c4nc(c(-c5ccc(S(=O)(=O)[O-])cc5)c5ccc([nH]5)c(-c5ccc(S(=O)(=O)[O-])cc5)c5nc(c(-c6ccc(S(=O)(=O)[O-])cc6)c6ccc3[nH]6)C=C5)C=C4)cc2)n2c(nc3ccccc32)[C@H]1C
REMARK SMILES IDX 17 1 16 2 14 3 15 4 13 5 12 6 9 7 10 8 91 9 11 10 83 11
REMARK SMILES IDX 92 12 82 13 84 14 90 15 85 16 89 17 86 18 88 19 87 20 8 21
REMARK SMILES IDX 7 22 1 23 2 24 3 25 4 26 6 27 5 28 18 29 19 30 20 31 21 32
REMARK SMILES IDX 22 33 23 34 81 35 24 36 80 37 25 38 26 39 27 40 74 41 28 42
REMARK SMILES IDX 79 43 73 44 75 45 29 46 78 47 72 48 71 49 30 51 60 52 41 53
REMARK SMILES IDX 59 54 42 55 45 56 58 57 76 58 43 59 44 60 57 62 77 63 46 64
REMARK SMILES IDX 31 65 32 66 40 67 33 68 39 69 34 70 35 71 36 72 37 73 38 74
REMARK SMILES IDX 61 75 62 76 70 77 63 78 69 79 64 80 65 81 66 82 67 83 68 84
REMARK SMILES IDX 47 85 48 86 56 87 49 88 55 89 50 90 51 91 52 92 53 93 54 94
REMARK H PARENT 75 50 45 61
REMARK Flexibility Score: inf
ROOT
ATOM      1  C   UNL A   1      37.624  21.347  24.643  1.00  0.00     0.274 C 
ENDROOT
BRANCH   1   2
ATOM      2  O   UNL A   1      37.679  22.664  24.061  1.00  0.00    -0.462 OA
BRANCH   2   3
ATOM      3  C   UNL A   1      36.477  23.116  23.634  1.00  0.00     0.308 C 
ATOM      4  O   UNL A   1      36.071  23.050  22.477  1.00  0.00    -0.252 OA
BRANCH   3   5
ATOM      5  C   UNL A   1      35.677  23.723  24.761  1.00  0.00     0.158 C 
BRANCH   5   6
ATOM      6  C   UNL A   1      34.275  23.152  24.575  1.00  0.00     0.189 C 
ATOM      7  N   UNL A   1      32.766  21.650  25.764  1.00  0.00    -0.327 N 
ATOM      8  C   UNL A   1      34.080  22.051  25.627  1.00  0.00     0.247 C 
ATOM      9  C   UNL A   1      31.919  22.734  26.282  1.00  0.00     0.149 C 
ATOM     10  O   UNL A   1      34.983  21.521  26.269  1.00  0.00    -0.272 OA
ATOM     11  C   UNL A   1      32.030  23.903  25.329  1.00  0.00     0.133 A 
ATOM     12  C   UNL A   1      30.464  22.413  26.578  1.00  0.00     0.040 C 
ATOM     13  N   UNL A   1      33.172  24.101  24.580  1.00  0.00    -0.313 N 
ATOM     14  N   UNL A   1      31.120  24.816  25.049  1.00  0.00    -0.231 NA
ATOM     15  C   UNL A   1      32.903  25.078  23.647  1.00  0.00     0.069 A 
ATOM     16  C   UNL A   1      31.627  25.524  23.987  1.00  0.00     0.089 A 
ATOM     17  C   UNL A   1      33.602  25.585  22.541  1.00  0.00     0.028 A 
ATOM     18  C   UNL A   1      31.021  26.540  23.229  1.00  0.00     0.030 A 
ATOM     19  C   UNL A   1      32.974  26.587  21.789  1.00  0.00     0.002 A 
ATOM     20  C   UNL A   1      31.707  27.064  22.128  1.00  0.00     0.002 A 
BRANCH   7  21
ATOM     21  C   UNL A   1      32.540  20.217  25.982  1.00  0.00     0.156 C 
BRANCH  21  22
ATOM     22  C   UNL A   1      32.407  19.479  24.658  1.00  0.00    -0.026 A 
ATOM     23  C   UNL A   1      32.753  17.083  25.587  1.00  0.00     0.044 C 
ATOM     24  C   UNL A   1      32.632  18.095  24.475  1.00  0.00    -0.046 A 
ATOM     25  C   UNL A   1      32.676  17.579  23.162  1.00  0.00     0.004 A 
ATOM     26  C   UNL A   1      32.499  18.401  22.052  1.00  0.00     0.000 A 
ATOM     27  C   UNL A   1      32.122  20.259  23.524  1.00  0.00     0.006 A 
ATOM     28  C   UNL A   1      32.199  19.740  22.235  1.00  0.00     0.000 A 
ENDBRANCH  21  22
ENDBRANCH   7  21
ENDBRANCH   5   6
ENDBRANCH   3   5
ENDBRANCH   2   3
ENDBRANCH   1   2
BRANCH   1  29
ATOM     29  C   UNL A   1      38.586  21.208  25.836  1.00  0.00     0.275 C 
BRANCH  29  30
ATOM     30  O   UNL A   1      38.949  22.526  26.303  1.00  0.00    -0.458 OA
BRANCH  30  31
ATOM     31  C   UNL A   1      39.935  22.638  27.222  1.00  0.00     0.338 C 
ATOM     32  O   UNL A   1      40.520  21.717  27.794  1.00  0.00    -0.246 OA
BRANCH  31  33
ATOM     33  C   UNL A   1      40.337  24.073  27.338  1.00  0.00     0.060 A 
ATOM     34  C   UNL A   1      39.651  24.950  28.184  1.00  0.00     0.016 A 
ATOM     35  C   UNL A   1      41.495  24.536  26.707  1.00  0.00     0.016 A 
ATOM     36  C   UNL A   1      40.129  26.268  28.378  1.00  0.00     0.010 A 
ATOM     37  C   UNL A   1      41.959  25.848  26.887  1.00  0.00     0.010 A 
ATOM     38  C   UNL A   1      41.299  26.742  27.734  1.00  0.00    -0.014 A 
BRANCH  38  39
ATOM     39  C   UNL A   1      42.007  27.953  28.294  1.00  0.00     0.031 A 
ATOM     40  C   UNL A   1      42.509  27.546  29.710  1.00  0.00     0.074 A 
ATOM     41  C   UNL A   1      42.860  28.869  27.693  1.00  0.00     0.049 A 
ATOM     42  N   UNL A   1      43.418  26.620  29.846  1.00  0.00    -0.248 NA
ATOM     43  C   UNL A   1      41.964  27.906  31.027  1.00  0.00     0.031 C 
ATOM     44  C   UNL A   1      43.115  30.192  28.289  1.00  0.00     0.029 A 
ATOM     45  N   UNL A   1      43.707  28.928  26.542  1.00  0.00    -0.354 N 
ATOM     46  C   UNL A   1      43.908  26.681  31.148  1.00  0.00     0.074 A 
ATOM     47  C   UNL A   1      42.827  27.300  31.881  1.00  0.00     0.031 C 
ATOM     48  C   UNL A   1      44.173  30.793  27.697  1.00  0.00     0.029 A 
ATOM     49  C   UNL A   1      44.779  29.889  26.717  1.00  0.00     0.049 A 
ATOM     50  H   UNL A   1      43.579  28.384  25.732  1.00  0.00     0.167 HD
ATOM     51  C   UNL A   1      45.262  26.503  31.371  1.00  0.00     0.031 A 
ATOM     52  C   UNL A   1      46.131  29.941  26.379  1.00  0.00     0.031 A 
ATOM     53  C   UNL A   1      45.930  26.619  30.096  1.00  0.00     0.049 A 
ATOM     54  C   UNL A   1      46.777  28.696  25.784  1.00  0.00     0.074 A 
ATOM     55  C   UNL A   1      45.815  27.753  29.328  1.00  0.00     0.029 A 
ATOM     56  N   UNL A   1      46.577  25.646  29.335  1.00  0.00    -0.354 N 
ATOM     57  N   UNL A   1      47.533  27.892  26.484  1.00  0.00    -0.248 NA
ATOM     58  C   UNL A   1      46.582  28.188  24.426  1.00  0.00     0.031 C 
ATOM     59  C   UNL A   1      45.626  27.145  28.119  1.00  0.00     0.029 A 
ATOM     60  C   UNL A   1      46.488  26.085  28.026  1.00  0.00     0.049 A 
ATOM     61  H   UNL A   1      47.007  24.822  29.660  1.00  0.00     0.167 HD
ATOM     62  C   UNL A   1      47.336  26.631  25.937  1.00  0.00     0.074 A 
ATOM     63  C   UNL A   1      47.018  26.918  24.547  1.00  0.00     0.031 C 
ATOM     64  C   UNL A   1      46.912  25.577  26.735  1.00  0.00     0.031 A 
BRANCH  51  65
ATOM     65  C   UNL A   1      46.155  26.724  32.561  1.00  0.00    -0.014 A 
ATOM     66  C   UNL A   1      47.559  26.627  32.330  1.00  0.00     0.010 A 
ATOM     67  C   UNL A   1      45.727  26.779  33.887  1.00  0.00     0.010 A 
ATOM     68  C   UNL A   1      48.486  26.456  33.352  1.00  0.00     0.020 A 
ATOM     69  C   UNL A   1      46.666  26.637  34.935  1.00  0.00     0.020 A 
ATOM     70  C   UNL A   1      48.026  26.429  34.657  1.00  0.00     0.054 A 
BRANCH  70  71
ATOM     71  S   UNL A   1      49.230  26.052  35.958  1.00  0.00     0.124 S 
ATOM     72  O   UNL A   1      48.391  25.458  36.997  1.00  0.00    -0.237 OA
ATOM     73  O   UNL A   1      50.155  25.140  35.291  1.00  0.00    -0.237 OA
ATOM     74  O   UNL A   1      49.792  27.360  36.292  1.00  0.00    -0.744 OA
ENDBRANCH  70  71
ENDBRANCH  51  65
BRANCH  52  75
ATOM     75  C   UNL A   1      47.174  30.819  27.101  1.00  0.00    -0.014 A 
ATOM     76  C   UNL A   1      47.823  30.476  28.301  1.00  0.00     0.010 A 
ATOM     77  C   UNL A   1      47.366  32.154  26.660  1.00  0.00     0.010 A 
ATOM     78  C   UNL A   1      48.627  31.421  28.999  1.00  0.00     0.020 A 
ATOM     79  C   UNL A   1      48.145  33.101  27.346  1.00  0.00     0.020 A 
ATOM     80  C   UNL A   1      48.788  32.726  28.513  1.00  0.00     0.054 A 
BRANCH  80  81
ATOM     81  S   UNL A   1      49.838  33.918  29.413  1.00  0.00     0.124 S 
ATOM     82  O   UNL A   1      50.446  34.692  28.332  1.00  0.00    -0.237 OA
ATOM     83  O   UNL A   1      48.857  34.643  30.217  1.00  0.00    -0.237 OA
ATOM     84  O   UNL A   1      50.764  33.081  30.169  1.00  0.00    -0.744 OA
ENDBRANCH  80  81
ENDBRANCH  52  75
BRANCH  64  85
ATOM     85  C   UNL A   1      46.317  24.313  26.195  1.00  0.00    -0.014 A 
ATOM     86  C   UNL A   1      46.787  23.687  25.034  1.00  0.00     0.010 A 
ATOM     87  C   UNL A   1      45.253  23.694  26.891  1.00  0.00     0.010 A 
ATOM     88  C   UNL A   1      46.221  22.485  24.588  1.00  0.00     0.020 A 
ATOM     89  C   UNL A   1      44.700  22.487  26.466  1.00  0.00     0.020 A 
ATOM     90  C   UNL A   1      45.198  21.881  25.321  1.00  0.00     0.054 A 
BRANCH  90  91
ATOM     91  S   UNL A   1      44.609  20.241  24.834  1.00  0.00     0.124 S 
ATOM     92  O   UNL A   1      43.264  20.212  25.399  1.00  0.00    -0.237 OA
ATOM     93  O   UNL A   1      44.681  20.311  23.378  1.00  0.00    -0.237 OA
ATOM     94  O   UNL A   1      45.566  19.329  25.460  1.00  0.00    -0.744 OA
ENDBRANCH  90  91
ENDBRANCH  64  85
ENDBRANCH  38  39
ENDBRANCH  31  33
ENDBRANCH  30  31
ENDBRANCH  29  30
ENDBRANCH   1  29
TORSDOF 17
ENDMDL
