MODEL 1
REMARK VINA RESULT:     -10.8      0.000      0.000
REMARK SMILES CCc1cc(/C=C/C(=O)OCCOC(=O)c2ccc(-c3c4nc(c(-c5ccc(S(=O)(=O)[O-])cc5)c5ccc([nH]5)c(-c5ccc(S(=O)(=O)[O-])cc5)c5nc(c(-c6ccc(S(=O)(=O)[O-])cc6)c6ccc3[nH]6)C=C5)C=C4)cc2)cc(C(=O)c2ccccc2)c1
REMARK SMILES IDX 11 1 10 2 8 3 9 4 7 5 6 6 5 7 3 8 4 9 86 10 77 11 76 12 2 13
REMARK SMILES IDX 1 14 78 15 79 16 80 17 81 18 85 19 82 20 84 21 83 22 12 23
REMARK SMILES IDX 13 24 14 25 15 26 16 27 17 28 75 29 18 30 74 31 19 32 20 33
REMARK SMILES IDX 21 34 68 35 22 36 73 37 67 38 69 39 23 40 72 41 66 42 65 43
REMARK SMILES IDX 24 45 54 46 35 47 53 48 36 49 39 50 52 51 70 52 37 53 38 54
REMARK SMILES IDX 51 56 71 57 40 58 25 59 26 60 34 61 27 62 33 63 28 64 29 65
REMARK SMILES IDX 30 66 31 67 32 68 55 69 56 70 64 71 57 72 63 73 58 74 59 75
REMARK SMILES IDX 60 76 61 77 62 78 41 79 42 80 50 81 43 82 49 83 44 84 45 85
REMARK SMILES IDX 46 86 47 87 48 88
REMARK H PARENT 69 44 39 55
REMARK Flexibility Score: inf
ROOT
ATOM      1  C   UNL A   1      40.626  22.992  27.242  1.00  0.00     0.275 C 
ENDROOT
BRANCH   1   2
ATOM      2  O   UNL A   1      39.232  22.785  26.951  1.00  0.00    -0.459 OA
BRANCH   2   3
ATOM      3  C   UNL A   1      38.953  21.780  26.086  1.00  0.00     0.330 C 
ATOM      4  O   UNL A   1      39.720  20.896  25.737  1.00  0.00    -0.247 OA
BRANCH   3   5
ATOM      5  C   UNL A   1      37.546  21.792  25.639  1.00  0.00     0.094 C 
ATOM      6  C   UNL A   1      37.107  22.283  24.469  1.00  0.00     0.015 C 
BRANCH   6   7
ATOM      7  C   UNL A   1      35.677  22.388  24.142  1.00  0.00    -0.024 A 
ATOM      8  C   UNL A   1      33.839  23.514  22.971  1.00  0.00    -0.047 A 
ATOM      9  C   UNL A   1      35.196  23.417  23.317  1.00  0.00     0.011 A 
ATOM     10  C   UNL A   1      32.957  22.547  23.467  1.00  0.00     0.016 A 
ATOM     11  C   UNL A   1      33.425  21.477  24.246  1.00  0.00     0.023 A 
ATOM     12  C   UNL A   1      34.784  21.409  24.587  1.00  0.00     0.020 A 
BRANCH   8  13
ATOM     13  C   UNL A   1      33.417  24.638  22.049  1.00  0.00     0.032 C 
ATOM     14  C   UNL A   1      33.000  25.950  22.703  1.00  0.00     0.009 C 
ENDBRANCH   8  13
BRANCH  11  15
ATOM     15  C   UNL A   1      32.509  20.414  24.758  1.00  0.00     0.193 C 
ATOM     16  O   UNL A   1      31.457  20.723  25.312  1.00  0.00    -0.289 OA
BRANCH  15  17
ATOM     17  C   UNL A   1      32.815  18.973  24.585  1.00  0.00     0.022 A 
ATOM     18  C   UNL A   1      32.878  18.168  25.728  1.00  0.00     0.012 A 
ATOM     19  C   UNL A   1      33.051  18.417  23.322  1.00  0.00     0.012 A 
ATOM     20  C   UNL A   1      33.124  16.800  25.604  1.00  0.00     0.001 A 
ATOM     21  C   UNL A   1      33.290  17.046  23.203  1.00  0.00     0.001 A 
ATOM     22  C   UNL A   1      33.318  16.239  24.341  1.00  0.00     0.000 A 
ENDBRANCH  15  17
ENDBRANCH  11  15
ENDBRANCH   6   7
ENDBRANCH   3   5
ENDBRANCH   2   3
ENDBRANCH   1   2
BRANCH   1  23
ATOM     23  C   UNL A   1      41.137  24.288  26.601  1.00  0.00     0.275 C 
BRANCH  23  24
ATOM     24  O   UNL A   1      40.182  25.359  26.719  1.00  0.00    -0.458 OA
BRANCH  24  25
ATOM     25  C   UNL A   1      40.691  26.605  26.556  1.00  0.00     0.338 C 
ATOM     26  O   UNL A   1      41.104  27.101  25.521  1.00  0.00    -0.246 OA
BRANCH  25  27
ATOM     27  C   UNL A   1      40.568  27.362  27.814  1.00  0.00     0.060 A 
ATOM     28  C   UNL A   1      41.277  28.560  27.930  1.00  0.00     0.016 A 
ATOM     29  C   UNL A   1      39.822  26.874  28.891  1.00  0.00     0.016 A 
ATOM     30  C   UNL A   1      41.243  29.280  29.122  1.00  0.00     0.010 A 
ATOM     31  C   UNL A   1      39.789  27.598  30.088  1.00  0.00     0.010 A 
ATOM     32  C   UNL A   1      40.505  28.802  30.213  1.00  0.00    -0.014 A 
BRANCH  32  33
ATOM     33  C   UNL A   1      40.504  29.558  31.491  1.00  0.00     0.031 A 
ATOM     34  C   UNL A   1      41.598  29.343  32.497  1.00  0.00     0.074 A 
ATOM     35  C   UNL A   1      39.532  30.458  31.733  1.00  0.00     0.049 A 
ATOM     36  N   UNL A   1      41.758  29.899  33.672  1.00  0.00    -0.248 NA
ATOM     37  C   UNL A   1      42.650  28.380  32.137  1.00  0.00     0.031 C 
ATOM     38  C   UNL A   1      38.436  30.782  30.817  1.00  0.00     0.029 A 
ATOM     39  N   UNL A   1      39.311  31.266  32.819  1.00  0.00    -0.354 N 
ATOM     40  C   UNL A   1      42.924  29.351  34.195  1.00  0.00     0.074 A 
ATOM     41  C   UNL A   1      43.417  28.402  33.219  1.00  0.00     0.031 C 
ATOM     42  C   UNL A   1      37.665  31.730  31.378  1.00  0.00     0.029 A 
ATOM     43  C   UNL A   1      38.186  32.048  32.704  1.00  0.00     0.049 A 
ATOM     44  H   UNL A   1      39.903  31.285  33.605  1.00  0.00     0.167 HD
ATOM     45  C   UNL A   1      43.529  29.617  35.377  1.00  0.00     0.031 A 
ATOM     46  C   UNL A   1      37.627  32.909  33.576  1.00  0.00     0.031 A 
ATOM     47  C   UNL A   1      43.028  30.548  36.355  1.00  0.00     0.049 A 
ATOM     48  C   UNL A   1      38.278  33.130  34.914  1.00  0.00     0.074 A 
ATOM     49  C   UNL A   1      43.575  30.889  37.580  1.00  0.00     0.029 A 
ATOM     50  N   UNL A   1      41.859  31.282  36.223  1.00  0.00    -0.354 N 
ATOM     51  N   UNL A   1      39.387  32.614  35.387  1.00  0.00    -0.248 NA
ATOM     52  C   UNL A   1      37.599  34.051  35.837  1.00  0.00     0.031 C 
ATOM     53  C   UNL A   1      42.713  31.792  38.210  1.00  0.00     0.029 A 
ATOM     54  C   UNL A   1      41.654  32.054  37.355  1.00  0.00     0.049 A 
ATOM     55  H   UNL A   1      41.262  31.257  35.441  1.00  0.00     0.167 HD
ATOM     56  C   UNL A   1      39.549  33.160  36.655  1.00  0.00     0.074 A 
ATOM     57  C   UNL A   1      38.432  34.059  36.869  1.00  0.00     0.031 C 
ATOM     58  C   UNL A   1      40.534  32.937  37.560  1.00  0.00     0.031 A 
BRANCH  45  59
ATOM     59  C   UNL A   1      44.790  28.858  35.695  1.00  0.00    -0.014 A 
ATOM     60  C   UNL A   1      46.051  29.358  35.325  1.00  0.00     0.010 A 
ATOM     61  C   UNL A   1      44.714  27.641  36.396  1.00  0.00     0.010 A 
ATOM     62  C   UNL A   1      47.211  28.633  35.615  1.00  0.00     0.020 A 
ATOM     63  C   UNL A   1      45.873  26.925  36.708  1.00  0.00     0.020 A 
ATOM     64  C   UNL A   1      47.114  27.417  36.298  1.00  0.00     0.054 A 
BRANCH  64  65
ATOM     65  S   UNL A   1      48.634  26.497  36.664  1.00  0.00     0.124 S 
ATOM     66  O   UNL A   1      48.359  25.985  38.004  1.00  0.00    -0.237 OA
ATOM     67  O   UNL A   1      48.666  25.493  35.604  1.00  0.00    -0.237 OA
ATOM     68  O   UNL A   1      49.681  27.512  36.588  1.00  0.00    -0.744 OA
ENDBRANCH  64  65
ENDBRANCH  45  59
BRANCH  46  69
ATOM     69  C   UNL A   1      36.367  33.613  33.215  1.00  0.00    -0.014 A 
ATOM     70  C   UNL A   1      35.117  33.034  33.494  1.00  0.00     0.010 A 
ATOM     71  C   UNL A   1      36.415  34.877  32.599  1.00  0.00     0.010 A 
ATOM     72  C   UNL A   1      33.937  33.703  33.153  1.00  0.00     0.020 A 
ATOM     73  C   UNL A   1      35.237  35.559  32.280  1.00  0.00     0.020 A 
ATOM     74  C   UNL A   1      34.005  34.963  32.550  1.00  0.00     0.054 A 
BRANCH  74  75
ATOM     75  S   UNL A   1      32.462  35.838  32.168  1.00  0.00     0.124 S 
ATOM     76  O   UNL A   1      32.627  37.081  32.913  1.00  0.00    -0.237 OA
ATOM     77  O   UNL A   1      32.518  35.960  30.713  1.00  0.00    -0.237 OA
ATOM     78  O   UNL A   1      31.427  34.938  32.671  1.00  0.00    -0.744 OA
ENDBRANCH  74  75
ENDBRANCH  46  69
BRANCH  58  79
ATOM     79  C   UNL A   1      40.461  33.695  38.859  1.00  0.00    -0.014 A 
ATOM     80  C   UNL A   1      39.854  33.132  39.995  1.00  0.00     0.010 A 
ATOM     81  C   UNL A   1      41.052  34.967  38.957  1.00  0.00     0.010 A 
ATOM     82  C   UNL A   1      39.813  33.841  41.199  1.00  0.00     0.020 A 
ATOM     83  C   UNL A   1      41.035  35.670  40.165  1.00  0.00     0.020 A 
ATOM     84  C   UNL A   1      40.403  35.107  41.276  1.00  0.00     0.054 A 
BRANCH  84  85
ATOM     85  S   UNL A   1      40.376  35.990  42.860  1.00  0.00     0.124 S 
ATOM     86  O   UNL A   1      41.186  37.168  42.564  1.00  0.00    -0.237 OA
ATOM     87  O   UNL A   1      38.951  36.242  43.065  1.00  0.00    -0.237 OA
ATOM     88  O   UNL A   1      40.974  35.040  43.795  1.00  0.00    -0.744 OA
ENDBRANCH  84  85
ENDBRANCH  58  79
ENDBRANCH  32  33
ENDBRANCH  25  27
ENDBRANCH  24  25
ENDBRANCH  23  24
ENDBRANCH   1  23
TORSDOF 18
ENDMDL
MODEL 2
REMARK VINA RESULT:     -10.8      3.341      9.514
REMARK SMILES CCc1cc(/C=C/C(=O)OCCOC(=O)c2ccc(-c3c4nc(c(-c5ccc(S(=O)(=O)[O-])cc5)c5ccc([nH]5)c(-c5ccc(S(=O)(=O)[O-])cc5)c5nc(c(-c6ccc(S(=O)(=O)[O-])cc6)c6ccc3[nH]6)C=C5)C=C4)cc2)cc(C(=O)c2ccccc2)c1
REMARK SMILES IDX 11 1 10 2 8 3 9 4 7 5 6 6 5 7 3 8 4 9 86 10 77 11 76 12 2 13
REMARK SMILES IDX 1 14 78 15 79 16 80 17 81 18 85 19 82 20 84 21 83 22 12 23
REMARK SMILES IDX 13 24 14 25 15 26 16 27 17 28 75 29 18 30 74 31 19 32 20 33
REMARK SMILES IDX 21 34 68 35 22 36 73 37 67 38 69 39 23 40 72 41 66 42 65 43
REMARK SMILES IDX 24 45 54 46 35 47 53 48 36 49 39 50 52 51 70 52 37 53 38 54
REMARK SMILES IDX 51 56 71 57 40 58 25 59 26 60 34 61 27 62 33 63 28 64 29 65
REMARK SMILES IDX 30 66 31 67 32 68 55 69 56 70 64 71 57 72 63 73 58 74 59 75
REMARK SMILES IDX 60 76 61 77 62 78 41 79 42 80 50 81 43 82 49 83 44 84 45 85
REMARK SMILES IDX 46 86 47 87 48 88
REMARK H PARENT 69 44 39 55
REMARK Flexibility Score: inf
ROOT
ATOM      1  C   UNL A   1      33.087  27.117  25.657  1.00  0.00     0.275 C 
ENDROOT
BRANCH   1   2
ATOM      2  O   UNL A   1      33.231  27.697  24.349  1.00  0.00    -0.459 OA
BRANCH   2   3
ATOM      3  C   UNL A   1      33.563  26.839  23.355  1.00  0.00     0.330 C 
ATOM      4  O   UNL A   1      33.552  27.082  22.158  1.00  0.00    -0.247 OA
BRANCH   3   5
ATOM      5  C   UNL A   1      34.046  25.540  23.867  1.00  0.00     0.094 C 
ATOM      6  C   UNL A   1      34.247  24.439  23.125  1.00  0.00     0.015 C 
BRANCH   6   7
ATOM      7  C   UNL A   1      34.598  23.140  23.716  1.00  0.00    -0.024 A 
ATOM      8  C   UNL A   1      36.269  21.616  24.668  1.00  0.00    -0.047 A 
ATOM      9  C   UNL A   1      35.922  22.840  24.073  1.00  0.00     0.011 A 
ATOM     10  C   UNL A   1      35.252  20.684  24.908  1.00  0.00     0.016 A 
ATOM     11  C   UNL A   1      33.914  20.985  24.613  1.00  0.00     0.023 A 
ATOM     12  C   UNL A   1      33.595  22.211  24.009  1.00  0.00     0.020 A 
BRANCH   8  13
ATOM     13  C   UNL A   1      37.717  21.393  25.049  1.00  0.00     0.032 C 
ATOM     14  C   UNL A   1      38.259  19.976  24.906  1.00  0.00     0.009 C 
ENDBRANCH   8  13
BRANCH  11  15
ATOM     15  C   UNL A   1      32.808  20.021  24.892  1.00  0.00     0.193 C 
ATOM     16  O   UNL A   1      31.700  20.435  25.226  1.00  0.00    -0.289 OA
BRANCH  15  17
ATOM     17  C   UNL A   1      32.994  18.558  24.742  1.00  0.00     0.022 A 
ATOM     18  C   UNL A   1      32.630  17.732  25.811  1.00  0.00     0.012 A 
ATOM     19  C   UNL A   1      33.532  17.999  23.577  1.00  0.00     0.012 A 
ATOM     20  C   UNL A   1      32.753  16.346  25.695  1.00  0.00     0.001 A 
ATOM     21  C   UNL A   1      33.647  16.612  23.463  1.00  0.00     0.001 A 
ATOM     22  C   UNL A   1      33.251  15.788  24.517  1.00  0.00     0.000 A 
ENDBRANCH  15  17
ENDBRANCH  11  15
ENDBRANCH   6   7
ENDBRANCH   3   5
ENDBRANCH   2   3
ENDBRANCH   1   2
BRANCH   1  23
ATOM     23  C   UNL A   1      33.325  28.160  26.754  1.00  0.00     0.275 C 
BRANCH  23  24
ATOM     24  O   UNL A   1      34.209  29.209  26.317  1.00  0.00    -0.458 OA
BRANCH  24  25
ATOM     25  C   UNL A   1      34.400  30.211  27.209  1.00  0.00     0.338 C 
ATOM     26  O   UNL A   1      33.632  31.123  27.468  1.00  0.00    -0.246 OA
BRANCH  25  27
ATOM     27  C   UNL A   1      35.657  29.988  27.946  1.00  0.00     0.060 A 
ATOM     28  C   UNL A   1      36.858  30.096  27.241  1.00  0.00     0.016 A 
ATOM     29  C   UNL A   1      35.657  29.615  29.293  1.00  0.00     0.016 A 
ATOM     30  C   UNL A   1      38.069  29.833  27.879  1.00  0.00     0.010 A 
ATOM     31  C   UNL A   1      36.874  29.352  29.933  1.00  0.00     0.010 A 
ATOM     32  C   UNL A   1      38.087  29.452  29.228  1.00  0.00    -0.014 A 
BRANCH  32  33
ATOM     33  C   UNL A   1      39.378  29.140  29.889  1.00  0.00     0.031 A 
ATOM     34  C   UNL A   1      39.822  29.926  31.089  1.00  0.00     0.074 A 
ATOM     35  C   UNL A   1      40.139  28.131  29.424  1.00  0.00     0.049 A 
ATOM     36  N   UNL A   1      40.922  29.810  31.791  1.00  0.00    -0.248 NA
ATOM     37  C   UNL A   1      38.911  30.978  31.566  1.00  0.00     0.031 C 
ATOM     38  C   UNL A   1      39.799  27.271  28.289  1.00  0.00     0.029 A 
ATOM     39  N   UNL A   1      41.353  27.656  29.851  1.00  0.00    -0.354 N 
ATOM     40  C   UNL A   1      40.840  30.775  32.787  1.00  0.00     0.074 A 
ATOM     41  C   UNL A   1      39.594  31.485  32.585  1.00  0.00     0.031 C 
ATOM     42  C   UNL A   1      40.778  26.367  28.117  1.00  0.00     0.029 A 
ATOM     43  C   UNL A   1      41.831  26.609  29.100  1.00  0.00     0.049 A 
ATOM     44  H   UNL A   1      41.836  28.030  30.623  1.00  0.00     0.167 HD
ATOM     45  C   UNL A   1      41.721  31.045  33.780  1.00  0.00     0.031 A 
ATOM     46  C   UNL A   1      42.993  25.932  29.180  1.00  0.00     0.031 A 
ATOM     47  C   UNL A   1      42.968  30.351  33.970  1.00  0.00     0.049 A 
ATOM     48  C   UNL A   1      43.988  26.301  30.247  1.00  0.00     0.074 A 
ATOM     49  C   UNL A   1      43.923  30.549  34.953  1.00  0.00     0.029 A 
ATOM     50  N   UNL A   1      43.438  29.331  33.157  1.00  0.00    -0.354 N 
ATOM     51  N   UNL A   1      43.889  27.208  31.188  1.00  0.00    -0.248 NA
ATOM     52  C   UNL A   1      45.253  25.553  30.259  1.00  0.00     0.031 C 
ATOM     53  C   UNL A   1      44.993  29.682  34.705  1.00  0.00     0.029 A 
ATOM     54  C   UNL A   1      44.681  28.907  33.599  1.00  0.00     0.049 A 
ATOM     55  H   UNL A   1      42.961  28.962  32.380  1.00  0.00     0.167 HD
ATOM     56  C   UNL A   1      45.071  27.129  31.917  1.00  0.00     0.074 A 
ATOM     57  C   UNL A   1      45.863  26.074  31.316  1.00  0.00     0.031 C 
ATOM     58  C   UNL A   1      45.463  27.863  32.987  1.00  0.00     0.031 A 
BRANCH  45  59
ATOM     59  C   UNL A   1      41.378  32.168  34.723  1.00  0.00    -0.014 A 
ATOM     60  C   UNL A   1      41.841  33.476  34.492  1.00  0.00     0.010 A 
ATOM     61  C   UNL A   1      40.560  31.917  35.838  1.00  0.00     0.010 A 
ATOM     62  C   UNL A   1      41.525  34.505  35.386  1.00  0.00     0.020 A 
ATOM     63  C   UNL A   1      40.223  32.948  36.722  1.00  0.00     0.020 A 
ATOM     64  C   UNL A   1      40.725  34.232  36.499  1.00  0.00     0.054 A 
BRANCH  64  65
ATOM     65  S   UNL A   1      40.328  35.585  37.641  1.00  0.00     0.124 S 
ATOM     66  O   UNL A   1      41.628  35.852  38.253  1.00  0.00    -0.237 OA
ATOM     67  O   UNL A   1      39.831  36.626  36.746  1.00  0.00    -0.237 OA
ATOM     68  O   UNL A   1      39.328  35.004  38.532  1.00  0.00    -0.744 OA
ENDBRANCH  64  65
ENDBRANCH  45  59
BRANCH  46  69
ATOM     69  C   UNL A   1      43.286  24.846  28.206  1.00  0.00    -0.014 A 
ATOM     70  C   UNL A   1      42.877  23.526  28.460  1.00  0.00     0.010 A 
ATOM     71  C   UNL A   1      43.968  25.136  27.010  1.00  0.00     0.010 A 
ATOM     72  C   UNL A   1      43.155  22.511  27.539  1.00  0.00     0.020 A 
ATOM     73  C   UNL A   1      44.225  24.129  26.075  1.00  0.00     0.020 A 
ATOM     74  C   UNL A   1      43.826  22.820  26.351  1.00  0.00     0.054 A 
BRANCH  74  75
ATOM     75  S   UNL A   1      44.125  21.499  25.143  1.00  0.00     0.124 S 
ATOM     76  O   UNL A   1      45.477  21.072  25.491  1.00  0.00    -0.237 OA
ATOM     77  O   UNL A   1      43.062  20.544  25.447  1.00  0.00    -0.237 OA
ATOM     78  O   UNL A   1      43.994  22.178  23.856  1.00  0.00    -0.744 OA
ENDBRANCH  74  75
ENDBRANCH  46  69
BRANCH  58  79
ATOM     79  C   UNL A   1      46.803  27.538  33.592  1.00  0.00    -0.014 A 
ATOM     80  C   UNL A   1      46.918  26.628  34.657  1.00  0.00     0.010 A 
ATOM     81  C   UNL A   1      47.968  28.115  33.055  1.00  0.00     0.010 A 
ATOM     82  C   UNL A   1      48.172  26.323  35.194  1.00  0.00     0.020 A 
ATOM     83  C   UNL A   1      49.226  27.794  33.572  1.00  0.00     0.020 A 
ATOM     84  C   UNL A   1      49.319  26.909  34.649  1.00  0.00     0.054 A 
BRANCH  84  85
ATOM     85  S   UNL A   1      50.939  26.465  35.332  1.00  0.00     0.124 S 
ATOM     86  O   UNL A   1      50.628  26.262  36.743  1.00  0.00    -0.237 OA
ATOM     87  O   UNL A   1      51.284  25.258  34.585  1.00  0.00    -0.237 OA
ATOM     88  O   UNL A   1      51.769  27.631  35.037  1.00  0.00    -0.744 OA
ENDBRANCH  84  85
ENDBRANCH  58  79
ENDBRANCH  32  33
ENDBRANCH  25  27
ENDBRANCH  24  25
ENDBRANCH  23  24
ENDBRANCH   1  23
TORSDOF 18
ENDMDL
MODEL 3
REMARK VINA RESULT:     -10.7      1.791      2.524
REMARK SMILES CCc1cc(/C=C/C(=O)OCCOC(=O)c2ccc(-c3c4nc(c(-c5ccc(S(=O)(=O)[O-])cc5)c5ccc([nH]5)c(-c5ccc(S(=O)(=O)[O-])cc5)c5nc(c(-c6ccc(S(=O)(=O)[O-])cc6)c6ccc3[nH]6)C=C5)C=C4)cc2)cc(C(=O)c2ccccc2)c1
REMARK SMILES IDX 11 1 10 2 8 3 9 4 7 5 6 6 5 7 3 8 4 9 86 10 77 11 76 12 2 13
REMARK SMILES IDX 1 14 78 15 79 16 80 17 81 18 85 19 82 20 84 21 83 22 12 23
REMARK SMILES IDX 13 24 14 25 15 26 16 27 17 28 75 29 18 30 74 31 19 32 20 33
REMARK SMILES IDX 21 34 68 35 22 36 73 37 67 38 69 39 23 40 72 41 66 42 65 43
REMARK SMILES IDX 24 45 54 46 35 47 53 48 36 49 39 50 52 51 70 52 37 53 38 54
REMARK SMILES IDX 51 56 71 57 40 58 25 59 26 60 34 61 27 62 33 63 28 64 29 65
REMARK SMILES IDX 30 66 31 67 32 68 55 69 56 70 64 71 57 72 63 73 58 74 59 75
REMARK SMILES IDX 60 76 61 77 62 78 41 79 42 80 50 81 43 82 49 83 44 84 45 85
REMARK SMILES IDX 46 86 47 87 48 88
REMARK H PARENT 69 44 39 55
REMARK Flexibility Score: inf
ROOT
ATOM      1  C   UNL A   1      39.995  22.019  26.746  1.00  0.00     0.275 C 
ENDROOT
BRANCH   1   2
ATOM      2  O   UNL A   1      38.938  22.178  25.782  1.00  0.00    -0.459 OA
BRANCH   2   3
ATOM      3  C   UNL A   1      37.966  23.060  26.113  1.00  0.00     0.330 C 
ATOM      4  O   UNL A   1      38.134  24.195  26.533  1.00  0.00    -0.247 OA
BRANCH   3   5
ATOM      5  C   UNL A   1      36.611  22.544  25.830  1.00  0.00     0.094 C 
ATOM      6  C   UNL A   1      35.535  23.296  25.549  1.00  0.00     0.015 C 
BRANCH   6   7
ATOM      7  C   UNL A   1      34.187  22.727  25.412  1.00  0.00    -0.024 A 
ATOM      8  C   UNL A   1      31.776  22.835  25.856  1.00  0.00    -0.047 A 
ATOM      9  C   UNL A   1      33.075  23.348  26.004  1.00  0.00     0.011 A 
ATOM     10  C   UNL A   1      31.604  21.675  25.092  1.00  0.00     0.016 A 
ATOM     11  C   UNL A   1      32.693  21.070  24.444  1.00  0.00     0.023 A 
ATOM     12  C   UNL A   1      33.982  21.596  24.617  1.00  0.00     0.020 A 
BRANCH   8  13
ATOM     13  C   UNL A   1      30.634  23.590  26.501  1.00  0.00     0.032 C 
ATOM     14  C   UNL A   1      29.583  22.762  27.231  1.00  0.00     0.009 C 
ENDBRANCH   8  13
BRANCH  11  15
ATOM     15  C   UNL A   1      32.529  19.852  23.596  1.00  0.00     0.193 C 
ATOM     16  O   UNL A   1      32.076  19.951  22.458  1.00  0.00    -0.289 OA
BRANCH  15  17
ATOM     17  C   UNL A   1      32.935  18.509  24.076  1.00  0.00     0.022 A 
ATOM     18  C   UNL A   1      33.518  17.627  23.159  1.00  0.00     0.012 A 
ATOM     19  C   UNL A   1      32.737  18.109  25.402  1.00  0.00     0.012 A 
ATOM     20  C   UNL A   1      33.949  16.369  23.580  1.00  0.00     0.001 A 
ATOM     21  C   UNL A   1      33.176  16.851  25.820  1.00  0.00     0.001 A 
ATOM     22  C   UNL A   1      33.788  15.987  24.912  1.00  0.00     0.000 A 
ENDBRANCH  15  17
ENDBRANCH  11  15
ENDBRANCH   6   7
ENDBRANCH   3   5
ENDBRANCH   2   3
ENDBRANCH   1   2
BRANCH   1  23
ATOM     23  C   UNL A   1      41.307  22.621  26.231  1.00  0.00     0.275 C 
BRANCH  23  24
ATOM     24  O   UNL A   1      41.222  24.051  26.085  1.00  0.00    -0.458 OA
BRANCH  24  25
ATOM     25  C   UNL A   1      42.331  24.735  26.457  1.00  0.00     0.338 C 
ATOM     26  O   UNL A   1      43.441  24.667  25.956  1.00  0.00    -0.246 OA
BRANCH  25  27
ATOM     27  C   UNL A   1      41.988  25.704  27.514  1.00  0.00     0.060 A 
ATOM     28  C   UNL A   1      42.840  26.795  27.704  1.00  0.00     0.016 A 
ATOM     29  C   UNL A   1      40.884  25.514  28.349  1.00  0.00     0.016 A 
ATOM     30  C   UNL A   1      42.592  27.704  28.730  1.00  0.00     0.010 A 
ATOM     31  C   UNL A   1      40.637  26.427  29.380  1.00  0.00     0.010 A 
ATOM     32  C   UNL A   1      41.493  27.525  29.581  1.00  0.00    -0.014 A 
BRANCH  32  33
ATOM     33  C   UNL A   1      41.258  28.479  30.693  1.00  0.00     0.031 A 
ATOM     34  C   UNL A   1      42.119  28.433  31.923  1.00  0.00     0.074 A 
ATOM     35  C   UNL A   1      40.286  29.404  30.584  1.00  0.00     0.049 A 
ATOM     36  N   UNL A   1      42.057  29.174  33.001  1.00  0.00    -0.248 NA
ATOM     37  C   UNL A   1      43.192  27.427  31.944  1.00  0.00     0.031 C 
ATOM     38  C   UNL A   1      39.408  29.573  29.424  1.00  0.00     0.029 A 
ATOM     39  N   UNL A   1      39.876  30.379  31.459  1.00  0.00    -0.354 N 
ATOM     40  C   UNL A   1      43.075  28.721  33.832  1.00  0.00     0.074 A 
ATOM     41  C   UNL A   1      43.725  27.626  33.142  1.00  0.00     0.031 C 
ATOM     42  C   UNL A   1      38.570  30.597  29.657  1.00  0.00     0.029 A 
ATOM     43  C   UNL A   1      38.823  31.129  30.993  1.00  0.00     0.049 A 
ATOM     44  H   UNL A   1      40.298  30.526  32.336  1.00  0.00     0.167 HD
ATOM     45  C   UNL A   1      43.437  29.177  35.055  1.00  0.00     0.031 A 
ATOM     46  C   UNL A   1      38.126  32.120  31.583  1.00  0.00     0.031 A 
ATOM     47  C   UNL A   1      42.779  30.255  35.747  1.00  0.00     0.049 A 
ATOM     48  C   UNL A   1      38.501  32.558  32.973  1.00  0.00     0.074 A 
ATOM     49  C   UNL A   1      43.079  30.792  36.987  1.00  0.00     0.029 A 
ATOM     50  N   UNL A   1      41.684  30.955  35.264  1.00  0.00    -0.354 N 
ATOM     51  N   UNL A   1      39.474  32.128  33.738  1.00  0.00    -0.248 NA
ATOM     52  C   UNL A   1      37.679  33.616  33.578  1.00  0.00     0.031 C 
ATOM     53  C   UNL A   1      42.135  31.784  37.275  1.00  0.00     0.029 A 
ATOM     54  C   UNL A   1      41.279  31.901  36.191  1.00  0.00     0.049 A 
ATOM     55  H   UNL A   1      41.256  30.802  34.391  1.00  0.00     0.167 HD
ATOM     56  C   UNL A   1      39.394  32.874  34.909  1.00  0.00     0.074 A 
ATOM     57  C   UNL A   1      38.287  33.794  34.744  1.00  0.00     0.031 C 
ATOM     58  C   UNL A   1      40.170  32.804  36.019  1.00  0.00     0.031 A 
BRANCH  45  59
ATOM     59  C   UNL A   1      44.584  28.483  35.740  1.00  0.00    -0.014 A 
ATOM     60  C   UNL A   1      44.374  27.333  36.522  1.00  0.00     0.010 A 
ATOM     61  C   UNL A   1      45.893  28.971  35.578  1.00  0.00     0.010 A 
ATOM     62  C   UNL A   1      45.448  26.709  37.164  1.00  0.00     0.020 A 
ATOM     63  C   UNL A   1      46.972  28.337  36.200  1.00  0.00     0.020 A 
ATOM     64  C   UNL A   1      46.739  27.219  37.005  1.00  0.00     0.054 A 
BRANCH  64  65
ATOM     65  S   UNL A   1      48.116  26.390  37.846  1.00  0.00     0.124 S 
ATOM     66  O   UNL A   1      48.847  25.809  36.722  1.00  0.00    -0.237 OA
ATOM     67  O   UNL A   1      48.788  27.492  38.528  1.00  0.00    -0.237 OA
ATOM     68  O   UNL A   1      47.457  25.427  38.724  1.00  0.00    -0.744 OA
ENDBRANCH  64  65
ENDBRANCH  45  59
BRANCH  46  69
ATOM     69  C   UNL A   1      36.987  32.753  30.864  1.00  0.00    -0.014 A 
ATOM     70  C   UNL A   1      35.661  32.447  31.213  1.00  0.00     0.010 A 
ATOM     71  C   UNL A   1      37.230  33.678  29.833  1.00  0.00     0.010 A 
ATOM     72  C   UNL A   1      34.596  33.047  30.534  1.00  0.00     0.020 A 
ATOM     73  C   UNL A   1      36.167  34.299  29.169  1.00  0.00     0.020 A 
ATOM     74  C   UNL A   1      34.857  33.971  29.517  1.00  0.00     0.054 A 
BRANCH  74  75
ATOM     75  S   UNL A   1      33.460  34.781  28.688  1.00  0.00     0.124 S 
ATOM     76  O   UNL A   1      33.075  33.781  27.698  1.00  0.00    -0.237 OA
ATOM     77  O   UNL A   1      32.515  34.984  29.784  1.00  0.00    -0.237 OA
ATOM     78  O   UNL A   1      34.048  36.005  28.149  1.00  0.00    -0.744 OA
ENDBRANCH  74  75
ENDBRANCH  46  69
BRANCH  58  79
ATOM     79  C   UNL A   1      39.860  33.763  37.138  1.00  0.00    -0.014 A 
ATOM     80  C   UNL A   1      39.157  33.343  38.281  1.00  0.00     0.010 A 
ATOM     81  C   UNL A   1      40.322  35.089  37.065  1.00  0.00     0.010 A 
ATOM     82  C   UNL A   1      38.896  34.242  39.319  1.00  0.00     0.020 A 
ATOM     83  C   UNL A   1      40.084  35.985  38.112  1.00  0.00     0.020 A 
ATOM     84  C   UNL A   1      39.360  35.559  39.227  1.00  0.00     0.054 A 
BRANCH  84  85
ATOM     85  S   UNL A   1      39.047  36.696  40.605  1.00  0.00     0.124 S 
ATOM     86  O   UNL A   1      38.002  35.996  41.345  1.00  0.00    -0.237 OA
ATOM     87  O   UNL A   1      40.348  36.765  41.267  1.00  0.00    -0.237 OA
ATOM     88  O   UNL A   1      38.625  37.930  39.945  1.00  0.00    -0.744 OA
ENDBRANCH  84  85
ENDBRANCH  58  79
ENDBRANCH  32  33
ENDBRANCH  25  27
ENDBRANCH  24  25
ENDBRANCH  23  24
ENDBRANCH   1  23
TORSDOF 18
ENDMDL
