MODEL 1
REMARK VINA RESULT:     -12.0      0.000      0.000
REMARK SMILES CCCn1nc(C(=O)OCCOC(=O)c2ccc(-c3c4nc(c(-c5ccc(S(=O)(=O)[O-])cc5)c5ccc([nH]5)c(-c5ccc(S(=O)(=O)[O-])cc5)c5nc(c(-c6ccc(S(=O)(=O)[O-])cc6)c6ccc3[nH]6)C=C5)C=C4)cc2)c2c1CC[C@@H]([NH+]1CC[NH+](Cc3ccccn3)CC1)C2
REMARK SMILES IDX 10 1 9 2 7 3 8 4 6 5 4 6 5 7 76 8 75 9 77 10 93 11 78 12
REMARK SMILES IDX 79 13 3 14 2 15 1 16 80 17 81 18 92 19 82 21 91 22 83 23
REMARK SMILES IDX 84 25 85 26 86 27 90 28 87 29 89 30 88 31 11 32 12 33 13 34
REMARK SMILES IDX 14 35 15 36 16 37 74 38 17 39 73 40 18 41 19 42 20 43 67 44
REMARK SMILES IDX 21 45 72 46 66 47 68 48 22 49 71 50 65 51 64 52 23 54 53 55
REMARK SMILES IDX 34 56 52 57 35 58 38 59 51 60 69 61 36 62 37 63 50 65 70 66
REMARK SMILES IDX 39 67 24 68 25 69 33 70 26 71 32 72 27 73 28 74 29 75 30 76
REMARK SMILES IDX 31 77 54 78 55 79 63 80 56 81 62 82 57 83 58 84 59 85 60 86
REMARK SMILES IDX 61 87 40 88 41 89 49 90 42 91 48 92 43 93 44 94 45 95 46 96
REMARK SMILES IDX 47 97
REMARK H PARENT 80 20 83 24 68 53 38 64
REMARK Flexibility Score: inf
ROOT
ATOM      1  C   UNL A   1      32.478  31.511  26.825  1.00  0.00     0.275 C 
ENDROOT
BRANCH   1   2
ATOM      2  O   UNL A   1      32.479  30.095  27.028  1.00  0.00    -0.457 OA
BRANCH   2   3
ATOM      3  C   UNL A   1      33.020  29.307  26.040  1.00  0.00     0.359 C 
ATOM      4  O   UNL A   1      34.210  29.240  25.800  1.00  0.00    -0.244 OA
BRANCH   3   5
ATOM      5  C   UNL A   1      31.957  28.547  25.356  1.00  0.00     0.174 A 
ATOM      6  N   UNL A   1      30.232  28.089  24.164  1.00  0.00    -0.268 N 
ATOM      7  N   UNL A   1      31.004  29.120  24.588  1.00  0.00    -0.165 NA
ATOM      8  C   UNL A   1      30.548  26.929  24.815  1.00  0.00     0.043 A 
ATOM      9  C   UNL A   1      31.780  27.138  25.388  1.00  0.00     0.014 A 
ATOM     10  C   UNL A   1      29.823  25.646  24.874  1.00  0.00     0.062 C 
ATOM     11  C   UNL A   1      32.622  26.055  25.990  1.00  0.00     0.105 C 
ATOM     12  C   UNL A   1      30.476  24.734  25.925  1.00  0.00     0.072 C 
ATOM     13  C   UNL A   1      32.019  24.634  25.825  1.00  0.00     0.189 C 
BRANCH   6  14
ATOM     14  C   UNL A   1      29.370  28.326  23.016  1.00  0.00     0.144 C 
BRANCH  14  15
ATOM     15  C   UNL A   1      29.131  29.762  22.545  1.00  0.00     0.020 C 
ATOM     16  C   UNL A   1      27.733  30.274  22.852  1.00  0.00     0.006 C 
ENDBRANCH  14  15
ENDBRANCH   6  14
BRANCH  13  17
ATOM     17  N   UNL A   1      32.548  23.819  24.708  1.00  0.00    -0.323 N 
ATOM     18  C   UNL A   1      31.692  22.776  24.142  1.00  0.00     0.324 C 
ATOM     19  C   UNL A   1      33.982  23.527  24.828  1.00  0.00     0.324 C 
ATOM     20  H   UNL A   1      32.487  24.457  23.916  1.00  0.00     0.348 HD
ATOM     21  C   UNL A   1      32.349  21.492  23.576  1.00  0.00     0.324 C 
ATOM     22  C   UNL A   1      34.543  22.299  24.082  1.00  0.00     0.324 C 
ATOM     23  N   UNL A   1      33.672  21.134  24.074  1.00  0.00    -0.321 N 
ATOM     24  H   UNL A   1      34.060  20.486  23.387  1.00  0.00     0.348 HD
BRANCH  23  25
ATOM     25  C   UNL A   1      33.771  20.191  25.193  1.00  0.00     0.319 C 
BRANCH  25  26
ATOM     26  C   UNL A   1      33.567  18.692  24.990  1.00  0.00     0.095 A 
ATOM     27  C   UNL A   1      34.515  17.941  24.294  1.00  0.00     0.030 A 
ATOM     28  N   UNL A   1      32.499  18.095  25.585  1.00  0.00    -0.255 NA
ATOM     29  C   UNL A   1      34.310  16.570  24.117  1.00  0.00     0.004 A 
ATOM     30  C   UNL A   1      32.321  16.767  25.393  1.00  0.00     0.111 A 
ATOM     31  C   UNL A   1      33.179  15.973  24.656  1.00  0.00     0.020 A 
ENDBRANCH  25  26
ENDBRANCH  23  25
ENDBRANCH  13  17
ENDBRANCH   3   5
ENDBRANCH   2   3
ENDBRANCH   1   2
BRANCH   1  32
ATOM     32  C   UNL A   1      33.523  32.152  27.723  1.00  0.00     0.275 C 
BRANCH  32  33
ATOM     33  O   UNL A   1      34.267  31.129  28.374  1.00  0.00    -0.458 OA
BRANCH  33  34
ATOM     34  C   UNL A   1      35.150  31.506  29.322  1.00  0.00     0.338 C 
ATOM     35  O   UNL A   1      34.958  32.272  30.252  1.00  0.00    -0.246 OA
BRANCH  34  36
ATOM     36  C   UNL A   1      36.466  30.998  28.935  1.00  0.00     0.060 A 
ATOM     37  C   UNL A   1      36.630  29.619  28.766  1.00  0.00     0.016 A 
ATOM     38  C   UNL A   1      37.558  31.873  29.015  1.00  0.00     0.016 A 
ATOM     39  C   UNL A   1      37.908  29.101  28.843  1.00  0.00     0.010 A 
ATOM     40  C   UNL A   1      38.817  31.355  29.126  1.00  0.00     0.010 A 
ATOM     41  C   UNL A   1      38.969  29.972  29.106  1.00  0.00    -0.014 A 
BRANCH  41  42
ATOM     42  C   UNL A   1      40.306  29.450  29.258  1.00  0.00     0.031 A 
ATOM     43  C   UNL A   1      40.690  29.265  30.675  1.00  0.00     0.074 A 
ATOM     44  C   UNL A   1      41.014  28.995  28.208  1.00  0.00     0.049 A 
ATOM     45  N   UNL A   1      41.567  29.935  31.342  1.00  0.00    -0.248 NA
ATOM     46  C   UNL A   1      39.872  28.355  31.498  1.00  0.00     0.031 C 
ATOM     47  C   UNL A   1      40.572  28.832  26.819  1.00  0.00     0.029 A 
ATOM     48  N   UNL A   1      42.256  28.449  28.196  1.00  0.00    -0.354 N 
ATOM     49  C   UNL A   1      41.567  29.377  32.614  1.00  0.00     0.074 A 
ATOM     50  C   UNL A   1      40.374  28.578  32.711  1.00  0.00     0.031 C 
ATOM     51  C   UNL A   1      41.437  28.017  26.169  1.00  0.00     0.029 A 
ATOM     52  C   UNL A   1      42.552  27.717  27.052  1.00  0.00     0.049 A 
ATOM     53  H   UNL A   1      42.895  28.564  28.936  1.00  0.00     0.167 HD
ATOM     54  C   UNL A   1      42.681  29.386  33.393  1.00  0.00     0.031 A 
ATOM     55  C   UNL A   1      43.603  26.871  26.892  1.00  0.00     0.031 A 
ATOM     56  C   UNL A   1      43.686  30.274  32.873  1.00  0.00     0.049 A 
ATOM     57  C   UNL A   1      44.596  27.210  27.944  1.00  0.00     0.074 A 
ATOM     58  C   UNL A   1      43.759  31.632  32.644  1.00  0.00     0.029 A 
ATOM     59  N   UNL A   1      44.676  29.696  32.112  1.00  0.00    -0.354 N 
ATOM     60  N   UNL A   1      45.242  28.342  27.984  1.00  0.00    -0.248 NA
ATOM     61  C   UNL A   1      44.534  26.488  29.207  1.00  0.00     0.031 C 
ATOM     62  C   UNL A   1      44.492  31.763  31.429  1.00  0.00     0.029 A 
ATOM     63  C   UNL A   1      44.888  30.488  31.013  1.00  0.00     0.049 A 
ATOM     64  H   UNL A   1      45.151  28.858  32.320  1.00  0.00     0.167 HD
ATOM     65  C   UNL A   1      45.279  28.685  29.328  1.00  0.00     0.074 A 
ATOM     66  C   UNL A   1      44.923  27.458  30.040  1.00  0.00     0.031 C 
ATOM     67  C   UNL A   1      45.316  29.994  29.720  1.00  0.00     0.031 A 
BRANCH  54  68
ATOM     68  C   UNL A   1      43.014  28.289  34.368  1.00  0.00    -0.014 A 
ATOM     69  C   UNL A   1      43.307  28.634  35.702  1.00  0.00     0.010 A 
ATOM     70  C   UNL A   1      43.309  26.970  33.964  1.00  0.00     0.010 A 
ATOM     71  C   UNL A   1      43.907  27.714  36.571  1.00  0.00     0.020 A 
ATOM     72  C   UNL A   1      43.865  26.033  34.834  1.00  0.00     0.020 A 
ATOM     73  C   UNL A   1      44.187  26.421  36.127  1.00  0.00     0.054 A 
BRANCH  73  74
ATOM     74  S   UNL A   1      45.034  25.269  37.233  1.00  0.00     0.124 S 
ATOM     75  O   UNL A   1      46.430  25.455  36.851  1.00  0.00    -0.237 OA
ATOM     76  O   UNL A   1      44.662  25.778  38.550  1.00  0.00    -0.237 OA
ATOM     77  O   UNL A   1      44.456  23.973  36.885  1.00  0.00    -0.744 OA
ENDBRANCH  73  74
ENDBRANCH  54  68
BRANCH  55  78
ATOM     78  C   UNL A   1      43.655  25.594  26.134  1.00  0.00    -0.014 A 
ATOM     79  C   UNL A   1      44.714  25.323  25.245  1.00  0.00     0.010 A 
ATOM     80  C   UNL A   1      42.824  24.518  26.505  1.00  0.00     0.010 A 
ATOM     81  C   UNL A   1      44.972  24.013  24.802  1.00  0.00     0.020 A 
ATOM     82  C   UNL A   1      43.070  23.212  26.064  1.00  0.00     0.020 A 
ATOM     83  C   UNL A   1      44.161  22.960  25.234  1.00  0.00     0.054 A 
BRANCH  83  84
ATOM     84  S   UNL A   1      44.615  21.249  24.818  1.00  0.00     0.124 S 
ATOM     85  O   UNL A   1      45.926  21.113  25.443  1.00  0.00    -0.237 OA
ATOM     86  O   UNL A   1      43.539  20.476  25.431  1.00  0.00    -0.237 OA
ATOM     87  O   UNL A   1      44.621  21.240  23.355  1.00  0.00    -0.744 OA
ENDBRANCH  83  84
ENDBRANCH  55  78
BRANCH  67  88
ATOM     88  C   UNL A   1      45.627  31.041  28.675  1.00  0.00    -0.014 A 
ATOM     89  C   UNL A   1      44.692  31.532  27.740  1.00  0.00     0.010 A 
ATOM     90  C   UNL A   1      46.889  31.655  28.744  1.00  0.00     0.010 A 
ATOM     91  C   UNL A   1      45.027  32.592  26.882  1.00  0.00     0.020 A 
ATOM     92  C   UNL A   1      47.221  32.721  27.907  1.00  0.00     0.020 A 
ATOM     93  C   UNL A   1      46.293  33.180  26.973  1.00  0.00     0.054 A 
BRANCH  93  94
ATOM     94  S   UNL A   1      46.714  34.575  25.891  1.00  0.00     0.124 S 
ATOM     95  O   UNL A   1      46.608  35.719  26.791  1.00  0.00    -0.237 OA
ATOM     96  O   UNL A   1      48.066  34.245  25.447  1.00  0.00    -0.237 OA
ATOM     97  O   UNL A   1      45.698  34.521  24.840  1.00  0.00    -0.744 OA
ENDBRANCH  93  94
ENDBRANCH  67  88
ENDBRANCH  41  42
ENDBRANCH  34  36
ENDBRANCH  33  34
ENDBRANCH  32  33
ENDBRANCH   1  32
TORSDOF 19
ENDMDL
MODEL 2
REMARK VINA RESULT:     -11.2      1.738      2.385
REMARK SMILES CCCn1nc(C(=O)OCCOC(=O)c2ccc(-c3c4nc(c(-c5ccc(S(=O)(=O)[O-])cc5)c5ccc([nH]5)c(-c5ccc(S(=O)(=O)[O-])cc5)c5nc(c(-c6ccc(S(=O)(=O)[O-])cc6)c6ccc3[nH]6)C=C5)C=C4)cc2)c2c1CC[C@@H]([NH+]1CC[NH+](Cc3ccccn3)CC1)C2
REMARK SMILES IDX 10 1 9 2 7 3 8 4 6 5 4 6 5 7 76 8 75 9 77 10 93 11 78 12
REMARK SMILES IDX 79 13 3 14 2 15 1 16 80 17 81 18 92 19 82 21 91 22 83 23
REMARK SMILES IDX 84 25 85 26 86 27 90 28 87 29 89 30 88 31 11 32 12 33 13 34
REMARK SMILES IDX 14 35 15 36 16 37 74 38 17 39 73 40 18 41 19 42 20 43 67 44
REMARK SMILES IDX 21 45 72 46 66 47 68 48 22 49 71 50 65 51 64 52 23 54 53 55
REMARK SMILES IDX 34 56 52 57 35 58 38 59 51 60 69 61 36 62 37 63 50 65 70 66
REMARK SMILES IDX 39 67 24 68 25 69 33 70 26 71 32 72 27 73 28 74 29 75 30 76
REMARK SMILES IDX 31 77 54 78 55 79 63 80 56 81 62 82 57 83 58 84 59 85 60 86
REMARK SMILES IDX 61 87 40 88 41 89 49 90 42 91 48 92 43 93 44 94 45 95 46 96
REMARK SMILES IDX 47 97
REMARK H PARENT 80 20 83 24 68 53 38 64
REMARK Flexibility Score: inf
ROOT
ATOM      1  C   UNL A   1      33.962  29.604  27.147  1.00  0.00     0.275 C 
ENDROOT
BRANCH   1   2
ATOM      2  O   UNL A   1      33.334  30.007  25.928  1.00  0.00    -0.457 OA
BRANCH   2   3
ATOM      3  C   UNL A   1      32.010  30.376  25.981  1.00  0.00     0.359 C 
ATOM      4  O   UNL A   1      31.573  31.231  26.727  1.00  0.00    -0.244 OA
BRANCH   3   5
ATOM      5  C   UNL A   1      31.229  29.614  24.989  1.00  0.00     0.174 A 
ATOM      6  N   UNL A   1      30.001  29.151  23.291  1.00  0.00    -0.268 N 
ATOM      7  N   UNL A   1      30.601  30.183  23.937  1.00  0.00    -0.165 NA
ATOM      8  C   UNL A   1      30.059  28.001  24.027  1.00  0.00     0.043 A 
ATOM      9  C   UNL A   1      31.029  28.208  24.980  1.00  0.00     0.014 A 
ATOM     10  C   UNL A   1      29.336  26.727  23.856  1.00  0.00     0.062 C 
ATOM     11  C   UNL A   1      31.600  27.128  25.847  1.00  0.00     0.105 C 
ATOM     12  C   UNL A   1      29.581  25.828  25.079  1.00  0.00     0.072 C 
ATOM     13  C   UNL A   1      31.065  25.710  25.509  1.00  0.00     0.189 C 
BRANCH   6  14
ATOM     14  C   UNL A   1      29.582  29.375  21.916  1.00  0.00     0.144 C 
BRANCH  14  15
ATOM     15  C   UNL A   1      28.209  29.994  21.645  1.00  0.00     0.020 C 
ATOM     16  C   UNL A   1      27.645  30.757  22.833  1.00  0.00     0.006 C 
ENDBRANCH  14  15
ENDBRANCH   6  14
BRANCH  13  17
ATOM     17  N   UNL A   1      31.927  24.868  24.648  1.00  0.00    -0.323 N 
ATOM     18  C   UNL A   1      32.190  23.490  25.063  1.00  0.00     0.324 C 
ATOM     19  C   UNL A   1      33.030  25.610  24.025  1.00  0.00     0.324 C 
ATOM     20  H   UNL A   1      31.311  24.636  23.870  1.00  0.00     0.348 HD
ATOM     21  C   UNL A   1      33.552  22.845  24.704  1.00  0.00     0.324 C 
ATOM     22  C   UNL A   1      34.274  24.822  23.566  1.00  0.00     0.324 C 
ATOM     23  N   UNL A   1      34.677  23.738  24.450  1.00  0.00    -0.321 N 
ATOM     24  H   UNL A   1      35.361  23.182  23.936  1.00  0.00     0.348 HD
BRANCH  23  25
ATOM     25  C   UNL A   1      35.588  24.053  25.556  1.00  0.00     0.319 C 
BRANCH  25  26
ATOM     26  C   UNL A   1      36.898  23.294  25.745  1.00  0.00     0.095 A 
ATOM     27  C   UNL A   1      37.047  22.005  25.232  1.00  0.00     0.030 A 
ATOM     28  N   UNL A   1      37.942  23.938  26.335  1.00  0.00    -0.255 NA
ATOM     29  C   UNL A   1      38.254  21.326  25.418  1.00  0.00     0.004 A 
ATOM     30  C   UNL A   1      39.098  23.255  26.507  1.00  0.00     0.111 A 
ATOM     31  C   UNL A   1      39.294  21.952  26.089  1.00  0.00     0.020 A 
ENDBRANCH  25  26
ENDBRANCH  23  25
ENDBRANCH  13  17
ENDBRANCH   3   5
ENDBRANCH   2   3
ENDBRANCH   1   2
BRANCH   1  32
ATOM     32  C   UNL A   1      35.378  30.154  27.193  1.00  0.00     0.275 C 
BRANCH  32  33
ATOM     33  O   UNL A   1      35.340  31.495  27.667  1.00  0.00    -0.458 OA
BRANCH  33  34
ATOM     34  C   UNL A   1      35.259  31.684  29.000  1.00  0.00     0.338 C 
ATOM     35  O   UNL A   1      34.386  32.275  29.614  1.00  0.00    -0.246 OA
BRANCH  34  36
ATOM     36  C   UNL A   1      36.517  31.233  29.593  1.00  0.00     0.060 A 
ATOM     37  C   UNL A   1      37.574  32.143  29.699  1.00  0.00     0.016 A 
ATOM     38  C   UNL A   1      36.700  29.855  29.778  1.00  0.00     0.016 A 
ATOM     39  C   UNL A   1      38.855  31.642  29.830  1.00  0.00     0.010 A 
ATOM     40  C   UNL A   1      37.970  29.360  29.873  1.00  0.00     0.010 A 
ATOM     41  C   UNL A   1      39.034  30.255  29.829  1.00  0.00    -0.014 A 
BRANCH  41  42
ATOM     42  C   UNL A   1      40.367  29.704  29.897  1.00  0.00     0.031 A 
ATOM     43  C   UNL A   1      40.792  29.403  31.282  1.00  0.00     0.074 A 
ATOM     44  C   UNL A   1      41.034  29.322  28.792  1.00  0.00     0.049 A 
ATOM     45  N   UNL A   1      41.700  30.007  31.970  1.00  0.00    -0.248 NA
ATOM     46  C   UNL A   1      39.985  28.444  32.058  1.00  0.00     0.031 C 
ATOM     47  C   UNL A   1      40.547  29.274  27.410  1.00  0.00     0.029 A 
ATOM     48  N   UNL A   1      42.266  28.761  28.698  1.00  0.00    -0.354 N 
ATOM     49  C   UNL A   1      41.731  29.352  33.194  1.00  0.00     0.074 A 
ATOM     50  C   UNL A   1      40.528  28.565  33.269  1.00  0.00     0.031 C 
ATOM     51  C   UNL A   1      41.377  28.500  26.672  1.00  0.00     0.029 A 
ATOM     52  C   UNL A   1      42.514  28.116  27.492  1.00  0.00     0.049 A 
ATOM     53  H   UNL A   1      42.929  28.809  29.424  1.00  0.00     0.167 HD
ATOM     54  C   UNL A   1      42.869  29.285  33.935  1.00  0.00     0.031 A 
ATOM     55  C   UNL A   1      43.545  27.270  27.233  1.00  0.00     0.031 A 
ATOM     56  C   UNL A   1      43.871  30.196  33.453  1.00  0.00     0.049 A 
ATOM     57  C   UNL A   1      44.577  27.512  28.275  1.00  0.00     0.074 A 
ATOM     58  C   UNL A   1      43.960  31.566  33.328  1.00  0.00     0.029 A 
ATOM     59  N   UNL A   1      44.827  29.665  32.619  1.00  0.00    -0.354 N 
ATOM     60  N   UNL A   1      45.242  28.629  28.382  1.00  0.00    -0.248 NA
ATOM     61  C   UNL A   1      44.541  26.696  29.480  1.00  0.00     0.031 C 
ATOM     62  C   UNL A   1      44.657  31.781  32.104  1.00  0.00     0.029 A 
ATOM     63  C   UNL A   1      45.018  30.537  31.578  1.00  0.00     0.049 A 
ATOM     64  H   UNL A   1      45.294  28.807  32.746  1.00  0.00     0.167 HD
ATOM     65  C   UNL A   1      45.326  28.865  29.747  1.00  0.00     0.074 A 
ATOM     66  C   UNL A   1      44.972  27.592  30.373  1.00  0.00     0.031 C 
ATOM     67  C   UNL A   1      45.397  30.139  30.238  1.00  0.00     0.031 A 
BRANCH  54  68
ATOM     68  C   UNL A   1      43.214  28.111  34.812  1.00  0.00    -0.014 A 
ATOM     69  C   UNL A   1      43.642  28.352  36.131  1.00  0.00     0.010 A 
ATOM     70  C   UNL A   1      43.387  26.804  34.307  1.00  0.00     0.010 A 
ATOM     71  C   UNL A   1      44.255  27.345  36.888  1.00  0.00     0.020 A 
ATOM     72  C   UNL A   1      43.954  25.783  35.068  1.00  0.00     0.020 A 
ATOM     73  C   UNL A   1      44.412  26.069  36.346  1.00  0.00     0.054 A 
BRANCH  73  74
ATOM     74  S   UNL A   1      45.275  24.801  37.303  1.00  0.00     0.124 S 
ATOM     75  O   UNL A   1      46.674  25.151  37.074  1.00  0.00    -0.237 OA
ATOM     76  O   UNL A   1      44.773  25.040  38.653  1.00  0.00    -0.237 OA
ATOM     77  O   UNL A   1      44.834  23.550  36.691  1.00  0.00    -0.744 OA
ENDBRANCH  73  74
ENDBRANCH  54  68
BRANCH  55  78
ATOM     78  C   UNL A   1      43.553  26.055  26.378  1.00  0.00    -0.014 A 
ATOM     79  C   UNL A   1      44.604  25.815  25.471  1.00  0.00     0.010 A 
ATOM     80  C   UNL A   1      42.680  24.986  26.662  1.00  0.00     0.010 A 
ATOM     81  C   UNL A   1      44.815  24.535  24.928  1.00  0.00     0.020 A 
ATOM     82  C   UNL A   1      42.879  23.710  26.119  1.00  0.00     0.020 A 
ATOM     83  C   UNL A   1      43.962  23.483  25.274  1.00  0.00     0.054 A 
BRANCH  83  84
ATOM     84  S   UNL A   1      44.354  21.794  24.725  1.00  0.00     0.124 S 
ATOM     85  O   UNL A   1      44.490  21.958  23.282  1.00  0.00    -0.237 OA
ATOM     86  O   UNL A   1      45.589  21.502  25.448  1.00  0.00    -0.237 OA
ATOM     87  O   UNL A   1      43.193  21.015  25.154  1.00  0.00    -0.744 OA
ENDBRANCH  83  84
ENDBRANCH  55  78
BRANCH  67  88
ATOM     88  C   UNL A   1      45.693  31.260  29.267  1.00  0.00    -0.014 A 
ATOM     89  C   UNL A   1      46.982  31.778  29.022  1.00  0.00     0.010 A 
ATOM     90  C   UNL A   1      44.630  31.704  28.462  1.00  0.00     0.010 A 
ATOM     91  C   UNL A   1      47.189  32.736  28.016  1.00  0.00     0.020 A 
ATOM     92  C   UNL A   1      44.833  32.640  27.448  1.00  0.00     0.020 A 
ATOM     93  C   UNL A   1      46.109  33.161  27.234  1.00  0.00     0.054 A 
BRANCH  93  94
ATOM     94  S   UNL A   1      46.381  34.369  25.908  1.00  0.00     0.124 S 
ATOM     95  O   UNL A   1      47.778  34.140  25.550  1.00  0.00    -0.237 OA
ATOM     96  O   UNL A   1      45.400  33.974  24.901  1.00  0.00    -0.237 OA
ATOM     97  O   UNL A   1      46.112  35.656  26.549  1.00  0.00    -0.744 OA
ENDBRANCH  93  94
ENDBRANCH  67  88
ENDBRANCH  41  42
ENDBRANCH  34  36
ENDBRANCH  33  34
ENDBRANCH  32  33
ENDBRANCH   1  32
TORSDOF 19
ENDMDL
MODEL 3
REMARK VINA RESULT:     -11.2      2.073      7.183
REMARK SMILES CCCn1nc(C(=O)OCCOC(=O)c2ccc(-c3c4nc(c(-c5ccc(S(=O)(=O)[O-])cc5)c5ccc([nH]5)c(-c5ccc(S(=O)(=O)[O-])cc5)c5nc(c(-c6ccc(S(=O)(=O)[O-])cc6)c6ccc3[nH]6)C=C5)C=C4)cc2)c2c1CC[C@@H]([NH+]1CC[NH+](Cc3ccccn3)CC1)C2
REMARK SMILES IDX 10 1 9 2 7 3 8 4 6 5 4 6 5 7 76 8 75 9 77 10 93 11 78 12
REMARK SMILES IDX 79 13 3 14 2 15 1 16 80 17 81 18 92 19 82 21 91 22 83 23
REMARK SMILES IDX 84 25 85 26 86 27 90 28 87 29 89 30 88 31 11 32 12 33 13 34
REMARK SMILES IDX 14 35 15 36 16 37 74 38 17 39 73 40 18 41 19 42 20 43 67 44
REMARK SMILES IDX 21 45 72 46 66 47 68 48 22 49 71 50 65 51 64 52 23 54 53 55
REMARK SMILES IDX 34 56 52 57 35 58 38 59 51 60 69 61 36 62 37 63 50 65 70 66
REMARK SMILES IDX 39 67 24 68 25 69 33 70 26 71 32 72 27 73 28 74 29 75 30 76
REMARK SMILES IDX 31 77 54 78 55 79 63 80 56 81 62 82 57 83 58 84 59 85 60 86
REMARK SMILES IDX 61 87 40 88 41 89 49 90 42 91 48 92 43 93 44 94 45 95 46 96
REMARK SMILES IDX 47 97
REMARK H PARENT 80 20 83 24 68 53 38 64
REMARK Flexibility Score: inf
ROOT
ATOM      1  C   UNL A   1      33.553  30.768  27.593  1.00  0.00     0.275 C 
ENDROOT
BRANCH   1   2
ATOM      2  O   UNL A   1      33.247  29.895  26.502  1.00  0.00    -0.457 OA
BRANCH   2   3
ATOM      3  C   UNL A   1      32.018  30.029  25.901  1.00  0.00     0.359 C 
ATOM      4  O   UNL A   1      31.289  30.989  26.052  1.00  0.00    -0.244 OA
BRANCH   3   5
ATOM      5  C   UNL A   1      31.746  28.865  25.035  1.00  0.00     0.174 A 
ATOM      6  N   UNL A   1      31.336  27.680  23.294  1.00  0.00    -0.268 N 
ATOM      7  N   UNL A   1      31.569  28.954  23.699  1.00  0.00    -0.165 NA
ATOM      8  C   UNL A   1      31.153  26.844  24.360  1.00  0.00     0.043 A 
ATOM      9  C   UNL A   1      31.642  27.513  25.457  1.00  0.00     0.014 A 
ATOM     10  C   UNL A   1      30.630  25.465  24.406  1.00  0.00     0.062 C 
ATOM     11  C   UNL A   1      31.871  26.880  26.795  1.00  0.00     0.105 C 
ATOM     12  C   UNL A   1      30.406  25.048  25.868  1.00  0.00     0.072 C 
ATOM     13  C   UNL A   1      31.594  25.352  26.816  1.00  0.00     0.189 C 
BRANCH   6  14
ATOM     14  C   UNL A   1      31.497  27.388  21.878  1.00  0.00     0.144 C 
BRANCH  14  15
ATOM     15  C   UNL A   1      31.769  25.948  21.439  1.00  0.00     0.020 C 
ATOM     16  C   UNL A   1      33.197  25.495  21.701  1.00  0.00     0.006 C 
ENDBRANCH  14  15
ENDBRANCH   6  14
BRANCH  13  17
ATOM     17  N   UNL A   1      32.774  24.467  26.686  1.00  0.00    -0.323 N 
ATOM     18  C   UNL A   1      33.572  24.547  25.462  1.00  0.00     0.324 C 
ATOM     19  C   UNL A   1      32.574  23.138  27.278  1.00  0.00     0.324 C 
ATOM     20  H   UNL A   1      33.458  24.913  27.296  1.00  0.00     0.348 HD
ATOM     21  C   UNL A   1      34.272  23.268  24.938  1.00  0.00     0.324 C 
ATOM     22  C   UNL A   1      33.451  21.974  26.775  1.00  0.00     0.324 C 
ATOM     23  N   UNL A   1      33.721  21.980  25.345  1.00  0.00    -0.321 N 
ATOM     24  H   UNL A   1      34.464  21.299  25.186  1.00  0.00     0.348 HD
BRANCH  23  25
ATOM     25  C   UNL A   1      32.759  21.316  24.459  1.00  0.00     0.319 C 
BRANCH  25  26
ATOM     26  C   UNL A   1      32.990  19.891  23.963  1.00  0.00     0.095 A 
ATOM     27  C   UNL A   1      33.981  19.096  24.540  1.00  0.00     0.030 A 
ATOM     28  N   UNL A   1      32.145  19.385  23.023  1.00  0.00    -0.255 NA
ATOM     29  C   UNL A   1      34.177  17.794  24.071  1.00  0.00     0.004 A 
ATOM     30  C   UNL A   1      32.361  18.124  22.583  1.00  0.00     0.111 A 
ATOM     31  C   UNL A   1      33.368  17.304  23.056  1.00  0.00     0.020 A 
ENDBRANCH  25  26
ENDBRANCH  23  25
ENDBRANCH  13  17
ENDBRANCH   3   5
ENDBRANCH   2   3
ENDBRANCH   1   2
BRANCH   1  32
ATOM     32  C   UNL A   1      35.059  30.942  27.695  1.00  0.00     0.275 C 
BRANCH  32  33
ATOM     33  O   UNL A   1      35.619  29.796  28.325  1.00  0.00    -0.458 OA
BRANCH  33  34
ATOM     34  C   UNL A   1      36.521  30.001  29.306  1.00  0.00     0.338 C 
ATOM     35  O   UNL A   1      36.503  30.871  30.162  1.00  0.00    -0.246 OA
BRANCH  34  36
ATOM     36  C   UNL A   1      37.661  29.119  29.056  1.00  0.00     0.060 A 
ATOM     37  C   UNL A   1      38.137  28.324  30.104  1.00  0.00     0.016 A 
ATOM     38  C   UNL A   1      38.390  29.306  27.873  1.00  0.00     0.016 A 
ATOM     39  C   UNL A   1      39.431  27.846  30.024  1.00  0.00     0.010 A 
ATOM     40  C   UNL A   1      39.681  28.863  27.812  1.00  0.00     0.010 A 
ATOM     41  C   UNL A   1      40.206  28.198  28.915  1.00  0.00    -0.014 A 
BRANCH  41  42
ATOM     42  C   UNL A   1      41.582  27.769  28.837  1.00  0.00     0.031 A 
ATOM     43  C   UNL A   1      41.723  26.385  28.334  1.00  0.00     0.074 A 
ATOM     44  C   UNL A   1      42.604  28.629  29.006  1.00  0.00     0.049 A 
ATOM     45  N   UNL A   1      42.109  25.348  28.996  1.00  0.00    -0.248 NA
ATOM     46  C   UNL A   1      41.195  26.081  26.992  1.00  0.00     0.031 C 
ATOM     47  C   UNL A   1      42.546  30.085  29.172  1.00  0.00     0.029 A 
ATOM     48  N   UNL A   1      43.937  28.387  28.930  1.00  0.00    -0.354 N 
ATOM     49  C   UNL A   1      42.084  24.299  28.086  1.00  0.00     0.074 A 
ATOM     50  C   UNL A   1      41.317  24.755  26.957  1.00  0.00     0.031 C 
ATOM     51  C   UNL A   1      43.773  30.609  28.942  1.00  0.00     0.029 A 
ATOM     52  C   UNL A   1      44.719  29.521  28.751  1.00  0.00     0.049 A 
ATOM     53  H   UNL A   1      44.318  27.482  28.998  1.00  0.00     0.167 HD
ATOM     54  C   UNL A   1      42.926  23.238  28.202  1.00  0.00     0.031 A 
ATOM     55  C   UNL A   1      46.030  29.544  28.394  1.00  0.00     0.031 A 
ATOM     56  C   UNL A   1      43.572  23.210  29.486  1.00  0.00     0.049 A 
ATOM     57  C   UNL A   1      46.578  28.191  28.674  1.00  0.00     0.074 A 
ATOM     58  C   UNL A   1      43.138  23.088  30.790  1.00  0.00     0.029 A 
ATOM     59  N   UNL A   1      44.838  23.743  29.544  1.00  0.00    -0.354 N 
ATOM     60  N   UNL A   1      46.694  27.698  29.876  1.00  0.00    -0.248 NA
ATOM     61  C   UNL A   1      46.563  27.207  27.601  1.00  0.00     0.031 C 
ATOM     62  C   UNL A   1      43.980  23.958  31.542  1.00  0.00     0.029 A 
ATOM     63  C   UNL A   1      44.925  24.514  30.675  1.00  0.00     0.049 A 
ATOM     64  H   UNL A   1      45.558  23.599  28.887  1.00  0.00     0.167 HD
ATOM     65  C   UNL A   1      46.327  26.365  29.753  1.00  0.00     0.074 A 
ATOM     66  C   UNL A   1      46.360  26.097  28.316  1.00  0.00     0.031 C 
ATOM     67  C   UNL A   1      45.759  25.692  30.798  1.00  0.00     0.031 A 
BRANCH  54  68
ATOM     68  C   UNL A   1      43.472  22.485  27.018  1.00  0.00    -0.014 A 
ATOM     69  C   UNL A   1      42.764  21.367  26.540  1.00  0.00     0.010 A 
ATOM     70  C   UNL A   1      44.783  22.675  26.530  1.00  0.00     0.010 A 
ATOM     71  C   UNL A   1      43.357  20.460  25.652  1.00  0.00     0.020 A 
ATOM     72  C   UNL A   1      45.367  21.804  25.612  1.00  0.00     0.020 A 
ATOM     73  C   UNL A   1      44.659  20.683  25.201  1.00  0.00     0.054 A 
BRANCH  73  74
ATOM     74  S   UNL A   1      45.442  19.465  24.119  1.00  0.00     0.124 S 
ATOM     75  O   UNL A   1      46.831  19.913  24.116  1.00  0.00    -0.237 OA
ATOM     76  O   UNL A   1      45.179  18.213  24.825  1.00  0.00    -0.237 OA
ATOM     77  O   UNL A   1      44.729  19.621  22.854  1.00  0.00    -0.744 OA
ENDBRANCH  73  74
ENDBRANCH  54  68
BRANCH  55  78
ATOM     78  C   UNL A   1      46.736  30.520  27.525  1.00  0.00    -0.014 A 
ATOM     79  C   UNL A   1      46.032  31.552  26.874  1.00  0.00     0.010 A 
ATOM     80  C   UNL A   1      48.142  30.618  27.571  1.00  0.00     0.010 A 
ATOM     81  C   UNL A   1      46.704  32.673  26.353  1.00  0.00     0.020 A 
ATOM     82  C   UNL A   1      48.819  31.728  27.048  1.00  0.00     0.020 A 
ATOM     83  C   UNL A   1      48.093  32.764  26.465  1.00  0.00     0.054 A 
BRANCH  83  84
ATOM     84  S   UNL A   1      48.934  34.299  25.967  1.00  0.00     0.124 S 
ATOM     85  O   UNL A   1      47.971  34.898  25.050  1.00  0.00    -0.237 OA
ATOM     86  O   UNL A   1      49.111  34.991  27.240  1.00  0.00    -0.237 OA
ATOM     87  O   UNL A   1      50.172  33.827  25.347  1.00  0.00    -0.744 OA
ENDBRANCH  83  84
ENDBRANCH  55  78
BRANCH  67  88
ATOM     88  C   UNL A   1      45.824  26.324  32.170  1.00  0.00    -0.014 A 
ATOM     89  C   UNL A   1      44.814  27.147  32.713  1.00  0.00     0.010 A 
ATOM     90  C   UNL A   1      46.894  25.945  32.997  1.00  0.00     0.010 A 
ATOM     91  C   UNL A   1      44.895  27.596  34.041  1.00  0.00     0.020 A 
ATOM     92  C   UNL A   1      46.969  26.371  34.324  1.00  0.00     0.020 A 
ATOM     93  C   UNL A   1      45.975  27.203  34.839  1.00  0.00     0.054 A 
BRANCH  93  94
ATOM     94  S   UNL A   1      46.061  27.750  36.567  1.00  0.00     0.124 S 
ATOM     95  O   UNL A   1      46.133  26.489  37.298  1.00  0.00    -0.237 OA
ATOM     96  O   UNL A   1      47.275  28.563  36.591  1.00  0.00    -0.237 OA
ATOM     97  O   UNL A   1      44.821  28.503  36.756  1.00  0.00    -0.744 OA
ENDBRANCH  93  94
ENDBRANCH  67  88
ENDBRANCH  41  42
ENDBRANCH  34  36
ENDBRANCH  33  34
ENDBRANCH  32  33
ENDBRANCH   1  32
TORSDOF 19
ENDMDL
