MODEL 1
REMARK VINA RESULT:     -13.7      0.000      0.000
REMARK SMILES O=C(OCCOC(=O)c1ccc(-c2c3nc(c(-c4ccc(S(=O)(=O)[O-])cc4)c4ccc([nH]4)c(-c4ccc(S(=O)(=O)[O-])cc4)c4nc(c(-c5ccc(S(=O)(=O)[O-])cc5)c5ccc2[nH]5)C=C4)C=C3)cc1)C1=Cc2cc(Cl)cc(-c3ccc(O)cc3)c2O[C@@H]1C(F)(F)F
REMARK SMILES IDX 5 1 4 2 3 3 2 4 1 5 69 6 70 7 86 8 71 9 85 10 72 11 84 12
REMARK SMILES IDX 73 13 76 14 74 15 75 16 87 17 88 18 89 19 90 20 77 21 78 22
REMARK SMILES IDX 83 23 79 24 82 25 80 26 81 27 6 29 7 30 8 31 9 32 10 33
REMARK SMILES IDX 68 34 11 35 67 36 12 37 13 38 14 39 61 40 15 41 66 42 60 43
REMARK SMILES IDX 62 44 16 45 65 46 59 47 58 48 17 50 47 51 28 52 46 53 29 54
REMARK SMILES IDX 32 55 45 56 63 57 30 58 31 59 44 61 64 62 33 63 18 64 19 65
REMARK SMILES IDX 27 66 20 67 26 68 21 69 22 70 23 71 24 72 25 73 48 74 49 75
REMARK SMILES IDX 57 76 50 77 56 78 51 79 52 80 53 81 54 82 55 83 34 84 35 85
REMARK SMILES IDX 43 86 36 87 42 88 37 89 38 90 39 91 40 92 41 93
REMARK H PARENT 81 28 62 49 32 60
REMARK Flexibility Score: inf
ROOT
ATOM      1  C   UNL A   1      33.370  29.297  26.220  1.00  0.00     0.275 C 
ENDROOT
BRANCH   1   2
ATOM      2  C   UNL A   1      32.239  27.647  27.096  1.00  0.00     0.275 C 
BRANCH   2   3
ATOM      3  O   UNL A   1      31.384  26.629  26.353  1.00  0.00    -0.459 OA
BRANCH   3   4
ATOM      4  C   UNL A   1      31.848  25.382  26.483  1.00  0.00     0.338 C 
ATOM      5  O   UNL A   1      31.897  24.704  27.477  1.00  0.00    -0.246 OA
BRANCH   4   6
ATOM      6  C   UNL A   1      32.654  25.381  25.273  1.00  0.00     0.087 C 
ATOM      7  C   UNL A   1      34.071  25.201  25.454  1.00  0.00     0.027 C 
ATOM      8  C   UNL A   1      31.482  24.168  24.363  1.00  0.00     0.316 C 
ATOM      9  C   UNL A   1      34.927  23.682  25.124  1.00  0.00     0.019 A 
ATOM     10  O   UNL A   1      32.351  22.438  24.097  1.00  0.00    -0.475 OA
ATOM     11  C   UNL A   1      36.228  23.635  25.537  1.00  0.00     0.032 A 
ATOM     12  C   UNL A   1      34.117  22.240  24.582  1.00  0.00     0.135 A 
ATOM     13  C   UNL A   1      36.794  22.363  25.528  1.00  0.00     0.042 A 
ATOM     14  C   UNL A   1      34.735  21.016  24.690  1.00  0.00     0.026 A 
ATOM     15  Cl  UNL A   1      38.424  22.228  26.099  1.00  0.00    -0.084 Cl
ATOM     16  C   UNL A   1      36.095  21.150  25.151  1.00  0.00     0.033 A 
BRANCH   8  17
ATOM     17  C   UNL A   1      31.021  25.441  23.400  1.00  0.00     0.430 C 
ATOM     18  F   UNL A   1      31.518  25.309  22.165  1.00  0.00    -0.167 F 
ATOM     19  F   UNL A   1      29.668  25.414  23.163  1.00  0.00    -0.167 F 
ATOM     20  F   UNL A   1      31.173  26.694  23.861  1.00  0.00    -0.167 F 
ENDBRANCH   8  17
BRANCH  14  21
ATOM     21  C   UNL A   1      34.191  19.671  24.601  1.00  0.00    -0.014 A 
ATOM     22  C   UNL A   1      32.815  19.476  24.853  1.00  0.00     0.012 A 
ATOM     23  C   UNL A   1      35.013  18.549  24.479  1.00  0.00     0.012 A 
ATOM     24  C   UNL A   1      32.277  18.197  24.984  1.00  0.00     0.047 A 
ATOM     25  C   UNL A   1      34.474  17.263  24.608  1.00  0.00     0.047 A 
ATOM     26  C   UNL A   1      33.114  17.099  24.861  1.00  0.00     0.115 A 
BRANCH  26  27
ATOM     27  O   UNL A   1      32.560  15.862  25.009  1.00  0.00    -0.508 OA
ATOM     28  H   UNL A   1      31.929  15.710  25.684  1.00  0.00     0.293 HD
ENDBRANCH  26  27
ENDBRANCH  14  21
ENDBRANCH   4   6
ENDBRANCH   3   4
ENDBRANCH   2   3
ENDBRANCH   1   2
BRANCH   1  29
ATOM     29  O   UNL A   1      33.850  30.731  27.124  1.00  0.00    -0.458 OA
BRANCH  29  30
ATOM     30  C   UNL A   1      34.693  31.165  28.134  1.00  0.00     0.338 C 
ATOM     31  O   UNL A   1      34.480  31.972  29.022  1.00  0.00    -0.246 OA
BRANCH  30  32
ATOM     32  C   UNL A   1      35.790  30.143  28.263  1.00  0.00     0.060 A 
ATOM     33  C   UNL A   1      36.768  30.065  27.247  1.00  0.00     0.016 A 
ATOM     34  C   UNL A   1      36.056  29.582  29.511  1.00  0.00     0.016 A 
ATOM     35  C   UNL A   1      38.076  29.629  27.558  1.00  0.00     0.010 A 
ATOM     36  C   UNL A   1      37.360  29.173  29.819  1.00  0.00     0.010 A 
ATOM     37  C   UNL A   1      38.399  29.257  28.871  1.00  0.00    -0.014 A 
BRANCH  37  38
ATOM     38  C   UNL A   1      39.722  28.659  29.208  1.00  0.00     0.031 A 
ATOM     39  C   UNL A   1      40.640  29.577  29.961  1.00  0.00     0.074 A 
ATOM     40  C   UNL A   1      40.149  27.432  28.825  1.00  0.00     0.049 A 
ATOM     41  N   UNL A   1      41.880  29.411  30.324  1.00  0.00    -0.248 NA
ATOM     42  C   UNL A   1      40.072  30.893  30.313  1.00  0.00     0.031 C 
ATOM     43  C   UNL A   1      39.377  26.439  28.078  1.00  0.00     0.029 A 
ATOM     44  N   UNL A   1      41.371  26.814  29.011  1.00  0.00    -0.354 N 
ATOM     45  C   UNL A   1      42.235  30.604  30.938  1.00  0.00     0.074 A 
ATOM     46  C   UNL A   1      41.122  31.511  30.817  1.00  0.00     0.031 C 
ATOM     47  C   UNL A   1      40.138  25.341  27.877  1.00  0.00     0.029 A 
ATOM     48  C   UNL A   1      41.463  25.549  28.462  1.00  0.00     0.049 A 
ATOM     49  H   UNL A   1      42.114  27.239  29.497  1.00  0.00     0.167 HD
ATOM     50  C   UNL A   1      43.377  30.916  31.588  1.00  0.00     0.031 A 
ATOM     51  C   UNL A   1      42.495  24.673  28.441  1.00  0.00     0.031 A 
ATOM     52  C   UNL A   1      44.492  30.028  31.692  1.00  0.00     0.049 A 
ATOM     53  C   UNL A   1      43.794  25.067  29.121  1.00  0.00     0.074 A 
ATOM     54  C   UNL A   1      45.697  30.234  32.334  1.00  0.00     0.029 A 
ATOM     55  N   UNL A   1      44.539  28.762  31.128  1.00  0.00    -0.354 N 
ATOM     56  N   UNL A   1      44.090  26.174  29.765  1.00  0.00    -0.248 NA
ATOM     57  C   UNL A   1      44.894  24.088  29.088  1.00  0.00     0.031 C 
ATOM     58  C   UNL A   1      46.500  29.114  32.104  1.00  0.00     0.029 A 
ATOM     59  C   UNL A   1      45.763  28.181  31.388  1.00  0.00     0.049 A 
ATOM     60  H   UNL A   1      43.808  28.342  30.619  1.00  0.00     0.167 HD
ATOM     61  C   UNL A   1      45.387  26.004  30.249  1.00  0.00     0.074 A 
ATOM     62  C   UNL A   1      45.815  24.685  29.833  1.00  0.00     0.031 C 
ATOM     63  C   UNL A   1      46.154  26.856  30.974  1.00  0.00     0.031 A 
BRANCH  50  64
ATOM     64  C   UNL A   1      43.441  32.284  32.203  1.00  0.00    -0.014 A 
ATOM     65  C   UNL A   1      42.957  32.512  33.506  1.00  0.00     0.010 A 
ATOM     66  C   UNL A   1      43.934  33.363  31.452  1.00  0.00     0.010 A 
ATOM     67  C   UNL A   1      42.913  33.805  34.026  1.00  0.00     0.020 A 
ATOM     68  C   UNL A   1      43.929  34.652  31.985  1.00  0.00     0.020 A 
ATOM     69  C   UNL A   1      43.401  34.867  33.260  1.00  0.00     0.054 A 
BRANCH  69  70
ATOM     70  S   UNL A   1      43.355  36.533  33.972  1.00  0.00     0.124 S 
ATOM     71  O   UNL A   1      43.508  37.373  32.786  1.00  0.00    -0.237 OA
ATOM     72  O   UNL A   1      42.039  36.572  34.604  1.00  0.00    -0.237 OA
ATOM     73  O   UNL A   1      44.488  36.547  34.894  1.00  0.00    -0.744 OA
ENDBRANCH  69  70
ENDBRANCH  50  64
BRANCH  51  74
ATOM     74  C   UNL A   1      42.381  23.329  27.782  1.00  0.00    -0.014 A 
ATOM     75  C   UNL A   1      41.931  22.204  28.503  1.00  0.00     0.010 A 
ATOM     76  C   UNL A   1      42.785  23.141  26.446  1.00  0.00     0.010 A 
ATOM     77  C   UNL A   1      41.910  20.928  27.918  1.00  0.00     0.020 A 
ATOM     78  C   UNL A   1      42.739  21.873  25.847  1.00  0.00     0.020 A 
ATOM     79  C   UNL A   1      42.311  20.771  26.590  1.00  0.00     0.054 A 
BRANCH  79  80
ATOM     80  S   UNL A   1      42.239  19.115  25.840  1.00  0.00     0.124 S 
ATOM     81  O   UNL A   1      42.777  18.272  26.902  1.00  0.00    -0.237 OA
ATOM     82  O   UNL A   1      40.813  18.955  25.569  1.00  0.00    -0.237 OA
ATOM     83  O   UNL A   1      43.082  19.239  24.653  1.00  0.00    -0.744 OA
ENDBRANCH  79  80
ENDBRANCH  51  74
BRANCH  63  84
ATOM     84  C   UNL A   1      47.511  26.380  31.425  1.00  0.00    -0.014 A 
ATOM     85  C   UNL A   1      47.694  25.729  32.655  1.00  0.00     0.010 A 
ATOM     86  C   UNL A   1      48.604  26.501  30.543  1.00  0.00     0.010 A 
ATOM     87  C   UNL A   1      48.952  25.233  33.010  1.00  0.00     0.020 A 
ATOM     88  C   UNL A   1      49.852  25.975  30.877  1.00  0.00     0.020 A 
ATOM     89  C   UNL A   1      50.021  25.355  32.116  1.00  0.00     0.054 A 
BRANCH  89  90
ATOM     90  S   UNL A   1      51.628  24.655  32.578  1.00  0.00     0.124 S 
ATOM     91  O   UNL A   1      51.678  24.931  34.011  1.00  0.00    -0.237 OA
ATOM     92  O   UNL A   1      51.480  23.248  32.212  1.00  0.00    -0.237 OA
ATOM     93  O   UNL A   1      52.581  25.406  31.765  1.00  0.00    -0.744 OA
ENDBRANCH  89  90
ENDBRANCH  63  84
ENDBRANCH  37  38
ENDBRANCH  30  32
ENDBRANCH  29  30
ENDBRANCH   1  29
TORSDOF 17
ENDMDL
MODEL 2
REMARK VINA RESULT:     -13.1      3.559      9.976
REMARK SMILES O=C(OCCOC(=O)c1ccc(-c2c3nc(c(-c4ccc(S(=O)(=O)[O-])cc4)c4ccc([nH]4)c(-c4ccc(S(=O)(=O)[O-])cc4)c4nc(c(-c5ccc(S(=O)(=O)[O-])cc5)c5ccc2[nH]5)C=C4)C=C3)cc1)C1=Cc2cc(Cl)cc(-c3ccc(O)cc3)c2O[C@@H]1C(F)(F)F
REMARK SMILES IDX 5 1 4 2 3 3 2 4 1 5 69 6 70 7 86 8 71 9 85 10 72 11 84 12
REMARK SMILES IDX 73 13 76 14 74 15 75 16 87 17 88 18 89 19 90 20 77 21 78 22
REMARK SMILES IDX 83 23 79 24 82 25 80 26 81 27 6 29 7 30 8 31 9 32 10 33
REMARK SMILES IDX 68 34 11 35 67 36 12 37 13 38 14 39 61 40 15 41 66 42 60 43
REMARK SMILES IDX 62 44 16 45 65 46 59 47 58 48 17 50 47 51 28 52 46 53 29 54
REMARK SMILES IDX 32 55 45 56 63 57 30 58 31 59 44 61 64 62 33 63 18 64 19 65
REMARK SMILES IDX 27 66 20 67 26 68 21 69 22 70 23 71 24 72 25 73 48 74 49 75
REMARK SMILES IDX 57 76 50 77 56 78 51 79 52 80 53 81 54 82 55 83 34 84 35 85
REMARK SMILES IDX 43 86 36 87 42 88 37 89 38 90 39 91 40 92 41 93
REMARK H PARENT 81 28 62 49 32 60
REMARK Flexibility Score: inf
ROOT
ATOM      1  C   UNL A   1      37.198  21.441  25.062  1.00  0.00     0.275 C 
ENDROOT
BRANCH   1   2
ATOM      2  C   UNL A   1      35.462  22.687  24.613  1.00  0.00     0.275 C 
BRANCH   2   3
ATOM      3  O   UNL A   1      35.439  24.203  24.461  1.00  0.00    -0.459 OA
BRANCH   3   4
ATOM      4  C   UNL A   1      34.314  24.641  23.888  1.00  0.00     0.338 C 
ATOM      5  O   UNL A   1      34.162  25.076  22.775  1.00  0.00    -0.246 OA
BRANCH   4   6
ATOM      6  C   UNL A   1      33.582  24.874  25.123  1.00  0.00     0.087 C 
ATOM      7  C   UNL A   1      34.030  25.983  25.926  1.00  0.00     0.027 C 
ATOM      8  C   UNL A   1      31.874  24.736  24.265  1.00  0.00     0.316 C 
ATOM      9  C   UNL A   1      33.189  27.543  26.017  1.00  0.00     0.019 A 
ATOM     10  O   UNL A   1      30.975  26.470  24.233  1.00  0.00    -0.475 OA
ATOM     11  C   UNL A   1      33.859  28.539  26.670  1.00  0.00     0.032 A 
ATOM     12  C   UNL A   1      31.752  27.896  25.101  1.00  0.00     0.135 A 
ATOM     13  C   UNL A   1      33.325  29.811  26.492  1.00  0.00     0.042 A 
ATOM     14  C   UNL A   1      31.351  29.199  24.916  1.00  0.00     0.026 A 
ATOM     15  Cl  UNL A   1      34.166  31.125  27.246  1.00  0.00    -0.084 Cl
ATOM     16  C   UNL A   1      32.173  30.116  25.666  1.00  0.00     0.033 A 
BRANCH   8  17
ATOM     17  C   UNL A   1      31.669  23.290  25.058  1.00  0.00     0.430 C 
ATOM     18  F   UNL A   1      31.976  23.410  26.355  1.00  0.00    -0.167 F 
ATOM     19  F   UNL A   1      30.340  22.946  25.116  1.00  0.00    -0.167 F 
ATOM     20  F   UNL A   1      32.197  22.175  24.528  1.00  0.00    -0.167 F 
ENDBRANCH   8  17
BRANCH  14  21
ATOM     21  C   UNL A   1      30.400  29.771  23.978  1.00  0.00    -0.014 A 
ATOM     22  C   UNL A   1      30.370  29.278  22.654  1.00  0.00     0.012 A 
ATOM     23  C   UNL A   1      29.666  30.921  24.279  1.00  0.00     0.012 A 
ATOM     24  C   UNL A   1      29.631  29.917  21.661  1.00  0.00     0.047 A 
ATOM     25  C   UNL A   1      28.922  31.563  23.282  1.00  0.00     0.047 A 
ATOM     26  C   UNL A   1      28.913  31.058  21.984  1.00  0.00     0.115 A 
BRANCH  26  27
ATOM     27  O   UNL A   1      28.212  31.668  20.986  1.00  0.00    -0.508 OA
ATOM     28  H   UNL A   1      27.334  31.956  21.139  1.00  0.00     0.293 HD
ENDBRANCH  26  27
ENDBRANCH  14  21
ENDBRANCH   4   6
ENDBRANCH   3   4
ENDBRANCH   2   3
ENDBRANCH   1   2
BRANCH   1  29
ATOM     29  O   UNL A   1      38.780  22.096  25.478  1.00  0.00    -0.458 OA
BRANCH  29  30
ATOM     30  C   UNL A   1      39.806  21.992  26.403  1.00  0.00     0.338 C 
ATOM     31  O   UNL A   1      40.743  21.213  26.430  1.00  0.00    -0.246 OA
BRANCH  30  32
ATOM     32  C   UNL A   1      39.861  23.297  27.151  1.00  0.00     0.060 A 
ATOM     33  C   UNL A   1      40.814  23.450  28.181  1.00  0.00     0.016 A 
ATOM     34  C   UNL A   1      39.276  24.430  26.587  1.00  0.00     0.016 A 
ATOM     35  C   UNL A   1      41.334  24.731  28.477  1.00  0.00     0.010 A 
ATOM     36  C   UNL A   1      39.812  25.694  26.868  1.00  0.00     0.010 A 
ATOM     37  C   UNL A   1      40.891  25.852  27.760  1.00  0.00    -0.014 A 
BRANCH  37  38
ATOM     38  C   UNL A   1      41.308  27.232  28.138  1.00  0.00     0.031 A 
ATOM     39  C   UNL A   1      42.784  27.482  28.028  1.00  0.00     0.074 A 
ATOM     40  C   UNL A   1      40.489  28.194  28.623  1.00  0.00     0.049 A 
ATOM     41  N   UNL A   1      43.485  28.527  28.363  1.00  0.00    -0.248 NA
ATOM     42  C   UNL A   1      43.580  26.357  27.499  1.00  0.00     0.031 C 
ATOM     43  C   UNL A   1      39.039  28.093  28.800  1.00  0.00     0.029 A 
ATOM     44  N   UNL A   1      40.777  29.468  29.074  1.00  0.00    -0.354 N 
ATOM     45  C   UNL A   1      44.800  28.178  28.090  1.00  0.00     0.074 A 
ATOM     46  C   UNL A   1      44.810  26.803  27.656  1.00  0.00     0.031 C 
ATOM     47  C   UNL A   1      38.569  29.251  29.313  1.00  0.00     0.029 A 
ATOM     48  C   UNL A   1      39.680  30.179  29.523  1.00  0.00     0.049 A 
ATOM     49  H   UNL A   1      41.688  29.840  29.075  1.00  0.00     0.167 HD
ATOM     50  C   UNL A   1      45.911  28.942  28.154  1.00  0.00     0.031 A 
ATOM     51  C   UNL A   1      39.593  31.429  30.038  1.00  0.00     0.031 A 
ATOM     52  C   UNL A   1      45.910  30.298  28.605  1.00  0.00     0.049 A 
ATOM     53  C   UNL A   1      40.864  32.251  30.163  1.00  0.00     0.074 A 
ATOM     54  C   UNL A   1      46.975  31.172  28.704  1.00  0.00     0.029 A 
ATOM     55  N   UNL A   1      44.781  30.976  29.043  1.00  0.00    -0.354 N 
ATOM     56  N   UNL A   1      42.094  31.932  29.829  1.00  0.00    -0.248 NA
ATOM     57  C   UNL A   1      40.733  33.609  30.718  1.00  0.00     0.031 C 
ATOM     58  C   UNL A   1      46.500  32.361  29.263  1.00  0.00     0.029 A 
ATOM     59  C   UNL A   1      45.127  32.253  29.435  1.00  0.00     0.049 A 
ATOM     60  H   UNL A   1      43.871  30.600  29.069  1.00  0.00     0.167 HD
ATOM     61  C   UNL A   1      42.870  33.060  30.091  1.00  0.00     0.074 A 
ATOM     62  C   UNL A   1      41.970  34.073  30.601  1.00  0.00     0.031 C 
ATOM     63  C   UNL A   1      44.204  33.246  29.923  1.00  0.00     0.031 A 
BRANCH  50  64
ATOM     64  C   UNL A   1      47.196  28.287  27.737  1.00  0.00    -0.014 A 
ATOM     65  C   UNL A   1      47.585  28.258  26.383  1.00  0.00     0.010 A 
ATOM     66  C   UNL A   1      47.993  27.642  28.697  1.00  0.00     0.010 A 
ATOM     67  C   UNL A   1      48.718  27.548  25.990  1.00  0.00     0.020 A 
ATOM     68  C   UNL A   1      49.150  26.964  28.311  1.00  0.00     0.020 A 
ATOM     69  C   UNL A   1      49.494  26.906  26.959  1.00  0.00     0.054 A 
BRANCH  69  70
ATOM     70  S   UNL A   1      50.976  26.013  26.420  1.00  0.00     0.124 S 
ATOM     71  O   UNL A   1      50.798  25.979  24.970  1.00  0.00    -0.237 OA
ATOM     72  O   UNL A   1      52.056  26.870  26.901  1.00  0.00    -0.237 OA
ATOM     73  O   UNL A   1      50.863  24.719  27.091  1.00  0.00    -0.744 OA
ENDBRANCH  69  70
ENDBRANCH  50  64
BRANCH  51  74
ATOM     74  C   UNL A   1      38.282  32.020  30.468  1.00  0.00    -0.014 A 
ATOM     75  C   UNL A   1      37.508  32.793  29.576  1.00  0.00     0.010 A 
ATOM     76  C   UNL A   1      37.822  31.877  31.791  1.00  0.00     0.010 A 
ATOM     77  C   UNL A   1      36.328  33.423  30.000  1.00  0.00     0.020 A 
ATOM     78  C   UNL A   1      36.627  32.482  32.212  1.00  0.00     0.020 A 
ATOM     79  C   UNL A   1      35.892  33.261  31.316  1.00  0.00     0.054 A 
BRANCH  79  80
ATOM     80  S   UNL A   1      34.339  34.055  31.832  1.00  0.00     0.124 S 
ATOM     81  O   UNL A   1      33.764  33.055  32.727  1.00  0.00    -0.237 OA
ATOM     82  O   UNL A   1      34.810  35.279  32.474  1.00  0.00    -0.237 OA
ATOM     83  O   UNL A   1      33.622  34.254  30.575  1.00  0.00    -0.744 OA
ENDBRANCH  79  80
ENDBRANCH  51  74
BRANCH  63  84
ATOM     84  C   UNL A   1      44.774  34.607  30.228  1.00  0.00    -0.014 A 
ATOM     85  C   UNL A   1      44.793  35.632  29.268  1.00  0.00     0.010 A 
ATOM     86  C   UNL A   1      45.204  34.888  31.540  1.00  0.00     0.010 A 
ATOM     87  C   UNL A   1      45.260  36.906  29.606  1.00  0.00     0.020 A 
ATOM     88  C   UNL A   1      45.635  36.167  31.892  1.00  0.00     0.020 A 
ATOM     89  C   UNL A   1      45.673  37.165  30.917  1.00  0.00     0.054 A 
BRANCH  89  90
ATOM     90  S   UNL A   1      46.223  38.840  31.342  1.00  0.00     0.124 S 
ATOM     91  O   UNL A   1      47.378  39.012  30.465  1.00  0.00    -0.237 OA
ATOM     92  O   UNL A   1      45.054  39.653  31.012  1.00  0.00    -0.237 OA
ATOM     93  O   UNL A   1      46.531  38.754  32.768  1.00  0.00    -0.744 OA
ENDBRANCH  89  90
ENDBRANCH  63  84
ENDBRANCH  37  38
ENDBRANCH  30  32
ENDBRANCH  29  30
ENDBRANCH   1  29
TORSDOF 17
ENDMDL
MODEL 3
REMARK VINA RESULT:     -12.8      4.917      7.198
REMARK SMILES O=C(OCCOC(=O)c1ccc(-c2c3nc(c(-c4ccc(S(=O)(=O)[O-])cc4)c4ccc([nH]4)c(-c4ccc(S(=O)(=O)[O-])cc4)c4nc(c(-c5ccc(S(=O)(=O)[O-])cc5)c5ccc2[nH]5)C=C4)C=C3)cc1)C1=Cc2cc(Cl)cc(-c3ccc(O)cc3)c2O[C@@H]1C(F)(F)F
REMARK SMILES IDX 5 1 4 2 3 3 2 4 1 5 69 6 70 7 86 8 71 9 85 10 72 11 84 12
REMARK SMILES IDX 73 13 76 14 74 15 75 16 87 17 88 18 89 19 90 20 77 21 78 22
REMARK SMILES IDX 83 23 79 24 82 25 80 26 81 27 6 29 7 30 8 31 9 32 10 33
REMARK SMILES IDX 68 34 11 35 67 36 12 37 13 38 14 39 61 40 15 41 66 42 60 43
REMARK SMILES IDX 62 44 16 45 65 46 59 47 58 48 17 50 47 51 28 52 46 53 29 54
REMARK SMILES IDX 32 55 45 56 63 57 30 58 31 59 44 61 64 62 33 63 18 64 19 65
REMARK SMILES IDX 27 66 20 67 26 68 21 69 22 70 23 71 24 72 25 73 48 74 49 75
REMARK SMILES IDX 57 76 50 77 56 78 51 79 52 80 53 81 54 82 55 83 34 84 35 85
REMARK SMILES IDX 43 86 36 87 42 88 37 89 38 90 39 91 40 92 41 93
REMARK H PARENT 81 28 62 49 32 60
REMARK Flexibility Score: inf
ROOT
ATOM      1  C   UNL A   1      36.903  33.938  34.160  1.00  0.00     0.275 C 
ENDROOT
BRANCH   1   2
ATOM      2  C   UNL A   1      35.141  35.038  33.484  1.00  0.00     0.275 C 
BRANCH   2   3
ATOM      3  O   UNL A   1      34.673  35.220  32.045  1.00  0.00    -0.459 OA
BRANCH   3   4
ATOM      4  C   UNL A   1      34.352  34.060  31.464  1.00  0.00     0.338 C 
ATOM      5  O   UNL A   1      34.038  33.023  31.990  1.00  0.00    -0.246 OA
BRANCH   4   6
ATOM      6  C   UNL A   1      34.979  34.341  30.182  1.00  0.00     0.087 C 
ATOM      7  C   UNL A   1      36.141  33.555  29.859  1.00  0.00     0.027 C 
ATOM      8  C   UNL A   1      33.312  34.310  29.237  1.00  0.00     0.316 C 
ATOM      9  C   UNL A   1      36.134  32.204  28.707  1.00  0.00     0.019 A 
ATOM     10  O   UNL A   1      33.219  32.759  28.053  1.00  0.00    -0.475 OA
ATOM     11  C   UNL A   1      37.274  31.451  28.672  1.00  0.00     0.032 A 
ATOM     12  C   UNL A   1      34.696  31.672  27.885  1.00  0.00     0.135 A 
ATOM     13  C   UNL A   1      37.153  30.248  27.984  1.00  0.00     0.042 A 
ATOM     14  C   UNL A   1      34.652  30.427  27.302  1.00  0.00     0.026 A 
ATOM     15  Cl  UNL A   1      38.548  29.220  27.954  1.00  0.00    -0.084 Cl
ATOM     16  C   UNL A   1      35.933  29.769  27.364  1.00  0.00     0.033 A 
BRANCH   8  17
ATOM     17  C   UNL A   1      33.464  35.955  29.054  1.00  0.00     0.430 C 
ATOM     18  F   UNL A   1      34.482  36.252  28.237  1.00  0.00    -0.167 F 
ATOM     19  F   UNL A   1      32.393  36.473  28.367  1.00  0.00    -0.167 F 
ATOM     20  F   UNL A   1      33.466  36.735  30.147  1.00  0.00    -0.167 F 
ENDBRANCH   8  17
BRANCH  14  21
ATOM     21  C   UNL A   1      33.521  29.642  26.834  1.00  0.00    -0.014 A 
ATOM     22  C   UNL A   1      33.562  28.238  26.980  1.00  0.00     0.012 A 
ATOM     23  C   UNL A   1      32.499  30.204  26.066  1.00  0.00     0.012 A 
ATOM     24  C   UNL A   1      32.611  27.419  26.373  1.00  0.00     0.047 A 
ATOM     25  C   UNL A   1      31.542  29.383  25.457  1.00  0.00     0.047 A 
ATOM     26  C   UNL A   1      31.608  28.001  25.614  1.00  0.00     0.115 A 
BRANCH  26  27
ATOM     27  O   UNL A   1      30.702  27.172  25.021  1.00  0.00    -0.508 OA
ATOM     28  H   UNL A   1      30.072  27.520  24.422  1.00  0.00     0.293 HD
ENDBRANCH  26  27
ENDBRANCH  14  21
ENDBRANCH   4   6
ENDBRANCH   3   4
ENDBRANCH   2   3
ENDBRANCH   1   2
BRANCH   1  29
ATOM     29  O   UNL A   1      37.871  32.914  33.102  1.00  0.00    -0.458 OA
BRANCH  29  30
ATOM     30  C   UNL A   1      37.919  31.651  32.535  1.00  0.00     0.338 C 
ATOM     31  O   UNL A   1      37.005  30.954  32.127  1.00  0.00    -0.246 OA
BRANCH  30  32
ATOM     32  C   UNL A   1      39.330  31.432  32.062  1.00  0.00     0.060 A 
ATOM     33  C   UNL A   1      40.143  30.508  32.755  1.00  0.00     0.016 A 
ATOM     34  C   UNL A   1      39.685  31.819  30.770  1.00  0.00     0.016 A 
ATOM     35  C   UNL A   1      41.167  29.815  32.070  1.00  0.00     0.010 A 
ATOM     36  C   UNL A   1      40.685  31.113  30.090  1.00  0.00     0.010 A 
ATOM     37  C   UNL A   1      41.388  30.058  30.706  1.00  0.00    -0.014 A 
BRANCH  37  38
ATOM     38  C   UNL A   1      42.546  29.456  29.985  1.00  0.00     0.031 A 
ATOM     39  C   UNL A   1      43.704  30.391  29.792  1.00  0.00     0.074 A 
ATOM     40  C   UNL A   1      42.579  28.211  29.456  1.00  0.00     0.049 A 
ATOM     41  N   UNL A   1      44.816  30.223  29.135  1.00  0.00    -0.248 NA
ATOM     42  C   UNL A   1      43.551  31.726  30.401  1.00  0.00     0.031 C 
ATOM     43  C   UNL A   1      41.525  27.199  29.548  1.00  0.00     0.029 A 
ATOM     44  N   UNL A   1      43.558  27.585  28.708  1.00  0.00    -0.354 N 
ATOM     45  C   UNL A   1      45.486  31.433  29.250  1.00  0.00     0.074 A 
ATOM     46  C   UNL A   1      44.622  32.350  29.952  1.00  0.00     0.031 C 
ATOM     47  C   UNL A   1      41.916  26.085  28.892  1.00  0.00     0.029 A 
ATOM     48  C   UNL A   1      43.241  26.299  28.311  1.00  0.00     0.049 A 
ATOM     49  H   UNL A   1      44.411  28.018  28.477  1.00  0.00     0.167 HD
ATOM     50  C   UNL A   1      46.731  31.756  28.843  1.00  0.00     0.031 A 
ATOM     51  C   UNL A   1      43.945  25.410  27.570  1.00  0.00     0.031 A 
ATOM     52  C   UNL A   1      47.584  30.858  28.127  1.00  0.00     0.049 A 
ATOM     53  C   UNL A   1      45.320  25.813  27.067  1.00  0.00     0.074 A 
ATOM     54  C   UNL A   1      48.869  31.074  27.672  1.00  0.00     0.029 A 
ATOM     55  N   UNL A   1      47.226  29.571  27.754  1.00  0.00    -0.354 N 
ATOM     56  N   UNL A   1      45.972  26.939  27.248  1.00  0.00    -0.248 NA
ATOM     57  C   UNL A   1      46.062  24.820  26.272  1.00  0.00     0.031 C 
ATOM     58  C   UNL A   1      49.268  29.935  26.967  1.00  0.00     0.029 A 
ATOM     59  C   UNL A   1      48.260  28.985  27.053  1.00  0.00     0.049 A 
ATOM     60  H   UNL A   1      46.364  29.142  27.959  1.00  0.00     0.167 HD
ATOM     61  C   UNL A   1      47.211  26.771  26.632  1.00  0.00     0.074 A 
ATOM     62  C   UNL A   1      47.223  25.433  26.081  1.00  0.00     0.031 C 
ATOM     63  C   UNL A   1      48.248  27.641  26.532  1.00  0.00     0.031 A 
BRANCH  50  64
ATOM     64  C   UNL A   1      47.200  33.145  29.166  1.00  0.00    -0.014 A 
ATOM     65  C   UNL A   1      46.967  34.210  28.274  1.00  0.00     0.010 A 
ATOM     66  C   UNL A   1      47.930  33.378  30.342  1.00  0.00     0.010 A 
ATOM     67  C   UNL A   1      47.506  35.471  28.525  1.00  0.00     0.020 A 
ATOM     68  C   UNL A   1      48.437  34.649  30.617  1.00  0.00     0.020 A 
ATOM     69  C   UNL A   1      48.237  35.682  29.698  1.00  0.00     0.054 A 
BRANCH  69  70
ATOM     70  S   UNL A   1      48.903  37.338  30.010  1.00  0.00     0.124 S 
ATOM     71  O   UNL A   1      47.773  38.191  29.648  1.00  0.00    -0.237 OA
ATOM     72  O   UNL A   1      49.222  37.288  31.434  1.00  0.00    -0.237 OA
ATOM     73  O   UNL A   1      50.056  37.421  29.117  1.00  0.00    -0.744 OA
ENDBRANCH  69  70
ENDBRANCH  50  64
BRANCH  51  74
ATOM     74  C   UNL A   1      43.410  24.043  27.253  1.00  0.00    -0.014 A 
ATOM     75  C   UNL A   1      42.740  23.791  26.038  1.00  0.00     0.010 A 
ATOM     76  C   UNL A   1      43.503  22.995  28.189  1.00  0.00     0.010 A 
ATOM     77  C   UNL A   1      42.159  22.541  25.777  1.00  0.00     0.020 A 
ATOM     78  C   UNL A   1      42.949  21.734  27.920  1.00  0.00     0.020 A 
ATOM     79  C   UNL A   1      42.270  21.517  26.720  1.00  0.00     0.054 A 
BRANCH  79  80
ATOM     80  S   UNL A   1      41.543  19.892  26.343  1.00  0.00     0.124 S 
ATOM     81  O   UNL A   1      42.361  19.441  25.223  1.00  0.00    -0.237 OA
ATOM     82  O   UNL A   1      41.731  19.166  27.596  1.00  0.00    -0.237 OA
ATOM     83  O   UNL A   1      40.154  20.206  26.015  1.00  0.00    -0.744 OA
ENDBRANCH  79  80
ENDBRANCH  51  74
BRANCH  63  84
ATOM     84  C   UNL A   1      49.510  27.166  25.860  1.00  0.00    -0.014 A 
ATOM     85  C   UNL A   1      49.749  27.392  24.494  1.00  0.00     0.010 A 
ATOM     86  C   UNL A   1      50.518  26.570  26.644  1.00  0.00     0.010 A 
ATOM     87  C   UNL A   1      50.963  27.004  23.918  1.00  0.00     0.020 A 
ATOM     88  C   UNL A   1      51.744  26.216  26.081  1.00  0.00     0.020 A 
ATOM     89  C   UNL A   1      51.954  26.424  24.717  1.00  0.00     0.054 A 
BRANCH  89  90
ATOM     90  S   UNL A   1      53.538  25.981  23.956  1.00  0.00     0.124 S 
ATOM     91  O   UNL A   1      53.787  24.658  24.521  1.00  0.00    -0.237 OA
ATOM     92  O   UNL A   1      53.225  26.008  22.528  1.00  0.00    -0.237 OA
ATOM     93  O   UNL A   1      54.447  27.032  24.407  1.00  0.00    -0.744 OA
ENDBRANCH  89  90
ENDBRANCH  63  84
ENDBRANCH  37  38
ENDBRANCH  30  32
ENDBRANCH  29  30
ENDBRANCH   1  29
TORSDOF 17
ENDMDL
