MODEL 1
REMARK VINA RESULT:     -11.4      0.000      0.000
REMARK SMILES Cc1ccc2c(c1C)O[C@@H](C(=O)OCCOC(=O)c1ccc(-c3c4nc(c(-c5ccc(S(=O)(=O)[O-])cc5)c5ccc([nH]5)c(-c5ccc(S(=O)(=O)[O-])cc5)c5nc(c(-c6ccc(S(=O)(=O)[O-])cc6)c6ccc3[nH]6)C=C5)C=C4)cc1)CC2=O
REMARK SMILES IDX 16 1 15 2 14 3 13 4 11 5 12 6 10 7 1 8 2 9 3 10 7 11 4 12
REMARK SMILES IDX 6 13 8 14 5 15 9 16 80 17 79 18 81 19 17 20 18 21 19 22
REMARK SMILES IDX 20 23 78 24 21 25 77 26 22 27 23 28 24 29 71 30 25 31 76 32
REMARK SMILES IDX 70 33 72 34 26 35 75 36 69 37 68 38 27 40 57 41 38 42 56 43
REMARK SMILES IDX 39 44 42 45 55 46 73 47 40 48 41 49 54 51 74 52 43 53 28 54
REMARK SMILES IDX 29 55 37 56 30 57 36 58 31 59 32 60 33 61 34 62 35 63 58 64
REMARK SMILES IDX 59 65 67 66 60 67 66 68 61 69 62 70 63 71 64 72 65 73 44 74
REMARK SMILES IDX 45 75 53 76 46 77 52 78 47 79 48 80 49 81 50 82 51 83
REMARK H PARENT 72 39 42 50
REMARK Flexibility Score: inf
ROOT
ATOM      1  O   UNL A   1      35.698  30.575  27.887  1.00  0.00    -0.458 OA
ENDROOT
BRANCH   1   2
ATOM      2  C   UNL A   1      34.369  30.203  27.478  1.00  0.00     0.275 C 
BRANCH   2   3
ATOM      3  C   UNL A   1      33.399  31.375  27.623  1.00  0.00     0.274 C 
BRANCH   3   4
ATOM      4  O   UNL A   1      34.099  32.575  28.008  1.00  0.00    -0.459 OA
BRANCH   4   5
ATOM      5  C   UNL A   1      33.380  33.727  28.005  1.00  0.00     0.347 C 
ATOM      6  O   UNL A   1      32.180  33.797  27.762  1.00  0.00    -0.248 OA
BRANCH   5   7
ATOM      7  C   UNL A   1      34.243  34.967  28.290  1.00  0.00     0.290 C 
ATOM      8  C   UNL A   1      36.125  32.349  33.416  1.00  0.00     0.045 C 
ATOM      9  C   UNL A   1      35.371  33.316  32.547  1.00  0.00    -0.044 A 
ATOM     10  C   UNL A   1      34.269  33.997  33.097  1.00  0.00     0.005 A 
ATOM     11  C   UNL A   1      35.743  33.561  31.206  1.00  0.00    -0.005 A 
ATOM     12  C   UNL A   1      33.536  34.904  32.337  1.00  0.00     0.016 A 
ATOM     13  C   UNL A   1      34.976  34.460  30.444  1.00  0.00     0.134 A 
ATOM     14  C   UNL A   1      36.898  32.852  30.544  1.00  0.00     0.049 C 
ATOM     15  C   UNL A   1      33.893  35.134  31.012  1.00  0.00     0.060 A 
ATOM     16  O   UNL A   1      35.349  34.657  29.138  1.00  0.00    -0.477 OA
ATOM     17  C   UNL A   1      33.132  36.099  30.195  1.00  0.00     0.170 C 
ATOM     18  C   UNL A   1      33.514  36.218  28.748  1.00  0.00     0.138 C 
ATOM     19  O   UNL A   1      32.262  36.797  30.707  1.00  0.00    -0.294 OA
ENDBRANCH   5   7
ENDBRANCH   4   5
ENDBRANCH   3   4
ENDBRANCH   2   3
ENDBRANCH   1   2
BRANCH   1  20
ATOM     20  C   UNL A   1      36.196  29.861  28.921  1.00  0.00     0.338 C 
ATOM     21  O   UNL A   1      35.579  29.339  29.831  1.00  0.00    -0.246 OA
BRANCH  20  22
ATOM     22  C   UNL A   1      37.642  29.692  28.751  1.00  0.00     0.060 A 
ATOM     23  C   UNL A   1      38.163  29.653  27.455  1.00  0.00     0.016 A 
ATOM     24  C   UNL A   1      38.451  29.450  29.861  1.00  0.00     0.016 A 
ATOM     25  C   UNL A   1      39.504  29.339  27.260  1.00  0.00     0.010 A 
ATOM     26  C   UNL A   1      39.801  29.152  29.664  1.00  0.00     0.010 A 
ATOM     27  C   UNL A   1      40.326  29.074  28.362  1.00  0.00    -0.014 A 
BRANCH  27  28
ATOM     28  C   UNL A   1      41.731  28.665  28.149  1.00  0.00     0.031 A 
ATOM     29  C   UNL A   1      42.826  29.685  28.257  1.00  0.00     0.074 A 
ATOM     30  C   UNL A   1      42.016  27.378  27.885  1.00  0.00     0.049 A 
ATOM     31  N   UNL A   1      44.105  29.542  28.027  1.00  0.00    -0.248 NA
ATOM     32  C   UNL A   1      42.436  31.041  28.681  1.00  0.00     0.031 C 
ATOM     33  C   UNL A   1      41.036  26.291  27.818  1.00  0.00     0.029 A 
ATOM     34  N   UNL A   1      43.214  26.765  27.626  1.00  0.00    -0.354 N 
ATOM     35  C   UNL A   1      44.672  30.788  28.266  1.00  0.00     0.074 A 
ATOM     36  C   UNL A   1      43.599  31.678  28.650  1.00  0.00     0.031 C 
ATOM     37  C   UNL A   1      41.675  25.143  27.539  1.00  0.00     0.029 A 
ATOM     38  C   UNL A   1      43.099  25.421  27.367  1.00  0.00     0.049 A 
ATOM     39  H   UNL A   1      44.075  27.242  27.625  1.00  0.00     0.167 HD
ATOM     40  C   UNL A   1      45.972  31.151  28.172  1.00  0.00     0.031 A 
ATOM     41  C   UNL A   1      44.031  24.519  27.007  1.00  0.00     0.031 A 
ATOM     42  C   UNL A   1      47.033  30.261  27.791  1.00  0.00     0.049 A 
ATOM     43  C   UNL A   1      45.456  24.964  26.840  1.00  0.00     0.074 A 
ATOM     44  C   UNL A   1      48.381  30.541  27.654  1.00  0.00     0.029 A 
ATOM     45  N   UNL A   1      46.868  28.918  27.489  1.00  0.00    -0.354 N 
ATOM     46  N   UNL A   1      45.970  26.155  27.031  1.00  0.00    -0.248 NA
ATOM     47  C   UNL A   1      46.424  23.950  26.398  1.00  0.00     0.031 C 
ATOM     48  C   UNL A   1      49.028  29.372  27.239  1.00  0.00     0.029 A 
ATOM     49  C   UNL A   1      48.086  28.358  27.153  1.00  0.00     0.049 A 
ATOM     50  H   UNL A   1      46.009  28.436  27.510  1.00  0.00     0.167 HD
ATOM     51  C   UNL A   1      47.324  26.032  26.743  1.00  0.00     0.074 A 
ATOM     52  C   UNL A   1      47.551  24.651  26.373  1.00  0.00     0.031 C 
ATOM     53  C   UNL A   1      48.290  26.981  26.784  1.00  0.00     0.031 A 
BRANCH  40  54
ATOM     54  C   UNL A   1      46.321  32.582  28.466  1.00  0.00    -0.014 A 
ATOM     55  C   UNL A   1      46.271  33.557  27.455  1.00  0.00     0.010 A 
ATOM     56  C   UNL A   1      46.630  32.967  29.783  1.00  0.00     0.010 A 
ATOM     57  C   UNL A   1      46.534  34.896  27.757  1.00  0.00     0.020 A 
ATOM     58  C   UNL A   1      46.879  34.307  30.090  1.00  0.00     0.020 A 
ATOM     59  C   UNL A   1      46.831  35.263  29.073  1.00  0.00     0.054 A 
BRANCH  59  60
ATOM     60  S   UNL A   1      47.130  37.015  29.437  1.00  0.00     0.124 S 
ATOM     61  O   UNL A   1      45.971  37.656  28.821  1.00  0.00    -0.237 OA
ATOM     62  O   UNL A   1      47.157  37.035  30.896  1.00  0.00    -0.237 OA
ATOM     63  O   UNL A   1      48.408  37.294  28.786  1.00  0.00    -0.744 OA
ENDBRANCH  59  60
ENDBRANCH  40  54
BRANCH  41  64
ATOM     64  C   UNL A   1      43.629  23.112  26.756  1.00  0.00    -0.014 A 
ATOM     65  C   UNL A   1      44.038  22.453  25.584  1.00  0.00     0.010 A 
ATOM     66  C   UNL A   1      42.872  22.412  27.712  1.00  0.00     0.010 A 
ATOM     67  C   UNL A   1      43.702  21.112  25.377  1.00  0.00     0.020 A 
ATOM     68  C   UNL A   1      42.548  21.067  27.516  1.00  0.00     0.020 A 
ATOM     69  C   UNL A   1      42.966  20.426  26.348  1.00  0.00     0.054 A 
BRANCH  69  70
ATOM     70  S   UNL A   1      42.600  18.669  26.079  1.00  0.00     0.124 S 
ATOM     71  O   UNL A   1      42.934  18.084  27.374  1.00  0.00    -0.237 OA
ATOM     72  O   UNL A   1      41.178  18.697  25.745  1.00  0.00    -0.237 OA
ATOM     73  O   UNL A   1      43.485  18.297  24.977  1.00  0.00    -0.744 OA
ENDBRANCH  69  70
ENDBRANCH  41  64
BRANCH  53  74
ATOM     74  C   UNL A   1      49.689  26.566  26.434  1.00  0.00    -0.014 A 
ATOM     75  C   UNL A   1      50.465  25.826  27.341  1.00  0.00     0.010 A 
ATOM     76  C   UNL A   1      50.190  26.826  25.146  1.00  0.00     0.010 A 
ATOM     77  C   UNL A   1      51.724  25.352  26.965  1.00  0.00     0.020 A 
ATOM     78  C   UNL A   1      51.441  26.341  24.762  1.00  0.00     0.020 A 
ATOM     79  C   UNL A   1      52.200  25.605  25.675  1.00  0.00     0.054 A 
BRANCH  79  80
ATOM     80  S   UNL A   1      53.809  24.918  25.196  1.00  0.00     0.124 S 
ATOM     81  O   UNL A   1      53.519  23.489  25.108  1.00  0.00    -0.237 OA
ATOM     82  O   UNL A   1      54.071  25.586  23.924  1.00  0.00    -0.237 OA
ATOM     83  O   UNL A   1      54.694  25.304  26.292  1.00  0.00    -0.744 OA
ENDBRANCH  79  80
ENDBRANCH  53  74
ENDBRANCH  27  28
ENDBRANCH  20  22
ENDBRANCH   1  20
TORSDOF 14
ENDMDL
MODEL 2
REMARK VINA RESULT:     -11.2      4.272      6.476
REMARK SMILES Cc1ccc2c(c1C)O[C@@H](C(=O)OCCOC(=O)c1ccc(-c3c4nc(c(-c5ccc(S(=O)(=O)[O-])cc5)c5ccc([nH]5)c(-c5ccc(S(=O)(=O)[O-])cc5)c5nc(c(-c6ccc(S(=O)(=O)[O-])cc6)c6ccc3[nH]6)C=C5)C=C4)cc1)CC2=O
REMARK SMILES IDX 16 1 15 2 14 3 13 4 11 5 12 6 10 7 1 8 2 9 3 10 7 11 4 12
REMARK SMILES IDX 6 13 8 14 5 15 9 16 80 17 79 18 81 19 17 20 18 21 19 22
REMARK SMILES IDX 20 23 78 24 21 25 77 26 22 27 23 28 24 29 71 30 25 31 76 32
REMARK SMILES IDX 70 33 72 34 26 35 75 36 69 37 68 38 27 40 57 41 38 42 56 43
REMARK SMILES IDX 39 44 42 45 55 46 73 47 40 48 41 49 54 51 74 52 43 53 28 54
REMARK SMILES IDX 29 55 37 56 30 57 36 58 31 59 32 60 33 61 34 62 35 63 58 64
REMARK SMILES IDX 59 65 67 66 60 67 66 68 61 69 62 70 63 71 64 72 65 73 44 74
REMARK SMILES IDX 45 75 53 76 46 77 52 78 47 79 48 80 49 81 50 82 51 83
REMARK H PARENT 72 39 42 50
REMARK Flexibility Score: inf
ROOT
ATOM      1  O   UNL A   1      34.087  28.901  26.998  1.00  0.00    -0.458 OA
ENDROOT
BRANCH   1   2
ATOM      2  C   UNL A   1      32.744  28.478  27.294  1.00  0.00     0.275 C 
BRANCH   2   3
ATOM      3  C   UNL A   1      31.964  28.184  26.014  1.00  0.00     0.274 C 
BRANCH   3   4
ATOM      4  O   UNL A   1      32.436  26.973  25.391  1.00  0.00    -0.459 OA
BRANCH   4   5
ATOM      5  C   UNL A   1      31.665  25.866  25.549  1.00  0.00     0.347 C 
ATOM      6  O   UNL A   1      31.414  25.343  26.629  1.00  0.00    -0.248 OA
BRANCH   5   7
ATOM      7  C   UNL A   1      31.170  25.292  24.212  1.00  0.00     0.290 C 
ATOM      8  C   UNL A   1      34.793  20.510  25.036  1.00  0.00     0.045 C 
ATOM      9  C   UNL A   1      34.314  21.802  24.435  1.00  0.00    -0.044 A 
ATOM     10  C   UNL A   1      35.233  22.592  23.719  1.00  0.00     0.005 A 
ATOM     11  C   UNL A   1      32.976  22.236  24.565  1.00  0.00    -0.005 A 
ATOM     12  C   UNL A   1      34.844  23.798  23.141  1.00  0.00     0.016 A 
ATOM     13  C   UNL A   1      32.605  23.469  23.998  1.00  0.00     0.134 A 
ATOM     14  C   UNL A   1      31.943  21.453  25.337  1.00  0.00     0.049 C 
ATOM     15  C   UNL A   1      33.529  24.231  23.282  1.00  0.00     0.060 A 
ATOM     16  O   UNL A   1      31.304  23.872  24.164  1.00  0.00    -0.477 OA
ATOM     17  C   UNL A   1      33.098  25.502  22.669  1.00  0.00     0.170 C 
ATOM     18  C   UNL A   1      31.693  25.952  22.949  1.00  0.00     0.138 C 
ATOM     19  O   UNL A   1      33.854  26.123  21.927  1.00  0.00    -0.294 OA
ENDBRANCH   5   7
ENDBRANCH   4   5
ENDBRANCH   3   4
ENDBRANCH   2   3
ENDBRANCH   1   2
BRANCH   1  20
ATOM     20  C   UNL A   1      34.492  30.011  27.655  1.00  0.00     0.338 C 
ATOM     21  O   UNL A   1      33.822  30.980  27.962  1.00  0.00    -0.246 OA
BRANCH  20  22
ATOM     22  C   UNL A   1      35.890  29.856  28.067  1.00  0.00     0.060 A 
ATOM     23  C   UNL A   1      36.893  30.049  27.113  1.00  0.00     0.016 A 
ATOM     24  C   UNL A   1      36.193  29.402  29.350  1.00  0.00     0.016 A 
ATOM     25  C   UNL A   1      38.214  29.758  27.434  1.00  0.00     0.010 A 
ATOM     26  C   UNL A   1      37.523  29.127  29.675  1.00  0.00     0.010 A 
ATOM     27  C   UNL A   1      38.534  29.283  28.712  1.00  0.00    -0.014 A 
BRANCH  27  28
ATOM     28  C   UNL A   1      39.927  28.900  29.026  1.00  0.00     0.031 A 
ATOM     29  C   UNL A   1      40.834  29.886  29.703  1.00  0.00     0.074 A 
ATOM     30  C   UNL A   1      40.362  27.664  28.723  1.00  0.00     0.049 A 
ATOM     31  N   UNL A   1      42.104  29.770  29.988  1.00  0.00    -0.248 NA
ATOM     32  C   UNL A   1      40.236  31.167  30.118  1.00  0.00     0.031 C 
ATOM     33  C   UNL A   1      39.549  26.606  28.120  1.00  0.00     0.029 A 
ATOM     34  N   UNL A   1      41.596  27.089  28.885  1.00  0.00    -0.354 N 
ATOM     35  C   UNL A   1      42.463  30.963  30.604  1.00  0.00     0.074 A 
ATOM     36  C   UNL A   1      41.280  31.794  30.644  1.00  0.00     0.031 C 
ATOM     37  C   UNL A   1      40.307  25.508  27.965  1.00  0.00     0.029 A 
ATOM     38  C   UNL A   1      41.664  25.798  28.418  1.00  0.00     0.049 A 
ATOM     39  H   UNL A   1      42.359  27.555  29.295  1.00  0.00     0.167 HD
ATOM     40  C   UNL A   1      43.671  31.327  31.090  1.00  0.00     0.031 A 
ATOM     41  C   UNL A   1      42.710  24.953  28.342  1.00  0.00     0.031 A 
ATOM     42  C   UNL A   1      44.842  30.497  31.048  1.00  0.00     0.049 A 
ATOM     43  C   UNL A   1      44.058  25.408  28.823  1.00  0.00     0.074 A 
ATOM     44  C   UNL A   1      46.117  30.784  31.503  1.00  0.00     0.029 A 
ATOM     45  N   UNL A   1      44.882  29.214  30.523  1.00  0.00    -0.354 N 
ATOM     46  N   UNL A   1      44.389  26.555  29.368  1.00  0.00    -0.248 NA
ATOM     47  C   UNL A   1      45.173  24.464  28.672  1.00  0.00     0.031 C 
ATOM     48  C   UNL A   1      46.936  29.685  31.225  1.00  0.00     0.029 A 
ATOM     49  C   UNL A   1      46.162  28.701  30.630  1.00  0.00     0.049 A 
ATOM     50  H   UNL A   1      44.113  28.740  30.131  1.00  0.00     0.167 HD
ATOM     51  C   UNL A   1      45.750  26.467  29.632  1.00  0.00     0.074 A 
ATOM     52  C   UNL A   1      46.179  25.153  29.198  1.00  0.00     0.031 C 
ATOM     53  C   UNL A   1      46.568  27.393  30.188  1.00  0.00     0.031 A 
BRANCH  40  54
ATOM     54  C   UNL A   1      43.798  32.697  31.694  1.00  0.00    -0.014 A 
ATOM     55  C   UNL A   1      44.094  33.812  30.891  1.00  0.00     0.010 A 
ATOM     56  C   UNL A   1      43.545  32.879  33.065  1.00  0.00     0.010 A 
ATOM     57  C   UNL A   1      44.144  35.091  31.455  1.00  0.00     0.020 A 
ATOM     58  C   UNL A   1      43.580  34.157  33.628  1.00  0.00     0.020 A 
ATOM     59  C   UNL A   1      43.882  35.255  32.819  1.00  0.00     0.054 A 
BRANCH  59  60
ATOM     60  S   UNL A   1      43.918  36.932  33.510  1.00  0.00     0.124 S 
ATOM     61  O   UNL A   1      43.769  37.758  32.314  1.00  0.00    -0.237 OA
ATOM     62  O   UNL A   1      42.772  36.925  34.414  1.00  0.00    -0.237 OA
ATOM     63  O   UNL A   1      45.224  37.014  34.159  1.00  0.00    -0.744 OA
ENDBRANCH  59  60
ENDBRANCH  40  54
BRANCH  41  64
ATOM     64  C   UNL A   1      42.516  23.602  27.759  1.00  0.00    -0.014 A 
ATOM     65  C   UNL A   1      42.795  23.365  26.403  1.00  0.00     0.010 A 
ATOM     66  C   UNL A   1      42.094  22.535  28.572  1.00  0.00     0.010 A 
ATOM     67  C   UNL A   1      42.662  22.078  25.871  1.00  0.00     0.020 A 
ATOM     68  C   UNL A   1      41.977  21.245  28.048  1.00  0.00     0.020 A 
ATOM     69  C   UNL A   1      42.262  21.026  26.700  1.00  0.00     0.054 A 
BRANCH  69  70
ATOM     70  S   UNL A   1      42.160  19.356  25.995  1.00  0.00     0.124 S 
ATOM     71  O   UNL A   1      42.670  18.531  27.085  1.00  0.00    -0.237 OA
ATOM     72  O   UNL A   1      40.732  19.225  25.716  1.00  0.00    -0.237 OA
ATOM     73  O   UNL A   1      43.015  19.429  24.811  1.00  0.00    -0.744 OA
ENDBRANCH  69  70
ENDBRANCH  41  64
BRANCH  53  74
ATOM     74  C   UNL A   1      48.012  27.025  30.374  1.00  0.00    -0.014 A 
ATOM     75  C   UNL A   1      48.982  27.443  29.449  1.00  0.00     0.010 A 
ATOM     76  C   UNL A   1      48.411  26.347  31.539  1.00  0.00     0.010 A 
ATOM     77  C   UNL A   1      50.334  27.187  29.687  1.00  0.00     0.020 A 
ATOM     78  C   UNL A   1      49.764  26.104  31.788  1.00  0.00     0.020 A 
ATOM     79  C   UNL A   1      50.717  26.528  30.859  1.00  0.00     0.054 A 
BRANCH  79  80
ATOM     80  S   UNL A   1      52.486  26.272  31.171  1.00  0.00     0.124 S 
ATOM     81  O   UNL A   1      52.838  27.464  31.940  1.00  0.00    -0.237 OA
ATOM     82  O   UNL A   1      52.496  25.017  31.918  1.00  0.00    -0.237 OA
ATOM     83  O   UNL A   1      53.069  26.202  29.834  1.00  0.00    -0.744 OA
ENDBRANCH  79  80
ENDBRANCH  53  74
ENDBRANCH  27  28
ENDBRANCH  20  22
ENDBRANCH   1  20
TORSDOF 14
ENDMDL
MODEL 3
REMARK VINA RESULT:     -11.1      1.491      8.730
REMARK SMILES Cc1ccc2c(c1C)O[C@@H](C(=O)OCCOC(=O)c1ccc(-c3c4nc(c(-c5ccc(S(=O)(=O)[O-])cc5)c5ccc([nH]5)c(-c5ccc(S(=O)(=O)[O-])cc5)c5nc(c(-c6ccc(S(=O)(=O)[O-])cc6)c6ccc3[nH]6)C=C5)C=C4)cc1)CC2=O
REMARK SMILES IDX 16 1 15 2 14 3 13 4 11 5 12 6 10 7 1 8 2 9 3 10 7 11 4 12
REMARK SMILES IDX 6 13 8 14 5 15 9 16 80 17 79 18 81 19 17 20 18 21 19 22
REMARK SMILES IDX 20 23 78 24 21 25 77 26 22 27 23 28 24 29 71 30 25 31 76 32
REMARK SMILES IDX 70 33 72 34 26 35 75 36 69 37 68 38 27 40 57 41 38 42 56 43
REMARK SMILES IDX 39 44 42 45 55 46 73 47 40 48 41 49 54 51 74 52 43 53 28 54
REMARK SMILES IDX 29 55 37 56 30 57 36 58 31 59 32 60 33 61 34 62 35 63 58 64
REMARK SMILES IDX 59 65 67 66 60 67 66 68 61 69 62 70 63 71 64 72 65 73 44 74
REMARK SMILES IDX 45 75 53 76 46 77 52 78 47 79 48 80 49 81 50 82 51 83
REMARK H PARENT 72 39 42 50
REMARK Flexibility Score: inf
ROOT
ATOM      1  O   UNL A   1      35.954  30.833  29.658  1.00  0.00    -0.458 OA
ENDROOT
BRANCH   1   2
ATOM      2  C   UNL A   1      35.871  32.269  29.676  1.00  0.00     0.275 C 
BRANCH   2   3
ATOM      3  C   UNL A   1      34.420  32.736  29.784  1.00  0.00     0.274 C 
BRANCH   3   4
ATOM      4  O   UNL A   1      34.310  33.866  30.672  1.00  0.00    -0.459 OA
BRANCH   4   5
ATOM      5  C   UNL A   1      34.472  33.618  31.998  1.00  0.00     0.347 C 
ATOM      6  O   UNL A   1      34.102  32.595  32.563  1.00  0.00    -0.248 OA
BRANCH   5   7
ATOM      7  C   UNL A   1      35.132  34.789  32.744  1.00  0.00     0.290 C 
ATOM      8  C   UNL A   1      40.555  32.603  31.169  1.00  0.00     0.045 C 
ATOM      9  C   UNL A   1      39.401  32.933  32.073  1.00  0.00    -0.044 A 
ATOM     10  C   UNL A   1      39.292  32.253  33.300  1.00  0.00     0.005 A 
ATOM     11  C   UNL A   1      38.435  33.904  31.727  1.00  0.00    -0.005 A 
ATOM     12  C   UNL A   1      38.244  32.520  34.177  1.00  0.00     0.016 A 
ATOM     13  C   UNL A   1      37.367  34.143  32.611  1.00  0.00     0.134 A 
ATOM     14  C   UNL A   1      38.475  34.656  30.419  1.00  0.00     0.049 C 
ATOM     15  C   UNL A   1      37.284  33.466  33.829  1.00  0.00     0.060 A 
ATOM     16  O   UNL A   1      36.433  35.075  32.233  1.00  0.00    -0.477 OA
ATOM     17  C   UNL A   1      36.171  33.767  34.749  1.00  0.00     0.170 C 
ATOM     18  C   UNL A   1      35.122  34.725  34.261  1.00  0.00     0.138 C 
ATOM     19  O   UNL A   1      36.149  33.283  35.877  1.00  0.00    -0.294 OA
ENDBRANCH   5   7
ENDBRANCH   4   5
ENDBRANCH   3   4
ENDBRANCH   2   3
ENDBRANCH   1   2
BRANCH   1  20
ATOM     20  C   UNL A   1      36.698  30.294  30.649  1.00  0.00     0.338 C 
ATOM     21  O   UNL A   1      36.390  30.152  31.818  1.00  0.00    -0.246 OA
BRANCH  20  22
ATOM     22  C   UNL A   1      37.954  29.778  30.097  1.00  0.00     0.060 A 
ATOM     23  C   UNL A   1      38.940  29.331  30.980  1.00  0.00     0.016 A 
ATOM     24  C   UNL A   1      38.197  29.856  28.725  1.00  0.00     0.016 A 
ATOM     25  C   UNL A   1      40.196  28.984  30.494  1.00  0.00     0.010 A 
ATOM     26  C   UNL A   1      39.453  29.491  28.238  1.00  0.00     0.010 A 
ATOM     27  C   UNL A   1      40.463  29.075  29.123  1.00  0.00    -0.014 A 
BRANCH  27  28
ATOM     28  C   UNL A   1      41.821  28.780  28.618  1.00  0.00     0.031 A 
ATOM     29  C   UNL A   1      42.163  27.387  28.176  1.00  0.00     0.074 A 
ATOM     30  C   UNL A   1      42.729  29.768  28.537  1.00  0.00     0.049 A 
ATOM     31  N   UNL A   1      43.315  26.912  27.780  1.00  0.00    -0.248 NA
ATOM     32  C   UNL A   1      41.070  26.400  28.173  1.00  0.00     0.031 C 
ATOM     33  C   UNL A   1      42.486  31.170  28.882  1.00  0.00     0.029 A 
ATOM     34  N   UNL A   1      44.040  29.744  28.136  1.00  0.00    -0.354 N 
ATOM     35  C   UNL A   1      43.091  25.571  27.493  1.00  0.00     0.074 A 
ATOM     36  C   UNL A   1      41.697  25.304  27.767  1.00  0.00     0.031 C 
ATOM     37  C   UNL A   1      43.612  31.873  28.674  1.00  0.00     0.029 A 
ATOM     38  C   UNL A   1      44.664  30.965  28.223  1.00  0.00     0.049 A 
ATOM     39  H   UNL A   1      44.492  28.929  27.817  1.00  0.00     0.167 HD
ATOM     40  C   UNL A   1      43.973  24.651  27.042  1.00  0.00     0.031 A 
ATOM     41  C   UNL A   1      45.944  31.308  27.990  1.00  0.00     0.031 A 
ATOM     42  C   UNL A   1      45.357  24.923  26.771  1.00  0.00     0.049 A 
ATOM     43  C   UNL A   1      46.920  30.252  27.559  1.00  0.00     0.074 A 
ATOM     44  C   UNL A   1      46.333  24.050  26.324  1.00  0.00     0.029 A 
ATOM     45  N   UNL A   1      45.962  26.162  26.919  1.00  0.00    -0.354 N 
ATOM     46  N   UNL A   1      46.702  28.979  27.329  1.00  0.00    -0.248 NA
ATOM     47  C   UNL A   1      48.315  30.671  27.365  1.00  0.00     0.031 C 
ATOM     48  C   UNL A   1      47.538  24.756  26.230  1.00  0.00     0.029 A 
ATOM     49  C   UNL A   1      47.300  26.075  26.584  1.00  0.00     0.049 A 
ATOM     50  H   UNL A   1      45.505  26.982  27.217  1.00  0.00     0.167 HD
ATOM     51  C   UNL A   1      47.929  28.447  26.955  1.00  0.00     0.074 A 
ATOM     52  C   UNL A   1      48.885  29.535  26.979  1.00  0.00     0.031 C 
ATOM     53  C   UNL A   1      48.234  27.170  26.619  1.00  0.00     0.031 A 
BRANCH  40  54
ATOM     54  C   UNL A   1      43.475  23.250  26.831  1.00  0.00    -0.014 A 
ATOM     55  C   UNL A   1      43.397  22.701  25.540  1.00  0.00     0.010 A 
ATOM     56  C   UNL A   1      43.153  22.450  27.943  1.00  0.00     0.010 A 
ATOM     57  C   UNL A   1      42.995  21.373  25.363  1.00  0.00     0.020 A 
ATOM     58  C   UNL A   1      42.765  21.119  27.770  1.00  0.00     0.020 A 
ATOM     59  C   UNL A   1      42.687  20.590  26.480  1.00  0.00     0.054 A 
BRANCH  59  60
ATOM     60  S   UNL A   1      42.205  18.860  26.217  1.00  0.00     0.124 S 
ATOM     61  O   UNL A   1      43.182  18.420  25.224  1.00  0.00    -0.237 OA
ATOM     62  O   UNL A   1      42.360  18.284  27.549  1.00  0.00    -0.237 OA
ATOM     63  O   UNL A   1      40.830  18.951  25.733  1.00  0.00    -0.744 OA
ENDBRANCH  59  60
ENDBRANCH  40  54
BRANCH  41  64
ATOM     64  C   UNL A   1      46.371  32.716  28.191  1.00  0.00    -0.014 A 
ATOM     65  C   UNL A   1      46.861  33.140  29.437  1.00  0.00     0.010 A 
ATOM     66  C   UNL A   1      46.333  33.626  27.119  1.00  0.00     0.010 A 
ATOM     67  C   UNL A   1      47.312  34.453  29.607  1.00  0.00     0.020 A 
ATOM     68  C   UNL A   1      46.798  34.934  27.280  1.00  0.00     0.020 A 
ATOM     69  C   UNL A   1      47.285  35.338  28.524  1.00  0.00     0.054 A 
BRANCH  69  70
ATOM     70  S   UNL A   1      47.937  37.016  28.759  1.00  0.00     0.124 S 
ATOM     71  O   UNL A   1      47.630  37.270  30.163  1.00  0.00    -0.237 OA
ATOM     72  O   UNL A   1      49.352  36.845  28.440  1.00  0.00    -0.237 OA
ATOM     73  O   UNL A   1      47.181  37.816  27.797  1.00  0.00    -0.744 OA
ENDBRANCH  69  70
ENDBRANCH  41  64
BRANCH  53  74
ATOM     74  C   UNL A   1      49.655  26.871  26.237  1.00  0.00    -0.014 A 
ATOM     75  C   UNL A   1      50.555  26.348  27.180  1.00  0.00     0.010 A 
ATOM     76  C   UNL A   1      50.060  27.015  24.899  1.00  0.00     0.010 A 
ATOM     77  C   UNL A   1      51.842  25.973  26.789  1.00  0.00     0.020 A 
ATOM     78  C   UNL A   1      51.341  26.626  24.501  1.00  0.00     0.020 A 
ATOM     79  C   UNL A   1      52.224  26.106  25.450  1.00  0.00     0.054 A 
BRANCH  79  80
ATOM     80  S   UNL A   1      53.878  25.546  24.961  1.00  0.00     0.124 S 
ATOM     81  O   UNL A   1      54.711  26.070  26.041  1.00  0.00    -0.237 OA
ATOM     82  O   UNL A   1      53.725  24.094  24.934  1.00  0.00    -0.237 OA
ATOM     83  O   UNL A   1      54.088  26.172  23.658  1.00  0.00    -0.744 OA
ENDBRANCH  79  80
ENDBRANCH  53  74
ENDBRANCH  27  28
ENDBRANCH  20  22
ENDBRANCH   1  20
TORSDOF 14
ENDMDL
