MODEL 1
REMARK VINA RESULT:     -10.6      0.000      0.000
REMARK SMILES O=C(OCCOC(=O)[C@@H]1C=C[C@H](NC(=O)c2ccc(Cl)cc2[N+](=O)[O-])C1)c1ccc(-c2c3nc(c(-c4ccc(S(=O)(=O)[O-])cc4)c4ccc([nH]4)c(-c4ccc(S(=O)(=O)[O-])cc4)c4nc(c(-c5ccc(S(=O)(=O)[O-])cc5)c5ccc2[nH]5)C=C4)C=C3)cc1
REMARK SMILES IDX 4 1 3 2 2 3 1 4 27 5 28 6 86 7 29 8 85 9 30 10 31 11 32 12
REMARK SMILES IDX 79 13 33 14 84 15 78 16 80 17 34 18 83 19 77 20 76 21 35 23
REMARK SMILES IDX 65 24 46 25 64 26 47 27 50 28 63 29 81 30 48 31 49 32 62 34
REMARK SMILES IDX 82 35 51 36 36 37 37 38 45 39 38 40 44 41 39 42 40 43 41 44
REMARK SMILES IDX 42 45 43 46 66 47 67 48 75 49 68 50 74 51 69 52 70 53 71 54
REMARK SMILES IDX 72 55 73 56 52 57 53 58 61 59 54 60 60 61 55 62 56 63 57 64
REMARK SMILES IDX 58 65 59 66 5 67 6 68 7 69 8 70 9 71 10 72 26 73 11 74 12 75
REMARK SMILES IDX 13 76 14 77 15 79 16 80 17 81 22 82 18 83 21 84 19 85 20 86
REMARK SMILES IDX 23 87 24 88 25 89
REMARK H PARENT 80 22 50 33 13 78
REMARK Flexibility Score: inf
ROOT
ATOM      1  C   UNL A   1      34.905  30.572  27.982  1.00  0.00     0.275 C 
ENDROOT
BRANCH   1   2
ATOM      2  O   UNL A   1      36.102  29.804  27.768  1.00  0.00    -0.458 OA
BRANCH   2   3
ATOM      3  C   UNL A   1      37.097  29.470  28.622  1.00  0.00     0.338 C 
ATOM      4  O   UNL A   1      36.819  29.398  29.821  1.00  0.00    -0.246 OA
BRANCH   3   5
ATOM      5  C   UNL A   1      38.535  29.254  28.237  1.00  0.00     0.060 A 
ATOM      6  C   UNL A   1      39.059  29.149  26.942  1.00  0.00     0.016 A 
ATOM      7  C   UNL A   1      39.446  29.153  29.308  1.00  0.00     0.016 A 
ATOM      8  C   UNL A   1      40.448  29.018  26.715  1.00  0.00     0.010 A 
ATOM      9  C   UNL A   1      40.825  29.043  29.087  1.00  0.00     0.010 A 
ATOM     10  C   UNL A   1      41.346  28.974  27.784  1.00  0.00    -0.014 A 
BRANCH  10  11
ATOM     11  C   UNL A   1      42.808  28.725  27.625  1.00  0.00     0.031 A 
ATOM     12  C   UNL A   1      43.725  29.906  27.570  1.00  0.00     0.074 A 
ATOM     13  C   UNL A   1      43.324  27.496  27.420  1.00  0.00     0.049 A 
ATOM     14  N   UNL A   1      45.011  29.923  27.353  1.00  0.00    -0.248 NA
ATOM     15  C   UNL A   1      43.132  31.228  27.838  1.00  0.00     0.031 C 
ATOM     16  C   UNL A   1      42.615  26.247  27.611  1.00  0.00     0.029 A 
ATOM     17  N   UNL A   1      44.550  27.086  26.953  1.00  0.00    -0.354 N 
ATOM     18  C   UNL A   1      45.394  31.241  27.531  1.00  0.00     0.074 A 
ATOM     19  C   UNL A   1      44.194  32.015  27.759  1.00  0.00     0.031 C 
ATOM     20  C   UNL A   1      43.312  25.229  27.079  1.00  0.00     0.029 A 
ATOM     21  C   UNL A   1      44.579  25.751  26.597  1.00  0.00     0.049 A 
ATOM     22  H   UNL A   1      45.329  27.683  26.879  1.00  0.00     0.167 HD
ATOM     23  C   UNL A   1      46.647  31.742  27.574  1.00  0.00     0.031 A 
ATOM     24  C   UNL A   1      45.529  25.023  25.978  1.00  0.00     0.031 A 
ATOM     25  C   UNL A   1      47.829  30.963  27.339  1.00  0.00     0.049 A 
ATOM     26  C   UNL A   1      46.882  25.649  25.812  1.00  0.00     0.074 A 
ATOM     27  C   UNL A   1      49.151  31.352  27.437  1.00  0.00     0.029 A 
ATOM     28  N   UNL A   1      47.826  29.638  26.928  1.00  0.00    -0.354 N 
ATOM     29  N   UNL A   1      47.254  26.864  26.134  1.00  0.00    -0.248 NA
ATOM     30  C   UNL A   1      47.961  24.797  25.301  1.00  0.00     0.031 C 
ATOM     31  C   UNL A   1      49.948  30.279  27.022  1.00  0.00     0.029 A 
ATOM     32  C   UNL A   1      49.122  29.211  26.704  1.00  0.00     0.049 A 
ATOM     33  H   UNL A   1      47.021  29.084  26.813  1.00  0.00     0.167 HD
ATOM     34  C   UNL A   1      48.627  26.897  25.949  1.00  0.00     0.074 A 
ATOM     35  C   UNL A   1      49.014  25.591  25.451  1.00  0.00     0.031 C 
ATOM     36  C   UNL A   1      49.490  27.909  26.207  1.00  0.00     0.031 A 
BRANCH  23  37
ATOM     37  C   UNL A   1      46.777  33.193  27.921  1.00  0.00    -0.014 A 
ATOM     38  C   UNL A   1      46.805  34.166  26.904  1.00  0.00     0.010 A 
ATOM     39  C   UNL A   1      46.882  33.590  29.262  1.00  0.00     0.010 A 
ATOM     40  C   UNL A   1      46.975  35.514  27.223  1.00  0.00     0.020 A 
ATOM     41  C   UNL A   1      47.034  34.940  29.587  1.00  0.00     0.020 A 
ATOM     42  C   UNL A   1      47.093  35.890  28.564  1.00  0.00     0.054 A 
BRANCH  42  43
ATOM     43  S   UNL A   1      47.300  37.649  28.952  1.00  0.00     0.124 S 
ATOM     44  O   UNL A   1      46.389  38.276  27.998  1.00  0.00    -0.237 OA
ATOM     45  O   UNL A   1      46.888  37.718  30.352  1.00  0.00    -0.237 OA
ATOM     46  O   UNL A   1      48.720  37.891  28.711  1.00  0.00    -0.744 OA
ENDBRANCH  42  43
ENDBRANCH  23  37
BRANCH  24  47
ATOM     47  C   UNL A   1      45.266  23.626  25.528  1.00  0.00    -0.014 A 
ATOM     48  C   UNL A   1      45.505  22.528  26.370  1.00  0.00     0.010 A 
ATOM     49  C   UNL A   1      44.812  23.389  24.216  1.00  0.00     0.010 A 
ATOM     50  C   UNL A   1      45.333  21.220  25.901  1.00  0.00     0.020 A 
ATOM     51  C   UNL A   1      44.626  22.083  23.746  1.00  0.00     0.020 A 
ATOM     52  C   UNL A   1      44.902  21.005  24.588  1.00  0.00     0.054 A 
BRANCH  52  53
ATOM     53  S   UNL A   1      44.678  19.299  24.004  1.00  0.00     0.124 S 
ATOM     54  O   UNL A   1      44.558  19.483  22.562  1.00  0.00    -0.237 OA
ATOM     55  O   UNL A   1      45.902  18.647  24.463  1.00  0.00    -0.237 OA
ATOM     56  O   UNL A   1      43.461  18.865  24.687  1.00  0.00    -0.744 OA
ENDBRANCH  52  53
ENDBRANCH  24  47
BRANCH  36  57
ATOM     57  C   UNL A   1      50.947  27.643  25.973  1.00  0.00    -0.014 A 
ATOM     58  C   UNL A   1      51.531  27.905  24.723  1.00  0.00     0.010 A 
ATOM     59  C   UNL A   1      51.753  27.205  27.039  1.00  0.00     0.010 A 
ATOM     60  C   UNL A   1      52.901  27.727  24.540  1.00  0.00     0.020 A 
ATOM     61  C   UNL A   1      53.129  27.052  26.866  1.00  0.00     0.020 A 
ATOM     62  C   UNL A   1      53.693  27.309  25.614  1.00  0.00     0.054 A 
BRANCH  62  63
ATOM     63  S   UNL A   1      55.484  27.177  25.374  1.00  0.00     0.124 S 
ATOM     64  O   UNL A   1      55.856  26.202  26.395  1.00  0.00    -0.237 OA
ATOM     65  O   UNL A   1      55.589  26.711  23.992  1.00  0.00    -0.237 OA
ATOM     66  O   UNL A   1      55.966  28.537  25.603  1.00  0.00    -0.744 OA
ENDBRANCH  62  63
ENDBRANCH  36  57
ENDBRANCH  10  11
ENDBRANCH   3   5
ENDBRANCH   2   3
ENDBRANCH   1   2
BRANCH   1  67
ATOM     67  C   UNL A   1      33.805  30.346  26.948  1.00  0.00     0.274 C 
BRANCH  67  68
ATOM     68  O   UNL A   1      33.856  29.016  26.424  1.00  0.00    -0.462 OA
BRANCH  68  69
ATOM     69  C   UNL A   1      33.099  28.753  25.322  1.00  0.00     0.312 C 
ATOM     70  O   UNL A   1      33.452  28.962  24.167  1.00  0.00    -0.252 OA
BRANCH  69  71
ATOM     71  C   UNL A   1      31.773  28.098  25.719  1.00  0.00     0.124 C 
ATOM     72  C   UNL A   1      31.972  27.058  26.781  1.00  0.00    -0.014 C 
ATOM     73  C   UNL A   1      31.171  27.218  24.619  1.00  0.00     0.048 C 
ATOM     74  C   UNL A   1      32.005  25.834  26.241  1.00  0.00    -0.006 C 
ATOM     75  C   UNL A   1      31.865  25.867  24.761  1.00  0.00     0.106 C 
BRANCH  75  76
ATOM     76  N   UNL A   1      33.130  25.912  24.017  1.00  0.00    -0.346 N 
ATOM     77  C   UNL A   1      33.531  25.196  22.915  1.00  0.00     0.258 C 
ATOM     78  H   UNL A   1      33.794  26.553  24.361  1.00  0.00     0.164 HD
ATOM     79  O   UNL A   1      34.061  25.711  21.939  1.00  0.00    -0.269 OA
BRANCH  77  80
ATOM     80  C   UNL A   1      33.520  23.745  23.063  1.00  0.00     0.117 A 
ATOM     81  C   UNL A   1      32.487  23.042  22.435  1.00  0.00     0.022 A 
ATOM     82  C   UNL A   1      34.344  23.125  24.012  1.00  0.00     0.283 A 
ATOM     83  C   UNL A   1      32.170  21.763  22.892  1.00  0.00     0.022 A 
ATOM     84  C   UNL A   1      34.009  21.850  24.477  1.00  0.00     0.107 A 
ATOM     85  C   UNL A   1      32.898  21.199  23.943  1.00  0.00     0.047 A 
ATOM     86  Cl  UNL A   1      32.394  19.703  24.626  1.00  0.00    -0.084 Cl
BRANCH  82  87
ATOM     87  N   UNL A   1      35.571  23.750  24.529  1.00  0.00     0.063 N 
ATOM     88  O   UNL A   1      35.473  24.414  25.573  1.00  0.00    -0.258 OA
ATOM     89  O   UNL A   1      36.646  23.576  23.942  1.00  0.00    -0.258 OA
ENDBRANCH  82  87
ENDBRANCH  77  80
ENDBRANCH  75  76
ENDBRANCH  69  71
ENDBRANCH  68  69
ENDBRANCH  67  68
ENDBRANCH   1  67
TORSDOF 17
ENDMDL
MODEL 2
REMARK VINA RESULT:     -10.6      3.295      4.139
REMARK SMILES O=C(OCCOC(=O)[C@@H]1C=C[C@H](NC(=O)c2ccc(Cl)cc2[N+](=O)[O-])C1)c1ccc(-c2c3nc(c(-c4ccc(S(=O)(=O)[O-])cc4)c4ccc([nH]4)c(-c4ccc(S(=O)(=O)[O-])cc4)c4nc(c(-c5ccc(S(=O)(=O)[O-])cc5)c5ccc2[nH]5)C=C4)C=C3)cc1
REMARK SMILES IDX 4 1 3 2 2 3 1 4 27 5 28 6 86 7 29 8 85 9 30 10 31 11 32 12
REMARK SMILES IDX 79 13 33 14 84 15 78 16 80 17 34 18 83 19 77 20 76 21 35 23
REMARK SMILES IDX 65 24 46 25 64 26 47 27 50 28 63 29 81 30 48 31 49 32 62 34
REMARK SMILES IDX 82 35 51 36 36 37 37 38 45 39 38 40 44 41 39 42 40 43 41 44
REMARK SMILES IDX 42 45 43 46 66 47 67 48 75 49 68 50 74 51 69 52 70 53 71 54
REMARK SMILES IDX 72 55 73 56 52 57 53 58 61 59 54 60 60 61 55 62 56 63 57 64
REMARK SMILES IDX 58 65 59 66 5 67 6 68 7 69 8 70 9 71 10 72 26 73 11 74 12 75
REMARK SMILES IDX 13 76 14 77 15 79 16 80 17 81 22 82 18 83 21 84 19 85 20 86
REMARK SMILES IDX 23 87 24 88 25 89
REMARK H PARENT 80 22 50 33 13 78
REMARK Flexibility Score: inf
ROOT
ATOM      1  C   UNL A   1      32.208  29.799  27.139  1.00  0.00     0.275 C 
ENDROOT
BRANCH   1   2
ATOM      2  O   UNL A   1      33.606  29.573  27.392  1.00  0.00    -0.458 OA
BRANCH   2   3
ATOM      3  C   UNL A   1      34.574  30.424  27.804  1.00  0.00     0.338 C 
ATOM      4  O   UNL A   1      34.361  31.632  27.683  1.00  0.00    -0.246 OA
BRANCH   3   5
ATOM      5  C   UNL A   1      35.924  30.014  28.329  1.00  0.00     0.060 A 
ATOM      6  C   UNL A   1      36.262  29.714  29.655  1.00  0.00     0.016 A 
ATOM      7  C   UNL A   1      36.950  29.920  27.367  1.00  0.00     0.016 A 
ATOM      8  C   UNL A   1      37.557  29.270  30.004  1.00  0.00     0.010 A 
ATOM      9  C   UNL A   1      38.230  29.461  27.706  1.00  0.00     0.010 A 
ATOM     10  C   UNL A   1      38.551  29.129  29.033  1.00  0.00    -0.014 A 
BRANCH  10  11
ATOM     11  C   UNL A   1      39.966  28.774  29.344  1.00  0.00     0.031 A 
ATOM     12  C   UNL A   1      40.910  29.878  29.703  1.00  0.00     0.074 A 
ATOM     13  C   UNL A   1      40.454  27.524  29.212  1.00  0.00     0.049 A 
ATOM     14  N   UNL A   1      42.193  29.805  29.926  1.00  0.00    -0.248 NA
ATOM     15  C   UNL A   1      40.335  31.222  29.878  1.00  0.00     0.031 C 
ATOM     16  C   UNL A   1      39.655  26.327  29.043  1.00  0.00     0.029 A 
ATOM     17  N   UNL A   1      41.741  27.047  29.142  1.00  0.00    -0.354 N 
ATOM     18  C   UNL A   1      42.565  31.072  30.340  1.00  0.00     0.074 A 
ATOM     19  C   UNL A   1      41.402  31.924  30.227  1.00  0.00     0.031 C 
ATOM     20  C   UNL A   1      40.434  25.293  28.683  1.00  0.00     0.029 A 
ATOM     21  C   UNL A   1      41.816  25.742  28.696  1.00  0.00     0.049 A 
ATOM     22  H   UNL A   1      42.531  27.583  29.384  1.00  0.00     0.167 HD
ATOM     23  C   UNL A   1      43.756  31.466  30.840  1.00  0.00     0.031 A 
ATOM     24  C   UNL A   1      42.878  24.982  28.363  1.00  0.00     0.031 A 
ATOM     25  C   UNL A   1      44.904  30.611  30.939  1.00  0.00     0.049 A 
ATOM     26  C   UNL A   1      44.239  25.506  28.712  1.00  0.00     0.074 A 
ATOM     27  C   UNL A   1      46.134  30.883  31.504  1.00  0.00     0.029 A 
ATOM     28  N   UNL A   1      44.968  29.321  30.433  1.00  0.00    -0.354 N 
ATOM     29  N   UNL A   1      44.547  26.662  29.247  1.00  0.00    -0.248 NA
ATOM     30  C   UNL A   1      45.380  24.605  28.512  1.00  0.00     0.031 C 
ATOM     31  C   UNL A   1      46.966  29.779  31.282  1.00  0.00     0.029 A 
ATOM     32  C   UNL A   1      46.238  28.806  30.613  1.00  0.00     0.049 A 
ATOM     33  H   UNL A   1      44.219  28.843  30.009  1.00  0.00     0.167 HD
ATOM     34  C   UNL A   1      45.902  26.596  29.531  1.00  0.00     0.074 A 
ATOM     35  C   UNL A   1      46.362  25.299  29.073  1.00  0.00     0.031 C 
ATOM     36  C   UNL A   1      46.681  27.514  30.150  1.00  0.00     0.031 A 
BRANCH  23  37
ATOM     37  C   UNL A   1      43.840  32.875  31.339  1.00  0.00    -0.014 A 
ATOM     38  C   UNL A   1      43.504  33.177  32.673  1.00  0.00     0.010 A 
ATOM     39  C   UNL A   1      44.242  33.905  30.476  1.00  0.00     0.010 A 
ATOM     40  C   UNL A   1      43.535  34.497  33.125  1.00  0.00     0.020 A 
ATOM     41  C   UNL A   1      44.291  35.225  30.930  1.00  0.00     0.020 A 
ATOM     42  C   UNL A   1      43.924  35.513  32.247  1.00  0.00     0.054 A 
BRANCH  42  43
ATOM     43  S   UNL A   1      43.968  37.216  32.864  1.00  0.00     0.124 S 
ATOM     44  O   UNL A   1      42.835  37.232  33.785  1.00  0.00    -0.237 OA
ATOM     45  O   UNL A   1      45.286  37.298  33.488  1.00  0.00    -0.237 OA
ATOM     46  O   UNL A   1      43.803  38.025  31.659  1.00  0.00    -0.744 OA
ENDBRANCH  42  43
ENDBRANCH  23  37
BRANCH  24  47
ATOM     47  C   UNL A   1      42.707  23.644  27.727  1.00  0.00    -0.014 A 
ATOM     48  C   UNL A   1      42.436  22.498  28.493  1.00  0.00     0.010 A 
ATOM     49  C   UNL A   1      42.864  23.508  26.334  1.00  0.00     0.010 A 
ATOM     50  C   UNL A   1      42.362  21.238  27.887  1.00  0.00     0.020 A 
ATOM     51  C   UNL A   1      42.779  22.251  25.722  1.00  0.00     0.020 A 
ATOM     52  C   UNL A   1      42.542  21.121  26.506  1.00  0.00     0.054 A 
BRANCH  52  53
ATOM     53  S   UNL A   1      42.435  19.477  25.741  1.00  0.00     0.124 S 
ATOM     54  O   UNL A   1      43.404  19.581  24.655  1.00  0.00    -0.237 OA
ATOM     55  O   UNL A   1      42.807  18.593  26.842  1.00  0.00    -0.237 OA
ATOM     56  O   UNL A   1      41.036  19.386  25.330  1.00  0.00    -0.744 OA
ENDBRANCH  52  53
ENDBRANCH  24  47
BRANCH  36  57
ATOM     57  C   UNL A   1      48.115  27.147  30.388  1.00  0.00    -0.014 A 
ATOM     58  C   UNL A   1      49.119  27.572  29.503  1.00  0.00     0.010 A 
ATOM     59  C   UNL A   1      48.467  26.441  31.553  1.00  0.00     0.010 A 
ATOM     60  C   UNL A   1      50.457  27.290  29.776  1.00  0.00     0.020 A 
ATOM     61  C   UNL A   1      49.807  26.182  31.842  1.00  0.00     0.020 A 
ATOM     62  C   UNL A   1      50.794  26.604  30.947  1.00  0.00     0.054 A 
BRANCH  62  63
ATOM     63  S   UNL A   1      52.546  26.335  31.324  1.00  0.00     0.124 S 
ATOM     64  O   UNL A   1      52.888  27.550  32.057  1.00  0.00    -0.237 OA
ATOM     65  O   UNL A   1      52.518  25.108  32.117  1.00  0.00    -0.237 OA
ATOM     66  O   UNL A   1      53.167  26.203  30.008  1.00  0.00    -0.744 OA
ENDBRANCH  62  63
ENDBRANCH  36  57
ENDBRANCH  10  11
ENDBRANCH   3   5
ENDBRANCH   2   3
ENDBRANCH   1   2
BRANCH   1  67
ATOM     67  C   UNL A   1      31.783  29.615  25.685  1.00  0.00     0.274 C 
BRANCH  67  68
ATOM     68  O   UNL A   1      32.416  28.473  25.102  1.00  0.00    -0.462 OA
BRANCH  68  69
ATOM     69  C   UNL A   1      31.649  27.673  24.309  1.00  0.00     0.312 C 
ATOM     70  O   UNL A   1      31.725  27.624  23.087  1.00  0.00    -0.252 OA
BRANCH  69  71
ATOM     71  C   UNL A   1      30.726  26.795  25.158  1.00  0.00     0.124 C 
ATOM     72  C   UNL A   1      31.491  26.054  26.212  1.00  0.00    -0.014 C 
ATOM     73  C   UNL A   1      30.141  25.603  24.392  1.00  0.00     0.048 C 
ATOM     74  C   UNL A   1      31.738  24.798  25.820  1.00  0.00    -0.006 C 
ATOM     75  C   UNL A   1      31.212  24.519  24.458  1.00  0.00     0.106 C 
BRANCH  75  76
ATOM     76  N   UNL A   1      32.167  24.738  23.365  1.00  0.00    -0.346 N 
ATOM     77  C   UNL A   1      33.058  23.868  22.784  1.00  0.00     0.258 C 
ATOM     78  H   UNL A   1      32.169  25.648  22.989  1.00  0.00     0.164 HD
ATOM     79  O   UNL A   1      33.185  23.749  21.573  1.00  0.00    -0.269 OA
BRANCH  77  80
ATOM     80  C   UNL A   1      34.032  23.263  23.686  1.00  0.00     0.117 A 
ATOM     81  C   UNL A   1      35.230  23.953  23.895  1.00  0.00     0.022 A 
ATOM     82  C   UNL A   1      33.881  21.933  24.099  1.00  0.00     0.283 A 
ATOM     83  C   UNL A   1      36.340  23.246  24.360  1.00  0.00     0.022 A 
ATOM     84  C   UNL A   1      35.002  21.227  24.549  1.00  0.00     0.107 A 
ATOM     85  C   UNL A   1      36.231  21.880  24.632  1.00  0.00     0.047 A 
ATOM     86  Cl  UNL A   1      37.636  20.973  25.031  1.00  0.00    -0.084 Cl
BRANCH  82  87
ATOM     87  N   UNL A   1      32.581  21.244  24.105  1.00  0.00     0.063 N 
ATOM     88  O   UNL A   1      32.199  20.746  23.035  1.00  0.00    -0.258 OA
ATOM     89  O   UNL A   1      31.937  21.154  25.157  1.00  0.00    -0.258 OA
ENDBRANCH  82  87
ENDBRANCH  77  80
ENDBRANCH  75  76
ENDBRANCH  69  71
ENDBRANCH  68  69
ENDBRANCH  67  68
ENDBRANCH   1  67
TORSDOF 17
ENDMDL
MODEL 3
REMARK VINA RESULT:     -10.6      2.823      7.918
REMARK SMILES O=C(OCCOC(=O)[C@@H]1C=C[C@H](NC(=O)c2ccc(Cl)cc2[N+](=O)[O-])C1)c1ccc(-c2c3nc(c(-c4ccc(S(=O)(=O)[O-])cc4)c4ccc([nH]4)c(-c4ccc(S(=O)(=O)[O-])cc4)c4nc(c(-c5ccc(S(=O)(=O)[O-])cc5)c5ccc2[nH]5)C=C4)C=C3)cc1
REMARK SMILES IDX 4 1 3 2 2 3 1 4 27 5 28 6 86 7 29 8 85 9 30 10 31 11 32 12
REMARK SMILES IDX 79 13 33 14 84 15 78 16 80 17 34 18 83 19 77 20 76 21 35 23
REMARK SMILES IDX 65 24 46 25 64 26 47 27 50 28 63 29 81 30 48 31 49 32 62 34
REMARK SMILES IDX 82 35 51 36 36 37 37 38 45 39 38 40 44 41 39 42 40 43 41 44
REMARK SMILES IDX 42 45 43 46 66 47 67 48 75 49 68 50 74 51 69 52 70 53 71 54
REMARK SMILES IDX 72 55 73 56 52 57 53 58 61 59 54 60 60 61 55 62 56 63 57 64
REMARK SMILES IDX 58 65 59 66 5 67 6 68 7 69 8 70 9 71 10 72 26 73 11 74 12 75
REMARK SMILES IDX 13 76 14 77 15 79 16 80 17 81 22 82 18 83 21 84 19 85 20 86
REMARK SMILES IDX 23 87 24 88 25 89
REMARK H PARENT 80 22 50 33 13 78
REMARK Flexibility Score: inf
ROOT
ATOM      1  C   UNL A   1      39.329  20.450  25.371  1.00  0.00     0.275 C 
ENDROOT
BRANCH   1   2
ATOM      2  O   UNL A   1      40.343  19.486  25.705  1.00  0.00    -0.458 OA
BRANCH   2   3
ATOM      3  C   UNL A   1      41.607  19.660  26.156  1.00  0.00     0.338 C 
ATOM      4  O   UNL A   1      42.331  18.664  26.219  1.00  0.00    -0.246 OA
BRANCH   3   5
ATOM      5  C   UNL A   1      42.179  20.957  26.659  1.00  0.00     0.060 A 
ATOM      6  C   UNL A   1      42.256  21.390  27.990  1.00  0.00     0.016 A 
ATOM      7  C   UNL A   1      42.695  21.821  25.672  1.00  0.00     0.016 A 
ATOM      8  C   UNL A   1      42.886  22.607  28.335  1.00  0.00     0.010 A 
ATOM      9  C   UNL A   1      43.338  23.019  26.012  1.00  0.00     0.010 A 
ATOM     10  C   UNL A   1      43.442  23.429  27.352  1.00  0.00    -0.014 A 
BRANCH  10  11
ATOM     11  C   UNL A   1      44.021  24.775  27.631  1.00  0.00     0.031 A 
ATOM     12  C   UNL A   1      43.081  25.921  27.832  1.00  0.00     0.074 A 
ATOM     13  C   UNL A   1      45.346  25.023  27.602  1.00  0.00     0.049 A 
ATOM     14  N   UNL A   1      43.368  27.182  28.001  1.00  0.00    -0.248 NA
ATOM     15  C   UNL A   1      41.643  25.607  27.897  1.00  0.00     0.031 C 
ATOM     16  C   UNL A   1      46.387  24.014  27.593  1.00  0.00     0.029 A 
ATOM     17  N   UNL A   1      46.055  26.197  27.521  1.00  0.00    -0.354 N 
ATOM     18  C   UNL A   1      42.158  27.800  28.267  1.00  0.00     0.074 A 
ATOM     19  C   UNL A   1      41.121  26.802  28.123  1.00  0.00     0.031 C 
ATOM     20  C   UNL A   1      47.574  24.572  27.303  1.00  0.00     0.029 A 
ATOM     21  C   UNL A   1      47.387  26.010  27.206  1.00  0.00     0.049 A 
ATOM     22  H   UNL A   1      45.654  27.083  27.670  1.00  0.00     0.167 HD
ATOM     23  C   UNL A   1      41.945  29.071  28.669  1.00  0.00     0.031 A 
ATOM     24  C   UNL A   1      48.356  26.895  26.902  1.00  0.00     0.031 A 
ATOM     25  C   UNL A   1      42.984  30.053  28.800  1.00  0.00     0.049 A 
ATOM     26  C   UNL A   1      48.061  28.348  27.132  1.00  0.00     0.074 A 
ATOM     27  C   UNL A   1      42.892  31.346  29.276  1.00  0.00     0.029 A 
ATOM     28  N   UNL A   1      44.304  29.853  28.423  1.00  0.00    -0.354 N 
ATOM     29  N   UNL A   1      46.937  28.891  27.533  1.00  0.00    -0.248 NA
ATOM     30  C   UNL A   1      49.171  29.295  26.971  1.00  0.00     0.031 C 
ATOM     31  C   UNL A   1      44.145  31.951  29.127  1.00  0.00     0.029 A 
ATOM     32  C   UNL A   1      45.025  31.021  28.595  1.00  0.00     0.049 A 
ATOM     33  H   UNL A   1      44.674  29.006  28.085  1.00  0.00     0.167 HD
ATOM     34  C   UNL A   1      47.225  30.227  27.758  1.00  0.00     0.074 A 
ATOM     35  C   UNL A   1      48.620  30.419  27.413  1.00  0.00     0.031 C 
ATOM     36  C   UNL A   1      46.412  31.196  28.244  1.00  0.00     0.031 A 
BRANCH  23  37
ATOM     37  C   UNL A   1      40.537  29.436  29.019  1.00  0.00    -0.014 A 
ATOM     38  C   UNL A   1      39.592  29.681  28.003  1.00  0.00     0.010 A 
ATOM     39  C   UNL A   1      40.151  29.549  30.363  1.00  0.00     0.010 A 
ATOM     40  C   UNL A   1      38.292  30.068  28.328  1.00  0.00     0.020 A 
ATOM     41  C   UNL A   1      38.846  29.919  30.693  1.00  0.00     0.020 A 
ATOM     42  C   UNL A   1      37.930  30.190  29.673  1.00  0.00     0.054 A 
BRANCH  42  43
ATOM     43  S   UNL A   1      36.231  30.683  30.068  1.00  0.00     0.124 S 
ATOM     44  O   UNL A   1      35.524  30.337  28.838  1.00  0.00    -0.237 OA
ATOM     45  O   UNL A   1      35.918  29.852  31.228  1.00  0.00    -0.237 OA
ATOM     46  O   UNL A   1      36.341  32.113  30.342  1.00  0.00    -0.744 OA
ENDBRANCH  42  43
ENDBRANCH  23  37
BRANCH  24  47
ATOM     47  C   UNL A   1      49.691  26.448  26.413  1.00  0.00    -0.014 A 
ATOM     48  C   UNL A   1      50.659  25.934  27.292  1.00  0.00     0.010 A 
ATOM     49  C   UNL A   1      50.017  26.584  25.049  1.00  0.00     0.010 A 
ATOM     50  C   UNL A   1      51.936  25.599  26.827  1.00  0.00     0.020 A 
ATOM     51  C   UNL A   1      51.289  26.237  24.577  1.00  0.00     0.020 A 
ATOM     52  C   UNL A   1      52.247  25.760  25.474  1.00  0.00     0.054 A 
BRANCH  52  53
ATOM     53  S   UNL A   1      53.908  25.311  24.893  1.00  0.00     0.124 S 
ATOM     54  O   UNL A   1      54.759  25.871  25.937  1.00  0.00    -0.237 OA
ATOM     55  O   UNL A   1      53.840  23.854  24.841  1.00  0.00    -0.237 OA
ATOM     56  O   UNL A   1      53.999  25.966  23.589  1.00  0.00    -0.744 OA
ENDBRANCH  52  53
ENDBRANCH  24  47
BRANCH  36  57
ATOM     57  C   UNL A   1      47.013  32.554  28.451  1.00  0.00    -0.014 A 
ATOM     58  C   UNL A   1      47.669  32.872  29.651  1.00  0.00     0.010 A 
ATOM     59  C   UNL A   1      46.991  33.490  27.400  1.00  0.00     0.010 A 
ATOM     60  C   UNL A   1      48.291  34.111  29.802  1.00  0.00     0.020 A 
ATOM     61  C   UNL A   1      47.636  34.719  27.539  1.00  0.00     0.020 A 
ATOM     62  C   UNL A   1      48.277  35.024  28.742  1.00  0.00     0.054 A 
BRANCH  62  63
ATOM     63  S   UNL A   1      49.173  36.587  28.931  1.00  0.00     0.124 S 
ATOM     64  O   UNL A   1      48.326  37.514  28.185  1.00  0.00    -0.237 OA
ATOM     65  O   UNL A   1      49.187  36.776  30.380  1.00  0.00    -0.237 OA
ATOM     66  O   UNL A   1      50.477  36.314  28.333  1.00  0.00    -0.744 OA
ENDBRANCH  62  63
ENDBRANCH  36  57
ENDBRANCH  10  11
ENDBRANCH   3   5
ENDBRANCH   2   3
ENDBRANCH   1   2
BRANCH   1  67
ATOM     67  C   UNL A   1      37.978  19.852  24.990  1.00  0.00     0.274 C 
BRANCH  67  68
ATOM     68  O   UNL A   1      36.903  20.571  25.601  1.00  0.00    -0.462 OA
BRANCH  68  69
ATOM     69  C   UNL A   1      35.881  20.969  24.793  1.00  0.00     0.312 C 
ATOM     70  O   UNL A   1      34.810  20.383  24.683  1.00  0.00    -0.252 OA
BRANCH  69  71
ATOM     71  C   UNL A   1      36.227  22.286  24.092  1.00  0.00     0.124 C 
ATOM     72  C   UNL A   1      36.513  23.374  25.083  1.00  0.00    -0.014 C 
ATOM     73  C   UNL A   1      35.038  22.921  23.362  1.00  0.00     0.048 C 
ATOM     74  C   UNL A   1      35.440  24.156  25.247  1.00  0.00    -0.006 C 
ATOM     75  C   UNL A   1      34.282  23.704  24.432  1.00  0.00     0.106 C 
BRANCH  75  76
ATOM     76  N   UNL A   1      33.359  22.789  25.114  1.00  0.00    -0.346 N 
ATOM     77  C   UNL A   1      32.105  22.366  24.747  1.00  0.00     0.258 C 
ATOM     78  H   UNL A   1      33.689  22.421  25.966  1.00  0.00     0.164 HD
ATOM     79  O   UNL A   1      31.756  21.193  24.784  1.00  0.00    -0.269 OA
BRANCH  77  80
ATOM     80  C   UNL A   1      31.115  23.418  24.544  1.00  0.00     0.117 A 
ATOM     81  C   UNL A   1      30.870  23.826  23.229  1.00  0.00     0.022 A 
ATOM     82  C   UNL A   1      30.644  24.165  25.632  1.00  0.00     0.283 A 
ATOM     83  C   UNL A   1      30.303  25.081  23.008  1.00  0.00     0.022 A 
ATOM     84  C   UNL A   1      30.092  25.429  25.404  1.00  0.00     0.107 A 
ATOM     85  C   UNL A   1      29.968  25.893  24.095  1.00  0.00     0.047 A 
ATOM     86  Cl  UNL A   1      29.439  27.507  23.824  1.00  0.00    -0.084 Cl
BRANCH  82  87
ATOM     87  N   UNL A   1      30.681  23.666  27.015  1.00  0.00     0.063 N 
ATOM     88  O   UNL A   1      29.627  23.206  27.481  1.00  0.00    -0.258 OA
ATOM     89  O   UNL A   1      31.742  23.688  27.649  1.00  0.00    -0.258 OA
ENDBRANCH  82  87
ENDBRANCH  77  80
ENDBRANCH  75  76
ENDBRANCH  69  71
ENDBRANCH  68  69
ENDBRANCH  67  68
ENDBRANCH   1  67
TORSDOF 17
ENDMDL
