MODEL 1
REMARK VINA RESULT:     -10.4      0.000      0.000
REMARK SMILES CC[N@@H+](C)Cc1cc2c(cc1Cl)C=C(C(=O)OCCOC(=O)c1ccc(-c3c4nc(c(-c5ccc(S(=O)(=O)[O-])cc5)c5ccc([nH]5)c(-c5ccc(S(=O)(=O)[O-])cc5)c5nc(c(-c6ccc(S(=O)(=O)[O-])cc6)c6ccc3[nH]6)C=C5)C=C4)cc1)[C@@H](C(F)(F)F)O2
REMARK SMILES IDX 18 1 17 2 15 3 16 4 14 5 6 6 7 7 11 8 8 9 10 10 12 11 9 12
REMARK SMILES IDX 88 13 13 14 83 15 5 16 3 17 4 18 2 20 1 21 84 22 85 23 86 24
REMARK SMILES IDX 87 25 19 26 20 27 21 28 22 29 23 30 24 31 82 32 25 33 81 34
REMARK SMILES IDX 26 35 27 36 28 37 75 38 29 39 80 40 74 41 76 42 30 43 79 44
REMARK SMILES IDX 73 45 72 46 31 48 61 49 42 50 60 51 43 52 46 53 59 54 77 55
REMARK SMILES IDX 44 56 45 57 58 59 78 60 47 61 32 62 33 63 41 64 34 65 40 66
REMARK SMILES IDX 35 67 36 68 37 69 38 70 39 71 62 72 63 73 71 74 64 75 70 76
REMARK SMILES IDX 65 77 66 78 67 79 68 80 69 81 48 82 49 83 57 84 50 85 56 86
REMARK SMILES IDX 51 87 52 88 53 89 54 90 55 91
REMARK H PARENT 3 19 76 47 46 58
REMARK Flexibility Score: inf
ROOT
ATOM      1  C   UNL A   1      33.172  33.773  28.033  1.00  0.00     0.275 C 
ENDROOT
BRANCH   1   2
ATOM      2  O   UNL A   1      34.139  34.247  28.998  1.00  0.00    -0.459 OA
BRANCH   2   3
ATOM      3  C   UNL A   1      33.627  34.707  30.163  1.00  0.00     0.338 C 
ATOM      4  O   UNL A   1      32.497  35.139  30.339  1.00  0.00    -0.246 OA
BRANCH   3   5
ATOM      5  C   UNL A   1      34.605  34.549  31.257  1.00  0.00     0.087 C 
ATOM      6  C   UNL A   1      37.465  32.414  34.786  1.00  0.00     0.029 A 
ATOM      7  C   UNL A   1      36.946  33.718  34.600  1.00  0.00     0.058 A 
ATOM      8  C   UNL A   1      37.428  31.522  33.705  1.00  0.00     0.050 A 
ATOM      9  C   UNL A   1      36.249  34.059  33.445  1.00  0.00     0.128 A 
ATOM     10  C   UNL A   1      36.706  31.850  32.564  1.00  0.00     0.033 A 
ATOM     11  Cl  UNL A   1      38.234  29.996  33.710  1.00  0.00    -0.084 Cl
ATOM     12  C   UNL A   1      36.066  33.089  32.475  1.00  0.00     0.019 A 
ATOM     13  O   UNL A   1      35.734  35.321  33.357  1.00  0.00    -0.475 OA
ATOM     14  C   UNL A   1      35.132  33.332  31.409  1.00  0.00     0.027 C 
ATOM     15  C   UNL A   1      34.891  35.673  32.210  1.00  0.00     0.316 C 
BRANCH   6  16
ATOM     16  C   UNL A   1      37.934  31.997  36.166  1.00  0.00     0.300 C 
BRANCH  16  17
ATOM     17  N   UNL A   1      38.679  33.019  36.939  1.00  0.00    -0.334 N 
ATOM     18  C   UNL A   1      40.113  33.025  36.640  1.00  0.00     0.333 C 
ATOM     19  H   UNL A   1      38.260  33.890  36.611  1.00  0.00     0.348 HD
BRANCH  17  20
ATOM     20  C   UNL A   1      38.475  32.993  38.393  1.00  0.00     0.258 C 
ATOM     21  C   UNL A   1      37.044  32.651  38.788  1.00  0.00     0.071 C 
ENDBRANCH  17  20
ENDBRANCH  16  17
ENDBRANCH   6  16
BRANCH  15  22
ATOM     22  C   UNL A   1      33.590  36.274  32.773  1.00  0.00     0.430 C 
ATOM     23  F   UNL A   1      33.804  36.867  33.973  1.00  0.00    -0.167 F 
ATOM     24  F   UNL A   1      33.078  37.228  31.961  1.00  0.00    -0.167 F 
ATOM     25  F   UNL A   1      32.632  35.336  32.951  1.00  0.00    -0.167 F 
ENDBRANCH  15  22
ENDBRANCH   3   5
ENDBRANCH   2   3
ENDBRANCH   1   2
BRANCH   1  26
ATOM     26  C   UNL A   1      33.530  32.383  27.499  1.00  0.00     0.275 C 
BRANCH  26  27
ATOM     27  O   UNL A   1      34.011  31.524  28.550  1.00  0.00    -0.458 OA
BRANCH  27  28
ATOM     28  C   UNL A   1      34.468  30.321  28.136  1.00  0.00     0.338 C 
ATOM     29  O   UNL A   1      33.897  29.524  27.411  1.00  0.00    -0.246 OA
BRANCH  28  30
ATOM     30  C   UNL A   1      35.869  30.150  28.546  1.00  0.00     0.060 A 
ATOM     31  C   UNL A   1      36.245  29.574  29.749  1.00  0.00     0.016 A 
ATOM     32  C   UNL A   1      36.830  30.426  27.587  1.00  0.00     0.016 A 
ATOM     33  C   UNL A   1      37.603  29.294  29.966  1.00  0.00     0.010 A 
ATOM     34  C   UNL A   1      38.134  29.968  27.722  1.00  0.00     0.010 A 
ATOM     35  C   UNL A   1      38.566  29.446  28.938  1.00  0.00    -0.014 A 
BRANCH  35  36
ATOM     36  C   UNL A   1      40.004  29.088  29.149  1.00  0.00     0.031 A 
ATOM     37  C   UNL A   1      40.544  27.724  28.761  1.00  0.00     0.074 A 
ATOM     38  C   UNL A   1      40.840  29.998  29.694  1.00  0.00     0.049 A 
ATOM     39  N   UNL A   1      41.788  27.307  28.759  1.00  0.00    -0.248 NA
ATOM     40  C   UNL A   1      39.582  26.681  28.362  1.00  0.00     0.031 C 
ATOM     41  C   UNL A   1      40.435  31.301  30.228  1.00  0.00     0.029 A 
ATOM     42  N   UNL A   1      42.206  29.991  29.852  1.00  0.00    -0.354 N 
ATOM     43  C   UNL A   1      41.745  25.970  28.370  1.00  0.00     0.074 A 
ATOM     44  C   UNL A   1      40.355  25.611  28.244  1.00  0.00     0.031 C 
ATOM     45  C   UNL A   1      41.530  32.009  30.540  1.00  0.00     0.029 A 
ATOM     46  C   UNL A   1      42.715  31.199  30.280  1.00  0.00     0.049 A 
ATOM     47  H   UNL A   1      42.767  29.202  29.676  1.00  0.00     0.167 HD
ATOM     48  C   UNL A   1      42.766  25.130  28.080  1.00  0.00     0.031 A 
ATOM     49  C   UNL A   1      43.987  31.629  30.409  1.00  0.00     0.031 A 
ATOM     50  C   UNL A   1      44.151  25.507  28.153  1.00  0.00     0.049 A 
ATOM     51  C   UNL A   1      45.110  30.708  30.016  1.00  0.00     0.074 A 
ATOM     52  C   UNL A   1      45.262  24.757  27.814  1.00  0.00     0.029 A 
ATOM     53  N   UNL A   1      44.613  26.746  28.573  1.00  0.00    -0.354 N 
ATOM     54  N   UNL A   1      45.043  29.481  29.558  1.00  0.00    -0.248 NA
ATOM     55  C   UNL A   1      46.478  31.233  30.130  1.00  0.00     0.031 C 
ATOM     56  C   UNL A   1      46.399  25.520  28.084  1.00  0.00     0.029 A 
ATOM     57  C   UNL A   1      45.994  26.774  28.511  1.00  0.00     0.049 A 
ATOM     58  H   UNL A   1      44.044  27.491  28.870  1.00  0.00     0.167 HD
ATOM     59  C   UNL A   1      46.355  29.097  29.301  1.00  0.00     0.074 A 
ATOM     60  C   UNL A   1      47.194  30.229  29.639  1.00  0.00     0.031 C 
ATOM     61  C   UNL A   1      46.819  27.914  28.830  1.00  0.00     0.031 A 
BRANCH  48  62
ATOM     62  C   UNL A   1      42.439  23.739  27.587  1.00  0.00    -0.014 A 
ATOM     63  C   UNL A   1      42.340  22.669  28.496  1.00  0.00     0.010 A 
ATOM     64  C   UNL A   1      42.354  23.467  26.209  1.00  0.00     0.010 A 
ATOM     65  C   UNL A   1      42.200  21.355  28.037  1.00  0.00     0.020 A 
ATOM     66  C   UNL A   1      42.175  22.161  25.746  1.00  0.00     0.020 A 
ATOM     67  C   UNL A   1      42.128  21.110  26.664  1.00  0.00     0.054 A 
BRANCH  67  68
ATOM     68  S   UNL A   1      41.989  19.396  26.083  1.00  0.00     0.124 S 
ATOM     69  O   UNL A   1      42.467  18.641  27.238  1.00  0.00    -0.237 OA
ATOM     70  O   UNL A   1      40.563  19.272  25.794  1.00  0.00    -0.237 OA
ATOM     71  O   UNL A   1      42.859  19.360  24.909  1.00  0.00    -0.744 OA
ENDBRANCH  67  68
ENDBRANCH  48  62
BRANCH  49  72
ATOM     72  C   UNL A   1      44.240  33.040  30.825  1.00  0.00    -0.014 A 
ATOM     73  C   UNL A   1      44.342  33.378  32.187  1.00  0.00     0.010 A 
ATOM     74  C   UNL A   1      44.277  34.069  29.867  1.00  0.00     0.010 A 
ATOM     75  C   UNL A   1      44.412  34.717  32.586  1.00  0.00     0.020 A 
ATOM     76  C   UNL A   1      44.384  35.408  30.259  1.00  0.00     0.020 A 
ATOM     77  C   UNL A   1      44.417  35.724  31.619  1.00  0.00     0.054 A 
BRANCH  77  78
ATOM     78  S   UNL A   1      44.442  37.455  32.162  1.00  0.00     0.124 S 
ATOM     79  O   UNL A   1      43.579  37.411  33.340  1.00  0.00    -0.237 OA
ATOM     80  O   UNL A   1      45.859  37.686  32.429  1.00  0.00    -0.237 OA
ATOM     81  O   UNL A   1      43.900  38.183  31.018  1.00  0.00    -0.744 OA
ENDBRANCH  77  78
ENDBRANCH  49  72
BRANCH  61  82
ATOM     82  C   UNL A   1      48.301  27.757  28.613  1.00  0.00    -0.014 A 
ATOM     83  C   UNL A   1      48.851  28.066  27.355  1.00  0.00     0.010 A 
ATOM     84  C   UNL A   1      49.118  27.161  29.589  1.00  0.00     0.010 A 
ATOM     85  C   UNL A   1      50.178  27.747  27.060  1.00  0.00     0.020 A 
ATOM     86  C   UNL A   1      50.457  26.871  29.310  1.00  0.00     0.020 A 
ATOM     87  C   UNL A   1      50.970  27.141  28.038  1.00  0.00     0.054 A 
BRANCH  87  88
ATOM     88  S   UNL A   1      52.679  26.697  27.624  1.00  0.00     0.124 S 
ATOM     89  O   UNL A   1      52.507  25.422  26.936  1.00  0.00    -0.237 OA
ATOM     90  O   UNL A   1      53.106  27.815  26.786  1.00  0.00    -0.237 OA
ATOM     91  O   UNL A   1      53.337  26.621  28.927  1.00  0.00    -0.744 OA
ENDBRANCH  87  88
ENDBRANCH  61  82
ENDBRANCH  35  36
ENDBRANCH  28  30
ENDBRANCH  27  28
ENDBRANCH  26  27
ENDBRANCH   1  26
TORSDOF 18
ENDMDL
MODEL 2
REMARK VINA RESULT:     -10.4      2.032      8.370
REMARK SMILES CC[N@@H+](C)Cc1cc2c(cc1Cl)C=C(C(=O)OCCOC(=O)c1ccc(-c3c4nc(c(-c5ccc(S(=O)(=O)[O-])cc5)c5ccc([nH]5)c(-c5ccc(S(=O)(=O)[O-])cc5)c5nc(c(-c6ccc(S(=O)(=O)[O-])cc6)c6ccc3[nH]6)C=C5)C=C4)cc1)[C@@H](C(F)(F)F)O2
REMARK SMILES IDX 18 1 17 2 15 3 16 4 14 5 6 6 7 7 11 8 8 9 10 10 12 11 9 12
REMARK SMILES IDX 88 13 13 14 83 15 5 16 3 17 4 18 2 20 1 21 84 22 85 23 86 24
REMARK SMILES IDX 87 25 19 26 20 27 21 28 22 29 23 30 24 31 82 32 25 33 81 34
REMARK SMILES IDX 26 35 27 36 28 37 75 38 29 39 80 40 74 41 76 42 30 43 79 44
REMARK SMILES IDX 73 45 72 46 31 48 61 49 42 50 60 51 43 52 46 53 59 54 77 55
REMARK SMILES IDX 44 56 45 57 58 59 78 60 47 61 32 62 33 63 41 64 34 65 40 66
REMARK SMILES IDX 35 67 36 68 37 69 38 70 39 71 62 72 63 73 71 74 64 75 70 76
REMARK SMILES IDX 65 77 66 78 67 79 68 80 69 81 48 82 49 83 57 84 50 85 56 86
REMARK SMILES IDX 51 87 52 88 53 89 54 90 55 91
REMARK H PARENT 3 19 76 47 46 58
REMARK Flexibility Score: inf
ROOT
ATOM      1  C   UNL A   1      33.401  33.899  27.926  1.00  0.00     0.275 C 
ENDROOT
BRANCH   1   2
ATOM      2  O   UNL A   1      34.326  34.175  29.003  1.00  0.00    -0.459 OA
BRANCH   2   3
ATOM      3  C   UNL A   1      33.770  34.607  30.158  1.00  0.00     0.338 C 
ATOM      4  O   UNL A   1      32.620  34.993  30.310  1.00  0.00    -0.246 OA
BRANCH   3   5
ATOM      5  C   UNL A   1      34.727  34.481  31.273  1.00  0.00     0.087 C 
ATOM      6  C   UNL A   1      37.527  32.450  34.911  1.00  0.00     0.029 A 
ATOM      7  C   UNL A   1      37.008  33.748  34.681  1.00  0.00     0.058 A 
ATOM      8  C   UNL A   1      37.512  31.530  33.853  1.00  0.00     0.050 A 
ATOM      9  C   UNL A   1      36.332  34.055  33.504  1.00  0.00     0.128 A 
ATOM     10  C   UNL A   1      36.810  31.825  32.691  1.00  0.00     0.033 A 
ATOM     11  Cl  UNL A   1      38.321  30.006  33.914  1.00  0.00    -0.084 Cl
ATOM     12  C   UNL A   1      36.169  33.059  32.557  1.00  0.00     0.019 A 
ATOM     13  O   UNL A   1      35.816  35.312  33.372  1.00  0.00    -0.475 OA
ATOM     14  C   UNL A   1      35.255  33.271  31.467  1.00  0.00     0.027 C 
ATOM     15  C   UNL A   1      34.993  35.631  32.201  1.00  0.00     0.316 C 
BRANCH   6  16
ATOM     16  C   UNL A   1      37.971  32.072  36.310  1.00  0.00     0.300 C 
BRANCH  16  17
ATOM     17  N   UNL A   1      39.141  32.808  36.846  1.00  0.00    -0.334 N 
ATOM     18  C   UNL A   1      40.418  32.258  36.385  1.00  0.00     0.333 C 
ATOM     19  H   UNL A   1      39.012  33.741  36.452  1.00  0.00     0.348 HD
BRANCH  17  20
ATOM     20  C   UNL A   1      39.172  32.983  38.303  1.00  0.00     0.258 C 
ATOM     21  C   UNL A   1      37.789  33.182  38.908  1.00  0.00     0.071 C 
ENDBRANCH  17  20
ENDBRANCH  16  17
ENDBRANCH   6  16
BRANCH  15  22
ATOM     22  C   UNL A   1      33.681  36.243  32.723  1.00  0.00     0.430 C 
ATOM     23  F   UNL A   1      32.729  35.293  32.887  1.00  0.00    -0.167 F 
ATOM     24  F   UNL A   1      33.841  36.836  33.930  1.00  0.00    -0.167 F 
ATOM     25  F   UNL A   1      33.181  37.174  31.878  1.00  0.00    -0.167 F 
ENDBRANCH  15  22
ENDBRANCH   3   5
ENDBRANCH   2   3
ENDBRANCH   1   2
BRANCH   1  26
ATOM     26  C   UNL A   1      33.270  32.397  27.654  1.00  0.00     0.275 C 
BRANCH  26  27
ATOM     27  O   UNL A   1      34.048  31.624  28.588  1.00  0.00    -0.458 OA
BRANCH  27  28
ATOM     28  C   UNL A   1      34.516  30.452  28.103  1.00  0.00     0.338 C 
ATOM     29  O   UNL A   1      33.969  29.714  27.301  1.00  0.00    -0.246 OA
BRANCH  28  30
ATOM     30  C   UNL A   1      35.899  30.243  28.551  1.00  0.00     0.060 A 
ATOM     31  C   UNL A   1      36.229  29.594  29.730  1.00  0.00     0.016 A 
ATOM     32  C   UNL A   1      36.896  30.562  27.642  1.00  0.00     0.016 A 
ATOM     33  C   UNL A   1      37.576  29.288  29.976  1.00  0.00     0.010 A 
ATOM     34  C   UNL A   1      38.190  30.083  27.794  1.00  0.00     0.010 A 
ATOM     35  C   UNL A   1      38.575  29.487  28.993  1.00  0.00    -0.014 A 
BRANCH  35  36
ATOM     36  C   UNL A   1      40.001  29.103  29.232  1.00  0.00     0.031 A 
ATOM     37  C   UNL A   1      40.932  29.986  30.043  1.00  0.00     0.074 A 
ATOM     38  C   UNL A   1      40.472  27.946  28.717  1.00  0.00     0.049 A 
ATOM     39  N   UNL A   1      42.154  29.732  30.447  1.00  0.00    -0.248 NA
ATOM     40  C   UNL A   1      40.465  31.332  30.419  1.00  0.00     0.031 C 
ATOM     41  C   UNL A   1      39.729  27.062  27.816  1.00  0.00     0.029 A 
ATOM     42  N   UNL A   1      41.665  27.290  28.907  1.00  0.00    -0.354 N 
ATOM     43  C   UNL A   1      42.586  30.879  31.109  1.00  0.00     0.074 A 
ATOM     44  C   UNL A   1      41.547  31.866  30.966  1.00  0.00     0.031 C 
ATOM     45  C   UNL A   1      40.428  25.933  27.630  1.00  0.00     0.029 A 
ATOM     46  C   UNL A   1      41.692  26.028  28.354  1.00  0.00     0.049 A 
ATOM     47  H   UNL A   1      42.426  27.682  29.393  1.00  0.00     0.167 HD
ATOM     48  C   UNL A   1      43.717  31.078  31.826  1.00  0.00     0.031 A 
ATOM     49  C   UNL A   1      42.603  25.037  28.448  1.00  0.00     0.031 A 
ATOM     50  C   UNL A   1      44.727  30.073  32.014  1.00  0.00     0.049 A 
ATOM     51  C   UNL A   1      43.820  25.248  29.307  1.00  0.00     0.074 A 
ATOM     52  C   UNL A   1      45.877  30.146  32.780  1.00  0.00     0.029 A 
ATOM     53  N   UNL A   1      44.698  28.807  31.450  1.00  0.00    -0.354 N 
ATOM     54  N   UNL A   1      44.161  26.306  30.002  1.00  0.00    -0.248 NA
ATOM     55  C   UNL A   1      44.764  24.127  29.417  1.00  0.00     0.031 C 
ATOM     56  C   UNL A   1      46.573  28.946  32.632  1.00  0.00     0.029 A 
ATOM     57  C   UNL A   1      45.817  28.094  31.842  1.00  0.00     0.049 A 
ATOM     58  H   UNL A   1      43.989  28.467  30.859  1.00  0.00     0.167 HD
ATOM     59  C   UNL A   1      45.341  25.969  30.656  1.00  0.00     0.074 A 
ATOM     60  C   UNL A   1      45.647  24.603  30.286  1.00  0.00     0.031 C 
ATOM     61  C   UNL A   1      46.101  26.726  31.485  1.00  0.00     0.031 A 
BRANCH  48  62
ATOM     62  C   UNL A   1      43.903  32.405  32.529  1.00  0.00    -0.014 A 
ATOM     63  C   UNL A   1      43.422  32.587  33.839  1.00  0.00     0.010 A 
ATOM     64  C   UNL A   1      44.442  33.510  31.844  1.00  0.00     0.010 A 
ATOM     65  C   UNL A   1      43.445  33.852  34.435  1.00  0.00     0.020 A 
ATOM     66  C   UNL A   1      44.502  34.767  32.450  1.00  0.00     0.020 A 
ATOM     67  C   UNL A   1      43.976  34.936  33.732  1.00  0.00     0.054 A 
BRANCH  67  68
ATOM     68  S   UNL A   1      43.958  36.578  34.504  1.00  0.00     0.124 S 
ATOM     69  O   UNL A   1      45.042  37.259  33.803  1.00  0.00    -0.237 OA
ATOM     70  O   UNL A   1      42.611  37.058  34.203  1.00  0.00    -0.237 OA
ATOM     71  O   UNL A   1      44.207  36.295  35.916  1.00  0.00    -0.744 OA
ENDBRANCH  67  68
ENDBRANCH  48  62
BRANCH  49  72
ATOM     72  C   UNL A   1      42.321  23.725  27.796  1.00  0.00    -0.014 A 
ATOM     73  C   UNL A   1      41.569  22.739  28.461  1.00  0.00     0.010 A 
ATOM     74  C   UNL A   1      42.891  23.414  26.547  1.00  0.00     0.010 A 
ATOM     75  C   UNL A   1      41.445  21.454  27.925  1.00  0.00     0.020 A 
ATOM     76  C   UNL A   1      42.739  22.140  25.988  1.00  0.00     0.020 A 
ATOM     77  C   UNL A   1      42.044  21.158  26.698  1.00  0.00     0.054 A 
BRANCH  77  78
ATOM     78  S   UNL A   1      41.924  19.466  26.054  1.00  0.00     0.124 S 
ATOM     79  O   UNL A   1      42.416  18.681  27.184  1.00  0.00    -0.237 OA
ATOM     80  O   UNL A   1      40.498  19.334  25.768  1.00  0.00    -0.237 OA
ATOM     81  O   UNL A   1      42.793  19.483  24.881  1.00  0.00    -0.744 OA
ENDBRANCH  77  78
ENDBRANCH  49  72
BRANCH  61  82
ATOM     82  C   UNL A   1      47.336  26.113  32.092  1.00  0.00    -0.014 A 
ATOM     83  C   UNL A   1      48.518  26.045  31.329  1.00  0.00     0.010 A 
ATOM     84  C   UNL A   1      47.288  25.469  33.340  1.00  0.00     0.010 A 
ATOM     85  C   UNL A   1      49.615  25.311  31.784  1.00  0.00     0.020 A 
ATOM     86  C   UNL A   1      48.398  24.763  33.814  1.00  0.00     0.020 A 
ATOM     87  C   UNL A   1      49.543  24.665  33.020  1.00  0.00     0.054 A 
BRANCH  87  88
ATOM     88  S   UNL A   1      50.964  23.685  33.575  1.00  0.00     0.124 S 
ATOM     89  O   UNL A   1      50.616  23.397  34.962  1.00  0.00    -0.237 OA
ATOM     90  O   UNL A   1      50.937  22.540  32.667  1.00  0.00    -0.237 OA
ATOM     91  O   UNL A   1      52.097  24.588  33.389  1.00  0.00    -0.744 OA
ENDBRANCH  87  88
ENDBRANCH  61  82
ENDBRANCH  35  36
ENDBRANCH  28  30
ENDBRANCH  27  28
ENDBRANCH  26  27
ENDBRANCH   1  26
TORSDOF 18
ENDMDL
MODEL 3
REMARK VINA RESULT:     -10.3      5.510     11.099
REMARK SMILES CC[N@@H+](C)Cc1cc2c(cc1Cl)C=C(C(=O)OCCOC(=O)c1ccc(-c3c4nc(c(-c5ccc(S(=O)(=O)[O-])cc5)c5ccc([nH]5)c(-c5ccc(S(=O)(=O)[O-])cc5)c5nc(c(-c6ccc(S(=O)(=O)[O-])cc6)c6ccc3[nH]6)C=C5)C=C4)cc1)[C@@H](C(F)(F)F)O2
REMARK SMILES IDX 18 1 17 2 15 3 16 4 14 5 6 6 7 7 11 8 8 9 10 10 12 11 9 12
REMARK SMILES IDX 88 13 13 14 83 15 5 16 3 17 4 18 2 20 1 21 84 22 85 23 86 24
REMARK SMILES IDX 87 25 19 26 20 27 21 28 22 29 23 30 24 31 82 32 25 33 81 34
REMARK SMILES IDX 26 35 27 36 28 37 75 38 29 39 80 40 74 41 76 42 30 43 79 44
REMARK SMILES IDX 73 45 72 46 31 48 61 49 42 50 60 51 43 52 46 53 59 54 77 55
REMARK SMILES IDX 44 56 45 57 58 59 78 60 47 61 32 62 33 63 41 64 34 65 40 66
REMARK SMILES IDX 35 67 36 68 37 69 38 70 39 71 62 72 63 73 71 74 64 75 70 76
REMARK SMILES IDX 65 77 66 78 67 79 68 80 69 81 48 82 49 83 57 84 50 85 56 86
REMARK SMILES IDX 51 87 52 88 53 89 54 90 55 91
REMARK H PARENT 3 19 76 47 46 58
REMARK Flexibility Score: inf
ROOT
ATOM      1  C   UNL A   1      31.718  30.092  25.530  1.00  0.00     0.275 C 
ENDROOT
BRANCH   1   2
ATOM      2  O   UNL A   1      31.140  28.795  25.255  1.00  0.00    -0.459 OA
BRANCH   2   3
ATOM      3  C   UNL A   1      30.970  28.495  23.946  1.00  0.00     0.338 C 
ATOM      4  O   UNL A   1      30.348  29.152  23.126  1.00  0.00    -0.246 OA
BRANCH   3   5
ATOM      5  C   UNL A   1      31.719  27.273  23.594  1.00  0.00     0.087 C 
ATOM      6  C   UNL A   1      33.750  22.695  23.932  1.00  0.00     0.029 A 
ATOM      7  C   UNL A   1      34.060  23.853  23.178  1.00  0.00     0.058 A 
ATOM      8  C   UNL A   1      32.503  22.630  24.569  1.00  0.00     0.050 A 
ATOM      9  C   UNL A   1      33.240  24.977  23.212  1.00  0.00     0.128 A 
ATOM     10  C   UNL A   1      31.698  23.761  24.630  1.00  0.00     0.033 A 
ATOM     11  Cl  UNL A   1      31.896  21.196  25.315  1.00  0.00    -0.084 Cl
ATOM     12  C   UNL A   1      32.109  24.944  24.009  1.00  0.00     0.019 A 
ATOM     13  O   UNL A   1      33.628  26.075  22.499  1.00  0.00    -0.475 OA
ATOM     14  C   UNL A   1      31.399  26.167  24.270  1.00  0.00     0.027 C 
ATOM     15  C   UNL A   1      32.853  27.315  22.612  1.00  0.00     0.316 C 
BRANCH   6  16
ATOM     16  C   UNL A   1      34.812  21.629  24.115  1.00  0.00     0.300 C 
BRANCH  16  17
ATOM     17  N   UNL A   1      35.856  21.914  25.127  1.00  0.00    -0.334 N 
ATOM     18  C   UNL A   1      35.303  22.407  26.391  1.00  0.00     0.333 C 
ATOM     19  H   UNL A   1      36.275  20.995  25.275  1.00  0.00     0.348 HD
BRANCH  17  20
ATOM     20  C   UNL A   1      36.949  22.791  24.687  1.00  0.00     0.258 C 
ATOM     21  C   UNL A   1      37.450  23.715  25.788  1.00  0.00     0.071 C 
ENDBRANCH  17  20
ENDBRANCH  16  17
ENDBRANCH   6  16
BRANCH  15  22
ATOM     22  C   UNL A   1      33.846  28.440  22.952  1.00  0.00     0.430 C 
ATOM     23  F   UNL A   1      34.949  28.373  22.166  1.00  0.00    -0.167 F 
ATOM     24  F   UNL A   1      33.312  29.668  22.755  1.00  0.00    -0.167 F 
ATOM     25  F   UNL A   1      34.262  28.380  24.237  1.00  0.00    -0.167 F 
ENDBRANCH  15  22
ENDBRANCH   3   5
ENDBRANCH   2   3
ENDBRANCH   1   2
BRANCH   1  26
ATOM     26  C   UNL A   1      32.214  30.203  26.976  1.00  0.00     0.275 C 
BRANCH  26  27
ATOM     27  O   UNL A   1      33.653  30.211  27.039  1.00  0.00    -0.458 OA
BRANCH  27  28
ATOM     28  C   UNL A   1      34.187  31.263  27.698  1.00  0.00     0.338 C 
ATOM     29  O   UNL A   1      33.611  32.275  28.062  1.00  0.00    -0.246 OA
BRANCH  28  30
ATOM     30  C   UNL A   1      35.570  30.959  28.087  1.00  0.00     0.060 A 
ATOM     31  C   UNL A   1      36.563  31.921  28.184  1.00  0.00     0.016 A 
ATOM     32  C   UNL A   1      35.813  29.674  28.544  1.00  0.00     0.016 A 
ATOM     33  C   UNL A   1      37.801  31.557  28.736  1.00  0.00     0.010 A 
ATOM     34  C   UNL A   1      36.959  29.371  29.267  1.00  0.00     0.010 A 
ATOM     35  C   UNL A   1      38.006  30.288  29.328  1.00  0.00    -0.014 A 
BRANCH  35  36
ATOM     36  C   UNL A   1      39.306  29.921  29.973  1.00  0.00     0.031 A 
ATOM     37  C   UNL A   1      39.741  30.548  31.285  1.00  0.00     0.074 A 
ATOM     38  C   UNL A   1      40.109  29.013  29.378  1.00  0.00     0.049 A 
ATOM     39  N   UNL A   1      40.773  30.243  32.035  1.00  0.00    -0.248 NA
ATOM     40  C   UNL A   1      38.958  31.681  31.811  1.00  0.00     0.031 C 
ATOM     41  C   UNL A   1      39.878  28.422  28.058  1.00  0.00     0.029 A 
ATOM     42  N   UNL A   1      41.254  28.392  29.818  1.00  0.00    -0.354 N 
ATOM     43  C   UNL A   1      40.756  31.142  33.099  1.00  0.00     0.074 A 
ATOM     44  C   UNL A   1      39.681  32.069  32.850  1.00  0.00     0.031 C 
ATOM     45  C   UNL A   1      40.774  27.447  27.848  1.00  0.00     0.029 A 
ATOM     46  C   UNL A   1      41.677  27.372  28.992  1.00  0.00     0.049 A 
ATOM     47  H   UNL A   1      41.726  28.649  30.642  1.00  0.00     0.167 HD
ATOM     48  C   UNL A   1      41.521  31.162  34.215  1.00  0.00     0.031 A 
ATOM     49  C   UNL A   1      42.650  26.451  29.148  1.00  0.00     0.031 A 
ATOM     50  C   UNL A   1      42.556  30.203  34.487  1.00  0.00     0.049 A 
ATOM     51  C   UNL A   1      43.445  26.441  30.425  1.00  0.00     0.074 A 
ATOM     52  C   UNL A   1      43.343  30.088  35.619  1.00  0.00     0.029 A 
ATOM     53  N   UNL A   1      42.932  29.180  33.629  1.00  0.00    -0.354 N 
ATOM     54  N   UNL A   1      43.346  27.241  31.460  1.00  0.00    -0.248 NA
ATOM     55  C   UNL A   1      44.465  25.392  30.572  1.00  0.00     0.031 C 
ATOM     56  C   UNL A   1      44.235  29.034  35.421  1.00  0.00     0.029 A 
ATOM     57  C   UNL A   1      43.949  28.438  34.204  1.00  0.00     0.049 A 
ATOM     58  H   UNL A   1      42.537  29.008  32.745  1.00  0.00     0.167 HD
ATOM     59  C   UNL A   1      44.268  26.776  32.391  1.00  0.00     0.074 A 
ATOM     60  C   UNL A   1      44.903  25.614  31.805  1.00  0.00     0.031 C 
ATOM     61  C   UNL A   1      44.559  27.270  33.619  1.00  0.00     0.031 A 
BRANCH  48  62
ATOM     62  C   UNL A   1      41.232  32.206  35.270  1.00  0.00    -0.014 A 
ATOM     63  C   UNL A   1      40.158  32.034  36.163  1.00  0.00     0.010 A 
ATOM     64  C   UNL A   1      41.949  33.417  35.296  1.00  0.00     0.010 A 
ATOM     65  C   UNL A   1      39.784  33.063  37.034  1.00  0.00     0.020 A 
ATOM     66  C   UNL A   1      41.603  34.434  36.190  1.00  0.00     0.020 A 
ATOM     67  C   UNL A   1      40.504  34.260  37.034  1.00  0.00     0.054 A 
BRANCH  67  68
ATOM     68  S   UNL A   1      39.980  35.601  38.139  1.00  0.00     0.124 S 
ATOM     69  O   UNL A   1      38.799  35.028  38.779  1.00  0.00    -0.237 OA
ATOM     70  O   UNL A   1      41.144  35.777  39.003  1.00  0.00    -0.237 OA
ATOM     71  O   UNL A   1      39.718  36.713  37.227  1.00  0.00    -0.744 OA
ENDBRANCH  67  68
ENDBRANCH  48  62
BRANCH  49  72
ATOM     72  C   UNL A   1      42.831  25.399  28.104  1.00  0.00    -0.014 A 
ATOM     73  C   UNL A   1      42.284  24.115  28.277  1.00  0.00     0.010 A 
ATOM     74  C   UNL A   1      43.639  25.645  26.978  1.00  0.00     0.010 A 
ATOM     75  C   UNL A   1      42.590  23.083  27.384  1.00  0.00     0.020 A 
ATOM     76  C   UNL A   1      43.919  24.626  26.062  1.00  0.00     0.020 A 
ATOM     77  C   UNL A   1      43.418  23.342  26.290  1.00  0.00     0.054 A 
BRANCH  77  78
ATOM     78  S   UNL A   1      43.855  21.972  25.183  1.00  0.00     0.124 S 
ATOM     79  O   UNL A   1      42.759  21.036  25.419  1.00  0.00    -0.237 OA
ATOM     80  O   UNL A   1      43.864  22.613  23.871  1.00  0.00    -0.237 OA
ATOM     81  O   UNL A   1      45.162  21.539  25.670  1.00  0.00    -0.744 OA
ENDBRANCH  77  78
ENDBRANCH  49  72
BRANCH  61  82
ATOM     82  C   UNL A   1      45.593  26.560  34.454  1.00  0.00    -0.014 A 
ATOM     83  C   UNL A   1      45.180  25.581  35.378  1.00  0.00     0.010 A 
ATOM     84  C   UNL A   1      46.939  26.964  34.440  1.00  0.00     0.010 A 
ATOM     85  C   UNL A   1      46.083  25.048  36.301  1.00  0.00     0.020 A 
ATOM     86  C   UNL A   1      47.854  26.407  35.340  1.00  0.00     0.020 A 
ATOM     87  C   UNL A   1      47.413  25.474  36.282  1.00  0.00     0.054 A 
BRANCH  87  88
ATOM     88  S   UNL A   1      48.561  24.801  37.513  1.00  0.00     0.124 S 
ATOM     89  O   UNL A   1      49.305  23.816  36.735  1.00  0.00    -0.237 OA
ATOM     90  O   UNL A   1      49.317  25.981  37.926  1.00  0.00    -0.237 OA
ATOM     91  O   UNL A   1      47.678  24.248  38.539  1.00  0.00    -0.744 OA
ENDBRANCH  87  88
ENDBRANCH  61  82
ENDBRANCH  35  36
ENDBRANCH  28  30
ENDBRANCH  27  28
ENDBRANCH  26  27
ENDBRANCH   1  26
TORSDOF 18
ENDMDL
