MODEL 1
REMARK VINA RESULT:     -11.2      0.000      0.000
REMARK SMILES O=C(OCCOC(=O)C1CCN(C(=O)CSCc2ccccc2)CC1)c1ccc(-c2c3nc(c(-c4ccc(S(=O)(=O)[O-])cc4)c4ccc([nH]4)c(-c4ccc(S(=O)(=O)[O-])cc4)c4nc(c(-c5ccc(S(=O)(=O)[O-])cc5)c5ccc2[nH]5)C=C4)C=C3)cc1
REMARK SMILES IDX 5 1 4 2 3 3 2 4 1 5 26 6 27 7 85 8 28 9 84 10 29 11 30 12
REMARK SMILES IDX 31 13 78 14 32 15 83 16 77 17 79 18 33 19 82 20 76 21 75 22
REMARK SMILES IDX 34 24 64 25 45 26 63 27 46 28 49 29 62 30 80 31 47 32 48 33
REMARK SMILES IDX 61 35 81 36 50 37 35 38 36 39 44 40 37 41 43 42 38 43 39 44
REMARK SMILES IDX 40 45 41 46 42 47 65 48 66 49 74 50 67 51 73 52 68 53 69 54
REMARK SMILES IDX 70 55 71 56 72 57 51 58 52 59 60 60 53 61 59 62 54 63 55 64
REMARK SMILES IDX 56 65 57 66 58 67 6 68 7 69 8 70 9 71 10 72 25 73 11 74
REMARK SMILES IDX 24 75 12 76 13 77 14 78 15 79 16 80 17 81 18 82 19 83 23 84
REMARK SMILES IDX 20 85 22 86 21 87
REMARK H PARENT 79 23 49 34
REMARK Flexibility Score: inf
ROOT
ATOM      1  C   UNL A   1      34.075  31.936  27.632  1.00  0.00     0.274 C 
ENDROOT
BRANCH   1   2
ATOM      2  C   UNL A   1      35.107  31.812  28.759  1.00  0.00     0.275 C 
BRANCH   2   3
ATOM      3  O   UNL A   1      35.273  30.469  29.260  1.00  0.00    -0.458 OA
BRANCH   3   4
ATOM      4  C   UNL A   1      36.286  29.828  29.895  1.00  0.00     0.338 C 
ATOM      5  O   UNL A   1      36.247  29.807  31.126  1.00  0.00    -0.246 OA
BRANCH   4   6
ATOM      6  C   UNL A   1      37.526  29.256  29.249  1.00  0.00     0.060 A 
ATOM      7  C   UNL A   1      38.003  29.554  27.971  1.00  0.00     0.016 A 
ATOM      8  C   UNL A   1      38.402  28.544  30.114  1.00  0.00     0.016 A 
ATOM      9  C   UNL A   1      39.362  29.360  27.664  1.00  0.00     0.010 A 
ATOM     10  C   UNL A   1      39.760  28.339  29.803  1.00  0.00     0.010 A 
ATOM     11  C   UNL A   1      40.272  28.840  28.611  1.00  0.00    -0.014 A 
BRANCH  11  12
ATOM     12  C   UNL A   1      41.683  28.698  28.185  1.00  0.00     0.031 A 
ATOM     13  C   UNL A   1      42.065  27.373  27.624  1.00  0.00     0.074 A 
ATOM     14  C   UNL A   1      42.615  29.680  28.285  1.00  0.00     0.049 A 
ATOM     15  N   UNL A   1      43.246  26.931  27.309  1.00  0.00    -0.248 NA
ATOM     16  C   UNL A   1      40.993  26.360  27.581  1.00  0.00     0.031 C 
ATOM     17  C   UNL A   1      42.688  31.064  29.618  1.00  0.00     0.029 A 
ATOM     18  N   UNL A   1      44.160  29.908  27.293  1.00  0.00    -0.354 N 
ATOM     19  C   UNL A   1      43.076  25.575  27.098  1.00  0.00     0.074 A 
ATOM     20  C   UNL A   1      41.683  25.266  27.322  1.00  0.00     0.031 C 
ATOM     21  C   UNL A   1      44.092  31.963  29.458  1.00  0.00     0.029 A 
ATOM     22  C   UNL A   1      45.171  31.301  27.997  1.00  0.00     0.049 A 
ATOM     23  H   UNL A   1      44.411  29.370  26.508  1.00  0.00     0.167 HD
ATOM     24  C   UNL A   1      44.014  24.657  26.794  1.00  0.00     0.031 A 
ATOM     25  C   UNL A   1      46.416  31.688  27.606  1.00  0.00     0.031 A 
ATOM     26  C   UNL A   1      45.407  24.962  26.644  1.00  0.00     0.049 A 
ATOM     27  C   UNL A   1      47.257  30.521  27.097  1.00  0.00     0.074 A 
ATOM     28  C   UNL A   1      46.417  24.089  26.302  1.00  0.00     0.029 A 
ATOM     29  N   UNL A   1      45.992  26.216  26.837  1.00  0.00    -0.354 N 
ATOM     30  N   UNL A   1      46.918  29.248  26.969  1.00  0.00    -0.248 NA
ATOM     31  C   UNL A   1      48.690  30.764  26.893  1.00  0.00     0.031 C 
ATOM     32  C   UNL A   1      47.620  24.787  26.361  1.00  0.00     0.029 A 
ATOM     33  C   UNL A   1      47.359  26.127  26.631  1.00  0.00     0.049 A 
ATOM     34  H   UNL A   1      45.507  27.037  27.082  1.00  0.00     0.167 HD
ATOM     35  C   UNL A   1      48.098  28.541  26.769  1.00  0.00     0.074 A 
ATOM     36  C   UNL A   1      49.156  29.532  26.725  1.00  0.00     0.031 C 
ATOM     37  C   UNL A   1      48.327  27.203  26.674  1.00  0.00     0.031 A 
BRANCH  24  38
ATOM     38  C   UNL A   1      43.540  23.236  26.653  1.00  0.00    -0.014 A 
ATOM     39  C   UNL A   1      43.559  22.590  25.401  1.00  0.00     0.010 A 
ATOM     40  C   UNL A   1      43.062  22.540  27.777  1.00  0.00     0.010 A 
ATOM     41  C   UNL A   1      43.092  21.283  25.274  1.00  0.00     0.020 A 
ATOM     42  C   UNL A   1      42.631  21.216  27.660  1.00  0.00     0.020 A 
ATOM     43  C   UNL A   1      42.645  20.600  26.408  1.00  0.00     0.054 A 
BRANCH  43  44
ATOM     44  S   UNL A   1      42.132  18.872  26.219  1.00  0.00     0.124 S 
ATOM     45  O   UNL A   1      43.104  18.372  25.249  1.00  0.00    -0.237 OA
ATOM     46  O   UNL A   1      42.278  18.352  27.577  1.00  0.00    -0.237 OA
ATOM     47  O   UNL A   1      40.759  18.967  25.732  1.00  0.00    -0.744 OA
ENDBRANCH  43  44
ENDBRANCH  24  38
BRANCH  25  48
ATOM     48  C   UNL A   1      46.985  33.037  27.967  1.00  0.00    -0.014 A 
ATOM     49  C   UNL A   1      48.036  33.247  28.880  1.00  0.00     0.010 A 
ATOM     50  C   UNL A   1      46.489  34.194  27.363  1.00  0.00     0.010 A 
ATOM     51  C   UNL A   1      48.504  34.552  29.182  1.00  0.00     0.020 A 
ATOM     52  C   UNL A   1      46.972  35.481  27.587  1.00  0.00     0.020 A 
ATOM     53  C   UNL A   1      47.965  35.663  28.524  1.00  0.00     0.054 A 
BRANCH  53  54
ATOM     54  S   UNL A   1      48.485  37.350  28.925  1.00  0.00     0.124 S 
ATOM     55  O   UNL A   1      48.667  37.279  30.372  1.00  0.00    -0.237 OA
ATOM     56  O   UNL A   1      49.704  37.504  28.137  1.00  0.00    -0.237 OA
ATOM     57  O   UNL A   1      47.360  38.177  28.488  1.00  0.00    -0.744 OA
ENDBRANCH  53  54
ENDBRANCH  25  48
BRANCH  37  58
ATOM     58  C   UNL A   1      49.766  26.783  26.504  1.00  0.00    -0.014 A 
ATOM     59  C   UNL A   1      50.536  26.323  27.588  1.00  0.00     0.010 A 
ATOM     60  C   UNL A   1      50.312  26.762  25.208  1.00  0.00     0.010 A 
ATOM     61  C   UNL A   1      51.842  25.870  27.374  1.00  0.00     0.020 A 
ATOM     62  C   UNL A   1      51.602  26.281  24.988  1.00  0.00     0.020 A 
ATOM     63  C   UNL A   1      52.364  25.851  26.075  1.00  0.00     0.054 A 
BRANCH  63  64
ATOM     64  S   UNL A   1      54.048  25.229  25.814  1.00  0.00     0.124 S 
ATOM     65  O   UNL A   1      54.409  25.856  24.545  1.00  0.00    -0.237 OA
ATOM     66  O   UNL A   1      54.758  25.728  26.988  1.00  0.00    -0.237 OA
ATOM     67  O   UNL A   1      53.879  23.779  25.762  1.00  0.00    -0.744 OA
ENDBRANCH  63  64
ENDBRANCH  37  58
ENDBRANCH  11  12
ENDBRANCH   4   6
ENDBRANCH   3   4
ENDBRANCH   2   3
ENDBRANCH   1   2
BRANCH   1  68
ATOM     68  O   UNL A   1      33.187  30.821  27.628  1.00  0.00    -0.462 OA
BRANCH  68  69
ATOM     69  C   UNL A   1      32.452  30.500  26.521  1.00  0.00     0.309 C 
ATOM     70  O   UNL A   1      31.463  31.103  26.138  1.00  0.00    -0.252 OA
BRANCH  69  71
ATOM     71  C   UNL A   1      33.105  29.331  25.775  1.00  0.00     0.103 C 
ATOM     72  C   UNL A   1      32.593  28.994  24.372  1.00  0.00     0.037 C 
ATOM     73  C   UNL A   1      32.996  28.073  26.603  1.00  0.00     0.037 C 
ATOM     74  C   UNL A   1      31.229  28.266  24.366  1.00  0.00     0.120 C 
ATOM     75  C   UNL A   1      31.592  27.511  26.648  1.00  0.00     0.120 C 
ATOM     76  N   UNL A   1      31.216  27.146  25.320  1.00  0.00    -0.342 N 
ATOM     77  C   UNL A   1      30.794  25.862  24.968  1.00  0.00     0.232 C 
ATOM     78  O   UNL A   1      30.089  25.717  23.962  1.00  0.00    -0.274 OA
BRANCH  77  79
ATOM     79  C   UNL A   1      31.251  24.445  25.997  1.00  0.00     0.169 C 
BRANCH  79  80
ATOM     80  S   UNL A   1      33.700  23.502  26.439  1.00  0.00    -0.147 SA
BRANCH  80  81
ATOM     81  C   UNL A   1      34.990  23.381  25.061  1.00  0.00     0.105 C 
BRANCH  81  82
ATOM     82  C   UNL A   1      36.370  22.910  25.477  1.00  0.00    -0.038 A 
ATOM     83  C   UNL A   1      37.230  23.799  26.145  1.00  0.00     0.004 A 
ATOM     84  C   UNL A   1      36.844  21.622  25.186  1.00  0.00     0.004 A 
ATOM     85  C   UNL A   1      38.570  23.464  26.365  1.00  0.00     0.000 A 
ATOM     86  C   UNL A   1      38.189  21.296  25.388  1.00  0.00     0.000 A 
ATOM     87  C   UNL A   1      39.059  22.228  25.946  1.00  0.00     0.000 A 
ENDBRANCH  81  82
ENDBRANCH  80  81
ENDBRANCH  79  80
ENDBRANCH  77  79
ENDBRANCH  69  71
ENDBRANCH  68  69
ENDBRANCH   1  68
TORSDOF 18
ENDMDL
MODEL 2
REMARK VINA RESULT:     -11.1      3.332      9.605
REMARK SMILES O=C(OCCOC(=O)C1CCN(C(=O)CSCc2ccccc2)CC1)c1ccc(-c2c3nc(c(-c4ccc(S(=O)(=O)[O-])cc4)c4ccc([nH]4)c(-c4ccc(S(=O)(=O)[O-])cc4)c4nc(c(-c5ccc(S(=O)(=O)[O-])cc5)c5ccc2[nH]5)C=C4)C=C3)cc1
REMARK SMILES IDX 5 1 4 2 3 3 2 4 1 5 26 6 27 7 85 8 28 9 84 10 29 11 30 12
REMARK SMILES IDX 31 13 78 14 32 15 83 16 77 17 79 18 33 19 82 20 76 21 75 22
REMARK SMILES IDX 34 24 64 25 45 26 63 27 46 28 49 29 62 30 80 31 47 32 48 33
REMARK SMILES IDX 61 35 81 36 50 37 35 38 36 39 44 40 37 41 43 42 38 43 39 44
REMARK SMILES IDX 40 45 41 46 42 47 65 48 66 49 74 50 67 51 73 52 68 53 69 54
REMARK SMILES IDX 70 55 71 56 72 57 51 58 52 59 60 60 53 61 59 62 54 63 55 64
REMARK SMILES IDX 56 65 57 66 58 67 6 68 7 69 8 70 9 71 10 72 25 73 11 74
REMARK SMILES IDX 24 75 12 76 13 77 14 78 15 79 16 80 17 81 18 82 19 83 23 84
REMARK SMILES IDX 20 85 22 86 21 87
REMARK H PARENT 79 23 49 34
REMARK Flexibility Score: inf
ROOT
ATOM      1  C   UNL A   1      37.182  21.858  24.276  1.00  0.00     0.274 C 
ENDROOT
BRANCH   1   2
ATOM      2  C   UNL A   1      37.607  21.617  25.729  1.00  0.00     0.275 C 
BRANCH   2   3
ATOM      3  O   UNL A   1      38.984  21.212  25.881  1.00  0.00    -0.458 OA
BRANCH   3   4
ATOM      4  C   UNL A   1      40.120  21.874  26.209  1.00  0.00     0.338 C 
ATOM      5  O   UNL A   1      41.186  21.330  25.918  1.00  0.00    -0.246 OA
BRANCH   4   6
ATOM      6  C   UNL A   1      40.213  23.150  27.015  1.00  0.00     0.060 A 
ATOM      7  C   UNL A   1      41.088  23.393  28.075  1.00  0.00     0.016 A 
ATOM      8  C   UNL A   1      39.515  24.269  26.484  1.00  0.00     0.016 A 
ATOM      9  C   UNL A   1      41.423  24.715  28.421  1.00  0.00     0.010 A 
ATOM     10  C   UNL A   1      39.842  25.592  26.838  1.00  0.00     0.010 A 
ATOM     11  C   UNL A   1      40.875  25.825  27.741  1.00  0.00    -0.014 A 
BRANCH  11  12
ATOM     12  C   UNL A   1      41.314  27.169  28.176  1.00  0.00     0.031 A 
ATOM     13  C   UNL A   1      42.739  27.508  27.909  1.00  0.00     0.074 A 
ATOM     14  C   UNL A   1      40.512  28.074  28.794  1.00  0.00     0.049 A 
ATOM     15  N   UNL A   1      43.419  28.543  28.304  1.00  0.00    -0.248 NA
ATOM     16  C   UNL A   1      43.540  26.452  27.260  1.00  0.00     0.031 C 
ATOM     17  C   UNL A   1      39.029  27.691  29.957  1.00  0.00     0.029 A 
ATOM     18  N   UNL A   1      40.676  29.917  28.841  1.00  0.00    -0.354 N 
ATOM     19  C   UNL A   1      44.736  28.236  28.017  1.00  0.00     0.074 A 
ATOM     20  C   UNL A   1      44.763  26.923  27.418  1.00  0.00     0.031 C 
ATOM     21  C   UNL A   1      38.423  29.103  30.622  1.00  0.00     0.029 A 
ATOM     22  C   UNL A   1      39.422  30.639  30.009  1.00  0.00     0.049 A 
ATOM     23  H   UNL A   1      41.332  30.438  28.325  1.00  0.00     0.167 HD
ATOM     24  C   UNL A   1      45.837  28.968  28.279  1.00  0.00     0.031 A 
ATOM     25  C   UNL A   1      39.311  31.942  30.387  1.00  0.00     0.031 A 
ATOM     26  C   UNL A   1      45.806  30.241  28.940  1.00  0.00     0.049 A 
ATOM     27  C   UNL A   1      40.659  32.656  30.422  1.00  0.00     0.074 A 
ATOM     28  C   UNL A   1      46.880  31.062  29.211  1.00  0.00     0.029 A 
ATOM     29  N   UNL A   1      44.666  30.871  29.443  1.00  0.00    -0.354 N 
ATOM     30  N   UNL A   1      41.855  32.186  30.109  1.00  0.00    -0.248 NA
ATOM     31  C   UNL A   1      40.703  33.978  31.059  1.00  0.00     0.031 C 
ATOM     32  C   UNL A   1      46.409  32.149  29.943  1.00  0.00     0.029 A 
ATOM     33  C   UNL A   1      45.023  32.071  30.037  1.00  0.00     0.049 A 
ATOM     34  H   UNL A   1      43.750  30.517  29.385  1.00  0.00     0.167 HD
ATOM     35  C   UNL A   1      42.782  33.100  30.596  1.00  0.00     0.074 A 
ATOM     36  C   UNL A   1      42.009  34.188  31.165  1.00  0.00     0.031 C 
ATOM     37  C   UNL A   1      44.142  33.055  30.629  1.00  0.00     0.031 A 
BRANCH  24  38
ATOM     38  C   UNL A   1      47.155  28.364  27.878  1.00  0.00    -0.014 A 
ATOM     39  C   UNL A   1      47.907  27.603  28.794  1.00  0.00     0.010 A 
ATOM     40  C   UNL A   1      47.652  28.564  26.579  1.00  0.00     0.010 A 
ATOM     41  C   UNL A   1      49.141  27.071  28.423  1.00  0.00     0.020 A 
ATOM     42  C   UNL A   1      48.869  27.997  26.191  1.00  0.00     0.020 A 
ATOM     43  C   UNL A   1      49.607  27.259  27.119  1.00  0.00     0.054 A 
BRANCH  43  44
ATOM     44  S   UNL A   1      51.170  26.474  26.646  1.00  0.00     0.124 S 
ATOM     45  O   UNL A   1      51.464  25.653  27.820  1.00  0.00    -0.237 OA
ATOM     46  O   UNL A   1      50.798  25.735  25.442  1.00  0.00    -0.237 OA
ATOM     47  O   UNL A   1      52.075  27.600  26.432  1.00  0.00    -0.744 OA
ENDBRANCH  43  44
ENDBRANCH  24  38
BRANCH  25  48
ATOM     48  C   UNL A   1      38.057  32.487  31.022  1.00  0.00    -0.014 A 
ATOM     49  C   UNL A   1      37.758  32.420  32.396  1.00  0.00     0.010 A 
ATOM     50  C   UNL A   1      37.098  33.137  30.242  1.00  0.00     0.010 A 
ATOM     51  C   UNL A   1      36.545  32.941  32.915  1.00  0.00     0.020 A 
ATOM     52  C   UNL A   1      35.931  33.717  30.731  1.00  0.00     0.020 A 
ATOM     53  C   UNL A   1      35.639  33.592  32.071  1.00  0.00     0.054 A 
BRANCH  53  54
ATOM     54  S   UNL A   1      34.050  34.212  32.678  1.00  0.00     0.124 S 
ATOM     55  O   UNL A   1      34.465  35.173  33.695  1.00  0.00    -0.237 OA
ATOM     56  O   UNL A   1      33.448  34.778  31.475  1.00  0.00    -0.237 OA
ATOM     57  O   UNL A   1      33.383  33.018  33.198  1.00  0.00    -0.744 OA
ENDBRANCH  53  54
ENDBRANCH  25  48
BRANCH  37  58
ATOM     58  C   UNL A   1      44.831  34.225  31.289  1.00  0.00    -0.014 A 
ATOM     59  C   UNL A   1      45.217  34.189  32.641  1.00  0.00     0.010 A 
ATOM     60  C   UNL A   1      45.179  35.334  30.498  1.00  0.00     0.010 A 
ATOM     61  C   UNL A   1      45.923  35.261  33.194  1.00  0.00     0.020 A 
ATOM     62  C   UNL A   1      45.910  36.391  31.039  1.00  0.00     0.020 A 
ATOM     63  C   UNL A   1      46.266  36.354  32.388  1.00  0.00     0.054 A 
BRANCH  63  64
ATOM     64  S   UNL A   1      47.210  37.721  33.116  1.00  0.00     0.124 S 
ATOM     65  O   UNL A   1      46.679  37.766  34.475  1.00  0.00    -0.237 OA
ATOM     66  O   UNL A   1      48.589  37.258  32.993  1.00  0.00    -0.237 OA
ATOM     67  O   UNL A   1      46.865  38.867  32.277  1.00  0.00    -0.744 OA
ENDBRANCH  63  64
ENDBRANCH  37  58
ENDBRANCH  11  12
ENDBRANCH   4   6
ENDBRANCH   3   4
ENDBRANCH   2   3
ENDBRANCH   1   2
BRANCH   1  68
ATOM     68  O   UNL A   1      35.773  22.052  24.182  1.00  0.00    -0.462 OA
BRANCH  68  69
ATOM     69  C   UNL A   1      35.245  23.205  23.671  1.00  0.00     0.309 C 
ATOM     70  O   UNL A   1      34.986  23.395  22.495  1.00  0.00    -0.252 OA
BRANCH  69  71
ATOM     71  C   UNL A   1      34.933  24.189  24.804  1.00  0.00     0.103 C 
ATOM     72  C   UNL A   1      34.567  23.616  26.177  1.00  0.00     0.037 C 
ATOM     73  C   UNL A   1      33.806  25.103  24.390  1.00  0.00     0.037 C 
ATOM     74  C   UNL A   1      33.134  23.041  26.250  1.00  0.00     0.120 C 
ATOM     75  C   UNL A   1      32.459  24.413  24.360  1.00  0.00     0.120 C 
ATOM     76  N   UNL A   1      32.153  23.979  25.685  1.00  0.00    -0.342 N 
ATOM     77  C   UNL A   1      30.985  24.344  26.359  1.00  0.00     0.232 C 
ATOM     78  O   UNL A   1      30.571  23.624  27.276  1.00  0.00    -0.274 OA
BRANCH  77  79
ATOM     79  C   UNL A   1      30.082  25.834  25.865  1.00  0.00     0.169 C 
BRANCH  79  80
ATOM     80  S   UNL A   1      30.932  27.766  24.245  1.00  0.00    -0.147 SA
BRANCH  80  81
ATOM     81  C   UNL A   1      30.010  28.219  22.657  1.00  0.00     0.105 C 
BRANCH  81  82
ATOM     82  C   UNL A   1      29.413  29.612  22.604  1.00  0.00    -0.038 A 
ATOM     83  C   UNL A   1      29.554  30.465  23.713  1.00  0.00     0.004 A 
ATOM     84  C   UNL A   1      28.687  30.077  21.498  1.00  0.00     0.004 A 
ATOM     85  C   UNL A   1      28.852  31.673  23.775  1.00  0.00     0.000 A 
ATOM     86  C   UNL A   1      27.970  31.275  21.569  1.00  0.00     0.000 A 
ATOM     87  C   UNL A   1      28.026  32.056  22.721  1.00  0.00     0.000 A 
ENDBRANCH  81  82
ENDBRANCH  80  81
ENDBRANCH  79  80
ENDBRANCH  77  79
ENDBRANCH  69  71
ENDBRANCH  68  69
ENDBRANCH   1  68
TORSDOF 18
ENDMDL
MODEL 3
REMARK VINA RESULT:     -11.1      5.177      9.594
REMARK SMILES O=C(OCCOC(=O)C1CCN(C(=O)CSCc2ccccc2)CC1)c1ccc(-c2c3nc(c(-c4ccc(S(=O)(=O)[O-])cc4)c4ccc([nH]4)c(-c4ccc(S(=O)(=O)[O-])cc4)c4nc(c(-c5ccc(S(=O)(=O)[O-])cc5)c5ccc2[nH]5)C=C4)C=C3)cc1
REMARK SMILES IDX 5 1 4 2 3 3 2 4 1 5 26 6 27 7 85 8 28 9 84 10 29 11 30 12
REMARK SMILES IDX 31 13 78 14 32 15 83 16 77 17 79 18 33 19 82 20 76 21 75 22
REMARK SMILES IDX 34 24 64 25 45 26 63 27 46 28 49 29 62 30 80 31 47 32 48 33
REMARK SMILES IDX 61 35 81 36 50 37 35 38 36 39 44 40 37 41 43 42 38 43 39 44
REMARK SMILES IDX 40 45 41 46 42 47 65 48 66 49 74 50 67 51 73 52 68 53 69 54
REMARK SMILES IDX 70 55 71 56 72 57 51 58 52 59 60 60 53 61 59 62 54 63 55 64
REMARK SMILES IDX 56 65 57 66 58 67 6 68 7 69 8 70 9 71 10 72 25 73 11 74
REMARK SMILES IDX 24 75 12 76 13 77 14 78 15 79 16 80 17 81 18 82 19 83 23 84
REMARK SMILES IDX 20 85 22 86 21 87
REMARK H PARENT 79 23 49 34
REMARK Flexibility Score: inf
ROOT
ATOM      1  C   UNL A   1      32.192  29.932  26.221  1.00  0.00     0.274 C 
ENDROOT
BRANCH   1   2
ATOM      2  C   UNL A   1      32.014  31.241  26.999  1.00  0.00     0.275 C 
BRANCH   2   3
ATOM      3  O   UNL A   1      33.210  32.046  27.079  1.00  0.00    -0.458 OA
BRANCH   3   4
ATOM      4  C   UNL A   1      34.126  32.260  28.055  1.00  0.00     0.338 C 
ATOM      5  O   UNL A   1      33.889  33.168  28.853  1.00  0.00    -0.246 OA
BRANCH   4   6
ATOM      6  C   UNL A   1      35.473  31.586  28.181  1.00  0.00     0.060 A 
ATOM      7  C   UNL A   1      36.715  32.223  28.202  1.00  0.00     0.016 A 
ATOM      8  C   UNL A   1      35.446  30.214  28.553  1.00  0.00     0.016 A 
ATOM      9  C   UNL A   1      37.823  31.586  28.791  1.00  0.00     0.010 A 
ATOM     10  C   UNL A   1      36.557  29.572  29.133  1.00  0.00     0.010 A 
ATOM     11  C   UNL A   1      37.728  30.291  29.347  1.00  0.00    -0.014 A 
BRANCH  11  12
ATOM     12  C   UNL A   1      38.952  29.728  29.959  1.00  0.00     0.031 A 
ATOM     13  C   UNL A   1      39.304  30.246  31.309  1.00  0.00     0.074 A 
ATOM     14  C   UNL A   1      39.747  28.800  29.366  1.00  0.00     0.049 A 
ATOM     15  N   UNL A   1      40.382  30.037  32.007  1.00  0.00    -0.248 NA
ATOM     16  C   UNL A   1      38.399  31.272  31.861  1.00  0.00     0.031 C 
ATOM     17  C   UNL A   1      40.050  28.583  27.480  1.00  0.00     0.029 A 
ATOM     18  N   UNL A   1      40.885  27.579  30.164  1.00  0.00    -0.354 N 
ATOM     19  C   UNL A   1      40.320  30.952  33.042  1.00  0.00     0.074 A 
ATOM     20  C   UNL A   1      39.106  31.717  32.882  1.00  0.00     0.031 C 
ATOM     21  C   UNL A   1      41.224  27.421  27.201  1.00  0.00     0.029 A 
ATOM     22  C   UNL A   1      41.887  26.698  28.867  1.00  0.00     0.049 A 
ATOM     23  H   UNL A   1      40.952  27.419  31.132  1.00  0.00     0.167 HD
ATOM     24  C   UNL A   1      41.226  31.170  34.015  1.00  0.00     0.031 A 
ATOM     25  C   UNL A   1      42.902  25.816  29.076  1.00  0.00     0.031 A 
ATOM     26  C   UNL A   1      42.464  30.452  34.124  1.00  0.00     0.049 A 
ATOM     27  C   UNL A   1      43.684  26.118  30.350  1.00  0.00     0.074 A 
ATOM     28  C   UNL A   1      43.422  30.593  35.105  1.00  0.00     0.029 A 
ATOM     29  N   UNL A   1      42.925  29.483  33.231  1.00  0.00    -0.354 N 
ATOM     30  N   UNL A   1      43.478  27.070  31.244  1.00  0.00    -0.248 NA
ATOM     31  C   UNL A   1      44.951  25.402  30.545  1.00  0.00     0.031 C 
ATOM     32  C   UNL A   1      44.495  29.771  34.771  1.00  0.00     0.029 A 
ATOM     33  C   UNL A   1      44.168  29.028  33.641  1.00  0.00     0.049 A 
ATOM     34  H   UNL A   1      42.441  29.170  32.433  1.00  0.00     0.167 HD
ATOM     35  C   UNL A   1      44.619  27.129  32.035  1.00  0.00     0.074 A 
ATOM     36  C   UNL A   1      45.489  26.069  31.559  1.00  0.00     0.031 C 
ATOM     37  C   UNL A   1      44.968  27.987  33.032  1.00  0.00     0.031 A 
BRANCH  24  38
ATOM     38  C   UNL A   1      40.905  32.263  34.998  1.00  0.00    -0.014 A 
ATOM     39  C   UNL A   1      40.155  31.991  36.159  1.00  0.00     0.010 A 
ATOM     40  C   UNL A   1      41.349  33.575  34.758  1.00  0.00     0.010 A 
ATOM     41  C   UNL A   1      39.838  33.014  37.050  1.00  0.00     0.020 A 
ATOM     42  C   UNL A   1      41.068  34.595  35.671  1.00  0.00     0.020 A 
ATOM     43  C   UNL A   1      40.310  34.308  36.807  1.00  0.00     0.054 A 
BRANCH  43  44
ATOM     44  S   UNL A   1      39.957  35.592  38.035  1.00  0.00     0.124 S 
ATOM     45  O   UNL A   1      39.749  36.769  37.193  1.00  0.00    -0.237 OA
ATOM     46  O   UNL A   1      38.760  35.075  38.695  1.00  0.00    -0.237 OA
ATOM     47  O   UNL A   1      41.159  35.624  38.863  1.00  0.00    -0.744 OA
ENDBRANCH  43  44
ENDBRANCH  24  38
BRANCH  25  48
ATOM     48  C   UNL A   1      43.387  24.883  27.994  1.00  0.00    -0.014 A 
ATOM     49  C   UNL A   1      42.937  23.562  27.813  1.00  0.00     0.010 A 
ATOM     50  C   UNL A   1      44.331  25.317  27.062  1.00  0.00     0.010 A 
ATOM     51  C   UNL A   1      43.457  22.739  26.781  1.00  0.00     0.020 A 
ATOM     52  C   UNL A   1      44.810  24.557  25.998  1.00  0.00     0.020 A 
ATOM     53  C   UNL A   1      44.392  23.251  25.876  1.00  0.00     0.054 A 
BRANCH  53  54
ATOM     54  S   UNL A   1      45.130  22.218  24.585  1.00  0.00     0.124 S 
ATOM     55  O   UNL A   1      45.471  23.202  23.562  1.00  0.00    -0.237 OA
ATOM     56  O   UNL A   1      46.258  21.601  25.275  1.00  0.00    -0.237 OA
ATOM     57  O   UNL A   1      44.055  21.297  24.216  1.00  0.00    -0.744 OA
ENDBRANCH  53  54
ENDBRANCH  25  48
BRANCH  37  58
ATOM     58  C   UNL A   1      46.330  27.776  33.647  1.00  0.00    -0.014 A 
ATOM     59  C   UNL A   1      47.461  28.484  33.201  1.00  0.00     0.010 A 
ATOM     60  C   UNL A   1      46.441  26.921  34.759  1.00  0.00     0.010 A 
ATOM     61  C   UNL A   1      48.688  28.318  33.849  1.00  0.00     0.020 A 
ATOM     62  C   UNL A   1      47.656  26.778  35.426  1.00  0.00     0.020 A 
ATOM     63  C   UNL A   1      48.777  27.467  34.958  1.00  0.00     0.054 A 
BRANCH  63  64
ATOM     64  S   UNL A   1      50.370  27.289  35.805  1.00  0.00     0.124 S 
ATOM     65  O   UNL A   1      51.036  28.544  35.465  1.00  0.00    -0.237 OA
ATOM     66  O   UNL A   1      49.974  27.144  37.203  1.00  0.00    -0.237 OA
ATOM     67  O   UNL A   1      50.955  26.095  35.200  1.00  0.00    -0.744 OA
ENDBRANCH  63  64
ENDBRANCH  37  58
ENDBRANCH  11  12
ENDBRANCH   4   6
ENDBRANCH   3   4
ENDBRANCH   2   3
ENDBRANCH   1   2
BRANCH   1  68
ATOM     68  O   UNL A   1      32.595  28.875  27.089  1.00  0.00    -0.462 OA
BRANCH  68  69
ATOM     69  C   UNL A   1      32.135  27.599  26.918  1.00  0.00     0.309 C 
ATOM     70  O   UNL A   1      30.975  27.249  27.050  1.00  0.00    -0.252 OA
BRANCH  69  71
ATOM     71  C   UNL A   1      33.273  26.689  26.440  1.00  0.00     0.103 C 
ATOM     72  C   UNL A   1      34.244  27.239  25.391  1.00  0.00     0.037 C 
ATOM     73  C   UNL A   1      32.701  25.405  25.888  1.00  0.00     0.037 C 
ATOM     74  C   UNL A   1      33.653  27.290  23.963  1.00  0.00     0.120 C 
ATOM     75  C   UNL A   1      32.023  25.585  24.546  1.00  0.00     0.120 C 
ATOM     76  N   UNL A   1      33.005  26.020  23.606  1.00  0.00    -0.342 N 
ATOM     77  C   UNL A   1      33.273  25.347  22.412  1.00  0.00     0.232 C 
ATOM     78  O   UNL A   1      33.781  25.971  21.472  1.00  0.00    -0.274 OA
BRANCH  77  79
ATOM     79  C   UNL A   1      32.846  23.595  22.243  1.00  0.00     0.169 C 
BRANCH  79  80
ATOM     80  S   UNL A   1      32.132  21.921  24.184  1.00  0.00    -0.147 SA
BRANCH  80  81
ATOM     81  C   UNL A   1      33.366  20.733  24.986  1.00  0.00     0.105 C 
BRANCH  81  82
ATOM     82  C   UNL A   1      33.447  19.345  24.381  1.00  0.00    -0.038 A 
ATOM     83  C   UNL A   1      34.542  18.520  24.693  1.00  0.00     0.004 A 
ATOM     84  C   UNL A   1      32.483  18.857  23.486  1.00  0.00     0.004 A 
ATOM     85  C   UNL A   1      34.748  17.319  24.005  1.00  0.00     0.000 A 
ATOM     86  C   UNL A   1      32.701  17.667  22.784  1.00  0.00     0.000 A 
ATOM     87  C   UNL A   1      33.849  16.916  23.019  1.00  0.00     0.000 A 
ENDBRANCH  81  82
ENDBRANCH  80  81
ENDBRANCH  79  80
ENDBRANCH  77  79
ENDBRANCH  69  71
ENDBRANCH  68  69
ENDBRANCH   1  68
TORSDOF 18
ENDMDL
