MODEL 1
REMARK VINA RESULT:     -12.4      0.000      0.000
REMARK SMILES Cc1c(Cc2nc(C(C)(C)C)cs2)cccc1C(=O)OCCOC(=O)c1ccc(-c2c3nc(c(-c4ccc(S(=O)(=O)[O-])cc4)c4ccc([nH]4)c(-c4ccc(S(=O)(=O)[O-])cc4)c4nc(c(-c5ccc(S(=O)(=O)[O-])cc5)c5ccc2[nH]5)C=C4)C=C3)cc1
REMARK SMILES IDX 21 1 20 2 18 3 19 4 17 5 1 6 2 7 3 8 14 9 16 10 15 11 4 12
REMARK SMILES IDX 5 13 6 14 13 15 7 16 12 17 8 18 9 19 10 20 11 21 22 22 23 23
REMARK SMILES IDX 24 24 25 25 26 26 27 27 85 28 28 29 84 30 29 31 30 32 31 33
REMARK SMILES IDX 78 34 32 35 83 36 77 37 79 38 33 39 82 40 76 41 75 42 34 44
REMARK SMILES IDX 64 45 45 46 63 47 46 48 49 49 62 50 80 51 47 52 48 53 61 55
REMARK SMILES IDX 81 56 50 57 35 58 36 59 44 60 37 61 43 62 38 63 39 64 40 65
REMARK SMILES IDX 41 66 42 67 65 68 66 69 74 70 67 71 73 72 68 73 69 74 70 75
REMARK SMILES IDX 71 76 72 77 51 78 52 79 60 80 53 81 59 82 54 83 55 84 56 85
REMARK SMILES IDX 57 86 58 87
REMARK H PARENT 79 43 49 54
REMARK Flexibility Score: inf
ROOT
ATOM      1  C   UNL A   1      39.096  21.658  26.089  1.00  0.00     0.275 C 
ENDROOT
BRANCH   1   2
ATOM      2  O   UNL A   1      37.734  22.098  25.948  1.00  0.00    -0.458 OA
BRANCH   2   3
ATOM      3  C   UNL A   1      36.952  21.180  25.326  1.00  0.00     0.338 C 
ATOM      4  O   UNL A   1      37.336  20.134  24.853  1.00  0.00    -0.246 OA
BRANCH   3   5
ATOM      5  C   UNL A   1      35.575  21.646  25.075  1.00  0.00     0.063 A 
ATOM      6  C   UNL A   1      36.507  22.988  23.131  1.00  0.00     0.045 C 
ATOM      7  C   UNL A   1      35.350  22.435  23.927  1.00  0.00    -0.033 A 
ATOM      8  C   UNL A   1      34.021  22.677  23.522  1.00  0.00    -0.037 A 
ATOM      9  C   UNL A   1      32.959  22.101  24.252  1.00  0.00     0.004 A 
ATOM     10  C   UNL A   1      34.507  21.129  25.818  1.00  0.00     0.016 A 
ATOM     11  C   UNL A   1      33.200  21.337  25.391  1.00  0.00     0.001 A 
BRANCH   8  12
ATOM     12  C   UNL A   1      33.688  23.487  22.283  1.00  0.00     0.103 C 
BRANCH  12  13
ATOM     13  C   UNL A   1      33.121  24.831  22.618  1.00  0.00     0.097 A 
ATOM     14  N   UNL A   1      33.276  25.404  23.791  1.00  0.00    -0.245 NA
ATOM     15  S   UNL A   1      32.203  25.724  21.478  1.00  0.00    -0.127 S 
ATOM     16  C   UNL A   1      32.533  26.570  23.862  1.00  0.00     0.057 A 
ATOM     17  C   UNL A   1      31.918  26.920  22.671  1.00  0.00     0.091 A 
BRANCH  16  18
ATOM     18  C   UNL A   1      32.512  27.327  25.178  1.00  0.00     0.005 C 
ATOM     19  C   UNL A   1      31.286  26.887  25.995  1.00  0.00     0.017 C 
ATOM     20  C   UNL A   1      33.794  27.065  25.991  1.00  0.00     0.017 C 
ATOM     21  C   UNL A   1      32.420  28.850  24.933  1.00  0.00     0.017 C 
ENDBRANCH  16  18
ENDBRANCH  12  13
ENDBRANCH   8  12
ENDBRANCH   3   5
ENDBRANCH   2   3
ENDBRANCH   1   2
BRANCH   1  22
ATOM     22  C   UNL A   1      39.852  22.402  27.202  1.00  0.00     0.275 C 
BRANCH  22  23
ATOM     23  O   UNL A   1      39.554  23.795  27.454  1.00  0.00    -0.458 OA
BRANCH  23  24
ATOM     24  C   UNL A   1      40.485  24.716  27.094  1.00  0.00     0.338 C 
ATOM     25  O   UNL A   1      41.307  24.537  26.202  1.00  0.00    -0.246 OA
BRANCH  24  26
ATOM     26  C   UNL A   1      40.103  26.031  27.677  1.00  0.00     0.060 A 
ATOM     27  C   UNL A   1      39.599  26.100  28.985  1.00  0.00     0.016 A 
ATOM     28  C   UNL A   1      40.594  27.177  27.046  1.00  0.00     0.016 A 
ATOM     29  C   UNL A   1      39.716  27.279  29.714  1.00  0.00     0.010 A 
ATOM     30  C   UNL A   1      40.871  28.279  27.808  1.00  0.00     0.010 A 
ATOM     31  C   UNL A   1      40.395  28.343  29.125  1.00  0.00    -0.014 A 
BRANCH  31  32
ATOM     32  C   UNL A   1      40.361  29.703  29.623  1.00  0.00     0.031 A 
ATOM     33  C   UNL A   1      39.206  30.593  29.392  1.00  0.00     0.074 A 
ATOM     34  C   UNL A   1      41.446  29.937  30.397  1.00  0.00     0.049 A 
ATOM     35  N   UNL A   1      39.258  31.868  29.535  1.00  0.00    -0.248 NA
ATOM     36  C   UNL A   1      37.883  30.154  28.946  1.00  0.00     0.031 C 
ATOM     37  C   UNL A   1      41.793  31.001  31.317  1.00  0.00     0.029 A 
ATOM     38  N   UNL A   1      42.616  29.182  30.394  1.00  0.00    -0.354 N 
ATOM     39  C   UNL A   1      37.959  32.349  29.540  1.00  0.00     0.074 A 
ATOM     40  C   UNL A   1      37.154  31.276  29.033  1.00  0.00     0.031 C 
ATOM     41  C   UNL A   1      43.139  31.005  31.468  1.00  0.00     0.029 A 
ATOM     42  C   UNL A   1      43.698  30.012  30.546  1.00  0.00     0.049 A 
ATOM     43  H   UNL A   1      42.660  28.203  30.299  1.00  0.00     0.167 HD
ATOM     44  C   UNL A   1      37.724  33.543  30.154  1.00  0.00     0.031 A 
ATOM     45  C   UNL A   1      44.450  30.288  29.434  1.00  0.00     0.031 A 
ATOM     46  C   UNL A   1      39.002  34.121  30.564  1.00  0.00     0.049 A 
ATOM     47  C   UNL A   1      44.213  31.731  29.037  1.00  0.00     0.074 A 
ATOM     48  C   UNL A   1      39.693  34.049  31.761  1.00  0.00     0.029 A 
ATOM     49  N   UNL A   1      39.926  34.460  29.584  1.00  0.00    -0.354 N 
ATOM     50  N   UNL A   1      43.061  32.348  29.117  1.00  0.00    -0.248 NA
ATOM     51  C   UNL A   1      45.317  32.620  28.699  1.00  0.00     0.031 C 
ATOM     52  C   UNL A   1      41.075  34.209  31.460  1.00  0.00     0.029 A 
ATOM     53  C   UNL A   1      41.211  34.380  30.090  1.00  0.00     0.049 A 
ATOM     54  H   UNL A   1      39.699  34.720  28.661  1.00  0.00     0.167 HD
ATOM     55  C   UNL A   1      43.277  33.696  29.000  1.00  0.00     0.074 A 
ATOM     56  C   UNL A   1      44.697  33.810  28.697  1.00  0.00     0.031 C 
ATOM     57  C   UNL A   1      42.347  34.671  29.232  1.00  0.00     0.031 A 
BRANCH  44  58
ATOM     58  C   UNL A   1      36.393  34.055  30.665  1.00  0.00    -0.014 A 
ATOM     59  C   UNL A   1      35.404  34.388  29.712  1.00  0.00     0.010 A 
ATOM     60  C   UNL A   1      36.057  34.295  32.011  1.00  0.00     0.010 A 
ATOM     61  C   UNL A   1      34.181  34.977  30.063  1.00  0.00     0.020 A 
ATOM     62  C   UNL A   1      34.829  34.887  32.381  1.00  0.00     0.020 A 
ATOM     63  C   UNL A   1      33.903  35.233  31.400  1.00  0.00     0.054 A 
BRANCH  63  64
ATOM     64  S   UNL A   1      32.319  36.012  31.820  1.00  0.00     0.124 S 
ATOM     65  O   UNL A   1      31.653  34.969  32.597  1.00  0.00    -0.237 OA
ATOM     66  O   UNL A   1      32.736  37.189  32.575  1.00  0.00    -0.237 OA
ATOM     67  O   UNL A   1      31.713  36.294  30.519  1.00  0.00    -0.744 OA
ENDBRANCH  63  64
ENDBRANCH  44  58
BRANCH  45  68
ATOM     68  C   UNL A   1      44.690  29.125  28.497  1.00  0.00    -0.014 A 
ATOM     69  C   UNL A   1      44.225  29.253  27.163  1.00  0.00     0.010 A 
ATOM     70  C   UNL A   1      45.539  28.038  28.777  1.00  0.00     0.010 A 
ATOM     71  C   UNL A   1      44.686  28.425  26.130  1.00  0.00     0.020 A 
ATOM     72  C   UNL A   1      45.986  27.181  27.742  1.00  0.00     0.020 A 
ATOM     73  C   UNL A   1      45.585  27.403  26.419  1.00  0.00     0.054 A 
BRANCH  73  74
ATOM     74  S   UNL A   1      46.374  26.531  25.022  1.00  0.00     0.124 S 
ATOM     75  O   UNL A   1      45.411  25.473  24.731  1.00  0.00    -0.237 OA
ATOM     76  O   UNL A   1      46.468  27.587  24.016  1.00  0.00    -0.237 OA
ATOM     77  O   UNL A   1      47.648  26.084  25.581  1.00  0.00    -0.744 OA
ENDBRANCH  73  74
ENDBRANCH  45  68
BRANCH  57  78
ATOM     78  C   UNL A   1      42.483  36.081  28.725  1.00  0.00    -0.014 A 
ATOM     79  C   UNL A   1      43.228  37.058  29.397  1.00  0.00     0.010 A 
ATOM     80  C   UNL A   1      41.988  36.407  27.440  1.00  0.00     0.010 A 
ATOM     81  C   UNL A   1      43.380  38.338  28.865  1.00  0.00     0.020 A 
ATOM     82  C   UNL A   1      42.199  37.658  26.866  1.00  0.00     0.020 A 
ATOM     83  C   UNL A   1      42.858  38.631  27.607  1.00  0.00     0.054 A 
BRANCH  83  84
ATOM     84  S   UNL A   1      43.078  40.287  26.930  1.00  0.00     0.124 S 
ATOM     85  O   UNL A   1      44.093  40.053  25.905  1.00  0.00    -0.237 OA
ATOM     86  O   UNL A   1      41.744  40.614  26.430  1.00  0.00    -0.237 OA
ATOM     87  O   UNL A   1      43.515  41.073  28.080  1.00  0.00    -0.744 OA
ENDBRANCH  83  84
ENDBRANCH  57  78
ENDBRANCH  31  32
ENDBRANCH  24  26
ENDBRANCH  23  24
ENDBRANCH  22  23
ENDBRANCH   1  22
TORSDOF 17
ENDMDL
MODEL 2
REMARK VINA RESULT:     -12.1      4.406     10.949
REMARK SMILES Cc1c(Cc2nc(C(C)(C)C)cs2)cccc1C(=O)OCCOC(=O)c1ccc(-c2c3nc(c(-c4ccc(S(=O)(=O)[O-])cc4)c4ccc([nH]4)c(-c4ccc(S(=O)(=O)[O-])cc4)c4nc(c(-c5ccc(S(=O)(=O)[O-])cc5)c5ccc2[nH]5)C=C4)C=C3)cc1
REMARK SMILES IDX 21 1 20 2 18 3 19 4 17 5 1 6 2 7 3 8 14 9 16 10 15 11 4 12
REMARK SMILES IDX 5 13 6 14 13 15 7 16 12 17 8 18 9 19 10 20 11 21 22 22 23 23
REMARK SMILES IDX 24 24 25 25 26 26 27 27 85 28 28 29 84 30 29 31 30 32 31 33
REMARK SMILES IDX 78 34 32 35 83 36 77 37 79 38 33 39 82 40 76 41 75 42 34 44
REMARK SMILES IDX 64 45 45 46 63 47 46 48 49 49 62 50 80 51 47 52 48 53 61 55
REMARK SMILES IDX 81 56 50 57 35 58 36 59 44 60 37 61 43 62 38 63 39 64 40 65
REMARK SMILES IDX 41 66 42 67 65 68 66 69 74 70 67 71 73 72 68 73 69 74 70 75
REMARK SMILES IDX 71 76 72 77 51 78 52 79 60 80 53 81 59 82 54 83 55 84 56 85
REMARK SMILES IDX 57 86 58 87
REMARK H PARENT 79 43 49 54
REMARK Flexibility Score: inf
ROOT
ATOM      1  C   UNL A   1      32.277  29.523  25.787  1.00  0.00     0.275 C 
ENDROOT
BRANCH   1   2
ATOM      2  O   UNL A   1      32.623  28.502  24.836  1.00  0.00    -0.458 OA
BRANCH   2   3
ATOM      3  C   UNL A   1      31.559  28.095  24.098  1.00  0.00     0.338 C 
ATOM      4  O   UNL A   1      30.923  28.790  23.338  1.00  0.00    -0.246 OA
BRANCH   3   5
ATOM      5  C   UNL A   1      31.079  26.742  24.443  1.00  0.00     0.063 A 
ATOM      6  C   UNL A   1      32.121  25.944  22.270  1.00  0.00     0.045 C 
ATOM      7  C   UNL A   1      31.463  25.678  23.601  1.00  0.00    -0.033 A 
ATOM      8  C   UNL A   1      31.242  24.355  24.040  1.00  0.00    -0.037 A 
ATOM      9  C   UNL A   1      30.677  24.133  25.314  1.00  0.00     0.004 A 
ATOM     10  C   UNL A   1      30.469  26.504  25.680  1.00  0.00     0.016 A 
ATOM     11  C   UNL A   1      30.291  25.197  26.125  1.00  0.00     0.001 A 
BRANCH   8  12
ATOM     12  C   UNL A   1      31.652  23.150  23.213  1.00  0.00     0.103 C 
BRANCH  12  13
ATOM     13  C   UNL A   1      32.795  22.403  23.825  1.00  0.00     0.097 A 
ATOM     14  N   UNL A   1      34.006  22.902  23.929  1.00  0.00    -0.245 NA
ATOM     15  S   UNL A   1      32.601  20.810  24.430  1.00  0.00    -0.127 S 
ATOM     16  C   UNL A   1      34.886  21.944  24.405  1.00  0.00     0.057 A 
ATOM     17  C   UNL A   1      34.278  20.755  24.772  1.00  0.00     0.091 A 
BRANCH  16  18
ATOM     18  C   UNL A   1      36.355  22.309  24.505  1.00  0.00     0.005 C 
ATOM     19  C   UNL A   1      36.814  22.934  23.177  1.00  0.00     0.017 C 
ATOM     20  C   UNL A   1      36.606  23.303  25.655  1.00  0.00     0.017 C 
ATOM     21  C   UNL A   1      37.214  21.054  24.780  1.00  0.00     0.017 C 
ENDBRANCH  16  18
ENDBRANCH  12  13
ENDBRANCH   8  12
ENDBRANCH   3   5
ENDBRANCH   2   3
ENDBRANCH   1   2
BRANCH   1  22
ATOM     22  C   UNL A   1      33.108  29.443  27.078  1.00  0.00     0.275 C 
BRANCH  22  23
ATOM     23  O   UNL A   1      34.536  29.665  27.017  1.00  0.00    -0.458 OA
BRANCH  23  24
ATOM     24  C   UNL A   1      35.051  30.681  27.757  1.00  0.00     0.338 C 
ATOM     25  O   UNL A   1      34.377  31.605  28.201  1.00  0.00    -0.246 OA
BRANCH  24  26
ATOM     26  C   UNL A   1      36.412  30.293  28.217  1.00  0.00     0.060 A 
ATOM     27  C   UNL A   1      36.579  29.658  29.457  1.00  0.00     0.016 A 
ATOM     28  C   UNL A   1      37.423  30.242  27.255  1.00  0.00     0.016 A 
ATOM     29  C   UNL A   1      37.692  28.854  29.684  1.00  0.00     0.010 A 
ATOM     30  C   UNL A   1      38.423  29.322  27.401  1.00  0.00     0.010 A 
ATOM     31  C   UNL A   1      38.580  28.663  28.628  1.00  0.00    -0.014 A 
BRANCH  31  32
ATOM     32  C   UNL A   1      39.906  28.099  28.775  1.00  0.00     0.031 A 
ATOM     33  C   UNL A   1      40.176  26.666  28.551  1.00  0.00     0.074 A 
ATOM     34  C   UNL A   1      40.804  29.087  29.002  1.00  0.00     0.049 A 
ATOM     35  N   UNL A   1      41.240  26.075  28.964  1.00  0.00    -0.248 NA
ATOM     36  C   UNL A   1      39.272  25.735  27.873  1.00  0.00     0.031 C 
ATOM     37  C   UNL A   1      42.251  29.129  28.983  1.00  0.00     0.029 A 
ATOM     38  N   UNL A   1      40.495  30.370  29.445  1.00  0.00    -0.354 N 
ATOM     39  C   UNL A   1      41.314  24.843  28.336  1.00  0.00     0.074 A 
ATOM     40  C   UNL A   1      40.009  24.620  27.783  1.00  0.00     0.031 C 
ATOM     41  C   UNL A   1      42.651  30.196  29.715  1.00  0.00     0.029 A 
ATOM     42  C   UNL A   1      41.460  30.796  30.324  1.00  0.00     0.049 A 
ATOM     43  H   UNL A   1      39.707  30.892  29.170  1.00  0.00     0.167 HD
ATOM     44  C   UNL A   1      42.540  24.261  28.216  1.00  0.00     0.031 A 
ATOM     45  C   UNL A   1      41.154  30.787  31.659  1.00  0.00     0.031 A 
ATOM     46  C   UNL A   1      43.517  25.069  28.943  1.00  0.00     0.049 A 
ATOM     47  C   UNL A   1      41.947  29.681  32.328  1.00  0.00     0.074 A 
ATOM     48  C   UNL A   1      44.355  26.086  28.519  1.00  0.00     0.029 A 
ATOM     49  N   UNL A   1      43.379  25.205  30.319  1.00  0.00    -0.354 N 
ATOM     50  N   UNL A   1      42.202  28.515  31.790  1.00  0.00    -0.248 NA
ATOM     51  C   UNL A   1      42.660  29.905  33.579  1.00  0.00     0.031 C 
ATOM     52  C   UNL A   1      44.603  26.923  29.644  1.00  0.00     0.029 A 
ATOM     53  C   UNL A   1      43.919  26.408  30.736  1.00  0.00     0.049 A 
ATOM     54  H   UNL A   1      42.957  24.541  30.911  1.00  0.00     0.167 HD
ATOM     55  C   UNL A   1      43.198  27.909  32.511  1.00  0.00     0.074 A 
ATOM     56  C   UNL A   1      43.418  28.798  33.643  1.00  0.00     0.031 C 
ATOM     57  C   UNL A   1      43.868  26.776  32.141  1.00  0.00     0.031 A 
BRANCH  44  58
ATOM     58  C   UNL A   1      42.941  23.182  27.231  1.00  0.00    -0.014 A 
ATOM     59  C   UNL A   1      42.403  21.888  27.413  1.00  0.00     0.010 A 
ATOM     60  C   UNL A   1      43.859  23.324  26.172  1.00  0.00     0.010 A 
ATOM     61  C   UNL A   1      42.791  20.790  26.634  1.00  0.00     0.020 A 
ATOM     62  C   UNL A   1      44.259  22.227  25.378  1.00  0.00     0.020 A 
ATOM     63  C   UNL A   1      43.727  20.963  25.624  1.00  0.00     0.054 A 
BRANCH  63  64
ATOM     64  S   UNL A   1      44.222  19.517  24.646  1.00  0.00     0.124 S 
ATOM     65  O   UNL A   1      45.379  19.018  25.386  1.00  0.00    -0.237 OA
ATOM     66  O   UNL A   1      43.030  18.676  24.700  1.00  0.00    -0.237 OA
ATOM     67  O   UNL A   1      44.527  20.074  23.329  1.00  0.00    -0.744 OA
ENDBRANCH  63  64
ENDBRANCH  44  58
BRANCH  45  68
ATOM     68  C   UNL A   1      39.753  31.231  32.017  1.00  0.00    -0.014 A 
ATOM     69  C   UNL A   1      39.240  30.826  33.276  1.00  0.00     0.010 A 
ATOM     70  C   UNL A   1      39.020  32.201  31.309  1.00  0.00     0.010 A 
ATOM     71  C   UNL A   1      38.130  31.450  33.864  1.00  0.00     0.020 A 
ATOM     72  C   UNL A   1      37.881  32.815  31.886  1.00  0.00     0.020 A 
ATOM     73  C   UNL A   1      37.467  32.461  33.175  1.00  0.00     0.054 A 
BRANCH  73  74
ATOM     74  S   UNL A   1      36.212  33.435  34.077  1.00  0.00     0.124 S 
ATOM     75  O   UNL A   1      36.485  33.084  35.467  1.00  0.00    -0.237 OA
ATOM     76  O   UNL A   1      36.555  34.803  33.696  1.00  0.00    -0.237 OA
ATOM     77  O   UNL A   1      34.949  32.935  33.539  1.00  0.00    -0.744 OA
ENDBRANCH  73  74
ENDBRANCH  45  68
BRANCH  57  78
ATOM     78  C   UNL A   1      44.652  25.927  33.104  1.00  0.00    -0.014 A 
ATOM     79  C   UNL A   1      44.041  25.112  34.066  1.00  0.00     0.010 A 
ATOM     80  C   UNL A   1      46.052  25.803  32.938  1.00  0.00     0.010 A 
ATOM     81  C   UNL A   1      44.800  24.293  34.901  1.00  0.00     0.020 A 
ATOM     82  C   UNL A   1      46.810  24.932  33.716  1.00  0.00     0.020 A 
ATOM     83  C   UNL A   1      46.180  24.215  34.725  1.00  0.00     0.054 A 
BRANCH  83  84
ATOM     84  S   UNL A   1      47.142  23.139  35.805  1.00  0.00     0.124 S 
ATOM     85  O   UNL A   1      46.519  21.841  35.557  1.00  0.00    -0.237 OA
ATOM     86  O   UNL A   1      48.501  23.291  35.289  1.00  0.00    -0.237 OA
ATOM     87  O   UNL A   1      46.921  23.700  37.134  1.00  0.00    -0.744 OA
ENDBRANCH  83  84
ENDBRANCH  57  78
ENDBRANCH  31  32
ENDBRANCH  24  26
ENDBRANCH  23  24
ENDBRANCH  22  23
ENDBRANCH   1  22
TORSDOF 17
ENDMDL
MODEL 3
REMARK VINA RESULT:     -12.0      4.889     11.514
REMARK SMILES Cc1c(Cc2nc(C(C)(C)C)cs2)cccc1C(=O)OCCOC(=O)c1ccc(-c2c3nc(c(-c4ccc(S(=O)(=O)[O-])cc4)c4ccc([nH]4)c(-c4ccc(S(=O)(=O)[O-])cc4)c4nc(c(-c5ccc(S(=O)(=O)[O-])cc5)c5ccc2[nH]5)C=C4)C=C3)cc1
REMARK SMILES IDX 21 1 20 2 18 3 19 4 17 5 1 6 2 7 3 8 14 9 16 10 15 11 4 12
REMARK SMILES IDX 5 13 6 14 13 15 7 16 12 17 8 18 9 19 10 20 11 21 22 22 23 23
REMARK SMILES IDX 24 24 25 25 26 26 27 27 85 28 28 29 84 30 29 31 30 32 31 33
REMARK SMILES IDX 78 34 32 35 83 36 77 37 79 38 33 39 82 40 76 41 75 42 34 44
REMARK SMILES IDX 64 45 45 46 63 47 46 48 49 49 62 50 80 51 47 52 48 53 61 55
REMARK SMILES IDX 81 56 50 57 35 58 36 59 44 60 37 61 43 62 38 63 39 64 40 65
REMARK SMILES IDX 41 66 42 67 65 68 66 69 74 70 67 71 73 72 68 73 69 74 70 75
REMARK SMILES IDX 71 76 72 77 51 78 52 79 60 80 53 81 59 82 54 83 55 84 56 85
REMARK SMILES IDX 57 86 58 87
REMARK H PARENT 79 43 49 54
REMARK Flexibility Score: inf
ROOT
ATOM      1  C   UNL A   1      33.975  28.598  26.711  1.00  0.00     0.275 C 
ENDROOT
BRANCH   1   2
ATOM      2  O   UNL A   1      34.034  28.070  25.375  1.00  0.00    -0.458 OA
BRANCH   2   3
ATOM      3  C   UNL A   1      33.063  27.154  25.132  1.00  0.00     0.338 C 
ATOM      4  O   UNL A   1      32.029  27.045  25.753  1.00  0.00    -0.246 OA
BRANCH   3   5
ATOM      5  C   UNL A   1      33.449  26.125  24.148  1.00  0.00     0.063 A 
ATOM      6  C   UNL A   1      34.766  25.006  26.008  1.00  0.00     0.045 C 
ATOM      7  C   UNL A   1      34.185  25.016  24.616  1.00  0.00    -0.033 A 
ATOM      8  C   UNL A   1      34.344  23.902  23.764  1.00  0.00    -0.037 A 
ATOM      9  C   UNL A   1      33.742  23.915  22.488  1.00  0.00     0.004 A 
ATOM     10  C   UNL A   1      32.906  26.142  22.858  1.00  0.00     0.016 A 
ATOM     11  C   UNL A   1      33.032  25.025  22.038  1.00  0.00     0.001 A 
BRANCH   8  12
ATOM     12  C   UNL A   1      35.092  22.655  24.197  1.00  0.00     0.103 C 
BRANCH  12  13
ATOM     13  C   UNL A   1      34.168  21.539  24.572  1.00  0.00     0.097 A 
ATOM     14  N   UNL A   1      34.421  20.277  24.308  1.00  0.00    -0.245 NA
ATOM     15  S   UNL A   1      32.684  21.839  25.376  1.00  0.00    -0.127 S 
ATOM     16  C   UNL A   1      33.336  19.485  24.643  1.00  0.00     0.057 A 
ATOM     17  C   UNL A   1      32.315  20.169  25.280  1.00  0.00     0.091 A 
BRANCH  16  18
ATOM     18  C   UNL A   1      33.407  18.003  24.323  1.00  0.00     0.005 C 
ATOM     19  C   UNL A   1      32.579  17.221  25.358  1.00  0.00     0.017 C 
ATOM     20  C   UNL A   1      32.871  17.711  22.909  1.00  0.00     0.017 C 
ATOM     21  C   UNL A   1      34.867  17.499  24.380  1.00  0.00     0.017 C 
ENDBRANCH  16  18
ENDBRANCH  12  13
ENDBRANCH   8  12
ENDBRANCH   3   5
ENDBRANCH   2   3
ENDBRANCH   1   2
BRANCH   1  22
ATOM     22  C   UNL A   1      35.028  29.687  26.971  1.00  0.00     0.275 C 
BRANCH  22  23
ATOM     23  O   UNL A   1      35.612  29.811  28.288  1.00  0.00    -0.458 OA
BRANCH  23  24
ATOM     24  C   UNL A   1      36.600  30.726  28.459  1.00  0.00     0.338 C 
ATOM     25  O   UNL A   1      36.410  31.938  28.460  1.00  0.00    -0.246 OA
BRANCH  24  26
ATOM     26  C   UNL A   1      37.806  30.032  28.988  1.00  0.00     0.060 A 
ATOM     27  C   UNL A   1      37.662  28.915  29.826  1.00  0.00     0.016 A 
ATOM     28  C   UNL A   1      39.022  30.284  28.349  1.00  0.00     0.016 A 
ATOM     29  C   UNL A   1      38.683  27.975  29.915  1.00  0.00     0.010 A 
ATOM     30  C   UNL A   1      39.954  29.285  28.292  1.00  0.00     0.010 A 
ATOM     31  C   UNL A   1      39.802  28.154  29.106  1.00  0.00    -0.014 A 
BRANCH  31  32
ATOM     32  C   UNL A   1      41.051  27.439  29.277  1.00  0.00     0.031 A 
ATOM     33  C   UNL A   1      41.228  26.051  28.809  1.00  0.00     0.074 A 
ATOM     34  C   UNL A   1      41.992  28.270  29.783  1.00  0.00     0.049 A 
ATOM     35  N   UNL A   1      42.182  25.288  29.207  1.00  0.00    -0.248 NA
ATOM     36  C   UNL A   1      40.339  25.359  27.874  1.00  0.00     0.031 C 
ATOM     37  C   UNL A   1      43.430  28.166  29.922  1.00  0.00     0.029 A 
ATOM     38  N   UNL A   1      41.738  29.475  30.432  1.00  0.00    -0.354 N 
ATOM     39  C   UNL A   1      42.230  24.191  28.364  1.00  0.00     0.074 A 
ATOM     40  C   UNL A   1      40.988  24.208  27.646  1.00  0.00     0.031 C 
ATOM     41  C   UNL A   1      43.824  29.034  30.884  1.00  0.00     0.029 A 
ATOM     42  C   UNL A   1      42.621  29.631  31.471  1.00  0.00     0.049 A 
ATOM     43  H   UNL A   1      41.034  30.117  30.183  1.00  0.00     0.167 HD
ATOM     44  C   UNL A   1      43.411  23.517  28.261  1.00  0.00     0.031 A 
ATOM     45  C   UNL A   1      42.156  29.409  32.740  1.00  0.00     0.031 A 
ATOM     46  C   UNL A   1      44.355  24.073  29.227  1.00  0.00     0.049 A 
ATOM     47  C   UNL A   1      42.769  28.124  33.261  1.00  0.00     0.074 A 
ATOM     48  C   UNL A   1      45.318  25.059  29.097  1.00  0.00     0.029 A 
ATOM     49  N   UNL A   1      44.063  23.969  30.581  1.00  0.00    -0.354 N 
ATOM     50  N   UNL A   1      42.992  27.056  32.536  1.00  0.00    -0.248 NA
ATOM     51  C   UNL A   1      43.342  28.040  34.598  1.00  0.00     0.031 C 
ATOM     52  C   UNL A   1      45.496  25.646  30.382  1.00  0.00     0.029 A 
ATOM     53  C   UNL A   1      44.645  25.012  31.277  1.00  0.00     0.049 A 
ATOM     54  H   UNL A   1      43.519  23.255  30.987  1.00  0.00     0.167 HD
ATOM     55  C   UNL A   1      43.840  26.229  33.225  1.00  0.00     0.074 A 
ATOM     56  C   UNL A   1      43.993  26.868  34.525  1.00  0.00     0.031 C 
ATOM     57  C   UNL A   1      44.454  25.120  32.714  1.00  0.00     0.031 A 
BRANCH  44  58
ATOM     58  C   UNL A   1      43.838  22.602  27.132  1.00  0.00    -0.014 A 
ATOM     59  C   UNL A   1      42.982  21.530  26.791  1.00  0.00     0.010 A 
ATOM     60  C   UNL A   1      45.050  22.673  26.418  1.00  0.00     0.010 A 
ATOM     61  C   UNL A   1      43.328  20.556  25.844  1.00  0.00     0.020 A 
ATOM     62  C   UNL A   1      45.412  21.700  25.461  1.00  0.00     0.020 A 
ATOM     63  C   UNL A   1      44.549  20.641  25.189  1.00  0.00     0.054 A 
BRANCH  63  64
ATOM     64  S   UNL A   1      44.975  19.354  23.982  1.00  0.00     0.124 S 
ATOM     65  O   UNL A   1      46.428  19.268  24.114  1.00  0.00    -0.237 OA
ATOM     66  O   UNL A   1      44.229  18.200  24.474  1.00  0.00    -0.237 OA
ATOM     67  O   UNL A   1      44.503  19.899  22.710  1.00  0.00    -0.744 OA
ENDBRANCH  63  64
ENDBRANCH  44  58
BRANCH  45  68
ATOM     68  C   UNL A   1      40.763  29.923  33.031  1.00  0.00    -0.014 A 
ATOM     69  C   UNL A   1      40.538  31.317  32.894  1.00  0.00     0.010 A 
ATOM     70  C   UNL A   1      39.630  29.104  33.191  1.00  0.00     0.010 A 
ATOM     71  C   UNL A   1      39.248  31.856  32.786  1.00  0.00     0.020 A 
ATOM     72  C   UNL A   1      38.325  29.648  33.112  1.00  0.00     0.020 A 
ATOM     73  C   UNL A   1      38.143  31.015  32.872  1.00  0.00     0.054 A 
BRANCH  73  74
ATOM     74  S   UNL A   1      36.505  31.702  32.451  1.00  0.00     0.124 S 
ATOM     75  O   UNL A   1      35.797  30.532  31.940  1.00  0.00    -0.237 OA
ATOM     76  O   UNL A   1      36.040  32.200  33.744  1.00  0.00    -0.237 OA
ATOM     77  O   UNL A   1      36.815  32.730  31.460  1.00  0.00    -0.744 OA
ENDBRANCH  73  74
ENDBRANCH  45  68
BRANCH  57  78
ATOM     78  C   UNL A   1      45.044  24.033  33.570  1.00  0.00    -0.014 A 
ATOM     79  C   UNL A   1      44.345  22.864  33.897  1.00  0.00     0.010 A 
ATOM     80  C   UNL A   1      46.412  24.096  33.927  1.00  0.00     0.010 A 
ATOM     81  C   UNL A   1      44.947  21.852  34.643  1.00  0.00     0.020 A 
ATOM     82  C   UNL A   1      47.044  23.058  34.606  1.00  0.00     0.020 A 
ATOM     83  C   UNL A   1      46.290  21.959  34.999  1.00  0.00     0.054 A 
BRANCH  83  84
ATOM     84  S   UNL A   1      47.055  20.632  35.950  1.00  0.00     0.124 S 
ATOM     85  O   UNL A   1      46.148  19.519  35.682  1.00  0.00    -0.237 OA
ATOM     86  O   UNL A   1      48.381  20.522  35.346  1.00  0.00    -0.237 OA
ATOM     87  O   UNL A   1      47.041  21.139  37.319  1.00  0.00    -0.744 OA
ENDBRANCH  83  84
ENDBRANCH  57  78
ENDBRANCH  31  32
ENDBRANCH  24  26
ENDBRANCH  23  24
ENDBRANCH  22  23
ENDBRANCH   1  22
TORSDOF 17
ENDMDL
